MODEL 1
REMARK VINA RESULT:      -9.4      0.000      0.000
REMARK  12 active torsions:
REMARK  status: ('A' for Active; 'I' for Inactive)
REMARK    1  A    between atoms: C3_3  and  O4_4 
REMARK    2  A    between atoms: C8_8  and  C9_9 
REMARK       I    between atoms: C9_9  and  N11_11 
REMARK    3  A    between atoms: N11_11  and  C12_12 
REMARK    4  A    between atoms: C12_12  and  C14_13 
REMARK    5  A    between atoms: C12_12  and  C22_21 
REMARK    6  A    between atoms: C14_13  and  S15_14 
REMARK    7  A    between atoms: S15_14  and  C16_15 
REMARK    8  A    between atoms: C22_21  and  O24_22 
REMARK    9  A    between atoms: C22_21  and  C25_23 
REMARK   10  A    between atoms: C25_23  and  N26_24 
REMARK   11  A    between atoms: C38_34  and  C40_35 
REMARK       I    between atoms: C40_35  and  N42_37 
REMARK   12  A    between atoms: N42_37  and  C43_38 
ROOT
ATOM      1  C22 ZIN A   1      19.451  -1.179  11.424  0.00  0.00     0.167 C 
ENDROOT
BRANCH   1   2
ATOM      2  C12 ZIN A   1      19.830  -0.202  12.538  0.00  0.00     0.124 C 
BRANCH   2   3
ATOM      3  N11 ZIN A   1      18.894   0.926  12.539  0.00  0.00    -0.349 N 
ATOM      4  C9  ZIN A   1      19.339   2.170  12.273  0.00  0.00     0.252 C 
ATOM      5  O10 ZIN A   1      20.515   2.357  12.033  0.00  0.00    -0.268 OA
ATOM      6  H54 ZIN A   1      17.955   0.776  12.731  0.00  0.00     0.163 HD
BRANCH   4   7
ATOM      7  C8  ZIN A   1      18.394   3.307  12.274  0.00  0.00     0.040 A 
ATOM      8  C2  ZIN A   1      17.957   3.856  11.067  0.00  0.00    -0.013 A 
ATOM      9  C1  ZIN A   1      18.442   3.286   9.759  0.00  0.00     0.052 C 
ATOM     10  C3  ZIN A   1      17.073   4.921  11.076  0.00  0.00     0.072 A 
ATOM     11  C5  ZIN A   1      16.627   5.445  12.282  0.00  0.00     0.037 A 
ATOM     12  C6  ZIN A   1      17.063   4.905  13.478  0.00  0.00     0.004 A 
ATOM     13  C7  ZIN A   1      17.944   3.844  13.482  0.00  0.00     0.018 A 
BRANCH  10  14
ATOM     14  O4  ZIN A   1      16.641   5.454   9.902  0.00  0.00    -0.360 OA
ATOM     15  H50 ZIN A   1      17.117   5.132   9.125  0.00  0.00     0.217 HD
ENDBRANCH  10  14
ENDBRANCH   4   7
ENDBRANCH   2   3
BRANCH   2  16
ATOM     16  C14 ZIN A   1      19.766  -0.919  13.888  0.00  0.00     0.107 C 
BRANCH  16  17
ATOM     17  S15 ZIN A   1      18.127  -0.672  14.627  0.00  0.00    -0.128 SA
BRANCH  17  18
ATOM     18  C16 ZIN A   1      18.492   0.174  16.129  0.00  0.00     0.000 A 
ATOM     19  C21 ZIN A   1      18.944   1.487  16.096  0.00  0.00     0.018 A 
ATOM     20  C20 ZIN A   1      19.223   2.150  17.275  0.00  0.00     0.001 A 
ATOM     21  C19 ZIN A   1      19.065   1.503  18.487  0.00  0.00     0.000 A 
ATOM     22  C18 ZIN A   1      18.620   0.194  18.523  0.00  0.00     0.001 A 
ATOM     23  C17 ZIN A   1      18.334  -0.473  17.349  0.00  0.00     0.018 A 
ENDBRANCH  17  18
ENDBRANCH  16  17
ENDBRANCH   2  16
ENDBRANCH   1   2
BRANCH   1  24
ATOM     24  O24 ZIN A   1      19.914  -2.488  11.761  0.00  0.00    -0.392 OA
ATOM     25  H62 ZIN A   1      20.860  -2.533  11.953  0.00  0.00     0.210 HD
ENDBRANCH   1  24
BRANCH   1  26
ATOM     26  C25 ZIN A   1      20.096  -0.732  10.111  0.00  0.00     0.269 C 
BRANCH  26  27
ATOM     27  N26 ZIN A   1      19.075  -0.132   9.243  0.00  0.00    -0.055 N 
ATOM     28  H27 ZIN A   1      18.760   0.737   9.648  0.00  0.00     0.281 HD
ATOM     29  C38 ZIN A   1      17.938  -1.052   9.118  0.00  0.00     0.279 C 
ATOM     30  C37 ZIN A   1      16.838  -0.388   8.283  0.00  0.00     0.048 C 
ATOM     31  C35 ZIN A   1      17.391  -0.086   6.886  0.00  0.00    -0.006 C 
ATOM     32  C29 ZIN A   1      18.613   0.823   7.036  0.00  0.00     0.016 C 
ATOM     33  C34 ZIN A   1      17.795  -1.393   6.217  0.00  0.00     0.005 C 
ATOM     34  C28 ZIN A   1      19.652   0.131   7.918  0.00  0.00     0.241 C 
ATOM     35  C31 ZIN A   1      19.210   1.109   5.658  0.00  0.00     0.007 C 
ATOM     36  C32 ZIN A   1      19.617  -0.205   4.991  0.00  0.00     0.000 C 
ATOM     37  C33 ZIN A   1      18.384  -1.098   4.838  0.00  0.00     0.000 C 
BRANCH  29  38
ATOM     38  C40 ZIN A   1      18.371  -2.332   8.451  0.00  0.00     0.249 C 
ATOM     39  O41 ZIN A   1      19.442  -2.390   7.886  0.00  0.00    -0.271 OA
ATOM     40  N42 ZIN A   1      17.566  -3.413   8.482  0.00  0.00    -0.351 N 
ATOM     41  H77 ZIN A   1      16.710  -3.367   8.933  0.00  0.00     0.163 HD
BRANCH  40  42
ATOM     42  C43 ZIN A   1      17.987  -4.657   7.833  0.00  0.00     0.022 C 
ATOM     43  C44 ZIN A   1      18.149  -4.419   6.330  0.00  0.00     0.037 C 
ATOM     44  C45 ZIN A   1      19.323  -5.114   8.424  0.00  0.00     0.037 C 
ATOM     45  C46 ZIN A   1      16.931  -5.738   8.067  0.00  0.00     0.037 C 
ENDBRANCH  40  42
ENDBRANCH  29  38
ENDBRANCH  26  27
ENDBRANCH   1  26
TORSDOF 12
ENDMDL
MODEL 2
REMARK VINA RESULT:      -9.2      1.853      8.095
REMARK  12 active torsions:
REMARK  status: ('A' for Active; 'I' for Inactive)
REMARK    1  A    between atoms: C3_3  and  O4_4 
REMARK    2  A    between atoms: C8_8  and  C9_9 
REMARK       I    between atoms: C9_9  and  N11_11 
REMARK    3  A    between atoms: N11_11  and  C12_12 
REMARK    4  A    between atoms: C12_12  and  C14_13 
REMARK    5  A    between atoms: C12_12  and  C22_21 
REMARK    6  A    between atoms: C14_13  and  S15_14 
REMARK    7  A    between atoms: S15_14  and  C16_15 
REMARK    8  A    between atoms: C22_21  and  O24_22 
REMARK    9  A    between atoms: C22_21  and  C25_23 
REMARK   10  A    between atoms: C25_23  and  N26_24 
REMARK   11  A    between atoms: C38_34  and  C40_35 
REMARK       I    between atoms: C40_35  and  N42_37 
REMARK   12  A    between atoms: N42_37  and  C43_38 
ROOT
ATOM      1  C22 ZIN A   1      19.423  -0.946  11.854  0.00  0.00     0.167 C 
ENDROOT
BRANCH   1   2
ATOM      2  C12 ZIN A   1      19.071  -2.030  10.834  0.00  0.00     0.124 C 
BRANCH   2   3
ATOM      3  N11 ZIN A   1      19.393  -1.556   9.485  0.00  0.00    -0.349 N 
ATOM      4  C9  ZIN A   1      18.404  -1.297   8.608  0.00  0.00     0.252 C 
ATOM      5  O10 ZIN A   1      17.244  -1.458   8.934  0.00  0.00    -0.268 OA
ATOM      6  H54 ZIN A   1      20.319  -1.428   9.225  0.00  0.00     0.163 HD
BRANCH   4   7
ATOM      7  C8  ZIN A   1      18.729  -0.819   7.247  0.00  0.00     0.040 A 
ATOM      8  C2  ZIN A   1      18.972  -1.734   6.222  0.00  0.00    -0.013 A 
ATOM      9  C1  ZIN A   1      18.898  -3.214   6.497  0.00  0.00     0.052 C 
ATOM     10  C3  ZIN A   1      19.277  -1.278   4.951  0.00  0.00     0.072 A 
ATOM     11  C5  ZIN A   1      19.345   0.085   4.699  0.00  0.00     0.037 A 
ATOM     12  C6  ZIN A   1      19.109   0.993   5.715  0.00  0.00     0.004 A 
ATOM     13  C7  ZIN A   1      18.806   0.550   6.986  0.00  0.00     0.018 A 
BRANCH  10  14
ATOM     14  O4  ZIN A   1      19.509  -2.167   3.949  0.00  0.00    -0.360 OA
ATOM     15  H50 ZIN A   1      18.828  -2.847   3.861  0.00  0.00     0.217 HD
ENDBRANCH  10  14
ENDBRANCH   4   7
ENDBRANCH   2   3
BRANCH   2  16
ATOM     16  C14 ZIN A   1      19.877  -3.295  11.136  0.00  0.00     0.107 C 
BRANCH  16  17
ATOM     17  S15 ZIN A   1      18.756  -4.605  11.701  0.00  0.00    -0.128 SA
BRANCH  17  18
ATOM     18  C16 ZIN A   1      18.060  -5.207  10.198  0.00  0.00     0.000 A 
ATOM     19  C21 ZIN A   1      18.839  -5.947   9.317  0.00  0.00     0.018 A 
ATOM     20  C20 ZIN A   1      18.288  -6.423   8.143  0.00  0.00     0.001 A 
ATOM     21  C19 ZIN A   1      16.967  -6.152   7.838  0.00  0.00     0.000 A 
ATOM     22  C18 ZIN A   1      16.190  -5.411   8.710  0.00  0.00     0.001 A 
ATOM     23  C17 ZIN A   1      16.732  -4.937   9.888  0.00  0.00     0.018 A 
ENDBRANCH  17  18
ENDBRANCH  16  17
ENDBRANCH   2  16
ENDBRANCH   1   2
BRANCH   1  24
ATOM     24  O24 ZIN A   1      19.554  -1.535  13.149  0.00  0.00    -0.392 OA
ATOM     25  H62 ZIN A   1      19.965  -2.410  13.143  0.00  0.00     0.210 HD
ENDBRANCH   1  24
BRANCH   1  26
ATOM     26  C25 ZIN A   1      18.314   0.108  11.883  0.00  0.00     0.269 C 
BRANCH  26  27
ATOM     27  N26 ZIN A   1      18.850   1.396  11.423  0.00  0.00    -0.055 N 
ATOM     28  H27 ZIN A   1      19.370   1.256  10.569  0.00  0.00     0.281 HD
ATOM     29  C38 ZIN A   1      19.739   1.949  12.451  0.00  0.00     0.279 C 
ATOM     30  C37 ZIN A   1      20.364   3.249  11.933  0.00  0.00     0.048 C 
ATOM     31  C35 ZIN A   1      19.245   4.257  11.646  0.00  0.00    -0.006 C 
ATOM     32  C29 ZIN A   1      18.290   3.640  10.621  0.00  0.00     0.016 C 
ATOM     33  C34 ZIN A   1      18.498   4.551  12.940  0.00  0.00     0.005 C 
ATOM     34  C28 ZIN A   1      17.740   2.324  11.170  0.00  0.00     0.241 C 
ATOM     35  C31 ZIN A   1      17.141   4.609  10.346  0.00  0.00     0.007 C 
ATOM     36  C32 ZIN A   1      16.391   4.900  11.646  0.00  0.00     0.000 C 
ATOM     37  C33 ZIN A   1      17.354   5.526  12.657  0.00  0.00     0.000 C 
BRANCH  29  38
ATOM     38  C40 ZIN A   1      18.969   2.231  13.715  0.00  0.00     0.249 C 
ATOM     39  O41 ZIN A   1      17.760   2.145  13.720  0.00  0.00    -0.271 OA
ATOM     40  N42 ZIN A   1      19.625   2.580  14.840  0.00  0.00    -0.351 N 
ATOM     41  H77 ZIN A   1      20.592   2.649  14.835  0.00  0.00     0.163 HD
BRANCH  40  42
ATOM     42  C43 ZIN A   1      18.875   2.854  16.068  0.00  0.00     0.022 C 
ATOM     43  C44 ZIN A   1      17.765   3.865  15.773  0.00  0.00     0.037 C 
ATOM     44  C45 ZIN A   1      18.257   1.555  16.589  0.00  0.00     0.037 C 
ATOM     45  C46 ZIN A   1      19.820   3.428  17.125  0.00  0.00     0.037 C 
ENDBRANCH  40  42
ENDBRANCH  29  38
ENDBRANCH  26  27
ENDBRANCH   1  26
TORSDOF 12
ENDMDL
MODEL 3
REMARK VINA RESULT:      -9.2      2.095      4.345
REMARK  12 active torsions:
REMARK  status: ('A' for Active; 'I' for Inactive)
REMARK    1  A    between atoms: C3_3  and  O4_4 
REMARK    2  A    between atoms: C8_8  and  C9_9 
REMARK       I    between atoms: C9_9  and  N11_11 
REMARK    3  A    between atoms: N11_11  and  C12_12 
REMARK    4  A    between atoms: C12_12  and  C14_13 
REMARK    5  A    between atoms: C12_12  and  C22_21 
REMARK    6  A    between atoms: C14_13  and  S15_14 
REMARK    7  A    between atoms: S15_14  and  C16_15 
REMARK    8  A    between atoms: C22_21  and  O24_22 
REMARK    9  A    between atoms: C22_21  and  C25_23 
REMARK   10  A    between atoms: C25_23  and  N26_24 
REMARK   11  A    between atoms: C38_34  and  C40_35 
REMARK       I    between atoms: C40_35  and  N42_37 
REMARK   12  A    between atoms: N42_37  and  C43_38 
ROOT
ATOM      1  C22 ZIN A   1      20.780   0.148  12.271  0.00  0.00     0.167 C 
ENDROOT
BRANCH   1   2
ATOM      2  C12 ZIN A   1      19.743   1.251  12.488  0.00  0.00     0.124 C 
BRANCH   2   3
ATOM      3  N11 ZIN A   1      19.710   1.619  13.906  0.00  0.00    -0.349 N 
ATOM      4  C9  ZIN A   1      18.548   1.575  14.587  0.00  0.00     0.252 C 
ATOM      5  O10 ZIN A   1      17.527   1.231  14.025  0.00  0.00    -0.268 OA
ATOM      6  H54 ZIN A   1      20.526   1.894  14.354  0.00  0.00     0.163 HD
BRANCH   4   7
ATOM      7  C8  ZIN A   1      18.516   1.946  16.018  0.00  0.00     0.040 A 
ATOM      8  C2  ZIN A   1      18.351   0.961  16.993  0.00  0.00    -0.013 A 
ATOM      9  C1  ZIN A   1      18.211  -0.484  16.591  0.00  0.00     0.052 C 
ATOM     10  C3  ZIN A   1      18.321   1.316  18.330  0.00  0.00     0.072 A 
ATOM     11  C5  ZIN A   1      18.450   2.648  18.700  0.00  0.00     0.037 A 
ATOM     12  C6  ZIN A   1      18.609   3.626  17.734  0.00  0.00     0.004 A 
ATOM     13  C7  ZIN A   1      18.639   3.284  16.398  0.00  0.00     0.018 A 
BRANCH  10  14
ATOM     14  O4  ZIN A   1      18.166   0.359  19.284  0.00  0.00    -0.360 OA
ATOM     15  H50 ZIN A   1      18.942   0.235  19.846  0.00  0.00     0.217 HD
ENDBRANCH  10  14
ENDBRANCH   4   7
ENDBRANCH   2   3
BRANCH   2  16
ATOM     16  C14 ZIN A   1      20.119   2.476  11.652  0.00  0.00     0.107 C 
BRANCH  16  17
ATOM     17  S15 ZIN A   1      18.635   3.470  11.333  0.00  0.00    -0.128 SA
BRANCH  17  18
ATOM     18  C16 ZIN A   1      18.663   4.655  12.637  0.00  0.00     0.000 A 
ATOM     19  C21 ZIN A   1      17.474   5.184  13.122  0.00  0.00     0.018 A 
ATOM     20  C20 ZIN A   1      17.500   6.108  14.149  0.00  0.00     0.001 A 
ATOM     21  C19 ZIN A   1      18.707   6.515  14.684  0.00  0.00     0.000 A 
ATOM     22  C18 ZIN A   1      19.893   5.994  14.200  0.00  0.00     0.001 A 
ATOM     23  C17 ZIN A   1      19.876   5.066  13.178  0.00  0.00     0.018 A 
ENDBRANCH  17  18
ENDBRANCH  16  17
ENDBRANCH   2  16
ENDBRANCH   1   2
BRANCH   1  24
ATOM     24  O24 ZIN A   1      22.074   0.734  12.117  0.00  0.00    -0.392 OA
ATOM     25  H62 ZIN A   1      22.120   1.410  11.427  0.00  0.00     0.210 HD
ENDBRANCH   1  24
BRANCH   1  26
ATOM     26  C25 ZIN A   1      20.426  -0.644  11.010  0.00  0.00     0.269 C 
BRANCH  26  27
ATOM     27  N26 ZIN A   1      19.316   0.018  10.312  0.00  0.00    -0.055 N 
ATOM     28  H27 ZIN A   1      19.116   0.898  10.761  0.00  0.00     0.281 HD
ATOM     29  C38 ZIN A   1      18.125  -0.840  10.366  0.00  0.00     0.279 C 
ATOM     30  C37 ZIN A   1      16.946  -0.110   9.714  0.00  0.00     0.048 C 
ATOM     31  C35 ZIN A   1      17.290   0.173   8.247  0.00  0.00    -0.006 C 
ATOM     32  C29 ZIN A   1      18.569   1.013   8.204  0.00  0.00     0.016 C 
ATOM     33  C34 ZIN A   1      17.513  -1.149   7.524  0.00  0.00     0.005 C 
ATOM     34  C28 ZIN A   1      19.693   0.259   8.913  0.00  0.00     0.241 C 
ATOM     35  C31 ZIN A   1      18.958   1.278   6.750  0.00  0.00     0.007 C 
ATOM     36  C32 ZIN A   1      19.184  -0.051   6.028  0.00  0.00     0.000 C 
ATOM     37  C33 ZIN A   1      17.895  -0.875   6.069  0.00  0.00     0.000 C 
BRANCH  29  38
ATOM     38  C40 ZIN A   1      18.378  -2.136   9.641  0.00  0.00     0.249 C 
ATOM     39  O41 ZIN A   1      19.353  -2.253   8.930  0.00  0.00    -0.271 OA
ATOM     40  N42 ZIN A   1      17.520  -3.165   9.782  0.00  0.00    -0.351 N 
ATOM     41  H77 ZIN A   1      16.740  -3.072  10.350  0.00  0.00     0.163 HD
BRANCH  40  42
ATOM     42  C43 ZIN A   1      17.766  -4.425   9.076  0.00  0.00     0.022 C 
ATOM     43  C44 ZIN A   1      18.923  -5.168   9.747  0.00  0.00     0.037 C 
ATOM     44  C45 ZIN A   1      16.505  -5.291   9.126  0.00  0.00     0.037 C 
ATOM     45  C46 ZIN A   1      18.125  -4.131   7.618  0.00  0.00     0.037 C 
ENDBRANCH  40  42
ENDBRANCH  29  38
ENDBRANCH  26  27
ENDBRANCH   1  26
TORSDOF 12
ENDMDL
MODEL 4
REMARK VINA RESULT:      -9.1      1.804      4.328
REMARK  12 active torsions:
REMARK  status: ('A' for Active; 'I' for Inactive)
REMARK    1  A    between atoms: C3_3  and  O4_4 
REMARK    2  A    between atoms: C8_8  and  C9_9 
REMARK       I    between atoms: C9_9  and  N11_11 
REMARK    3  A    between atoms: N11_11  and  C12_12 
REMARK    4  A    between atoms: C12_12  and  C14_13 
REMARK    5  A    between atoms: C12_12  and  C22_21 
REMARK    6  A    between atoms: C14_13  and  S15_14 
REMARK    7  A    between atoms: S15_14  and  C16_15 
REMARK    8  A    between atoms: C22_21  and  O24_22 
REMARK    9  A    between atoms: C22_21  and  C25_23 
REMARK   10  A    between atoms: C25_23  and  N26_24 
REMARK   11  A    between atoms: C38_34  and  C40_35 
REMARK       I    between atoms: C40_35  and  N42_37 
REMARK   12  A    between atoms: N42_37  and  C43_38 
ROOT
ATOM      1  C22 ZIN A   1      19.419  -0.569  11.202  0.00  0.00     0.167 C 
ENDROOT
BRANCH   1   2
ATOM      2  C12 ZIN A   1      19.111   0.674  12.040  0.00  0.00     0.124 C 
BRANCH   2   3
ATOM      3  N11 ZIN A   1      19.379   0.390  13.452  0.00  0.00    -0.349 N 
ATOM      4  C9  ZIN A   1      18.453   0.684  14.386  0.00  0.00     0.252 C 
ATOM      5  O10 ZIN A   1      17.396   1.184  14.057  0.00  0.00    -0.268 OA
ATOM      6  H54 ZIN A   1      20.224  -0.009  13.714  0.00  0.00     0.163 HD
BRANCH   4   7
ATOM      7  C8  ZIN A   1      18.724   0.397  15.811  0.00  0.00     0.040 A 
ATOM      8  C2  ZIN A   1      19.064   1.433  16.681  0.00  0.00    -0.013 A 
ATOM      9  C1  ZIN A   1      19.151   2.849  16.174  0.00  0.00     0.052 C 
ATOM     10  C3  ZIN A   1      19.316   1.156  18.014  0.00  0.00     0.072 A 
ATOM     11  C5  ZIN A   1      19.236  -0.149  18.481  0.00  0.00     0.037 A 
ATOM     12  C6  ZIN A   1      18.904  -1.177  17.618  0.00  0.00     0.004 A 
ATOM     13  C7  ZIN A   1      18.651  -0.913  16.288  0.00  0.00     0.018 A 
BRANCH  10  14
ATOM     14  O4  ZIN A   1      19.642   2.163  18.867  0.00  0.00    -0.360 OA
ATOM     15  H50 ZIN A   1      20.594   2.290  18.980  0.00  0.00     0.217 HD
ENDBRANCH  10  14
ENDBRANCH   4   7
ENDBRANCH   2   3
BRANCH   2  16
ATOM     16  C14 ZIN A   1      19.996   1.833  11.576  0.00  0.00     0.107 C 
BRANCH  16  17
ATOM     17  S15 ZIN A   1      18.952   3.168  10.928  0.00  0.00    -0.128 SA
BRANCH  17  18
ATOM     18  C16 ZIN A   1      18.816   4.267  12.299  0.00  0.00     0.000 A 
ATOM     19  C21 ZIN A   1      17.570   4.551  12.842  0.00  0.00     0.018 A 
ATOM     20  C20 ZIN A   1      17.467   5.407  13.921  0.00  0.00     0.001 A 
ATOM     21  C19 ZIN A   1      18.603   5.990  14.453  0.00  0.00     0.000 A 
ATOM     22  C18 ZIN A   1      19.845   5.714  13.911  0.00  0.00     0.001 A 
ATOM     23  C17 ZIN A   1      19.956   4.855  12.836  0.00  0.00     0.018 A 
ENDBRANCH  17  18
ENDBRANCH  16  17
ENDBRANCH   2  16
ENDBRANCH   1   2
BRANCH   1  24
ATOM     24  O24 ZIN A   1      20.327  -1.411  11.914  0.00  0.00    -0.392 OA
ATOM     25  H62 ZIN A   1      20.653  -1.028  12.740  0.00  0.00     0.210 HD
ENDBRANCH   1  24
BRANCH   1  26
ATOM     26  C25 ZIN A   1      20.051  -0.145   9.874  0.00  0.00     0.269 C 
BRANCH  26  27
ATOM     27  N26 ZIN A   1      18.994   0.247   8.932  0.00  0.00    -0.055 N 
ATOM     28  H27 ZIN A   1      18.583   1.118   9.234  0.00  0.00     0.281 HD
ATOM     29  C38 ZIN A   1      17.960  -0.794   8.899  0.00  0.00     0.279 C 
ATOM     30  C37 ZIN A   1      16.818  -0.343   7.982  0.00  0.00     0.048 C 
ATOM     31  C35 ZIN A   1      17.369  -0.142   6.565  0.00  0.00    -0.006 C 
ATOM     32  C29 ZIN A   1      18.490   0.899   6.627  0.00  0.00     0.016 C 
ATOM     33  C34 ZIN A   1      17.919  -1.467   6.053  0.00  0.00     0.005 C 
ATOM     34  C28 ZIN A   1      19.573   0.419   7.594  0.00  0.00     0.241 C 
ATOM     35  C31 ZIN A   1      19.086   1.091   5.233  0.00  0.00     0.007 C 
ATOM     36  C32 ZIN A   1      19.640  -0.240   4.723  0.00  0.00     0.000 C 
ATOM     37  C33 ZIN A   1      18.507  -1.267   4.656  0.00  0.00     0.000 C 
BRANCH  29  38
ATOM     38  C40 ZIN A   1      18.535  -2.089   8.385  0.00  0.00     0.249 C 
ATOM     39  O41 ZIN A   1      19.660  -2.116   7.932  0.00  0.00    -0.271 OA
ATOM     40  N42 ZIN A   1      17.799  -3.217   8.429  0.00  0.00    -0.351 N 
ATOM     41  H77 ZIN A   1      16.900  -3.195   8.790  0.00  0.00     0.163 HD
BRANCH  40  42
ATOM     42  C43 ZIN A   1      18.359  -4.475   7.928  0.00  0.00     0.022 C 
ATOM     43  C44 ZIN A   1      19.173  -5.147   9.036  0.00  0.00     0.037 C 
ATOM     44  C45 ZIN A   1      17.220  -5.403   7.498  0.00  0.00     0.037 C 
ATOM     45  C46 ZIN A   1      19.265  -4.190   6.730  0.00  0.00     0.037 C 
ENDBRANCH  40  42
ENDBRANCH  29  38
ENDBRANCH  26  27
ENDBRANCH   1  26
TORSDOF 12
ENDMDL
MODEL 5
REMARK VINA RESULT:      -9.1      2.153      5.522
REMARK  12 active torsions:
REMARK  status: ('A' for Active; 'I' for Inactive)
REMARK    1  A    between atoms: C3_3  and  O4_4 
REMARK    2  A    between atoms: C8_8  and  C9_9 
REMARK       I    between atoms: C9_9  and  N11_11 
REMARK    3  A    between atoms: N11_11  and  C12_12 
REMARK    4  A    between atoms: C12_12  and  C14_13 
REMARK    5  A    between atoms: C12_12  and  C22_21 
REMARK    6  A    between atoms: C14_13  and  S15_14 
REMARK    7  A    between atoms: S15_14  and  C16_15 
REMARK    8  A    between atoms: C22_21  and  O24_22 
REMARK    9  A    between atoms: C22_21  and  C25_23 
REMARK   10  A    between atoms: C25_23  and  N26_24 
REMARK   11  A    between atoms: C38_34  and  C40_35 
REMARK       I    between atoms: C40_35  and  N42_37 
REMARK   12  A    between atoms: N42_37  and  C43_38 
ROOT
ATOM      1  C22 ZIN A   1      19.369  -2.605  11.770  0.00  0.00     0.167 C 
ENDROOT
BRANCH   1   2
ATOM      2  C12 ZIN A   1      19.387  -1.090  11.985  0.00  0.00     0.124 C 
BRANCH   2   3
ATOM      3  N11 ZIN A   1      19.644  -0.800  13.398  0.00  0.00    -0.349 N 
ATOM      4  C9  ZIN A   1      18.626  -0.453  14.211  0.00  0.00     0.252 C 
ATOM      5  O10 ZIN A   1      17.496  -0.381  13.772  0.00  0.00    -0.268 OA
ATOM      6  H54 ZIN A   1      20.547  -0.857  13.747  0.00  0.00     0.163 HD
BRANCH   4   7
ATOM      7  C8  ZIN A   1      18.886  -0.161  15.636  0.00  0.00     0.040 A 
ATOM      8  C2  ZIN A   1      19.052   1.158  16.062  0.00  0.00    -0.013 A 
ATOM      9  C1  ZIN A   1      18.962   2.289  15.070  0.00  0.00     0.052 C 
ATOM     10  C3  ZIN A   1      19.296   1.423  17.398  0.00  0.00     0.072 A 
ATOM     11  C5  ZIN A   1      19.379   0.381  18.311  0.00  0.00     0.037 A 
ATOM     12  C6  ZIN A   1      19.219  -0.927  17.890  0.00  0.00     0.004 A 
ATOM     13  C7  ZIN A   1      18.977  -1.204  16.560  0.00  0.00     0.018 A 
BRANCH  10  14
ATOM     14  O4  ZIN A   1      19.453   2.707  17.818  0.00  0.00    -0.360 OA
ATOM     15  H50 ZIN A   1      19.203   3.369  17.159  0.00  0.00     0.217 HD
ENDBRANCH  10  14
ENDBRANCH   4   7
ENDBRANCH   2   3
BRANCH   2  16
ATOM     16  C14 ZIN A   1      20.490  -0.467  11.127  0.00  0.00     0.107 C 
BRANCH  16  17
ATOM     17  S15 ZIN A   1      19.745   0.383   9.707  0.00  0.00    -0.128 SA
BRANCH  17  18
ATOM     18  C16 ZIN A   1      19.258   1.935  10.385  0.00  0.00     0.000 A 
ATOM     19  C21 ZIN A   1      18.121   2.576   9.911  0.00  0.00     0.018 A 
ATOM     20  C20 ZIN A   1      17.739   3.789  10.449  0.00  0.00     0.001 A 
ATOM     21  C19 ZIN A   1      18.493   4.372  11.450  0.00  0.00     0.000 A 
ATOM     22  C18 ZIN A   1      19.629   3.739  11.921  0.00  0.00     0.001 A 
ATOM     23  C17 ZIN A   1      20.015   2.524  11.392  0.00  0.00     0.018 A 
ENDBRANCH  17  18
ENDBRANCH  16  17
ENDBRANCH   2  16
ENDBRANCH   1   2
BRANCH   1  24
ATOM     24  O24 ZIN A   1      20.655  -3.037  11.321  0.00  0.00    -0.392 OA
ATOM     25  H62 ZIN A   1      21.137  -3.573  11.965  0.00  0.00     0.210 HD
ENDBRANCH   1  24
BRANCH   1  26
ATOM     26  C25 ZIN A   1      18.316  -2.958  10.718  0.00  0.00     0.269 C 
BRANCH  26  27
ATOM     27  N26 ZIN A   1      18.709  -4.194  10.027  0.00  0.00    -0.055 N 
ATOM     28  H27 ZIN A   1      19.243  -4.774  10.657  0.00  0.00     0.281 HD
ATOM     29  C38 ZIN A   1      19.532  -3.858   8.859  0.00  0.00     0.279 C 
ATOM     30  C37 ZIN A   1      20.013  -5.151   8.190  0.00  0.00     0.048 C 
ATOM     31  C35 ZIN A   1      18.791  -5.952   7.726  0.00  0.00    -0.006 C 
ATOM     32  C29 ZIN A   1      17.910  -6.239   8.945  0.00  0.00     0.016 C 
ATOM     33  C34 ZIN A   1      18.014  -5.130   6.707  0.00  0.00     0.005 C 
ATOM     34  C28 ZIN A   1      17.506  -4.918   9.599  0.00  0.00     0.241 C 
ATOM     35  C31 ZIN A   1      16.663  -7.005   8.506  0.00  0.00     0.007 C 
ATOM     36  C32 ZIN A   1      15.884  -6.175   7.484  0.00  0.00     0.000 C 
ATOM     37  C33 ZIN A   1      16.772  -5.905   6.268  0.00  0.00     0.000 C 
BRANCH  29  38
ATOM     38  C40 ZIN A   1      18.734  -3.048   7.870  0.00  0.00     0.249 C 
ATOM     39  O41 ZIN A   1      17.529  -2.972   7.981  0.00  0.00    -0.271 OA
ATOM     40  N42 ZIN A   1      19.360  -2.409   6.862  0.00  0.00    -0.351 N 
ATOM     41  H77 ZIN A   1      20.323  -2.470   6.774  0.00  0.00     0.163 HD
BRANCH  40  42
ATOM     42  C43 ZIN A   1      18.583  -1.622   5.901  0.00  0.00     0.022 C 
ATOM     43  C44 ZIN A   1      17.837  -2.565   4.955  0.00  0.00     0.037 C 
ATOM     44  C45 ZIN A   1      17.574  -0.750   6.653  0.00  0.00     0.037 C 
ATOM     45  C46 ZIN A   1      19.526  -0.728   5.093  0.00  0.00     0.037 C 
ENDBRANCH  40  42
ENDBRANCH  29  38
ENDBRANCH  26  27
ENDBRANCH   1  26
TORSDOF 12
ENDMDL
MODEL 6
REMARK VINA RESULT:      -9.0      2.128      8.533
REMARK  12 active torsions:
REMARK  status: ('A' for Active; 'I' for Inactive)
REMARK    1  A    between atoms: C3_3  and  O4_4 
REMARK    2  A    between atoms: C8_8  and  C9_9 
REMARK       I    between atoms: C9_9  and  N11_11 
REMARK    3  A    between atoms: N11_11  and  C12_12 
REMARK    4  A    between atoms: C12_12  and  C14_13 
REMARK    5  A    between atoms: C12_12  and  C22_21 
REMARK    6  A    between atoms: C14_13  and  S15_14 
REMARK    7  A    between atoms: S15_14  and  C16_15 
REMARK    8  A    between atoms: C22_21  and  O24_22 
REMARK    9  A    between atoms: C22_21  and  C25_23 
REMARK   10  A    between atoms: C25_23  and  N26_24 
REMARK   11  A    between atoms: C38_34  and  C40_35 
REMARK       I    between atoms: C40_35  and  N42_37 
REMARK   12  A    between atoms: N42_37  and  C43_38 
ROOT
ATOM      1  C22 ZIN A   1      20.747  -0.170  10.877  0.00  0.00     0.167 C 
ENDROOT
BRANCH   1   2
ATOM      2  C12 ZIN A   1      19.695  -1.256  10.648  0.00  0.00     0.124 C 
BRANCH   2   3
ATOM      3  N11 ZIN A   1      19.675  -1.628   9.231  0.00  0.00    -0.349 N 
ATOM      4  C9  ZIN A   1      18.528  -1.545   8.528  0.00  0.00     0.252 C 
ATOM      5  O10 ZIN A   1      17.510  -1.164   9.070  0.00  0.00    -0.268 OA
ATOM      6  H54 ZIN A   1      20.489  -1.933   8.799  0.00  0.00     0.163 HD
BRANCH   4   7
ATOM      7  C8  ZIN A   1      18.510  -1.920   7.098  0.00  0.00     0.040 A 
ATOM      8  C2  ZIN A   1      18.458  -0.930   6.116  0.00  0.00    -0.013 A 
ATOM      9  C1  ZIN A   1      18.428   0.524   6.509  0.00  0.00     0.052 C 
ATOM     10  C3  ZIN A   1      18.441  -1.288   4.779  0.00  0.00     0.072 A 
ATOM     11  C5  ZIN A   1      18.469  -2.628   4.417  0.00  0.00     0.037 A 
ATOM     12  C6  ZIN A   1      18.514  -3.610   5.390  0.00  0.00     0.004 A 
ATOM     13  C7  ZIN A   1      18.532  -3.265   6.725  0.00  0.00     0.018 A 
BRANCH  10  14
ATOM     14  O4  ZIN A   1      18.396  -0.326   3.819  0.00  0.00    -0.360 OA
ATOM     15  H50 ZIN A   1      17.536  -0.242   3.386  0.00  0.00     0.217 HD
ENDBRANCH  10  14
ENDBRANCH   4   7
ENDBRANCH   2   3
BRANCH   2  16
ATOM     16  C14 ZIN A   1      20.039  -2.485  11.492  0.00  0.00     0.107 C 
BRANCH  16  17
ATOM     17  S15 ZIN A   1      18.524  -3.421  11.845  0.00  0.00    -0.128 SA
BRANCH  17  18
ATOM     18  C16 ZIN A   1      18.501  -4.633  10.566  0.00  0.00     0.000 A 
ATOM     19  C21 ZIN A   1      17.297  -5.193  10.160  0.00  0.00     0.018 A 
ATOM     20  C20 ZIN A   1      17.281  -6.138   9.153  0.00  0.00     0.001 A 
ATOM     21  C19 ZIN A   1      18.464  -6.536   8.558  0.00  0.00     0.000 A 
ATOM     22  C18 ZIN A   1      19.666  -5.984   8.963  0.00  0.00     0.001 A 
ATOM     23  C17 ZIN A   1      19.688  -5.035   9.965  0.00  0.00     0.018 A 
ENDBRANCH  17  18
ENDBRANCH  16  17
ENDBRANCH   2  16
ENDBRANCH   1   2
BRANCH   1  24
ATOM     24  O24 ZIN A   1      22.051  -0.749  10.815  0.00  0.00    -0.392 OA
ATOM     25  H62 ZIN A   1      22.171  -1.371  10.084  0.00  0.00     0.210 HD
ENDBRANCH   1  24
BRANCH   1  26
ATOM     26  C25 ZIN A   1      20.535   0.464  12.254  0.00  0.00     0.269 C 
BRANCH  26  27
ATOM     27  N26 ZIN A   1      19.361  -0.142  12.896  0.00  0.00    -0.055 N 
ATOM     28  H27 ZIN A   1      19.101  -0.979  12.397  0.00  0.00     0.281 HD
ATOM     29  C38 ZIN A   1      18.244   0.810  12.866  0.00  0.00     0.279 C 
ATOM     30  C37 ZIN A   1      16.996   0.146  13.458  0.00  0.00     0.048 C 
ATOM     31  C35 ZIN A   1      17.284  -0.240  14.913  0.00  0.00    -0.006 C 
ATOM     32  C29 ZIN A   1      18.491  -1.181  14.934  0.00  0.00     0.016 C 
ATOM     33  C34 ZIN A   1      17.595   1.021  15.709  0.00  0.00     0.005 C 
ATOM     34  C28 ZIN A   1      19.687  -0.484  14.286  0.00  0.00     0.241 C 
ATOM     35  C31 ZIN A   1      18.826  -1.551  16.379  0.00  0.00     0.007 C 
ATOM     36  C32 ZIN A   1      19.140  -0.284  17.174  0.00  0.00     0.000 C 
ATOM     37  C33 ZIN A   1      17.922   0.642  17.154  0.00  0.00     0.000 C 
BRANCH  29  38
ATOM     38  C40 ZIN A   1      18.583   2.043  13.664  0.00  0.00     0.249 C 
ATOM     39  O41 ZIN A   1      19.548   2.044  14.398  0.00  0.00    -0.271 OA
ATOM     40  N42 ZIN A   1      17.813   3.144  13.562  0.00  0.00    -0.351 N 
ATOM     41  H77 ZIN A   1      17.041   3.143  12.975  0.00  0.00     0.163 HD
BRANCH  40  42
ATOM     42  C43 ZIN A   1      18.143   4.342  14.338  0.00  0.00     0.022 C 
ATOM     43  C44 ZIN A   1      16.924   5.265  14.394  0.00  0.00     0.037 C 
ATOM     44  C45 ZIN A   1      18.539   3.934  15.759  0.00  0.00     0.037 C 
ATOM     45  C46 ZIN A   1      19.309   5.076  13.675  0.00  0.00     0.037 C 
ENDBRANCH  40  42
ENDBRANCH  29  38
ENDBRANCH  26  27
ENDBRANCH   1  26
TORSDOF 12
ENDMDL
MODEL 7
REMARK VINA RESULT:      -8.9      2.254      9.289
REMARK  12 active torsions:
REMARK  status: ('A' for Active; 'I' for Inactive)
REMARK    1  A    between atoms: C3_3  and  O4_4 
REMARK    2  A    between atoms: C8_8  and  C9_9 
REMARK       I    between atoms: C9_9  and  N11_11 
REMARK    3  A    between atoms: N11_11  and  C12_12 
REMARK    4  A    between atoms: C12_12  and  C14_13 
REMARK    5  A    between atoms: C12_12  and  C22_21 
REMARK    6  A    between atoms: C14_13  and  S15_14 
REMARK    7  A    between atoms: S15_14  and  C16_15 
REMARK    8  A    between atoms: C22_21  and  O24_22 
REMARK    9  A    between atoms: C22_21  and  C25_23 
REMARK   10  A    between atoms: C25_23  and  N26_24 
REMARK   11  A    between atoms: C38_34  and  C40_35 
REMARK       I    between atoms: C40_35  and  N42_37 
REMARK   12  A    between atoms: N42_37  and  C43_38 
ROOT
ATOM      1  C22 ZIN A   1      19.481   1.157  11.567  0.00  0.00     0.167 C 
ENDROOT
BRANCH   1   2
ATOM      2  C12 ZIN A   1      19.858   0.227  10.413  0.00  0.00     0.124 C 
BRANCH   2   3
ATOM      3  N11 ZIN A   1      18.870  -0.850  10.311  0.00  0.00    -0.349 N 
ATOM      4  C9  ZIN A   1      19.221  -2.116  10.611  0.00  0.00     0.252 C 
ATOM      5  O10 ZIN A   1      20.355  -2.365  10.968  0.00  0.00    -0.268 OA
ATOM      6  H54 ZIN A   1      17.965  -0.651  10.025  0.00  0.00     0.163 HD
BRANCH   4   7
ATOM      7  C8  ZIN A   1      18.224  -3.203  10.508  0.00  0.00     0.040 A 
ATOM      8  C2  ZIN A   1      17.860  -3.704   9.257  0.00  0.00    -0.013 A 
ATOM      9  C1  ZIN A   1      18.487  -3.143   8.008  0.00  0.00     0.052 C 
ATOM     10  C3  ZIN A   1      16.926  -4.721   9.169  0.00  0.00     0.072 A 
ATOM     11  C5  ZIN A   1      16.349  -5.238  10.321  0.00  0.00     0.037 A 
ATOM     12  C6  ZIN A   1      16.704  -4.739  11.561  0.00  0.00     0.004 A 
ATOM     13  C7  ZIN A   1      17.634  -3.725  11.661  0.00  0.00     0.018 A 
BRANCH  10  14
ATOM     14  O4  ZIN A   1      16.573  -5.215   7.953  0.00  0.00    -0.360 OA
ATOM     15  H50 ZIN A   1      16.686  -4.588   7.226  0.00  0.00     0.217 HD
ENDBRANCH  10  14
ENDBRANCH   4   7
ENDBRANCH   2   3
BRANCH   2  16
ATOM     16  C14 ZIN A   1      19.883   1.022   9.106  0.00  0.00     0.107 C 
BRANCH  16  17
ATOM     17  S15 ZIN A   1      18.187   1.243   8.499  0.00  0.00    -0.128 SA
BRANCH  17  18
ATOM     18  C16 ZIN A   1      18.245   0.526   6.890  0.00  0.00     0.000 A 
ATOM     19  C21 ZIN A   1      17.198  -0.269   6.445  0.00  0.00     0.018 A 
ATOM     20  C20 ZIN A   1      17.243  -0.824   5.180  0.00  0.00     0.001 A 
ATOM     21  C19 ZIN A   1      18.335  -0.598   4.364  0.00  0.00     0.000 A 
ATOM     22  C18 ZIN A   1      19.383   0.190   4.806  0.00  0.00     0.001 A 
ATOM     23  C17 ZIN A   1      19.342   0.752   6.067  0.00  0.00     0.018 A 
ENDBRANCH  17  18
ENDBRANCH  16  17
ENDBRANCH   2  16
ENDBRANCH   1   2
BRANCH   1  24
ATOM     24  O24 ZIN A   1      19.984   2.469  11.306  0.00  0.00    -0.392 OA
ATOM     25  H62 ZIN A   1      20.670   2.499  10.625  0.00  0.00     0.210 HD
ENDBRANCH   1  24
BRANCH   1  26
ATOM     26  C25 ZIN A   1      20.088   0.628  12.868  0.00  0.00     0.269 C 
BRANCH  26  27
ATOM     27  N26 ZIN A   1      19.040  -0.017  13.671  0.00  0.00    -0.055 N 
ATOM     28  H27 ZIN A   1      18.664  -0.802  13.160  0.00  0.00     0.281 HD
ATOM     29  C38 ZIN A   1      17.968   0.949  13.940  0.00  0.00     0.279 C 
ATOM     30  C37 ZIN A   1      16.837   0.250  14.702  0.00  0.00     0.048 C 
ATOM     31  C35 ZIN A   1      17.386  -0.270  16.035  0.00  0.00    -0.006 C 
ATOM     32  C29 ZIN A   1      18.545  -1.226  15.741  0.00  0.00     0.016 C 
ATOM     33  C34 ZIN A   1      17.883   0.908  16.862  0.00  0.00     0.005 C 
ATOM     34  C28 ZIN A   1      19.616  -0.489  14.936  0.00  0.00     0.241 C 
ATOM     35  C31 ZIN A   1      19.138  -1.731  17.056  0.00  0.00     0.007 C 
ATOM     36  C32 ZIN A   1      19.639  -0.545  17.882  0.00  0.00     0.000 C 
ATOM     37  C33 ZIN A   1      18.468   0.395  18.178  0.00  0.00     0.000 C 
BRANCH  29  38
ATOM     38  C40 ZIN A   1      18.491   2.098  14.761  0.00  0.00     0.249 C 
ATOM     39  O41 ZIN A   1      19.573   2.014  15.303  0.00  0.00    -0.271 OA
ATOM     40  N42 ZIN A   1      17.757   3.221  14.893  0.00  0.00    -0.351 N 
ATOM     41  H77 ZIN A   1      16.893   3.289  14.459  0.00  0.00     0.163 HD
BRANCH  40  42
ATOM     42  C43 ZIN A   1      18.267   4.338  15.692  0.00  0.00     0.022 C 
ATOM     43  C44 ZIN A   1      18.580   3.851  17.108  0.00  0.00     0.037 C 
ATOM     44  C45 ZIN A   1      19.542   4.887  15.047  0.00  0.00     0.037 C 
ATOM     45  C46 ZIN A   1      17.211   5.444  15.754  0.00  0.00     0.037 C 
ENDBRANCH  40  42
ENDBRANCH  29  38
ENDBRANCH  26  27
ENDBRANCH   1  26
TORSDOF 12
ENDMDL
MODEL 8
REMARK VINA RESULT:      -8.9      1.892      3.875
REMARK  12 active torsions:
REMARK  status: ('A' for Active; 'I' for Inactive)
REMARK    1  A    between atoms: C3_3  and  O4_4 
REMARK    2  A    between atoms: C8_8  and  C9_9 
REMARK       I    between atoms: C9_9  and  N11_11 
REMARK    3  A    between atoms: N11_11  and  C12_12 
REMARK    4  A    between atoms: C12_12  and  C14_13 
REMARK    5  A    between atoms: C12_12  and  C22_21 
REMARK    6  A    between atoms: C14_13  and  S15_14 
REMARK    7  A    between atoms: S15_14  and  C16_15 
REMARK    8  A    between atoms: C22_21  and  O24_22 
REMARK    9  A    between atoms: C22_21  and  C25_23 
REMARK   10  A    between atoms: C25_23  and  N26_24 
REMARK   11  A    between atoms: C38_34  and  C40_35 
REMARK       I    between atoms: C40_35  and  N42_37 
REMARK   12  A    between atoms: N42_37  and  C43_38 
ROOT
ATOM      1  C22 ZIN A   1      19.591  -0.405  14.000  0.00  0.00     0.167 C 
ENDROOT
BRANCH   1   2
ATOM      2  C12 ZIN A   1      18.811   0.595  14.857  0.00  0.00     0.124 C 
BRANCH   2   3
ATOM      3  N11 ZIN A   1      18.121   1.550  13.987  0.00  0.00    -0.349 N 
ATOM      4  C9  ZIN A   1      18.606   2.799  13.838  0.00  0.00     0.252 C 
ATOM      5  O10 ZIN A   1      19.616   3.132  14.425  0.00  0.00    -0.268 OA
ATOM      6  H54 ZIN A   1      17.314   1.283  13.519  0.00  0.00     0.163 HD
BRANCH   4   7
ATOM      7  C8  ZIN A   1      17.909   3.762  12.959  0.00  0.00     0.040 A 
ATOM      8  C2  ZIN A   1      18.186   3.790  11.592  0.00  0.00    -0.013 A 
ATOM      9  C1  ZIN A   1      19.191   2.834  11.005  0.00  0.00     0.052 C 
ATOM     10  C3  ZIN A   1      17.529   4.695  10.776  0.00  0.00     0.072 A 
ATOM     11  C5  ZIN A   1      16.602   5.576  11.318  0.00  0.00     0.037 A 
ATOM     12  C6  ZIN A   1      16.331   5.552  12.674  0.00  0.00     0.004 A 
ATOM     13  C7  ZIN A   1      16.980   4.655  13.496  0.00  0.00     0.018 A 
BRANCH  10  14
ATOM     14  O4  ZIN A   1      17.792   4.722   9.442  0.00  0.00    -0.360 OA
ATOM     15  H50 ZIN A   1      18.696   4.987   9.225  0.00  0.00     0.217 HD
ENDBRANCH  10  14
ENDBRANCH   4   7
ENDBRANCH   2   3
BRANCH   2  16
ATOM     16  C14 ZIN A   1      17.784  -0.155  15.707  0.00  0.00     0.107 C 
BRANCH  16  17
ATOM     17  S15 ZIN A   1      18.392  -0.288  17.412  0.00  0.00    -0.128 SA
BRANCH  17  18
ATOM     18  C16 ZIN A   1      18.154   1.339  18.046  0.00  0.00     0.000 A 
ATOM     19  C21 ZIN A   1      19.062   2.344  17.742  0.00  0.00     0.018 A 
ATOM     20  C20 ZIN A   1      18.869   3.620  18.235  0.00  0.00     0.001 A 
ATOM     21  C19 ZIN A   1      17.780   3.893  19.041  0.00  0.00     0.000 A 
ATOM     22  C18 ZIN A   1      16.876   2.893  19.350  0.00  0.00     0.001 A 
ATOM     23  C17 ZIN A   1      17.059   1.617  18.856  0.00  0.00     0.018 A 
ENDBRANCH  17  18
ENDBRANCH  16  17
ENDBRANCH   2  16
ENDBRANCH   1   2
BRANCH   1  24
ATOM     24  O24 ZIN A   1      20.712   0.250  13.404  0.00  0.00    -0.392 OA
ATOM     25  H62 ZIN A   1      20.531   1.157  13.119  0.00  0.00     0.210 HD
ENDBRANCH   1  24
BRANCH   1  26
ATOM     26  C25 ZIN A   1      18.679  -0.957  12.903  0.00  0.00     0.269 C 
BRANCH  26  27
ATOM     27  N26 ZIN A   1      19.157  -2.283  12.489  0.00  0.00    -0.055 N 
ATOM     28  H27 ZIN A   1      19.713  -2.683  13.230  0.00  0.00     0.281 HD
ATOM     29  C38 ZIN A   1      19.979  -2.149  11.280  0.00  0.00     0.279 C 
ATOM     30  C37 ZIN A   1      20.547  -3.521  10.901  0.00  0.00     0.048 C 
ATOM     31  C35 ZIN A   1      19.383  -4.476  10.610  0.00  0.00    -0.006 C 
ATOM     32  C29 ZIN A   1      18.500  -4.555  11.858  0.00  0.00     0.016 C 
ATOM     33  C34 ZIN A   1      18.577  -3.935   9.437  0.00  0.00     0.005 C 
ATOM     34  C28 ZIN A   1      18.006  -3.153  12.217  0.00  0.00     0.241 C 
ATOM     35  C31 ZIN A   1      17.308  -5.471  11.584  0.00  0.00     0.007 C 
ATOM     36  C32 ZIN A   1      16.499  -4.924  10.407  0.00  0.00     0.000 C 
ATOM     37  C33 ZIN A   1      17.391  -4.861   9.165  0.00  0.00     0.000 C 
BRANCH  29  38
ATOM     38  C40 ZIN A   1      19.151  -1.616  10.140  0.00  0.00     0.249 C 
ATOM     39  O41 ZIN A   1      17.947  -1.526  10.253  0.00  0.00    -0.271 OA
ATOM     40  N42 ZIN A   1      19.750  -1.238   8.993  0.00  0.00    -0.351 N 
ATOM     41  H77 ZIN A   1      20.712  -1.309   8.902  0.00  0.00     0.163 HD
BRANCH  40  42
ATOM     42  C43 ZIN A   1      18.945  -0.720   7.884  0.00  0.00     0.022 C 
ATOM     43  C44 ZIN A   1      17.461  -0.801   8.249  0.00  0.00     0.037 C 
ATOM     44  C45 ZIN A   1      19.325   0.739   7.616  0.00  0.00     0.037 C 
ATOM     45  C46 ZIN A   1      19.208  -1.553   6.628  0.00  0.00     0.037 C 
ENDBRANCH  40  42
ENDBRANCH  29  38
ENDBRANCH  26  27
ENDBRANCH   1  26
TORSDOF 12
ENDMDL
MODEL 9
REMARK VINA RESULT:      -8.7      2.137      8.390
REMARK  12 active torsions:
REMARK  status: ('A' for Active; 'I' for Inactive)
REMARK    1  A    between atoms: C3_3  and  O4_4 
REMARK    2  A    between atoms: C8_8  and  C9_9 
REMARK       I    between atoms: C9_9  and  N11_11 
REMARK    3  A    between atoms: N11_11  and  C12_12 
REMARK    4  A    between atoms: C12_12  and  C14_13 
REMARK    5  A    between atoms: C12_12  and  C22_21 
REMARK    6  A    between atoms: C14_13  and  S15_14 
REMARK    7  A    between atoms: S15_14  and  C16_15 
REMARK    8  A    between atoms: C22_21  and  O24_22 
REMARK    9  A    between atoms: C22_21  and  C25_23 
REMARK   10  A    between atoms: C25_23  and  N26_24 
REMARK   11  A    between atoms: C38_34  and  C40_35 
REMARK       I    between atoms: C40_35  and  N42_37 
REMARK   12  A    between atoms: N42_37  and  C43_38 
ROOT
ATOM      1  C22 ZIN A   1      19.260   2.520  11.203  0.00  0.00     0.167 C 
ENDROOT
BRANCH   1   2
ATOM      2  C12 ZIN A   1      19.287   0.999  11.041  0.00  0.00     0.124 C 
BRANCH   2   3
ATOM      3  N11 ZIN A   1      19.564   0.660   9.643  0.00  0.00    -0.349 N 
ATOM      4  C9  ZIN A   1      18.556   0.301   8.824  0.00  0.00     0.252 C 
ATOM      5  O10 ZIN A   1      17.417   0.258   9.245  0.00  0.00    -0.268 OA
ATOM      6  H54 ZIN A   1      20.474   0.695   9.307  0.00  0.00     0.163 HD
BRANCH   4   7
ATOM      7  C8  ZIN A   1      18.835  -0.040   7.413  0.00  0.00     0.040 A 
ATOM      8  C2  ZIN A   1      19.101  -1.361   7.051  0.00  0.00    -0.013 A 
ATOM      9  C1  ZIN A   1      19.097  -2.446   8.096  0.00  0.00     0.052 C 
ATOM     10  C3  ZIN A   1      19.362  -1.672   5.728  0.00  0.00     0.072 A 
ATOM     11  C5  ZIN A   1      19.365  -0.672   4.765  0.00  0.00     0.037 A 
ATOM     12  C6  ZIN A   1      19.107   0.639   5.123  0.00  0.00     0.004 A 
ATOM     13  C7  ZIN A   1      18.846   0.961   6.439  0.00  0.00     0.018 A 
BRANCH  10  14
ATOM     14  O4  ZIN A   1      19.616  -2.959   5.370  0.00  0.00    -0.360 OA
ATOM     15  H50 ZIN A   1      20.124  -3.456   6.026  0.00  0.00     0.217 HD
ENDBRANCH  10  14
ENDBRANCH   4   7
ENDBRANCH   2   3
BRANCH   2  16
ATOM     16  C14 ZIN A   1      20.382   0.411  11.934  0.00  0.00     0.107 C 
BRANCH  16  17
ATOM     17  S15 ZIN A   1      19.620  -0.569  13.259  0.00  0.00    -0.128 SA
BRANCH  17  18
ATOM     18  C16 ZIN A   1      19.109  -2.034  12.424  0.00  0.00     0.000 A 
ATOM     19  C21 ZIN A   1      17.774  -2.212  12.085  0.00  0.00     0.018 A 
ATOM     20  C20 ZIN A   1      17.377  -3.359  11.425  0.00  0.00     0.001 A 
ATOM     21  C19 ZIN A   1      18.306  -4.335  11.114  0.00  0.00     0.000 A 
ATOM     22  C18 ZIN A   1      19.635  -4.164  11.456  0.00  0.00     0.001 A 
ATOM     23  C17 ZIN A   1      20.040  -3.018  12.110  0.00  0.00     0.018 A 
ENDBRANCH  17  18
ENDBRANCH  16  17
ENDBRANCH   2  16
ENDBRANCH   1   2
BRANCH   1  24
ATOM     24  O24 ZIN A   1      20.547   2.977  11.623  0.00  0.00    -0.392 OA
ATOM     25  H62 ZIN A   1      20.526   3.803  12.125  0.00  0.00     0.210 HD
ENDBRANCH   1  24
BRANCH   1  26
ATOM     26  C25 ZIN A   1      18.215   2.903  12.252  0.00  0.00     0.269 C 
BRANCH  26  27
ATOM     27  N26 ZIN A   1      18.625   4.144  12.922  0.00  0.00    -0.055 N 
ATOM     28  H27 ZIN A   1      19.135   4.723  12.271  0.00  0.00     0.281 HD
ATOM     29  C38 ZIN A   1      19.488   3.819  14.064  0.00  0.00     0.279 C 
ATOM     30  C37 ZIN A   1      19.985   5.118  14.708  0.00  0.00     0.048 C 
ATOM     31  C35 ZIN A   1      18.776   5.918  15.208  0.00  0.00    -0.006 C 
ATOM     32  C29 ZIN A   1      17.854   6.193  14.017  0.00  0.00     0.016 C 
ATOM     33  C34 ZIN A   1      18.037   5.098  16.257  0.00  0.00     0.005 C 
ATOM     34  C28 ZIN A   1      17.434   4.866  13.386  0.00  0.00     0.241 C 
ATOM     35  C31 ZIN A   1      16.618   6.956  14.493  0.00  0.00     0.007 C 
ATOM     36  C32 ZIN A   1      15.877   6.129  15.545  0.00  0.00     0.000 C 
ATOM     37  C33 ZIN A   1      16.807   5.871  16.733  0.00  0.00     0.000 C 
BRANCH  29  38
ATOM     38  C40 ZIN A   1      18.727   3.012  15.084  0.00  0.00     0.249 C 
ATOM     39  O41 ZIN A   1      17.523   2.896  14.991  0.00  0.00    -0.271 OA
ATOM     40  N42 ZIN A   1      19.384   2.419  16.100  0.00  0.00    -0.351 N 
ATOM     41  H77 ZIN A   1      20.346   2.512  16.175  0.00  0.00     0.163 HD
BRANCH  40  42
ATOM     42  C43 ZIN A   1      18.643   1.635  17.092  0.00  0.00     0.022 C 
ATOM     43  C44 ZIN A   1      19.612   0.725  17.849  0.00  0.00     0.037 C 
ATOM     44  C45 ZIN A   1      17.955   2.581  18.078  0.00  0.00     0.037 C 
ATOM     45  C46 ZIN A   1      17.589   0.782  16.384  0.00  0.00     0.037 C 
ENDBRANCH  40  42
ENDBRANCH  29  38
ENDBRANCH  26  27
ENDBRANCH   1  26
TORSDOF 12
ENDMDL
