MODEL 1
REMARK VINA RESULT:      -7.6      0.000      0.000
REMARK  8 active torsions:
REMARK  status: ('A' for Active; 'I' for Inactive)
REMARK    1  A    between atoms: C5_5  and  O6_6 
REMARK    2  A    between atoms: C7_7  and  C8_8 
REMARK    3  A    between atoms: C8_8  and  C10_9 
REMARK    4  A    between atoms: C8_8  and  C20_19 
REMARK    5  A    between atoms: C10_9  and  C11_10 
REMARK    6  A    between atoms: C11_10  and  N12_11 
REMARK    7  A    between atoms: N12_11  and  C14_13 
REMARK    8  A    between atoms: N12_11  and  C17_16 
ROOT
ATOM      1  C8  ZIN A   1      18.334  -0.192  10.842  0.00  0.00     0.056 C 
ENDROOT
BRANCH   1   2
ATOM      2  C7  ZIN A   1      18.622  -1.657  11.042  0.00  0.00    -0.016 A 
ATOM      3  C5  ZIN A   1      19.934  -2.104  11.107  0.00  0.00     0.072 A 
ATOM      4  C4  ZIN A   1      20.196  -3.454  11.291  0.00  0.00     0.037 A 
ATOM      5  C3  ZIN A   1      19.151  -4.349  11.409  0.00  0.00     0.009 A 
ATOM      6  C2  ZIN A   1      17.845  -3.901  11.346  0.00  0.00    -0.061 A 
ATOM      7  C1  ZIN A   1      16.707  -4.880  11.476  0.00  0.00     0.048 C 
ATOM      8  C26 ZIN A   1      17.580  -2.558  11.157  0.00  0.00     0.017 A 
BRANCH   3   9
ATOM      9  O6  ZIN A   1      20.961  -1.221  10.988  0.00  0.00    -0.360 OA
ATOM     10  H32 ZIN A   1      21.467  -1.314  10.170  0.00  0.00     0.217 HD
ENDBRANCH   3   9
ENDBRANCH   1   2
BRANCH   1  11
ATOM     11  C10 ZIN A   1      16.967   0.146  11.443  0.00  0.00     0.042 C 
BRANCH  11  12
ATOM     12  C11 ZIN A   1      17.123   1.277  12.461  0.00  0.00     0.237 C 
BRANCH  12  13
ATOM     13  N12 ZIN A   1      18.544   1.627  12.590  0.00  0.00    -0.064 N 
ATOM     14  H13 ZIN A   1      19.089   1.061  11.956  0.00  0.00     0.280 HD
BRANCH  13  15
ATOM     15  C14 ZIN A   1      18.729   3.047  12.260  0.00  0.00     0.180 C 
ATOM     16  C15 ZIN A   1      20.104   3.246  11.618  0.00  0.00     0.039 C 
ATOM     17  C16 ZIN A   1      17.640   3.490  11.281  0.00  0.00     0.039 C 
ENDBRANCH  13  15
BRANCH  13  18
ATOM     18  C17 ZIN A   1      18.986   1.383  13.969  0.00  0.00     0.180 C 
ATOM     19  C18 ZIN A   1      17.779   1.006  14.832  0.00  0.00     0.039 C 
ATOM     20  C19 ZIN A   1      20.001   0.237  13.984  0.00  0.00     0.039 C 
ENDBRANCH  13  18
ENDBRANCH  12  13
ENDBRANCH  11  12
ENDBRANCH   1  11
BRANCH   1  21
ATOM     21  C20 ZIN A   1      18.327   0.122   9.368  0.00  0.00    -0.050 A 
ATOM     22  C25 ZIN A   1      19.227   1.034   8.852  0.00  0.00     0.008 A 
ATOM     23  C24 ZIN A   1      19.223   1.319   7.499  0.00  0.00     0.001 A 
ATOM     24  C23 ZIN A   1      18.313   0.698   6.664  0.00  0.00     0.000 A 
ATOM     25  C22 ZIN A   1      17.409  -0.211   7.182  0.00  0.00     0.001 A 
ATOM     26  C21 ZIN A   1      17.415  -0.499   8.534  0.00  0.00     0.008 A 
ENDBRANCH   1  21
TORSDOF 8
ENDMDL
MODEL 2
REMARK VINA RESULT:      -7.4      1.814      6.362
REMARK  8 active torsions:
REMARK  status: ('A' for Active; 'I' for Inactive)
REMARK    1  A    between atoms: C5_5  and  O6_6 
REMARK    2  A    between atoms: C7_7  and  C8_8 
REMARK    3  A    between atoms: C8_8  and  C10_9 
REMARK    4  A    between atoms: C8_8  and  C20_19 
REMARK    5  A    between atoms: C10_9  and  C11_10 
REMARK    6  A    between atoms: C11_10  and  N12_11 
REMARK    7  A    between atoms: N12_11  and  C14_13 
REMARK    8  A    between atoms: N12_11  and  C17_16 
ROOT
ATOM      1  C8  ZIN A   1      18.517  -0.091  12.289  0.00  0.00     0.056 C 
ENDROOT
BRANCH   1   2
ATOM      2  C7  ZIN A   1      18.757   1.372  12.017  0.00  0.00    -0.016 A 
ATOM      3  C5  ZIN A   1      20.053   1.864  11.963  0.00  0.00     0.072 A 
ATOM      4  C4  ZIN A   1      20.270   3.211  11.713  0.00  0.00     0.037 A 
ATOM      5  C3  ZIN A   1      19.197   4.058  11.517  0.00  0.00     0.009 A 
ATOM      6  C2  ZIN A   1      17.907   3.565  11.571  0.00  0.00    -0.061 A 
ATOM      7  C1  ZIN A   1      16.738   4.492  11.357  0.00  0.00     0.048 C 
ATOM      8  C26 ZIN A   1      17.687   2.224  11.826  0.00  0.00     0.017 A 
BRANCH   3   9
ATOM      9  O6  ZIN A   1      21.108   1.029  12.158  0.00  0.00    -0.360 OA
ATOM     10  H32 ZIN A   1      21.898   1.466  12.501  0.00  0.00     0.217 HD
ENDBRANCH   3   9
ENDBRANCH   1   2
BRANCH   1  11
ATOM     11  C10 ZIN A   1      17.207  -0.524  11.628  0.00  0.00     0.042 C 
BRANCH  11  12
ATOM     12  C11 ZIN A   1      17.308  -1.993  11.210  0.00  0.00     0.237 C 
BRANCH  12  13
ATOM     13  N12 ZIN A   1      18.622  -2.238  10.600  0.00  0.00    -0.064 N 
ATOM     14  H13 ZIN A   1      19.301  -1.605  10.997  0.00  0.00     0.280 HD
BRANCH  13  15
ATOM     15  C14 ZIN A   1      19.033  -3.624  10.864  0.00  0.00     0.180 C 
ATOM     16  C15 ZIN A   1      20.356  -3.625  11.634  0.00  0.00     0.039 C 
ATOM     17  C16 ZIN A   1      17.958  -4.325  11.699  0.00  0.00     0.039 C 
ENDBRANCH  13  15
BRANCH  13  18
ATOM     18  C17 ZIN A   1      18.538  -2.020   9.150  0.00  0.00     0.180 C 
ATOM     19  C18 ZIN A   1      19.513  -0.912   8.744  0.00  0.00     0.039 C 
ATOM     20  C19 ZIN A   1      18.903  -3.313   8.418  0.00  0.00     0.039 C 
ENDBRANCH  13  18
ENDBRANCH  12  13
ENDBRANCH  11  12
ENDBRANCH   1  11
BRANCH   1  21
ATOM     21  C20 ZIN A   1      18.428  -0.317  13.777  0.00  0.00    -0.050 A 
ATOM     22  C25 ZIN A   1      19.213  -1.283  14.377  0.00  0.00     0.008 A 
ATOM     23  C24 ZIN A   1      19.134  -1.488  15.742  0.00  0.00     0.001 A 
ATOM     24  C23 ZIN A   1      18.265  -0.732  16.505  0.00  0.00     0.000 A 
ATOM     25  C22 ZIN A   1      17.477   0.232  15.904  0.00  0.00     0.001 A 
ATOM     26  C21 ZIN A   1      17.557   0.439  14.540  0.00  0.00     0.008 A 
ENDBRANCH   1  21
TORSDOF 8
ENDMDL
MODEL 3
REMARK VINA RESULT:      -7.4      2.298      6.317
REMARK  8 active torsions:
REMARK  status: ('A' for Active; 'I' for Inactive)
REMARK    1  A    between atoms: C5_5  and  O6_6 
REMARK    2  A    between atoms: C7_7  and  C8_8 
REMARK    3  A    between atoms: C8_8  and  C10_9 
REMARK    4  A    between atoms: C8_8  and  C20_19 
REMARK    5  A    between atoms: C10_9  and  C11_10 
REMARK    6  A    between atoms: C11_10  and  N12_11 
REMARK    7  A    between atoms: N12_11  and  C14_13 
REMARK    8  A    between atoms: N12_11  and  C17_16 
ROOT
ATOM      1  C8  ZIN A   1      19.298   0.979   9.862  0.00  0.00     0.056 C 
ENDROOT
BRANCH   1   2
ATOM      2  C7  ZIN A   1      19.062   2.275  10.592  0.00  0.00    -0.016 A 
ATOM      3  C5  ZIN A   1      19.964   2.703  11.556  0.00  0.00     0.072 A 
ATOM      4  C4  ZIN A   1      19.743   3.897  12.227  0.00  0.00     0.037 A 
ATOM      5  C3  ZIN A   1      18.628   4.657  11.934  0.00  0.00     0.009 A 
ATOM      6  C2  ZIN A   1      17.732   4.229  10.972  0.00  0.00    -0.061 A 
ATOM      7  C1  ZIN A   1      16.516   5.061  10.655  0.00  0.00     0.048 C 
ATOM      8  C26 ZIN A   1      17.946   3.037  10.306  0.00  0.00     0.017 A 
BRANCH   3   9
ATOM      9  O6  ZIN A   1      21.060   1.953  11.844  0.00  0.00    -0.360 OA
ATOM     10  H32 ZIN A   1      21.459   1.527  11.074  0.00  0.00     0.217 HD
ENDBRANCH   3   9
ENDBRANCH   1   2
BRANCH   1  11
ATOM     11  C10 ZIN A   1      18.432   0.939   8.601  0.00  0.00     0.042 C 
BRANCH  11  12
ATOM     12  C11 ZIN A   1      19.218   0.283   7.463  0.00  0.00     0.237 C 
BRANCH  12  13
ATOM     13  N12 ZIN A   1      18.511  -0.922   7.011  0.00  0.00    -0.064 N 
ATOM     14  H13 ZIN A   1      17.533  -0.847   7.248  0.00  0.00     0.280 HD
BRANCH  13  15
ATOM     15  C14 ZIN A   1      18.653  -1.055   5.554  0.00  0.00     0.180 C 
ATOM     16  C15 ZIN A   1      17.267  -1.195   4.918  0.00  0.00     0.039 C 
ATOM     17  C16 ZIN A   1      19.348   0.188   4.994  0.00  0.00     0.039 C 
ENDBRANCH  13  15
BRANCH  13  18
ATOM     18  C17 ZIN A   1      19.085  -2.104   7.668  0.00  0.00     0.180 C 
ATOM     19  C18 ZIN A   1      17.986  -2.842   8.437  0.00  0.00     0.039 C 
ATOM     20  C19 ZIN A   1      19.682  -3.036   6.612  0.00  0.00     0.039 C 
ENDBRANCH  13  18
ENDBRANCH  12  13
ENDBRANCH  11  12
ENDBRANCH   1  11
BRANCH   1  21
ATOM     21  C20 ZIN A   1      18.933  -0.177  10.758  0.00  0.00    -0.050 A 
ATOM     22  C25 ZIN A   1      17.636  -0.315  11.214  0.00  0.00     0.008 A 
ATOM     23  C24 ZIN A   1      17.301  -1.376  12.034  0.00  0.00     0.001 A 
ATOM     24  C23 ZIN A   1      18.265  -2.295  12.404  0.00  0.00     0.000 A 
ATOM     25  C22 ZIN A   1      19.563  -2.155  11.951  0.00  0.00     0.001 A 
ATOM     26  C21 ZIN A   1      19.898  -1.095  11.129  0.00  0.00     0.008 A 
ENDBRANCH   1  21
TORSDOF 8
ENDMDL
MODEL 4
REMARK VINA RESULT:      -7.1      1.067      2.187
REMARK  8 active torsions:
REMARK  status: ('A' for Active; 'I' for Inactive)
REMARK    1  A    between atoms: C5_5  and  O6_6 
REMARK    2  A    between atoms: C7_7  and  C8_8 
REMARK    3  A    between atoms: C8_8  and  C10_9 
REMARK    4  A    between atoms: C8_8  and  C20_19 
REMARK    5  A    between atoms: C10_9  and  C11_10 
REMARK    6  A    between atoms: C11_10  and  N12_11 
REMARK    7  A    between atoms: N12_11  and  C14_13 
REMARK    8  A    between atoms: N12_11  and  C17_16 
ROOT
ATOM      1  C8  ZIN A   1      18.611  -0.479   9.946  0.00  0.00     0.056 C 
ENDROOT
BRANCH   1   2
ATOM      2  C7  ZIN A   1      18.740  -1.854  10.549  0.00  0.00    -0.016 A 
ATOM      3  C5  ZIN A   1      19.946  -2.258  11.105  0.00  0.00     0.072 A 
ATOM      4  C4  ZIN A   1      20.061  -3.525  11.659  0.00  0.00     0.037 A 
ATOM      5  C3  ZIN A   1      18.976  -4.379  11.658  0.00  0.00     0.009 A 
ATOM      6  C2  ZIN A   1      17.776  -3.974  11.104  0.00  0.00    -0.061 A 
ATOM      7  C1  ZIN A   1      16.594  -4.909  11.104  0.00  0.00     0.048 C 
ATOM      8  C26 ZIN A   1      17.659  -2.715  10.546  0.00  0.00     0.017 A 
BRANCH   3   9
ATOM      9  O6  ZIN A   1      21.012  -1.416  11.104  0.00  0.00    -0.360 OA
ATOM     10  H32 ZIN A   1      21.860  -1.854  11.259  0.00  0.00     0.217 HD
ENDBRANCH   3   9
ENDBRANCH   1   2
BRANCH   1  11
ATOM     11  C10 ZIN A   1      17.421   0.246  10.579  0.00  0.00     0.042 C 
BRANCH  11  12
ATOM     12  C11 ZIN A   1      17.722   0.529  12.052  0.00  0.00     0.237 C 
BRANCH  12  13
ATOM     13  N12 ZIN A   1      17.763   1.981  12.274  0.00  0.00    -0.064 N 
ATOM     14  H13 ZIN A   1      16.854   2.301  12.576  0.00  0.00     0.280 HD
BRANCH  13  15
ATOM     15  C14 ZIN A   1      18.760   2.290  13.308  0.00  0.00     0.180 C 
ATOM     16  C15 ZIN A   1      18.095   3.084  14.435  0.00  0.00     0.039 C 
ATOM     17  C16 ZIN A   1      19.332   0.988  13.871  0.00  0.00     0.039 C 
ENDBRANCH  13  15
BRANCH  13  18
ATOM     18  C17 ZIN A   1      18.128   2.657  11.023  0.00  0.00     0.180 C 
ATOM     19  C18 ZIN A   1      17.298   3.935  10.873  0.00  0.00     0.039 C 
ATOM     20  C19 ZIN A   1      19.615   3.017  11.052  0.00  0.00     0.039 C 
ENDBRANCH  13  18
ENDBRANCH  12  13
ENDBRANCH  11  12
ENDBRANCH   1  11
BRANCH   1  21
ATOM     21  C20 ZIN A   1      18.393  -0.601   8.460  0.00  0.00    -0.050 A 
ATOM     22  C25 ZIN A   1      17.276  -0.033   7.877  0.00  0.00     0.008 A 
ATOM     23  C24 ZIN A   1      17.078  -0.142   6.513  0.00  0.00     0.001 A 
ATOM     24  C23 ZIN A   1      17.992  -0.827   5.734  0.00  0.00     0.000 A 
ATOM     25  C22 ZIN A   1      19.106  -1.399   6.318  0.00  0.00     0.001 A 
ATOM     26  C21 ZIN A   1      19.307  -1.287   7.681  0.00  0.00     0.008 A 
ENDBRANCH   1  21
TORSDOF 8
ENDMDL
MODEL 5
REMARK VINA RESULT:      -7.1      2.080      5.042
REMARK  8 active torsions:
REMARK  status: ('A' for Active; 'I' for Inactive)
REMARK    1  A    between atoms: C5_5  and  O6_6 
REMARK    2  A    between atoms: C7_7  and  C8_8 
REMARK    3  A    between atoms: C8_8  and  C10_9 
REMARK    4  A    between atoms: C8_8  and  C20_19 
REMARK    5  A    between atoms: C10_9  and  C11_10 
REMARK    6  A    between atoms: C11_10  and  N12_11 
REMARK    7  A    between atoms: N12_11  and  C14_13 
REMARK    8  A    between atoms: N12_11  and  C17_16 
ROOT
ATOM      1  C8  ZIN A   1      18.398   0.361  13.237  0.00  0.00     0.056 C 
ENDROOT
BRANCH   1   2
ATOM      2  C7  ZIN A   1      18.353  -0.822  12.305  0.00  0.00    -0.016 A 
ATOM      3  C5  ZIN A   1      17.313  -0.949  11.396  0.00  0.00     0.072 A 
ATOM      4  C4  ZIN A   1      17.275  -2.040  10.539  0.00  0.00     0.037 A 
ATOM      5  C3  ZIN A   1      18.271  -2.995  10.593  0.00  0.00     0.009 A 
ATOM      6  C2  ZIN A   1      19.307  -2.865  11.499  0.00  0.00    -0.061 A 
ATOM      7  C1  ZIN A   1      20.392  -3.908  11.555  0.00  0.00     0.048 C 
ATOM      8  C26 ZIN A   1      19.345  -1.782  12.358  0.00  0.00     0.017 A 
BRANCH   3   9
ATOM      9  O6  ZIN A   1      16.333  -0.010  11.346  0.00  0.00    -0.360 OA
ATOM     10  H32 ZIN A   1      16.548   0.755  10.795  0.00  0.00     0.217 HD
ENDBRANCH   3   9
ENDBRANCH   1   2
BRANCH   1  11
ATOM     11  C10 ZIN A   1      19.736   1.088  13.076  0.00  0.00     0.042 C 
BRANCH  11  12
ATOM     12  C11 ZIN A   1      19.584   2.212  12.050  0.00  0.00     0.237 C 
BRANCH  12  13
ATOM     13  N12 ZIN A   1      18.225   2.765  12.126  0.00  0.00    -0.064 N 
ATOM     14  H13 ZIN A   1      17.634   2.134  12.648  0.00  0.00     0.280 HD
BRANCH  13  15
ATOM     15  C14 ZIN A   1      18.264   4.069  12.801  0.00  0.00     0.180 C 
ATOM     16  C15 ZIN A   1      17.758   3.916  14.237  0.00  0.00     0.039 C 
ATOM     17  C16 ZIN A   1      19.702   4.591  12.820  0.00  0.00     0.039 C 
ENDBRANCH  13  15
BRANCH  13  18
ATOM     18  C17 ZIN A   1      17.686   2.930  10.770  0.00  0.00     0.180 C 
ATOM     19  C18 ZIN A   1      17.256   4.386  10.566  0.00  0.00     0.039 C 
ATOM     20  C19 ZIN A   1      18.762   2.569   9.745  0.00  0.00     0.039 C 
ENDBRANCH  13  18
ENDBRANCH  12  13
ENDBRANCH  11  12
ENDBRANCH   1  11
BRANCH   1  21
ATOM     21  C20 ZIN A   1      18.254  -0.115  14.660  0.00  0.00    -0.050 A 
ATOM     22  C25 ZIN A   1      17.214   0.350  15.442  0.00  0.00     0.008 A 
ATOM     23  C24 ZIN A   1      17.080  -0.090  16.746  0.00  0.00     0.001 A 
ATOM     24  C23 ZIN A   1      17.990  -0.988  17.270  0.00  0.00     0.000 A 
ATOM     25  C22 ZIN A   1      19.033  -1.450  16.489  0.00  0.00     0.001 A 
ATOM     26  C21 ZIN A   1      19.166  -1.013  15.184  0.00  0.00     0.008 A 
ENDBRANCH   1  21
TORSDOF 8
ENDMDL
MODEL 6
REMARK VINA RESULT:      -7.0      2.225      6.354
REMARK  8 active torsions:
REMARK  status: ('A' for Active; 'I' for Inactive)
REMARK    1  A    between atoms: C5_5  and  O6_6 
REMARK    2  A    between atoms: C7_7  and  C8_8 
REMARK    3  A    between atoms: C8_8  and  C10_9 
REMARK    4  A    between atoms: C8_8  and  C20_19 
REMARK    5  A    between atoms: C10_9  and  C11_10 
REMARK    6  A    between atoms: C11_10  and  N12_11 
REMARK    7  A    between atoms: N12_11  and  C14_13 
REMARK    8  A    between atoms: N12_11  and  C17_16 
ROOT
ATOM      1  C8  ZIN A   1      18.768  -0.555  12.518  0.00  0.00     0.056 C 
ENDROOT
BRANCH   1   2
ATOM      2  C7  ZIN A   1      19.005   0.875  12.106  0.00  0.00    -0.016 A 
ATOM      3  C5  ZIN A   1      20.299   1.366  12.019  0.00  0.00     0.072 A 
ATOM      4  C4  ZIN A   1      20.514   2.684  11.640  0.00  0.00     0.037 A 
ATOM      5  C3  ZIN A   1      19.440   3.501  11.348  0.00  0.00     0.009 A 
ATOM      6  C2  ZIN A   1      18.151   3.008  11.434  0.00  0.00    -0.061 A 
ATOM      7  C1  ZIN A   1      16.981   3.903  11.115  0.00  0.00     0.048 C 
ATOM      8  C26 ZIN A   1      17.934   1.698  11.817  0.00  0.00     0.017 A 
BRANCH   3   9
ATOM      9  O6  ZIN A   1      21.355   0.561  12.308  0.00  0.00    -0.360 OA
ATOM     10  H32 ZIN A   1      21.490  -0.154  11.672  0.00  0.00     0.217 HD
ENDBRANCH   3   9
ENDBRANCH   1   2
BRANCH   1  11
ATOM     11  C10 ZIN A   1      17.533  -1.097  11.793  0.00  0.00     0.042 C 
BRANCH  11  12
ATOM     12  C11 ZIN A   1      17.955  -1.711  10.457  0.00  0.00     0.237 C 
BRANCH  12  13
ATOM     13  N12 ZIN A   1      17.669  -3.152  10.468  0.00  0.00    -0.064 N 
ATOM     14  H13 ZIN A   1      16.671  -3.297  10.440  0.00  0.00     0.280 HD
BRANCH  13  15
ATOM     15  C14 ZIN A   1      18.290  -3.783   9.296  0.00  0.00     0.180 C 
ATOM     16  C15 ZIN A   1      17.253  -4.646   8.573  0.00  0.00     0.039 C 
ATOM     17  C16 ZIN A   1      18.803  -2.700   8.344  0.00  0.00     0.039 C 
ENDBRANCH  13  15
BRANCH  13  18
ATOM     18  C17 ZIN A   1      18.216  -3.750  11.693  0.00  0.00     0.180 C 
ATOM     19  C18 ZIN A   1      17.423  -5.013  12.041  0.00  0.00     0.039 C 
ATOM     20  C19 ZIN A   1      19.685  -4.117  11.471  0.00  0.00     0.039 C 
ENDBRANCH  13  18
ENDBRANCH  12  13
ENDBRANCH  11  12
ENDBRANCH   1  11
BRANCH   1  21
ATOM     21  C20 ZIN A   1      18.545  -0.618  14.007  0.00  0.00    -0.050 A 
ATOM     22  C25 ZIN A   1      17.547   0.141  14.589  0.00  0.00     0.008 A 
ATOM     23  C24 ZIN A   1      17.340   0.081  15.954  0.00  0.00     0.001 A 
ATOM     24  C23 ZIN A   1      18.136  -0.733  16.739  0.00  0.00     0.000 A 
ATOM     25  C22 ZIN A   1      19.136  -1.489  16.157  0.00  0.00     0.001 A 
ATOM     26  C21 ZIN A   1      19.342  -1.431  14.792  0.00  0.00     0.008 A 
ENDBRANCH   1  21
TORSDOF 8
ENDMDL
MODEL 7
REMARK VINA RESULT:      -6.9      2.836      4.746
REMARK  8 active torsions:
REMARK  status: ('A' for Active; 'I' for Inactive)
REMARK    1  A    between atoms: C5_5  and  O6_6 
REMARK    2  A    between atoms: C7_7  and  C8_8 
REMARK    3  A    between atoms: C8_8  and  C10_9 
REMARK    4  A    between atoms: C8_8  and  C20_19 
REMARK    5  A    between atoms: C10_9  and  C11_10 
REMARK    6  A    between atoms: C11_10  and  N12_11 
REMARK    7  A    between atoms: N12_11  and  C14_13 
REMARK    8  A    between atoms: N12_11  and  C17_16 
ROOT
ATOM      1  C8  ZIN A   1      18.883   2.321  13.279  0.00  0.00     0.056 C 
ENDROOT
BRANCH   1   2
ATOM      2  C7  ZIN A   1      18.856   1.075  14.126  0.00  0.00    -0.016 A 
ATOM      3  C5  ZIN A   1      19.858   0.124  13.993  0.00  0.00     0.072 A 
ATOM      4  C4  ZIN A   1      19.830  -1.022  14.774  0.00  0.00     0.037 A 
ATOM      5  C3  ZIN A   1      18.807  -1.213  15.682  0.00  0.00     0.009 A 
ATOM      6  C2  ZIN A   1      17.811  -0.264  15.813  0.00  0.00    -0.061 A 
ATOM      7  C1  ZIN A   1      16.696  -0.475  16.805  0.00  0.00     0.048 C 
ATOM      8  C26 ZIN A   1      17.832   0.877  15.032  0.00  0.00     0.017 A 
BRANCH   3   9
ATOM      9  O6  ZIN A   1      20.863   0.313  13.098  0.00  0.00    -0.360 OA
ATOM     10  H32 ZIN A   1      21.568  -0.345  13.153  0.00  0.00     0.217 HD
ENDBRANCH   3   9
ENDBRANCH   1   2
BRANCH   1  11
ATOM     11  C10 ZIN A   1      17.805   3.292  13.766  0.00  0.00     0.042 C 
BRANCH  11  12
ATOM     12  C11 ZIN A   1      18.460   4.420  14.566  0.00  0.00     0.237 C 
BRANCH  12  13
ATOM     13  N12 ZIN A   1      17.728   4.617  15.824  0.00  0.00    -0.064 N 
ATOM     14  H13 ZIN A   1      16.983   3.939  15.890  0.00  0.00     0.280 HD
BRANCH  13  15
ATOM     15  C14 ZIN A   1      18.647   4.446  16.958  0.00  0.00     0.180 C 
ATOM     16  C15 ZIN A   1      18.142   3.316  17.858  0.00  0.00     0.039 C 
ATOM     17  C16 ZIN A   1      20.042   4.097  16.435  0.00  0.00     0.039 C 
ENDBRANCH  13  15
BRANCH  13  18
ATOM     18  C17 ZIN A   1      17.159   5.971  15.854  0.00  0.00     0.180 C 
ATOM     19  C18 ZIN A   1      18.066   6.922  15.068  0.00  0.00     0.039 C 
ATOM     20  C19 ZIN A   1      15.767   5.954  15.220  0.00  0.00     0.039 C 
ENDBRANCH  13  18
ENDBRANCH  12  13
ENDBRANCH  11  12
ENDBRANCH   1  11
BRANCH   1  21
ATOM     21  C20 ZIN A   1      18.618   1.957  11.841  0.00  0.00    -0.050 A 
ATOM     22  C25 ZIN A   1      17.624   1.047  11.531  0.00  0.00     0.008 A 
ATOM     23  C24 ZIN A   1      17.379   0.715  10.211  0.00  0.00     0.001 A 
ATOM     24  C23 ZIN A   1      18.131   1.287   9.203  0.00  0.00     0.000 A 
ATOM     25  C22 ZIN A   1      19.127   2.194   9.513  0.00  0.00     0.001 A 
ATOM     26  C21 ZIN A   1      19.372   2.528  10.832  0.00  0.00     0.008 A 
ENDBRANCH   1  21
TORSDOF 8
ENDMDL
MODEL 8
REMARK VINA RESULT:      -6.9      2.377      4.522
REMARK  8 active torsions:
REMARK  status: ('A' for Active; 'I' for Inactive)
REMARK    1  A    between atoms: C5_5  and  O6_6 
REMARK    2  A    between atoms: C7_7  and  C8_8 
REMARK    3  A    between atoms: C8_8  and  C10_9 
REMARK    4  A    between atoms: C8_8  and  C20_19 
REMARK    5  A    between atoms: C10_9  and  C11_10 
REMARK    6  A    between atoms: C11_10  and  N12_11 
REMARK    7  A    between atoms: N12_11  and  C14_13 
REMARK    8  A    between atoms: N12_11  and  C17_16 
ROOT
ATOM      1  C8  ZIN A   1      19.102   2.038  12.566  0.00  0.00     0.056 C 
ENDROOT
BRANCH   1   2
ATOM      2  C7  ZIN A   1      19.293   0.993  11.497  0.00  0.00    -0.016 A 
ATOM      3  C5  ZIN A   1      20.514   0.348  11.368  0.00  0.00     0.072 A 
ATOM      4  C4  ZIN A   1      20.685  -0.614  10.382  0.00  0.00     0.037 A 
ATOM      5  C3  ZIN A   1      19.642  -0.926   9.534  0.00  0.00     0.009 A 
ATOM      6  C2  ZIN A   1      18.426  -0.281   9.666  0.00  0.00    -0.061 A 
ATOM      7  C1  ZIN A   1      17.289  -0.624   8.738  0.00  0.00     0.048 C 
ATOM      8  C26 ZIN A   1      18.253   0.681  10.643  0.00  0.00     0.017 A 
BRANCH   3   9
ATOM      9  O6  ZIN A   1      21.540   0.657  12.203  0.00  0.00    -0.360 OA
ATOM     10  H32 ZIN A   1      22.391   0.286  11.935  0.00  0.00     0.217 HD
ENDBRANCH   3   9
ENDBRANCH   1   2
BRANCH   1  11
ATOM     11  C10 ZIN A   1      18.309   1.439  13.730  0.00  0.00     0.042 C 
BRANCH  11  12
ATOM     12  C11 ZIN A   1      19.268   1.064  14.861  0.00  0.00     0.237 C 
BRANCH  12  13
ATOM     13  N12 ZIN A   1      18.546   1.082  16.141  0.00  0.00    -0.064 N 
ATOM     14  H13 ZIN A   1      17.622   1.461  16.000  0.00  0.00     0.280 HD
BRANCH  13  15
ATOM     15  C14 ZIN A   1      18.439  -0.288  16.661  0.00  0.00     0.180 C 
ATOM     16  C15 ZIN A   1      16.964  -0.684  16.754  0.00  0.00     0.039 C 
ATOM     17  C16 ZIN A   1      19.167  -1.250  15.719  0.00  0.00     0.039 C 
ENDBRANCH  13  15
BRANCH  13  18
ATOM     18  C17 ZIN A   1      19.277   1.916  17.104  0.00  0.00     0.180 C 
ATOM     19  C18 ZIN A   1      19.564   3.284  16.479  0.00  0.00     0.039 C 
ATOM     20  C19 ZIN A   1      18.430   2.101  18.365  0.00  0.00     0.039 C 
ENDBRANCH  13  18
ENDBRANCH  12  13
ENDBRANCH  11  12
ENDBRANCH   1  11
BRANCH   1  21
ATOM     21  C20 ZIN A   1      18.347   3.210  11.994  0.00  0.00    -0.050 A 
ATOM     22  C25 ZIN A   1      18.546   3.584  10.678  0.00  0.00     0.008 A 
ATOM     23  C24 ZIN A   1      17.850   4.657  10.152  0.00  0.00     0.001 A 
ATOM     24  C23 ZIN A   1      16.962   5.361  10.944  0.00  0.00     0.000 A 
ATOM     25  C22 ZIN A   1      16.767   4.989  12.261  0.00  0.00     0.001 A 
ATOM     26  C21 ZIN A   1      17.460   3.915  12.787  0.00  0.00     0.008 A 
ENDBRANCH   1  21
TORSDOF 8
ENDMDL
MODEL 9
REMARK VINA RESULT:      -6.8      1.357      4.579
REMARK  8 active torsions:
REMARK  status: ('A' for Active; 'I' for Inactive)
REMARK    1  A    between atoms: C5_5  and  O6_6 
REMARK    2  A    between atoms: C7_7  and  C8_8 
REMARK    3  A    between atoms: C8_8  and  C10_9 
REMARK    4  A    between atoms: C8_8  and  C20_19 
REMARK    5  A    between atoms: C10_9  and  C11_10 
REMARK    6  A    between atoms: C11_10  and  N12_11 
REMARK    7  A    between atoms: N12_11  and  C14_13 
REMARK    8  A    between atoms: N12_11  and  C17_16 
ROOT
ATOM      1  C8  ZIN A   1      18.400  -0.558  12.066  0.00  0.00     0.056 C 
ENDROOT
BRANCH   1   2
ATOM      2  C7  ZIN A   1      18.595  -0.272  13.533  0.00  0.00    -0.016 A 
ATOM      3  C5  ZIN A   1      19.806   0.232  13.986  0.00  0.00     0.072 A 
ATOM      4  C4  ZIN A   1      19.982   0.493  15.338  0.00  0.00     0.037 A 
ATOM      5  C3  ZIN A   1      18.953   0.253  16.227  0.00  0.00     0.009 A 
ATOM      6  C2  ZIN A   1      17.748  -0.249  15.772  0.00  0.00    -0.061 A 
ATOM      7  C1  ZIN A   1      16.627  -0.510  16.744  0.00  0.00     0.048 C 
ATOM      8  C26 ZIN A   1      17.571  -0.516  14.427  0.00  0.00     0.017 A 
BRANCH   3   9
ATOM      9  O6  ZIN A   1      20.818   0.466  13.110  0.00  0.00    -0.360 OA
ATOM     10  H32 ZIN A   1      21.613   0.833  13.517  0.00  0.00     0.217 HD
ENDBRANCH   3   9
ENDBRANCH   1   2
BRANCH   1  11
ATOM     11  C10 ZIN A   1      17.001  -0.107  11.640  0.00  0.00     0.042 C 
BRANCH  11  12
ATOM     12  C11 ZIN A   1      17.113   0.837  10.442  0.00  0.00     0.237 C 
BRANCH  12  13
ATOM     13  N12 ZIN A   1      18.524   1.178  10.217  0.00  0.00    -0.064 N 
ATOM     14  H13 ZIN A   1      19.093   0.736  10.923  0.00  0.00     0.280 HD
BRANCH  13  15
ATOM     15  C14 ZIN A   1      18.936   0.705   8.889  0.00  0.00     0.180 C 
ATOM     16  C15 ZIN A   1      17.801  -0.111   8.264  0.00  0.00     0.039 C 
ATOM     17  C16 ZIN A   1      19.252   1.906   7.994  0.00  0.00     0.039 C 
ENDBRANCH  13  15
BRANCH  13  18
ATOM     18  C17 ZIN A   1      18.694   2.635  10.292  0.00  0.00     0.180 C 
ATOM     19  C18 ZIN A   1      17.377   3.280  10.733  0.00  0.00     0.039 C 
ATOM     20  C19 ZIN A   1      19.789   2.969  11.308  0.00  0.00     0.039 C 
ENDBRANCH  13  18
ENDBRANCH  12  13
ENDBRANCH  11  12
ENDBRANCH   1  11
BRANCH   1  21
ATOM     21  C20 ZIN A   1      18.549  -2.037  11.819  0.00  0.00    -0.050 A 
ATOM     22  C25 ZIN A   1      19.808  -2.596  11.706  0.00  0.00     0.008 A 
ATOM     23  C24 ZIN A   1      19.944  -3.953  11.483  0.00  0.00     0.001 A 
ATOM     24  C23 ZIN A   1      18.821  -4.751  11.365  0.00  0.00     0.000 A 
ATOM     25  C22 ZIN A   1      17.561  -4.191  11.473  0.00  0.00     0.001 A 
ATOM     26  C21 ZIN A   1      17.425  -2.834  11.699  0.00  0.00     0.008 A 
ENDBRANCH   1  21
TORSDOF 8
ENDMDL
