MODEL 1
REMARK VINA RESULT:      -6.1      0.000      0.000
REMARK  7 active torsions:
REMARK  status: ('A' for Active; 'I' for Inactive)
REMARK    1  A    between atoms: C2_2  and  C3_3 
REMARK    2  A    between atoms: C3_3  and  N4_4 
REMARK    3  A    between atoms: N4_4  and  C5_5 
REMARK    4  A    between atoms: C5_5  and  C8_7 
REMARK       I    between atoms: C8_7  and  N10_9 
REMARK    5  A    between atoms: N10_9  and  C11_10 
REMARK    6  A    between atoms: C12_11  and  C13_12 
REMARK    7  A    between atoms: C13_12  and  O15_14 
ROOT
ATOM      1  C8  ZIN A   1      19.063   1.921  12.939  0.00  0.00     0.255 C 
ATOM      2  O9  ZIN A   1      17.864   1.740  12.940  0.00  0.00    -0.271 OA
ATOM      3  N10 ZIN A   1      19.833   1.343  13.883  0.00  0.00    -0.323 N 
ATOM      4  H32 ZIN A   1      20.798   1.419  13.835  0.00  0.00     0.169 HD
ENDROOT
BRANCH   3   5
ATOM      5  C11 ZIN A   1      19.239   0.635  14.929  0.00  0.00     0.064 A 
ATOM      6  C19 ZIN A   1      18.928  -0.709  14.860  0.00  0.00    -0.027 A 
ATOM      7  C18 ZIN A   1      18.369  -1.217  15.962  0.00  0.00     0.059 A 
ATOM      8  C20 ZIN A   1      19.210  -1.543  13.637  0.00  0.00     0.051 C 
ATOM      9  S17 ZIN A   1      18.182  -0.025  17.166  0.00  0.00    -0.093 SA
ATOM     10  C12 ZIN A   1      18.898   1.204  16.134  0.00  0.00     0.107 A 
BRANCH  10  11
ATOM     11  C13 ZIN A   1      19.093   2.562  16.484  0.00  0.00     0.302 C 
ATOM     12  O14 ZIN A   1      19.833   2.852  17.405  0.00  0.00    -0.259 OA
BRANCH  11  13
ATOM     13  O15 ZIN A   1      18.456   3.534  15.797  0.00  0.00    -0.322 OA
ATOM     14  C16 ZIN A   1      19.232   4.670  15.412  0.00  0.00     0.213 C 
ENDBRANCH  11  13
ENDBRANCH  10  11
ENDBRANCH   3   5
BRANCH   1  15
ATOM     15  C5  ZIN A   1      19.693   2.791  11.882  0.00  0.00     0.307 C 
ATOM     16  C7  ZIN A   1      18.816   4.024  11.648  0.00  0.00     0.053 C 
BRANCH  15  17
ATOM     17  N4  ZIN A   1      19.815   2.032  10.631  0.00  0.00     0.096 N 
ATOM     18  H28 ZIN A   1      19.666   1.047  10.790  0.00  0.00     0.316 HD
BRANCH  17  19
ATOM     19  C3  ZIN A   1      18.891   2.547   9.610  0.00  0.00     0.270 C 
BRANCH  19  20
ATOM     20  C2  ZIN A   1      19.167   1.851   8.276  0.00  0.00     0.025 C 
ATOM     21  C1  ZIN A   1      19.394   0.358   8.517  0.00  0.00     0.007 C 
ENDBRANCH  19  20
ENDBRANCH  17  19
ENDBRANCH  15  17
ENDBRANCH   1  15
TORSDOF 7
ENDMDL
MODEL 2
REMARK VINA RESULT:      -6.0      4.556      8.260
REMARK  7 active torsions:
REMARK  status: ('A' for Active; 'I' for Inactive)
REMARK    1  A    between atoms: C2_2  and  C3_3 
REMARK    2  A    between atoms: C3_3  and  N4_4 
REMARK    3  A    between atoms: N4_4  and  C5_5 
REMARK    4  A    between atoms: C5_5  and  C8_7 
REMARK       I    between atoms: C8_7  and  N10_9 
REMARK    5  A    between atoms: N10_9  and  C11_10 
REMARK    6  A    between atoms: C12_11  and  C13_12 
REMARK    7  A    between atoms: C13_12  and  O15_14 
ROOT
ATOM      1  C8  ZIN A   1      19.347  -1.317  10.184  0.00  0.00     0.255 C 
ATOM      2  O9  ZIN A   1      18.136  -1.263  10.170  0.00  0.00    -0.271 OA
ATOM      3  N10 ZIN A   1      20.050  -0.959   9.091  0.00  0.00    -0.323 N 
ATOM      4  H32 ZIN A   1      21.018  -0.924   9.127  0.00  0.00     0.169 HD
ENDROOT
BRANCH   3   5
ATOM      5  C11 ZIN A   1      19.384  -0.640   7.907  0.00  0.00     0.064 A 
ATOM      6  C19 ZIN A   1      18.966   0.638   7.589  0.00  0.00    -0.027 A 
ATOM      7  C18 ZIN A   1      18.349   0.754   6.410  0.00  0.00     0.059 A 
ATOM      8  C20 ZIN A   1      19.199   1.816   8.499  0.00  0.00     0.051 C 
ATOM      9  S17 ZIN A   1      18.239  -0.753   5.619  0.00  0.00    -0.093 SA
ATOM     10  C12 ZIN A   1      19.070  -1.564   6.938  0.00  0.00     0.107 A 
BRANCH  10  11
ATOM     11  C13 ZIN A   1      19.369  -2.946   6.996  0.00  0.00     0.302 C 
ATOM     12  O14 ZIN A   1      20.153  -3.433   6.204  0.00  0.00    -0.259 OA
BRANCH  11  13
ATOM     13  O15 ZIN A   1      18.781  -3.725   7.930  0.00  0.00    -0.322 OA
ATOM     14  C16 ZIN A   1      19.532  -4.843   8.407  0.00  0.00     0.213 C 
ENDBRANCH  11  13
ENDBRANCH  10  11
ENDBRANCH   3   5
BRANCH   1  15
ATOM     15  C5  ZIN A   1      20.066  -1.786  11.422  0.00  0.00     0.307 C 
ATOM     16  C7  ZIN A   1      19.625  -3.213  11.759  0.00  0.00     0.053 C 
BRANCH  15  17
ATOM     17  N4  ZIN A   1      19.742  -0.895  12.544  0.00  0.00     0.096 N 
ATOM     18  H28 ZIN A   1      19.043  -0.218  12.277  0.00  0.00     0.316 HD
BRANCH  17  19
ATOM     19  C3  ZIN A   1      19.308  -1.664  13.718  0.00  0.00     0.270 C 
BRANCH  19  20
ATOM     20  C2  ZIN A   1      18.359  -0.812  14.564  0.00  0.00     0.025 C 
ATOM     21  C1  ZIN A   1      18.295  -1.377  15.984  0.00  0.00     0.007 C 
ENDBRANCH  19  20
ENDBRANCH  17  19
ENDBRANCH  15  17
ENDBRANCH   1  15
TORSDOF 7
ENDMDL
MODEL 3
REMARK VINA RESULT:      -5.9      5.908      8.986
REMARK  7 active torsions:
REMARK  status: ('A' for Active; 'I' for Inactive)
REMARK    1  A    between atoms: C2_2  and  C3_3 
REMARK    2  A    between atoms: C3_3  and  N4_4 
REMARK    3  A    between atoms: N4_4  and  C5_5 
REMARK    4  A    between atoms: C5_5  and  C8_7 
REMARK       I    between atoms: C8_7  and  N10_9 
REMARK    5  A    between atoms: N10_9  and  C11_10 
REMARK    6  A    between atoms: C12_11  and  C13_12 
REMARK    7  A    between atoms: C13_12  and  O15_14 
ROOT
ATOM      1  C8  ZIN A   1      18.767  -1.774   9.252  0.00  0.00     0.255 C 
ATOM      2  O9  ZIN A   1      17.581  -1.662   9.028  0.00  0.00    -0.271 OA
ATOM      3  N10 ZIN A   1      19.667  -1.442   8.304  0.00  0.00    -0.323 N 
ATOM      4  H32 ZIN A   1      20.614  -1.454   8.510  0.00  0.00     0.169 HD
ENDROOT
BRANCH   3   5
ATOM      5  C11 ZIN A   1      19.234  -1.083   7.028  0.00  0.00     0.064 A 
ATOM      6  C19 ZIN A   1      18.939   0.215   6.660  0.00  0.00    -0.027 A 
ATOM      7  C18 ZIN A   1      18.545   0.368   5.393  0.00  0.00     0.059 A 
ATOM      8  C20 ZIN A   1      19.065   1.375   7.614  0.00  0.00     0.051 C 
ATOM      9  S17 ZIN A   1      18.503  -1.127   4.573  0.00  0.00    -0.093 SA
ATOM     10  C12 ZIN A   1      19.051  -1.985   6.006  0.00  0.00     0.107 A 
BRANCH  10  11
ATOM     11  C13 ZIN A   1      19.269  -3.381   6.094  0.00  0.00     0.302 C 
ATOM     12  O14 ZIN A   1      18.402  -4.156   5.739  0.00  0.00    -0.259 OA
BRANCH  11  13
ATOM     13  O15 ZIN A   1      20.440  -3.852   6.575  0.00  0.00    -0.322 OA
ATOM     14  C16 ZIN A   1      20.427  -5.163   7.144  0.00  0.00     0.213 C 
ENDBRANCH  11  13
ENDBRANCH  10  11
ENDBRANCH   3   5
BRANCH   1  15
ATOM     15  C5  ZIN A   1      19.236  -2.285  10.591  0.00  0.00     0.307 C 
ATOM     16  C7  ZIN A   1      20.131  -1.235  11.252  0.00  0.00     0.053 C 
BRANCH  15  17
ATOM     17  N4  ZIN A   1      19.994  -3.529  10.402  0.00  0.00     0.096 N 
ATOM     18  H28 ZIN A   1      20.809  -3.548  10.997  0.00  0.00     0.316 HD
BRANCH  17  19
ATOM     19  C3  ZIN A   1      19.144  -4.704  10.636  0.00  0.00     0.270 C 
BRANCH  19  20
ATOM     20  C2  ZIN A   1      18.107  -4.377  11.712  0.00  0.00     0.025 C 
ATOM     21  C1  ZIN A   1      16.728  -4.854  11.252  0.00  0.00     0.007 C 
ENDBRANCH  19  20
ENDBRANCH  17  19
ENDBRANCH  15  17
ENDBRANCH   1  15
TORSDOF 7
ENDMDL
MODEL 4
REMARK VINA RESULT:      -5.9      3.660      5.026
REMARK  7 active torsions:
REMARK  status: ('A' for Active; 'I' for Inactive)
REMARK    1  A    between atoms: C2_2  and  C3_3 
REMARK    2  A    between atoms: C3_3  and  N4_4 
REMARK    3  A    between atoms: N4_4  and  C5_5 
REMARK    4  A    between atoms: C5_5  and  C8_7 
REMARK       I    between atoms: C8_7  and  N10_9 
REMARK    5  A    between atoms: N10_9  and  C11_10 
REMARK    6  A    between atoms: C12_11  and  C13_12 
REMARK    7  A    between atoms: C13_12  and  O15_14 
ROOT
ATOM      1  C8  ZIN A   1      18.569  -1.628   9.231  0.00  0.00     0.255 C 
ATOM      2  O9  ZIN A   1      19.518  -0.880   9.330  0.00  0.00    -0.271 OA
ATOM      3  N10 ZIN A   1      17.871  -1.981  10.329  0.00  0.00    -0.323 N 
ATOM      4  H32 ZIN A   1      17.065  -2.512  10.241  0.00  0.00     0.169 HD
ENDROOT
BRANCH   3   5
ATOM      5  C11 ZIN A   1      18.311  -1.583  11.592  0.00  0.00     0.064 A 
ATOM      6  C19 ZIN A   1      19.249  -2.281  12.327  0.00  0.00    -0.027 A 
ATOM      7  C18 ZIN A   1      19.550  -1.746  13.513  0.00  0.00     0.059 A 
ATOM      8  C20 ZIN A   1      19.894  -3.547  11.824  0.00  0.00     0.051 C 
ATOM      9  S17 ZIN A   1      18.656  -0.321  13.794  0.00  0.00    -0.093 SA
ATOM     10  C12 ZIN A   1      17.852  -0.458  12.237  0.00  0.00     0.107 A 
BRANCH  10  11
ATOM     11  C13 ZIN A   1      16.886   0.443  11.728  0.00  0.00     0.302 C 
ATOM     12  O14 ZIN A   1      15.767   0.049  11.460  0.00  0.00    -0.259 OA
BRANCH  11  13
ATOM     13  O15 ZIN A   1      17.208   1.740  11.539  0.00  0.00    -0.322 OA
ATOM     14  C16 ZIN A   1      17.873   2.072  10.318  0.00  0.00     0.213 C 
ENDBRANCH  11  13
ENDBRANCH  10  11
ENDBRANCH   3   5
BRANCH   1  15
ATOM     15  C5  ZIN A   1      18.170  -2.162   7.879  0.00  0.00     0.307 C 
ATOM     16  C7  ZIN A   1      19.348  -2.919   7.262  0.00  0.00     0.053 C 
BRANCH  15  17
ATOM     17  N4  ZIN A   1      17.790  -1.046   7.004  0.00  0.00     0.096 N 
ATOM     18  H28 ZIN A   1      17.947  -0.159   7.460  0.00  0.00     0.316 HD
BRANCH  17  19
ATOM     19  C3  ZIN A   1      18.508  -1.114   5.724  0.00  0.00     0.270 C 
BRANCH  19  20
ATOM     20  C2  ZIN A   1      18.991   0.285   5.335  0.00  0.00     0.025 C 
ATOM     21  C1  ZIN A   1      18.896   1.212   6.547  0.00  0.00     0.007 C 
ENDBRANCH  19  20
ENDBRANCH  17  19
ENDBRANCH  15  17
ENDBRANCH   1  15
TORSDOF 7
ENDMDL
MODEL 5
REMARK VINA RESULT:      -5.8      3.638      6.839
REMARK  7 active torsions:
REMARK  status: ('A' for Active; 'I' for Inactive)
REMARK    1  A    between atoms: C2_2  and  C3_3 
REMARK    2  A    between atoms: C3_3  and  N4_4 
REMARK    3  A    between atoms: N4_4  and  C5_5 
REMARK    4  A    between atoms: C5_5  and  C8_7 
REMARK       I    between atoms: C8_7  and  N10_9 
REMARK    5  A    between atoms: N10_9  and  C11_10 
REMARK    6  A    between atoms: C12_11  and  C13_12 
REMARK    7  A    between atoms: C13_12  and  O15_14 
ROOT
ATOM      1  C8  ZIN A   1      17.483   0.395  11.865  0.00  0.00     0.255 C 
ATOM      2  O9  ZIN A   1      16.475   0.395  11.190  0.00  0.00    -0.271 OA
ATOM      3  N10 ZIN A   1      18.692   0.430  11.269  0.00  0.00    -0.323 N 
ATOM      4  H32 ZIN A   1      19.495   0.513  11.806  0.00  0.00     0.169 HD
ENDROOT
BRANCH   3   5
ATOM      5  C11 ZIN A   1      18.788   0.347   9.879  0.00  0.00     0.064 A 
ATOM      6  C19 ZIN A   1      18.802   1.451   9.049  0.00  0.00    -0.027 A 
ATOM      7  C18 ZIN A   1      18.905   1.176   7.746  0.00  0.00     0.059 A 
ATOM      8  C20 ZIN A   1      18.721   2.860   9.575  0.00  0.00     0.051 C 
ATOM      9  S17 ZIN A   1      18.976  -0.506   7.472  0.00  0.00    -0.093 SA
ATOM     10  C12 ZIN A   1      18.872  -0.842   9.194  0.00  0.00     0.107 A 
BRANCH  10  11
ATOM     11  C13 ZIN A   1      18.873  -2.130   9.781  0.00  0.00     0.302 C 
ATOM     12  O14 ZIN A   1      18.108  -2.985   9.376  0.00  0.00    -0.259 OA
BRANCH  11  13
ATOM     13  O15 ZIN A   1      19.724  -2.410  10.792  0.00  0.00    -0.322 OA
ATOM     14  C16 ZIN A   1      19.351  -3.466  11.680  0.00  0.00     0.213 C 
ENDBRANCH  11  13
ENDBRANCH  10  11
ENDBRANCH   3   5
BRANCH   1  15
ATOM     15  C5  ZIN A   1      17.384   0.355  13.368  0.00  0.00     0.307 C 
ATOM     16  C7  ZIN A   1      18.033   1.611  13.955  0.00  0.00     0.053 C 
BRANCH  15  17
ATOM     17  N4  ZIN A   1      18.077  -0.837  13.873  0.00  0.00     0.096 N 
ATOM     18  H28 ZIN A   1      18.621  -1.274  13.145  0.00  0.00     0.316 HD
BRANCH  17  19
ATOM     19  C3  ZIN A   1      18.917  -0.505  15.032  0.00  0.00     0.270 C 
BRANCH  19  20
ATOM     20  C2  ZIN A   1      18.568  -1.433  16.197  0.00  0.00     0.025 C 
ATOM     21  C1  ZIN A   1      17.266  -0.965  16.849  0.00  0.00     0.007 C 
ENDBRANCH  19  20
ENDBRANCH  17  19
ENDBRANCH  15  17
ENDBRANCH   1  15
TORSDOF 7
ENDMDL
MODEL 6
REMARK VINA RESULT:      -5.8      1.884      3.394
REMARK  7 active torsions:
REMARK  status: ('A' for Active; 'I' for Inactive)
REMARK    1  A    between atoms: C2_2  and  C3_3 
REMARK    2  A    between atoms: C3_3  and  N4_4 
REMARK    3  A    between atoms: N4_4  and  C5_5 
REMARK    4  A    between atoms: C5_5  and  C8_7 
REMARK       I    between atoms: C8_7  and  N10_9 
REMARK    5  A    between atoms: N10_9  and  C11_10 
REMARK    6  A    between atoms: C12_11  and  C13_12 
REMARK    7  A    between atoms: C13_12  and  O15_14 
ROOT
ATOM      1  C8  ZIN A   1      18.728   1.186  13.700  0.00  0.00     0.255 C 
ATOM      2  O9  ZIN A   1      17.540   1.357  13.872  0.00  0.00    -0.271 OA
ATOM      3  N10 ZIN A   1      19.619   1.757  14.535  0.00  0.00    -0.323 N 
ATOM      4  H32 ZIN A   1      20.563   1.556  14.448  0.00  0.00     0.169 HD
ENDROOT
BRANCH   3   5
ATOM      5  C11 ZIN A   1      19.181   2.639  15.525  0.00  0.00     0.064 A 
ATOM      6  C19 ZIN A   1      18.900   3.970  15.289  0.00  0.00    -0.027 A 
ATOM      7  C18 ZIN A   1      18.488   4.658  16.357  0.00  0.00     0.059 A 
ATOM      8  C20 ZIN A   1      19.037   4.597  13.926  0.00  0.00     0.051 C 
ATOM      9  S17 ZIN A   1      18.438   3.672  17.747  0.00  0.00    -0.093 SA
ATOM     10  C12 ZIN A   1      18.990   2.273  16.837  0.00  0.00     0.107 A 
BRANCH  10  11
ATOM     11  C13 ZIN A   1      19.204   0.979  17.368  0.00  0.00     0.302 C 
ATOM     12  O14 ZIN A   1      19.869   0.837  18.377  0.00  0.00    -0.259 OA
BRANCH  11  13
ATOM     13  O15 ZIN A   1      18.670  -0.099  16.754  0.00  0.00    -0.322 OA
ATOM     14  C16 ZIN A   1      17.279  -0.344  16.969  0.00  0.00     0.213 C 
ENDBRANCH  11  13
ENDBRANCH  10  11
ENDBRANCH   3   5
BRANCH   1  15
ATOM     15  C5  ZIN A   1      19.208   0.337  12.552  0.00  0.00     0.307 C 
ATOM     16  C7  ZIN A   1      20.701   0.586  12.322  0.00  0.00     0.053 C 
BRANCH  15  17
ATOM     17  N4  ZIN A   1      18.461   0.687  11.337  0.00  0.00     0.096 N 
ATOM     18  H28 ZIN A   1      17.658   1.257  11.559  0.00  0.00     0.316 HD
BRANCH  17  19
ATOM     19  C3  ZIN A   1      19.329   1.356  10.359  0.00  0.00     0.270 C 
BRANCH  19  20
ATOM     20  C2  ZIN A   1      18.550   2.478   9.670  0.00  0.00     0.025 C 
ATOM     21  C1  ZIN A   1      17.654   3.179  10.692  0.00  0.00     0.007 C 
ENDBRANCH  19  20
ENDBRANCH  17  19
ENDBRANCH  15  17
ENDBRANCH   1  15
TORSDOF 7
ENDMDL
MODEL 7
REMARK VINA RESULT:      -5.8      2.243      3.802
REMARK  7 active torsions:
REMARK  status: ('A' for Active; 'I' for Inactive)
REMARK    1  A    between atoms: C2_2  and  C3_3 
REMARK    2  A    between atoms: C3_3  and  N4_4 
REMARK    3  A    between atoms: N4_4  and  C5_5 
REMARK    4  A    between atoms: C5_5  and  C8_7 
REMARK       I    between atoms: C8_7  and  N10_9 
REMARK    5  A    between atoms: N10_9  and  C11_10 
REMARK    6  A    between atoms: C12_11  and  C13_12 
REMARK    7  A    between atoms: C13_12  and  O15_14 
ROOT
ATOM      1  C8  ZIN A   1      19.447   1.687  11.808  0.00  0.00     0.255 C 
ATOM      2  O9  ZIN A   1      20.504   1.173  12.105  0.00  0.00    -0.271 OA
ATOM      3  N10 ZIN A   1      18.387   1.572  12.633  0.00  0.00    -0.323 N 
ATOM      4  H32 ZIN A   1      17.566   2.049  12.437  0.00  0.00     0.169 HD
ENDROOT
BRANCH   3   5
ATOM      5  C11 ZIN A   1      18.470   0.764  13.767  0.00  0.00     0.064 A 
ATOM      6  C19 ZIN A   1      18.757   1.249  15.028  0.00  0.00    -0.027 A 
ATOM      7  C18 ZIN A   1      18.789   0.327  15.994  0.00  0.00     0.059 A 
ATOM      8  C20 ZIN A   1      19.003   2.711  15.297  0.00  0.00     0.051 C 
ATOM      9  S17 ZIN A   1      18.472  -1.230  15.375  0.00  0.00    -0.093 SA
ATOM     10  C12 ZIN A   1      18.280  -0.598  13.746  0.00  0.00     0.107 A 
BRANCH  10  11
ATOM     11  C13 ZIN A   1      17.980  -1.367  12.596  0.00  0.00     0.302 C 
ATOM     12  O14 ZIN A   1      16.894  -1.260  12.059  0.00  0.00    -0.259 OA
BRANCH  11  13
ATOM     13  O15 ZIN A   1      18.899  -2.221  12.097  0.00  0.00    -0.322 OA
ATOM     14  C16 ZIN A   1      19.357  -1.974  10.765  0.00  0.00     0.213 C 
ENDBRANCH  11  13
ENDBRANCH  10  11
ENDBRANCH   3   5
BRANCH   1  15
ATOM     15  C5  ZIN A   1      19.319   2.454  10.517  0.00  0.00     0.307 C 
ATOM     16  C7  ZIN A   1      17.857   2.854  10.304  0.00  0.00     0.053 C 
BRANCH  15  17
ATOM     17  N4  ZIN A   1      19.764   1.611   9.400  0.00  0.00     0.096 N 
ATOM     18  H28 ZIN A   1      20.306   0.827   9.733  0.00  0.00     0.316 HD
BRANCH  17  19
ATOM     19  C3  ZIN A   1      18.622   1.157   8.595  0.00  0.00     0.270 C 
BRANCH  19  20
ATOM     20  C2  ZIN A   1      18.964   1.282   7.109  0.00  0.00     0.025 C 
ATOM     21  C1  ZIN A   1      18.056   0.356   6.298  0.00  0.00     0.007 C 
ENDBRANCH  19  20
ENDBRANCH  17  19
ENDBRANCH  15  17
ENDBRANCH   1  15
TORSDOF 7
ENDMDL
MODEL 8
REMARK VINA RESULT:      -5.7      5.646      8.629
REMARK  7 active torsions:
REMARK  status: ('A' for Active; 'I' for Inactive)
REMARK    1  A    between atoms: C2_2  and  C3_3 
REMARK    2  A    between atoms: C3_3  and  N4_4 
REMARK    3  A    between atoms: N4_4  and  C5_5 
REMARK    4  A    between atoms: C5_5  and  C8_7 
REMARK       I    between atoms: C8_7  and  N10_9 
REMARK    5  A    between atoms: N10_9  and  C11_10 
REMARK    6  A    between atoms: C12_11  and  C13_12 
REMARK    7  A    between atoms: C13_12  and  O15_14 
ROOT
ATOM      1  C8  ZIN A   1      18.734  -1.205   8.324  0.00  0.00     0.255 C 
ATOM      2  O9  ZIN A   1      17.537  -1.388   8.267  0.00  0.00    -0.271 OA
ATOM      3  N10 ZIN A   1      19.574  -2.043   7.683  0.00  0.00    -0.323 N 
ATOM      4  H32 ZIN A   1      20.525  -1.851   7.659  0.00  0.00     0.169 HD
ENDROOT
BRANCH   3   5
ATOM      5  C11 ZIN A   1      19.076  -3.185   7.055  0.00  0.00     0.064 A 
ATOM      6  C19 ZIN A   1      18.991  -4.417   7.672  0.00  0.00    -0.027 A 
ATOM      7  C18 ZIN A   1      18.482  -5.394   6.915  0.00  0.00     0.059 A 
ATOM      8  C20 ZIN A   1      19.428  -4.642   9.096  0.00  0.00     0.051 C 
ATOM      9  S17 ZIN A   1      18.085  -4.826   5.357  0.00  0.00    -0.093 SA
ATOM     10  C12 ZIN A   1      18.624  -3.201   5.756  0.00  0.00     0.107 A 
BRANCH  10  11
ATOM     11  C13 ZIN A   1      18.597  -2.088   4.882  0.00  0.00     0.302 C 
ATOM     12  O14 ZIN A   1      17.592  -1.840   4.243  0.00  0.00    -0.259 OA
BRANCH  11  13
ATOM     13  O15 ZIN A   1      19.688  -1.303   4.757  0.00  0.00    -0.322 OA
ATOM     14  C16 ZIN A   1      19.475   0.110   4.769  0.00  0.00     0.213 C 
ENDBRANCH  11  13
ENDBRANCH  10  11
ENDBRANCH   3   5
BRANCH   1  15
ATOM     15  C5  ZIN A   1      19.283  -0.043   9.110  0.00  0.00     0.307 C 
ATOM     16  C7  ZIN A   1      19.396   1.182   8.199  0.00  0.00     0.053 C 
BRANCH  15  17
ATOM     17  N4  ZIN A   1      20.610  -0.388   9.634  0.00  0.00     0.096 N 
ATOM     18  H28 ZIN A   1      21.299   0.293   9.352  0.00  0.00     0.316 HD
BRANCH  17  19
ATOM     19  C3  ZIN A   1      20.578  -0.530  11.096  0.00  0.00     0.270 C 
BRANCH  19  20
ATOM     20  C2  ZIN A   1      20.059  -1.922  11.463  0.00  0.00     0.025 C 
ATOM     21  C1  ZIN A   1      18.787  -1.786  12.302  0.00  0.00     0.007 C 
ENDBRANCH  19  20
ENDBRANCH  17  19
ENDBRANCH  15  17
ENDBRANCH   1  15
TORSDOF 7
ENDMDL
MODEL 9
REMARK VINA RESULT:      -5.7      4.275      6.717
REMARK  7 active torsions:
REMARK  status: ('A' for Active; 'I' for Inactive)
REMARK    1  A    between atoms: C2_2  and  C3_3 
REMARK    2  A    between atoms: C3_3  and  N4_4 
REMARK    3  A    between atoms: N4_4  and  C5_5 
REMARK    4  A    between atoms: C5_5  and  C8_7 
REMARK       I    between atoms: C8_7  and  N10_9 
REMARK    5  A    between atoms: N10_9  and  C11_10 
REMARK    6  A    between atoms: C12_11  and  C13_12 
REMARK    7  A    between atoms: C13_12  and  O15_14 
ROOT
ATOM      1  C8  ZIN A   1      19.330  -0.130   9.777  0.00  0.00     0.255 C 
ATOM      2  O9  ZIN A   1      20.495  -0.372  10.009  0.00  0.00    -0.271 OA
ATOM      3  N10 ZIN A   1      18.405  -1.104   9.884  0.00  0.00    -0.323 N 
ATOM      4  H32 ZIN A   1      17.464  -0.893   9.779  0.00  0.00     0.169 HD
ENDROOT
BRANCH   3   5
ATOM      5  C11 ZIN A   1      18.801  -2.416  10.145  0.00  0.00     0.064 A 
ATOM      6  C19 ZIN A   1      19.019  -2.907  11.418  0.00  0.00    -0.027 A 
ATOM      7  C18 ZIN A   1      19.388  -4.189  11.474  0.00  0.00     0.059 A 
ATOM      8  C20 ZIN A   1      18.841  -2.062  12.653  0.00  0.00     0.051 C 
ATOM      9  S17 ZIN A   1      19.501  -4.869   9.914  0.00  0.00    -0.093 SA
ATOM     10  C12 ZIN A   1      19.020  -3.354   9.163  0.00  0.00     0.107 A 
BRANCH  10  11
ATOM     11  C13 ZIN A   1      18.880  -3.133   7.772  0.00  0.00     0.302 C 
ATOM     12  O14 ZIN A   1      18.109  -3.813   7.122  0.00  0.00    -0.259 OA
BRANCH  11  13
ATOM     13  O15 ZIN A   1      19.605  -2.168   7.167  0.00  0.00    -0.322 OA
ATOM     14  C16 ZIN A   1      19.188  -1.768   5.859  0.00  0.00     0.213 C 
ENDBRANCH  11  13
ENDBRANCH  10  11
ENDBRANCH   3   5
BRANCH   1  15
ATOM     15  C5  ZIN A   1      18.917   1.261   9.368  0.00  0.00     0.307 C 
ATOM     16  C7  ZIN A   1      19.090   1.420   7.856  0.00  0.00     0.053 C 
BRANCH  15  17
ATOM     17  N4  ZIN A   1      19.756   2.245  10.064  0.00  0.00     0.096 N 
ATOM     18  H28 ZIN A   1      20.099   2.945   9.423  0.00  0.00     0.316 HD
BRANCH  17  19
ATOM     19  C3  ZIN A   1      19.025   2.865  11.178  0.00  0.00     0.270 C 
BRANCH  19  20
ATOM     20  C2  ZIN A   1      17.613   3.233  10.719  0.00  0.00     0.025 C 
ATOM     21  C1  ZIN A   1      17.591   4.691  10.256  0.00  0.00     0.007 C 
ENDBRANCH  19  20
ENDBRANCH  17  19
ENDBRANCH  15  17
ENDBRANCH   1  15
TORSDOF 7
ENDMDL
