MODEL 1
REMARK VINA RESULT:      -7.9      0.000      0.000
REMARK  2 active torsions:
REMARK  status: ('A' for Active; 'I' for Inactive)
REMARK    1  A    between atoms: N1_1  and  C2_2 
REMARK    2  A    between atoms: N10_10  and  C11_11 
ROOT
ATOM      1  C2  ZIN A   1      20.301  -0.456  10.399  0.00  0.00     0.042 A 
ATOM      2  C3  ZIN A   1      20.028  -0.536   9.031  0.00  0.00     0.030 A 
ATOM      3  C4  ZIN A   1      18.732  -0.441   8.572  0.00  0.00     0.003 A 
ATOM      4  C5  ZIN A   1      17.679  -0.264   9.460  0.00  0.00     0.018 A 
ATOM      5  C6  ZIN A   1      17.927  -0.183  10.818  0.00  0.00     0.050 A 
ATOM      6  C7  ZIN A   1      19.250  -0.285  11.299  0.00  0.00     0.074 A 
ATOM      7  C8  ZIN A   1      19.159  -0.159  12.763  0.00  0.00     0.264 A 
ATOM      8  O9  ZIN A   1      20.096  -0.197  13.537  0.00  0.00    -0.267 OA
ATOM      9  N10 ZIN A   1      17.869   0.005  13.102  0.00  0.00    -0.266 N 
ATOM     10  C20 ZIN A   1      17.077  -0.002  12.014  0.00  0.00     0.262 A 
ATOM     11  O21 ZIN A   1      15.869   0.124  12.014  0.00  0.00    -0.267 OA
ENDROOT
BRANCH   9  12
ATOM     12  C11 ZIN A   1      17.387   0.167  14.477  0.00  0.00     0.189 C 
ATOM     13  C18 ZIN A   1      17.838   1.498  15.015  0.00  0.00     0.247 C 
ATOM     14  N17 ZIN A   1      18.096   1.670  16.322  0.00  0.00    -0.296 N 
ATOM     15  O19 ZIN A   1      17.974   2.433  14.255  0.00  0.00    -0.271 OA
ATOM     16  C15 ZIN A   1      17.978   0.679  17.218  0.00  0.00     0.224 C 
ATOM     17  H31 ZIN A   1      18.377   2.546  16.629  0.00  0.00     0.171 HD
ATOM     18  C14 ZIN A   1      17.533  -0.699  16.805  0.00  0.00     0.106 C 
ATOM     19  O16 ZIN A   1      18.234   0.897  18.382  0.00  0.00    -0.273 OA
ATOM     20  C13 ZIN A   1      17.959  -0.952  15.355  0.00  0.00     0.045 C 
ENDBRANCH   9  12
BRANCH   1  21
ATOM     21  N1  ZIN A   1      21.606  -0.552  10.858  0.00  0.00    -0.398 N 
ATOM     22  H22 ZIN A   1      22.346  -0.471  10.235  0.00  0.00     0.156 HD
ATOM     23  H23 ZIN A   1      21.779  -0.694  11.801  0.00  0.00     0.156 HD
ENDBRANCH   1  21
TORSDOF 2
ENDMDL
MODEL 2
REMARK VINA RESULT:      -7.8      2.100      6.028
REMARK  2 active torsions:
REMARK  status: ('A' for Active; 'I' for Inactive)
REMARK    1  A    between atoms: N1_1  and  C2_2 
REMARK    2  A    between atoms: N10_10  and  C11_11 
ROOT
ATOM      1  C2  ZIN A   1      19.130   1.338  15.736  0.00  0.00     0.042 A 
ATOM      2  C3  ZIN A   1      19.048   0.727  16.990  0.00  0.00     0.030 A 
ATOM      3  C4  ZIN A   1      18.781  -0.621  17.092  0.00  0.00     0.003 A 
ATOM      4  C5  ZIN A   1      18.593  -1.393  15.953  0.00  0.00     0.018 A 
ATOM      5  C6  ZIN A   1      18.670  -0.807  14.702  0.00  0.00     0.050 A 
ATOM      6  C7  ZIN A   1      18.937   0.573  14.586  0.00  0.00     0.074 A 
ATOM      7  C8  ZIN A   1      18.952   0.864  13.143  0.00  0.00     0.264 A 
ATOM      8  O9  ZIN A   1      19.150   1.953  12.642  0.00  0.00    -0.267 OA
ATOM      9  N10 ZIN A   1      18.711  -0.276  12.472  0.00  0.00    -0.266 N 
ATOM     10  C20 ZIN A   1      18.529  -1.307  13.317  0.00  0.00     0.262 A 
ATOM     11  O21 ZIN A   1      18.294  -2.455  12.998  0.00  0.00    -0.267 OA
ENDROOT
BRANCH   9  12
ATOM     12  C11 ZIN A   1      18.649  -0.381  11.011  0.00  0.00     0.189 C 
ATOM     13  C18 ZIN A   1      20.019  -0.146  10.432  0.00  0.00     0.247 C 
ATOM     14  N17 ZIN A   1      20.176   0.414   9.222  0.00  0.00    -0.296 N 
ATOM     15  O19 ZIN A   1      20.999  -0.465  11.071  0.00  0.00    -0.271 OA
ATOM     16  C15 ZIN A   1      19.139   0.801   8.465  0.00  0.00     0.224 C 
ATOM     17  H31 ZIN A   1      21.076   0.542   8.882  0.00  0.00     0.171 HD
ATOM     18  C14 ZIN A   1      17.719   0.618   8.931  0.00  0.00     0.106 C 
ATOM     19  O16 ZIN A   1      19.349   1.308   7.384  0.00  0.00    -0.273 OA
ATOM     20  C13 ZIN A   1      17.682   0.673  10.463  0.00  0.00     0.045 C 
ENDBRANCH   9  12
BRANCH   1  21
ATOM     21  N1  ZIN A   1      19.398   2.695  15.637  0.00  0.00    -0.398 N 
ATOM     22  H22 ZIN A   1      20.317   3.008  15.627  0.00  0.00     0.156 HD
ATOM     23  H23 ZIN A   1      18.669   3.330  15.572  0.00  0.00     0.156 HD
ENDBRANCH   1  21
TORSDOF 2
ENDMDL
MODEL 3
REMARK VINA RESULT:      -7.8      2.461      3.495
REMARK  2 active torsions:
REMARK  status: ('A' for Active; 'I' for Inactive)
REMARK    1  A    between atoms: N1_1  and  C2_2 
REMARK    2  A    between atoms: N10_10  and  C11_11 
ROOT
ATOM      1  C2  ZIN A   1      19.331  -1.416   7.153  0.00  0.00     0.042 A 
ATOM      2  C3  ZIN A   1      19.271  -0.847   5.878  0.00  0.00     0.030 A 
ATOM      3  C4  ZIN A   1      19.010   0.497   5.727  0.00  0.00     0.003 A 
ATOM      4  C5  ZIN A   1      18.804   1.306   6.837  0.00  0.00     0.018 A 
ATOM      5  C6  ZIN A   1      18.859   0.763   8.108  0.00  0.00     0.050 A 
ATOM      6  C7  ZIN A   1      19.120  -0.614   8.274  0.00  0.00     0.074 A 
ATOM      7  C8  ZIN A   1      19.110  -0.856   9.726  0.00  0.00     0.264 A 
ATOM      8  O9  ZIN A   1      19.297  -1.928  10.266  0.00  0.00    -0.267 OA
ATOM      9  N10 ZIN A   1      18.860   0.306  10.354  0.00  0.00    -0.266 N 
ATOM     10  C20 ZIN A   1      18.695   1.308   9.472  0.00  0.00     0.262 A 
ATOM     11  O21 ZIN A   1      18.458   2.467   9.750  0.00  0.00    -0.267 OA
ENDROOT
BRANCH   9  12
ATOM     12  C11 ZIN A   1      18.774   0.460  11.809  0.00  0.00     0.189 C 
ATOM     13  C18 ZIN A   1      20.122   0.192  12.424  0.00  0.00     0.247 C 
ATOM     14  N17 ZIN A   1      20.235  -0.334  13.654  0.00  0.00    -0.296 N 
ATOM     15  O19 ZIN A   1      21.126   0.454  11.796  0.00  0.00    -0.271 OA
ATOM     16  C15 ZIN A   1      19.169  -0.658  14.401  0.00  0.00     0.224 C 
ATOM     17  H31 ZIN A   1      21.122  -0.484  14.017  0.00  0.00     0.171 HD
ATOM     18  C14 ZIN A   1      17.767  -0.437  13.900  0.00  0.00     0.106 C 
ATOM     19  O16 ZIN A   1      19.338  -1.138  15.501  0.00  0.00    -0.273 OA
ATOM     20  C13 ZIN A   1      17.757  -0.539  12.370  0.00  0.00     0.045 C 
ENDBRANCH   9  12
BRANCH   1  21
ATOM     21  N1  ZIN A   1      19.594  -2.770   7.302  0.00  0.00    -0.398 N 
ATOM     22  H22 ZIN A   1      18.998  -3.324   7.831  0.00  0.00     0.156 HD
ATOM     23  H23 ZIN A   1      20.370  -3.163   6.874  0.00  0.00     0.156 HD
ENDBRANCH   1  21
TORSDOF 2
ENDMDL
MODEL 4
REMARK VINA RESULT:      -7.5      1.853      6.071
REMARK  2 active torsions:
REMARK  status: ('A' for Active; 'I' for Inactive)
REMARK    1  A    between atoms: N1_1  and  C2_2 
REMARK    2  A    between atoms: N10_10  and  C11_11 
ROOT
ATOM      1  C2  ZIN A   1      18.399   1.139  16.477  0.00  0.00     0.042 A 
ATOM      2  C3  ZIN A   1      18.717   0.147  17.407  0.00  0.00     0.030 A 
ATOM      3  C4  ZIN A   1      19.062  -1.119  16.985  0.00  0.00     0.003 A 
ATOM      4  C5  ZIN A   1      19.099  -1.428  15.632  0.00  0.00     0.018 A 
ATOM      5  C6  ZIN A   1      18.787  -0.460  14.694  0.00  0.00     0.050 A 
ATOM      6  C7  ZIN A   1      18.427   0.838  15.115  0.00  0.00     0.074 A 
ATOM      7  C8  ZIN A   1      18.165   1.604  13.886  0.00  0.00     0.264 A 
ATOM      8  O9  ZIN A   1      17.826   2.771  13.838  0.00  0.00    -0.267 OA
ATOM      9  N10 ZIN A   1      18.361   0.800  12.827  0.00  0.00    -0.266 N 
ATOM     10  C20 ZIN A   1      18.725  -0.435  13.217  0.00  0.00     0.262 A 
ATOM     11  O21 ZIN A   1      18.967  -1.370  12.481  0.00  0.00    -0.267 OA
ENDROOT
BRANCH   9  12
ATOM     12  C11 ZIN A   1      18.195   1.213  11.430  0.00  0.00     0.189 C 
ATOM     13  C18 ZIN A   1      17.069   0.433  10.806  0.00  0.00     0.247 C 
ATOM     14  N17 ZIN A   1      17.074   0.128   9.498  0.00  0.00    -0.296 N 
ATOM     15  O19 ZIN A   1      16.140   0.071  11.496  0.00  0.00    -0.271 OA
ATOM     16  C15 ZIN A   1      18.072   0.485   8.677  0.00  0.00     0.224 C 
ATOM     17  H31 ZIN A   1      16.326  -0.370   9.133  0.00  0.00     0.171 HD
ATOM     18  C14 ZIN A   1      19.256   1.269   9.180  0.00  0.00     0.106 C 
ATOM     19  O16 ZIN A   1      18.022   0.171   7.508  0.00  0.00    -0.273 OA
ATOM     20  C13 ZIN A   1      19.489   0.935  10.658  0.00  0.00     0.045 C 
ENDBRANCH   9  12
BRANCH   1  21
ATOM     21  N1  ZIN A   1      18.053   2.412  16.904  0.00  0.00    -0.398 N 
ATOM     22  H22 ZIN A   1      17.202   2.560  17.346  0.00  0.00     0.156 HD
ATOM     23  H23 ZIN A   1      18.663   3.152  16.766  0.00  0.00     0.156 HD
ENDBRANCH   1  21
TORSDOF 2
ENDMDL
MODEL 5
REMARK VINA RESULT:      -7.4      2.987      5.207
REMARK  2 active torsions:
REMARK  status: ('A' for Active; 'I' for Inactive)
REMARK    1  A    between atoms: N1_1  and  C2_2 
REMARK    2  A    between atoms: N10_10  and  C11_11 
ROOT
ATOM      1  C2  ZIN A   1      17.318   4.287  13.198  0.00  0.00     0.042 A 
ATOM      2  C3  ZIN A   1      17.038   5.370  12.361  0.00  0.00     0.030 A 
ATOM      3  C4  ZIN A   1      17.096   5.225  10.992  0.00  0.00     0.003 A 
ATOM      4  C5  ZIN A   1      17.431   4.004  10.423  0.00  0.00     0.018 A 
ATOM      5  C6  ZIN A   1      17.712   2.918  11.234  0.00  0.00     0.050 A 
ATOM      6  C7  ZIN A   1      17.661   3.057  12.637  0.00  0.00     0.074 A 
ATOM      7  C8  ZIN A   1      18.006   1.735  13.187  0.00  0.00     0.264 A 
ATOM      8  O9  ZIN A   1      18.069   1.454  14.368  0.00  0.00    -0.267 OA
ATOM      9  N10 ZIN A   1      18.239   0.892  12.167  0.00  0.00    -0.266 N 
ATOM     10  C20 ZIN A   1      18.092   1.512  10.982  0.00  0.00     0.262 A 
ATOM     11  O21 ZIN A   1      18.239   1.001   9.890  0.00  0.00    -0.267 OA
ENDROOT
BRANCH   9  12
ATOM     12  C11 ZIN A   1      18.610  -0.518  12.324  0.00  0.00     0.189 C 
ATOM     13  C18 ZIN A   1      19.986  -0.742  11.756  0.00  0.00     0.247 C 
ATOM     14  N17 ZIN A   1      20.330  -1.918  11.208  0.00  0.00    -0.296 N 
ATOM     15  O19 ZIN A   1      20.799   0.157  11.792  0.00  0.00    -0.271 OA
ATOM     16  C15 ZIN A   1      19.480  -2.952  11.125  0.00  0.00     0.224 C 
ATOM     17  H31 ZIN A   1      21.230  -2.024  10.860  0.00  0.00     0.171 HD
ATOM     18  C14 ZIN A   1      18.076  -2.854  11.658  0.00  0.00     0.106 C 
ATOM     19  O16 ZIN A   1      19.850  -3.985  10.610  0.00  0.00    -0.273 OA
ATOM     20  C13 ZIN A   1      17.606  -1.398  11.573  0.00  0.00     0.045 C 
ENDBRANCH   9  12
BRANCH   1  21
ATOM     21  N1  ZIN A   1      17.259   4.435  14.576  0.00  0.00    -0.398 N 
ATOM     22  H22 ZIN A   1      17.245   5.322  14.967  0.00  0.00     0.156 HD
ATOM     23  H23 ZIN A   1      17.226   3.652  15.146  0.00  0.00     0.156 HD
ENDBRANCH   1  21
TORSDOF 2
ENDMDL
MODEL 6
REMARK VINA RESULT:      -7.4      3.455      6.990
REMARK  2 active torsions:
REMARK  status: ('A' for Active; 'I' for Inactive)
REMARK    1  A    between atoms: N1_1  and  C2_2 
REMARK    2  A    between atoms: N10_10  and  C11_11 
ROOT
ATOM      1  C2  ZIN A   1      20.429  -0.039  12.541  0.00  0.00     0.042 A 
ATOM      2  C3  ZIN A   1      20.152  -0.226  13.897  0.00  0.00     0.030 A 
ATOM      3  C4  ZIN A   1      19.093  -1.015  14.289  0.00  0.00     0.003 A 
ATOM      4  C5  ZIN A   1      18.287  -1.637  13.345  0.00  0.00     0.018 A 
ATOM      5  C6  ZIN A   1      18.545  -1.465  11.996  0.00  0.00     0.050 A 
ATOM      6  C7  ZIN A   1      19.623  -0.654  11.584  0.00  0.00     0.074 A 
ATOM      7  C8  ZIN A   1      19.615  -0.688  10.112  0.00  0.00     0.264 A 
ATOM      8  O9  ZIN A   1      20.397  -0.106   9.386  0.00  0.00    -0.267 OA
ATOM      9  N10 ZIN A   1      18.598  -1.467   9.705  0.00  0.00    -0.266 N 
ATOM     10  C20 ZIN A   1      17.915  -1.960  10.753  0.00  0.00     0.262 A 
ATOM     11  O21 ZIN A   1      16.949  -2.693  10.690  0.00  0.00    -0.267 OA
ENDROOT
BRANCH   9  12
ATOM     12  C11 ZIN A   1      18.274  -1.740   8.301  0.00  0.00     0.189 C 
ATOM     13  C18 ZIN A   1      19.188  -2.814   7.774  0.00  0.00     0.247 C 
ATOM     14  N17 ZIN A   1      19.556  -2.843   6.483  0.00  0.00    -0.296 N 
ATOM     15  O19 ZIN A   1      19.601  -3.668   8.528  0.00  0.00    -0.271 OA
ATOM     16  C15 ZIN A   1      19.146  -1.925   5.594  0.00  0.00     0.224 C 
ATOM     17  H31 ZIN A   1      20.140  -3.555   6.181  0.00  0.00     0.171 HD
ATOM     18  C14 ZIN A   1      18.228  -0.801   5.998  0.00  0.00     0.106 C 
ATOM     19  O16 ZIN A   1      19.522  -2.002   4.445  0.00  0.00    -0.273 OA
ATOM     20  C13 ZIN A   1      18.465  -0.465   7.474  0.00  0.00     0.045 C 
ENDBRANCH   9  12
BRANCH   1  21
ATOM     21  N1  ZIN A   1      21.496   0.756  12.149  0.00  0.00    -0.398 N 
ATOM     22  H22 ZIN A   1      22.355   0.668  12.592  0.00  0.00     0.156 HD
ATOM     23  H23 ZIN A   1      21.385   1.396  11.429  0.00  0.00     0.156 HD
ENDBRANCH   1  21
TORSDOF 2
ENDMDL
MODEL 7
REMARK VINA RESULT:      -7.3      2.477      3.785
REMARK  2 active torsions:
REMARK  status: ('A' for Active; 'I' for Inactive)
REMARK    1  A    between atoms: N1_1  and  C2_2 
REMARK    2  A    between atoms: N10_10  and  C11_11 
ROOT
ATOM      1  C2  ZIN A   1      19.230  -1.500   6.597  0.00  0.00     0.042 A 
ATOM      2  C3  ZIN A   1      19.248  -0.740   5.425  0.00  0.00     0.030 A 
ATOM      3  C4  ZIN A   1      19.114   0.630   5.481  0.00  0.00     0.003 A 
ATOM      4  C5  ZIN A   1      18.962   1.276   6.700  0.00  0.00     0.018 A 
ATOM      5  C6  ZIN A   1      18.941   0.542   7.873  0.00  0.00     0.050 A 
ATOM      6  C7  ZIN A   1      19.071  -0.862   7.826  0.00  0.00     0.074 A 
ATOM      7  C8  ZIN A   1      19.010  -1.321   9.224  0.00  0.00     0.264 A 
ATOM      8  O9  ZIN A   1      19.086  -2.476   9.594  0.00  0.00    -0.267 OA
ATOM      9  N10 ZIN A   1      18.856  -0.250  10.022  0.00  0.00    -0.266 N 
ATOM     10  C20 ZIN A   1      18.801   0.886   9.304  0.00  0.00     0.262 A 
ATOM     11  O21 ZIN A   1      18.666   2.005   9.755  0.00  0.00    -0.267 OA
ENDROOT
BRANCH   9  12
ATOM     12  C11 ZIN A   1      18.756  -0.313  11.483  0.00  0.00     0.189 C 
ATOM     13  C18 ZIN A   1      17.390   0.152  11.914  0.00  0.00     0.247 C 
ATOM     14  N17 ZIN A   1      17.204   0.770  13.091  0.00  0.00    -0.296 N 
ATOM     15  O19 ZIN A   1      16.440  -0.034  11.185  0.00  0.00    -0.271 OA
ATOM     16  C15 ZIN A   1      18.209   1.019  13.943  0.00  0.00     0.224 C 
ATOM     17  H31 ZIN A   1      16.307   1.048  13.335  0.00  0.00     0.171 HD
ATOM     18  C14 ZIN A   1      19.622   0.603  13.629  0.00  0.00     0.106 C 
ATOM     19  O16 ZIN A   1      17.977   1.590  14.987  0.00  0.00    -0.273 OA
ATOM     20  C13 ZIN A   1      19.818   0.597  12.108  0.00  0.00     0.045 C 
ENDBRANCH   9  12
BRANCH   1  21
ATOM     21  N1  ZIN A   1      19.364  -2.879   6.537  0.00  0.00    -0.398 N 
ATOM     22  H22 ZIN A   1      19.314  -3.407   7.350  0.00  0.00     0.156 HD
ATOM     23  H23 ZIN A   1      19.503  -3.316   5.683  0.00  0.00     0.156 HD
ENDBRANCH   1  21
TORSDOF 2
ENDMDL
MODEL 8
REMARK VINA RESULT:      -7.3      3.626      5.227
REMARK  2 active torsions:
REMARK  status: ('A' for Active; 'I' for Inactive)
REMARK    1  A    between atoms: N1_1  and  C2_2 
REMARK    2  A    between atoms: N10_10  and  C11_11 
ROOT
ATOM      1  C2  ZIN A   1      17.376  -4.697   9.045  0.00  0.00     0.042 A 
ATOM      2  C3  ZIN A   1      17.150  -5.813   9.853  0.00  0.00     0.030 A 
ATOM      3  C4  ZIN A   1      17.194  -5.700  11.226  0.00  0.00     0.003 A 
ATOM      4  C5  ZIN A   1      17.463  -4.478  11.826  0.00  0.00     0.018 A 
ATOM      5  C6  ZIN A   1      17.690  -3.359  11.044  0.00  0.00     0.050 A 
ATOM      6  C7  ZIN A   1      17.653  -3.465   9.638  0.00  0.00     0.074 A 
ATOM      7  C8  ZIN A   1      17.931  -2.114   9.123  0.00  0.00     0.264 A 
ATOM      8  O9  ZIN A   1      17.985  -1.801   7.950  0.00  0.00    -0.267 OA
ATOM      9  N10 ZIN A   1      18.115  -1.285  10.165  0.00  0.00    -0.266 N 
ATOM     10  C20 ZIN A   1      17.995  -1.942  11.333  0.00  0.00     0.262 A 
ATOM     11  O21 ZIN A   1      18.111  -1.451  12.438  0.00  0.00    -0.267 OA
ENDROOT
BRANCH   9  12
ATOM     12  C11 ZIN A   1      18.413   0.145  10.045  0.00  0.00     0.189 C 
ATOM     13  C18 ZIN A   1      19.803   0.414  10.555  0.00  0.00     0.247 C 
ATOM     14  N17 ZIN A   1      20.119   1.585  11.131  0.00  0.00    -0.296 N 
ATOM     15  O19 ZIN A   1      20.654  -0.443  10.447  0.00  0.00    -0.271 OA
ATOM     16  C15 ZIN A   1      19.228   2.573  11.295  0.00  0.00     0.224 C 
ATOM     17  H31 ZIN A   1      21.029   1.721  11.440  0.00  0.00     0.171 HD
ATOM     18  C14 ZIN A   1      17.805   2.428  10.825  0.00  0.00     0.106 C 
ATOM     19  O16 ZIN A   1      19.575   3.603  11.831  0.00  0.00    -0.273 OA
ATOM     20  C13 ZIN A   1      17.407   0.948  10.875  0.00  0.00     0.045 C 
ENDBRANCH   9  12
BRANCH   1  21
ATOM     21  N1  ZIN A   1      17.332  -4.813   7.664  0.00  0.00    -0.398 N 
ATOM     22  H22 ZIN A   1      16.514  -5.104   7.228  0.00  0.00     0.156 HD
ATOM     23  H23 ZIN A   1      18.114  -4.599   7.134  0.00  0.00     0.156 HD
ENDBRANCH   1  21
TORSDOF 2
ENDMDL
MODEL 9
REMARK VINA RESULT:      -7.3      3.163      6.437
REMARK  2 active torsions:
REMARK  status: ('A' for Active; 'I' for Inactive)
REMARK    1  A    between atoms: N1_1  and  C2_2 
REMARK    2  A    between atoms: N10_10  and  C11_11 
ROOT
ATOM      1  C2  ZIN A   1      18.712   3.721  15.077  0.00  0.00     0.042 A 
ATOM      2  C3  ZIN A   1      18.196   4.727  15.897  0.00  0.00     0.030 A 
ATOM      3  C4  ZIN A   1      17.259   5.611  15.409  0.00  0.00     0.003 A 
ATOM      4  C5  ZIN A   1      16.813   5.516  14.098  0.00  0.00     0.018 A 
ATOM      5  C6  ZIN A   1      17.311   4.527  13.268  0.00  0.00     0.050 A 
ATOM      6  C7  ZIN A   1      18.276   3.620  13.756  0.00  0.00     0.074 A 
ATOM      7  C8  ZIN A   1      18.583   2.715  12.636  0.00  0.00     0.264 A 
ATOM      8  O9  ZIN A   1      19.375   1.793  12.668  0.00  0.00    -0.267 OA
ATOM      9  N10 ZIN A   1      17.844   3.078  11.574  0.00  0.00    -0.266 N 
ATOM     10  C20 ZIN A   1      17.071   4.141  11.862  0.00  0.00     0.262 A 
ATOM     11  O21 ZIN A   1      16.301   4.687  11.097  0.00  0.00    -0.267 OA
ENDROOT
BRANCH   9  12
ATOM     12  C11 ZIN A   1      17.879   2.407  10.271  0.00  0.00     0.189 C 
ATOM     13  C18 ZIN A   1      17.429   0.979  10.429  0.00  0.00     0.247 C 
ATOM     14  N17 ZIN A   1      17.910   0.006   9.638  0.00  0.00    -0.296 N 
ATOM     15  O19 ZIN A   1      16.619   0.701  11.286  0.00  0.00    -0.271 OA
ATOM     16  C15 ZIN A   1      18.815   0.238   8.677  0.00  0.00     0.224 C 
ATOM     17  H31 ZIN A   1      17.588  -0.900   9.767  0.00  0.00     0.171 HD
ATOM     18  C14 ZIN A   1      19.344   1.624   8.418  0.00  0.00     0.106 C 
ATOM     19  O16 ZIN A   1      19.216  -0.686   8.003  0.00  0.00    -0.273 OA
ATOM     20  C13 ZIN A   1      19.310   2.427   9.724  0.00  0.00     0.045 C 
ENDBRANCH   9  12
BRANCH   1  21
ATOM     21  N1  ZIN A   1      19.655   2.832  15.571  0.00  0.00    -0.398 N 
ATOM     22  H22 ZIN A   1      19.613   1.894  15.325  0.00  0.00     0.156 HD
ATOM     23  H23 ZIN A   1      20.359   3.148  16.157  0.00  0.00     0.156 HD
ENDBRANCH   1  21
TORSDOF 2
ENDMDL
