MODEL 1
REMARK VINA RESULT:      -8.9      0.000      0.000
REMARK  1 active torsions:
REMARK  status: ('A' for Active; 'I' for Inactive)
REMARK    1  A    between atoms: C3_3  and  O4_4 
ROOT
ATOM      1  C1  <0> d   1      15.249  -5.617   8.450  0.00  0.00     0.015 C 
ATOM      2  C2  <0> d   1      16.275  -5.676   9.015  0.00  0.00    -0.078 C 
ATOM      3  C3  <0> d   1      17.563  -5.750   9.723  0.00  0.00     0.128 C 
ATOM      4  C5  <0> d   1      17.350  -6.245  11.176  0.00  0.00     0.052 C 
ATOM      5  C6  <0> d   1      17.769  -5.072  12.105  0.00  0.00     0.010 C 
ATOM      6  C7  <0> d   1      17.599  -3.844  11.203  0.00  0.00     0.002 C 
ATOM      7  C9  <0> d   1      18.391  -2.614  11.606  0.00  0.00    -0.004 C 
ATOM      8  C11 <0> d   1      17.928  -2.120  12.978  0.00  0.00     0.010 C 
ATOM      9  C12 <0> d   1      18.766  -0.908  13.396  0.00  0.00     0.035 C 
ATOM     10  C13 <0> d   1      18.661   0.143  12.300  0.00  0.00    -0.068 A 
ATOM     11  C14 <0> d   1      18.325   1.377  12.672  0.00  0.00     0.043 A 
ATOM     12  C15 <0> d   1      18.212   2.406  11.634  0.00  0.00     0.109 A 
ATOM     13  C16 <0> d   1      18.435   2.106  10.312  0.00  0.00    -0.002 A 
ATOM     14  C17 <0> d   1      18.230   3.319   9.651  0.00  0.00     0.156 A 
ATOM     15  N18 <0> d   1      17.920   4.193  10.573  0.00  0.00    -0.140 NA
ATOM     16  O19 <0> d   1      17.907   3.700  11.684  0.00  0.00    -0.213 OA
ATOM     17  C20 <0> d   1      18.811   0.756   9.808  0.00  0.00     0.057 A 
ATOM     18  C21 <0> d   1      18.942  -0.281  10.897  0.00  0.00    -0.013 A 
ATOM     19  C22 <0> d   1      20.400  -0.744  10.875  0.00  0.00     0.021 C 
ATOM     20  C23 <0> d   1      18.140  -1.536  10.540  0.00  0.00     0.003 C 
ATOM     21  C25 <0> d   1      18.546  -2.016   9.150  0.00  0.00     0.007 C 
ATOM     22  C26 <0> d   1      17.862  -3.344   8.786  0.00  0.00     0.014 C 
ATOM     23  C27 <0> d   1      18.174  -4.359   9.857  0.00  0.00     0.003 C 
ATOM     24  C28 <0> d   1      19.690  -4.468  10.042  0.00  0.00     0.020 C 
ENDROOT
BRANCH   3  25
ATOM     25  O4  <0> d   1      18.460  -6.620   9.030  0.00  0.00    -0.377 OA
ATOM     26  H30 <0> d   1      19.186  -6.953   9.576  0.00  0.00     0.211 HD
ENDBRANCH   3  25
TORSDOF 1
ENDMDL
MODEL 2
REMARK VINA RESULT:      -8.5      2.732      6.909
REMARK  1 active torsions:
REMARK  status: ('A' for Active; 'I' for Inactive)
REMARK    1  A    between atoms: C3_3  and  O4_4 
ROOT
ATOM      1  C1  <0> d   1      18.795   3.194   8.889  0.00  0.00     0.015 C 
ATOM      2  C2  <0> d   1      18.579   2.693   9.928  0.00  0.00    -0.078 C 
ATOM      3  C3  <0> d   1      18.307   2.065  11.231  0.00  0.00     0.128 C 
ATOM      4  C5  <0> d   1      19.585   2.073  12.108  0.00  0.00     0.052 C 
ATOM      5  C6  <0> d   1      19.976   0.586  12.326  0.00  0.00     0.010 C 
ATOM      6  C7  <0> d   1      19.332  -0.117  11.125  0.00  0.00     0.002 C 
ATOM      7  C9  <0> d   1      19.078  -1.605  11.288  0.00  0.00    -0.004 C 
ATOM      8  C11 <0> d   1      20.405  -2.344  11.469  0.00  0.00     0.010 C 
ATOM      9  C12 <0> d   1      20.135  -3.837  11.680  0.00  0.00     0.035 C 
ATOM     10  C13 <0> d   1      19.308  -4.341  10.505  0.00  0.00    -0.068 A 
ATOM     11  C14 <0> d   1      19.750  -5.427   9.874  0.00  0.00     0.043 A 
ATOM     12  C15 <0> d   1      18.974  -5.929   8.736  0.00  0.00     0.109 A 
ATOM     13  C16 <0> d   1      17.829  -5.292   8.322  0.00  0.00    -0.002 A 
ATOM     14  C17 <0> d   1      17.393  -6.052   7.235  0.00  0.00     0.156 A 
ATOM     15  N18 <0> d   1      18.258  -7.023   7.094  0.00  0.00    -0.140 NA
ATOM     16  O19 <0> d   1      19.145  -6.969   7.923  0.00  0.00    -0.213 OA
ATOM     17  C20 <0> d   1      17.266  -4.074   8.967  0.00  0.00     0.057 A 
ATOM     18  C21 <0> d   1      18.070  -3.589  10.149  0.00  0.00    -0.013 A 
ATOM     19  C22 <0> d   1      17.147  -3.686  11.365  0.00  0.00     0.021 C 
ATOM     20  C23 <0> d   1      18.366  -2.091  10.016  0.00  0.00     0.003 C 
ATOM     21  C25 <0> d   1      17.061  -1.337   9.780  0.00  0.00     0.007 C 
ATOM     22  C26 <0> d   1      17.281   0.184   9.760  0.00  0.00     0.014 C 
ATOM     23  C27 <0> d   1      17.954   0.593  11.046  0.00  0.00     0.003 C 
ATOM     24  C28 <0> d   1      17.136   0.097  12.241  0.00  0.00     0.020 C 
ENDROOT
BRANCH   3  25
ATOM     25  O4  <0> d   1      17.244   2.749  11.898  0.00  0.00    -0.377 OA
ATOM     26  H30 <0> d   1      16.524   2.170  12.187  0.00  0.00     0.211 HD
ENDBRANCH   3  25
TORSDOF 1
ENDMDL
MODEL 3
REMARK VINA RESULT:      -8.3      4.137      9.151
REMARK  1 active torsions:
REMARK  status: ('A' for Active; 'I' for Inactive)
REMARK    1  A    between atoms: C3_3  and  O4_4 
ROOT
ATOM      1  C1  <0> d   1      16.004   5.500  17.895  0.00  0.00     0.015 C 
ATOM      2  C2  <0> d   1      16.688   6.047  17.114  0.00  0.00    -0.078 C 
ATOM      3  C3  <0> d   1      17.546   6.733  16.135  0.00  0.00     0.128 C 
ATOM      4  C5  <0> d   1      16.699   7.679  15.246  0.00  0.00     0.052 C 
ATOM      5  C6  <0> d   1      16.790   7.120  13.800  0.00  0.00     0.010 C 
ATOM      6  C7  <0> d   1      17.124   5.641  14.025  0.00  0.00     0.002 C 
ATOM      7  C9  <0> d   1      17.778   4.926  12.857  0.00  0.00    -0.004 C 
ATOM      8  C11 <0> d   1      16.826   4.902  11.659  0.00  0.00     0.010 C 
ATOM      9  C12 <0> d   1      17.513   4.222  10.471  0.00  0.00     0.035 C 
ATOM     10  C13 <0> d   1      17.972   2.840  10.917  0.00  0.00    -0.068 A 
ATOM     11  C14 <0> d   1      17.621   1.808  10.151  0.00  0.00     0.043 A 
ATOM     12  C15 <0> d   1      18.046   0.466  10.561  0.00  0.00     0.109 A 
ATOM     13  C16 <0> d   1      18.777   0.274  11.709  0.00  0.00    -0.002 A 
ATOM     14  C17 <0> d   1      18.977  -1.107  11.755  0.00  0.00     0.156 A 
ATOM     15  N18 <0> d   1      18.386  -1.600  10.697  0.00  0.00    -0.140 NA
ATOM     16  O19 <0> d   1      17.863  -0.736  10.021  0.00  0.00    -0.213 OA
ATOM     17  C20 <0> d   1      19.210   1.368  12.622  0.00  0.00     0.057 A 
ATOM     18  C21 <0> d   1      18.779   2.741  12.167  0.00  0.00    -0.013 A 
ATOM     19  C22 <0> d   1      20.064   3.531  11.910  0.00  0.00     0.021 C 
ATOM     20  C23 <0> d   1      18.095   3.493  13.313  0.00  0.00     0.003 C 
ATOM     21  C25 <0> d   1      19.004   3.483  14.539  0.00  0.00     0.007 C 
ATOM     22  C26 <0> d   1      18.422   4.328  15.684  0.00  0.00     0.014 C 
ATOM     23  C27 <0> d   1      18.164   5.723  15.173  0.00  0.00     0.003 C 
ATOM     24  C28 <0> d   1      19.445   6.297  14.563  0.00  0.00     0.020 C 
ENDROOT
BRANCH   3  25
ATOM     25  O4  <0> d   1      18.571   7.469  16.805  0.00  0.00    -0.377 OA
ATOM     26  H30 <0> d   1      18.272   8.310  17.179  0.00  0.00     0.211 HD
ENDBRANCH   3  25
TORSDOF 1
ENDMDL
MODEL 4
REMARK VINA RESULT:      -8.2      3.384      7.173
REMARK  1 active torsions:
REMARK  status: ('A' for Active; 'I' for Inactive)
REMARK    1  A    between atoms: C3_3  and  O4_4 
ROOT
ATOM      1  C1  <0> d   1      17.042   0.236  12.891  0.00  0.00     0.015 C 
ATOM      2  C2  <0> d   1      18.028  -0.338  12.617  0.00  0.00    -0.078 C 
ATOM      3  C3  <0> d   1      19.265  -1.059  12.275  0.00  0.00     0.128 C 
ATOM      4  C5  <0> d   1      20.118  -0.223  11.288  0.00  0.00     0.052 C 
ATOM      5  C6  <0> d   1      20.177  -1.034   9.964  0.00  0.00     0.010 C 
ATOM      6  C7  <0> d   1      18.922  -1.910  10.043  0.00  0.00     0.002 C 
ATOM      7  C9  <0> d   1      18.936  -3.164   9.189  0.00  0.00    -0.004 C 
ATOM      8  C11 <0> d   1      19.020  -2.787   7.708  0.00  0.00     0.010 C 
ATOM      9  C12 <0> d   1      19.083  -4.060   6.858  0.00  0.00     0.035 C 
ATOM     10  C13 <0> d   1      17.875  -4.921   7.203  0.00  0.00    -0.068 A 
ATOM     11  C14 <0> d   1      17.130  -5.356   6.189  0.00  0.00     0.043 A 
ATOM     12  C15 <0> d   1      15.959  -6.183   6.496  0.00  0.00     0.109 A 
ATOM     13  C16 <0> d   1      15.630  -6.493   7.793  0.00  0.00    -0.002 A 
ATOM     14  C17 <0> d   1      14.478  -7.273   7.673  0.00  0.00     0.156 A 
ATOM     15  N18 <0> d   1      14.225  -7.362   6.393  0.00  0.00    -0.140 NA
ATOM     16  O19 <0> d   1      15.043  -6.760   5.723  0.00  0.00    -0.213 OA
ATOM     17  C20 <0> d   1      16.405  -6.048   8.985  0.00  0.00     0.057 A 
ATOM     18  C21 <0> d   1      17.617  -5.216   8.642  0.00  0.00    -0.013 A 
ATOM     19  C22 <0> d   1      18.831  -6.002   9.142  0.00  0.00     0.021 C 
ATOM     20  C23 <0> d   1      17.633  -3.928   9.470  0.00  0.00     0.003 C 
ATOM     21  C25 <0> d   1      17.494  -4.275  10.950  0.00  0.00     0.007 C 
ATOM     22  C26 <0> d   1      17.626  -3.029  11.840  0.00  0.00     0.014 C 
ATOM     23  C27 <0> d   1      18.936  -2.349  11.531  0.00  0.00     0.003 C 
ATOM     24  C28 <0> d   1      20.087  -3.347  11.681  0.00  0.00     0.020 C 
ENDROOT
BRANCH   3  25
ATOM     25  O4  <0> d   1      20.014  -1.346  13.457  0.00  0.00    -0.377 OA
ATOM     26  H30 <0> d   1      20.651  -0.658  13.697  0.00  0.00     0.211 HD
ENDBRANCH   3  25
TORSDOF 1
ENDMDL
MODEL 5
REMARK VINA RESULT:      -8.2      3.246      4.977
REMARK  1 active torsions:
REMARK  status: ('A' for Active; 'I' for Inactive)
REMARK    1  A    between atoms: C3_3  and  O4_4 
ROOT
ATOM      1  C1  <0> d   1      20.002  -3.388   6.233  0.00  0.00     0.015 C 
ATOM      2  C2  <0> d   1      19.298  -2.449   6.239  0.00  0.00    -0.078 C 
ATOM      3  C3  <0> d   1      18.414  -1.273   6.246  0.00  0.00     0.128 C 
ATOM      4  C5  <0> d   1      19.175  -0.026   5.729  0.00  0.00     0.052 C 
ATOM      5  C6  <0> d   1      19.251   0.967   6.921  0.00  0.00     0.010 C 
ATOM      6  C7  <0> d   1      19.112   0.050   8.141  0.00  0.00     0.002 C 
ATOM      7  C9  <0> d   1      18.636   0.716   9.418  0.00  0.00    -0.004 C 
ATOM      8  C11 <0> d   1      19.653   1.765   9.871  0.00  0.00     0.010 C 
ATOM      9  C12 <0> d   1      19.140   2.465  11.133  0.00  0.00     0.035 C 
ATOM     10  C13 <0> d   1      18.851   1.400  12.182  0.00  0.00    -0.068 A 
ATOM     11  C14 <0> d   1      19.388   1.574  13.388  0.00  0.00     0.043 A 
ATOM     12  C15 <0> d   1      19.129   0.559  14.414  0.00  0.00     0.109 A 
ATOM     13  C16 <0> d   1      18.363  -0.547  14.139  0.00  0.00    -0.002 A 
ATOM     14  C17 <0> d   1      18.354  -1.260  15.340  0.00  0.00     0.156 A 
ATOM     15  N18 <0> d   1      19.071  -0.566  16.185  0.00  0.00    -0.140 NA
ATOM     16  O19 <0> d   1      19.509   0.452  15.685  0.00  0.00    -0.213 OA
ATOM     17  C20 <0> d   1      17.727  -0.822  12.820  0.00  0.00     0.057 A 
ATOM     18  C21 <0> d   1      17.991   0.246  11.788  0.00  0.00    -0.013 A 
ATOM     19  C22 <0> d   1      16.627   0.836  11.423  0.00  0.00     0.021 C 
ATOM     20  C23 <0> d   1      18.493  -0.382  10.484  0.00  0.00     0.003 C 
ATOM     21  C25 <0> d   1      17.521  -1.472  10.041  0.00  0.00     0.007 C 
ATOM     22  C26 <0> d   1      17.910  -2.056   8.673  0.00  0.00     0.014 C 
ATOM     23  C27 <0> d   1      18.002  -0.929   7.674  0.00  0.00     0.003 C 
ATOM     24  C28 <0> d   1      16.694  -0.135   7.665  0.00  0.00     0.020 C 
ENDROOT
BRANCH   3  25
ATOM     25  O4  <0> d   1      17.258  -1.517   5.443  0.00  0.00    -0.377 OA
ATOM     26  H30 <0> d   1      17.357  -2.255   4.824  0.00  0.00     0.211 HD
ENDBRANCH   3  25
TORSDOF 1
ENDMDL
MODEL 6
REMARK VINA RESULT:      -8.0      1.422      2.185
REMARK  1 active torsions:
REMARK  status: ('A' for Active; 'I' for Inactive)
REMARK    1  A    between atoms: C3_3  and  O4_4 
ROOT
ATOM      1  C1  <0> d   1      17.275  -4.397   8.510  0.00  0.00     0.015 C 
ATOM      2  C2  <0> d   1      18.078  -4.196   9.343  0.00  0.00    -0.078 C 
ATOM      3  C3  <0> d   1      19.085  -3.945  10.386  0.00  0.00     0.128 C 
ATOM      4  C5  <0> d   1      18.567  -4.435  11.761  0.00  0.00     0.052 C 
ATOM      5  C6  <0> d   1      18.429  -3.172  12.655  0.00  0.00     0.010 C 
ATOM      6  C7  <0> d   1      18.269  -2.044  11.629  0.00  0.00     0.002 C 
ATOM      7  C9  <0> d   1      18.620  -0.651  12.118  0.00  0.00    -0.004 C 
ATOM      8  C11 <0> d   1      17.679  -0.243  13.253  0.00  0.00     0.010 C 
ATOM      9  C12 <0> d   1      18.072   1.144  13.771  0.00  0.00     0.035 C 
ATOM     10  C13 <0> d   1      18.067   2.110  12.594  0.00  0.00    -0.068 A 
ATOM     11  C14 <0> d   1      17.377   3.239  12.739  0.00  0.00     0.043 A 
ATOM     12  C15 <0> d   1      17.352   4.183  11.618  0.00  0.00     0.109 A 
ATOM     13  C16 <0> d   1      18.013   3.909  10.445  0.00  0.00    -0.002 A 
ATOM     14  C17 <0> d   1      17.752   5.020   9.641  0.00  0.00     0.156 A 
ATOM     15  N18 <0> d   1      17.002   5.822  10.353  0.00  0.00    -0.140 NA
ATOM     16  O19 <0> d   1      16.772   5.370  11.458  0.00  0.00    -0.213 OA
ATOM     17  C20 <0> d   1      18.805   2.672  10.197  0.00  0.00     0.057 A 
ATOM     18  C21 <0> d   1      18.833   1.726  11.373  0.00  0.00    -0.013 A 
ATOM     19  C22 <0> d   1      20.298   1.619  11.803  0.00  0.00     0.021 C 
ATOM     20  C23 <0> d   1      18.465   0.308  10.927  0.00  0.00     0.003 C 
ATOM     21  C25 <0> d   1      19.355  -0.102   9.757  0.00  0.00     0.007 C 
ATOM     22  C26 <0> d   1      19.114  -1.563   9.345  0.00  0.00     0.014 C 
ATOM     23  C27 <0> d   1      19.311  -2.446  10.552  0.00  0.00     0.003 C 
ATOM     24  C28 <0> d   1      20.692  -2.189  11.162  0.00  0.00     0.020 C 
ENDROOT
BRANCH   3  25
ATOM     25  O4  <0> d   1      20.313  -4.597  10.056  0.00  0.00    -0.377 OA
ATOM     26  H30 <0> d   1      20.343  -5.530  10.310  0.00  0.00     0.211 HD
ENDBRANCH   3  25
TORSDOF 1
ENDMDL
MODEL 7
REMARK VINA RESULT:      -7.9      2.729      3.947
REMARK  1 active torsions:
REMARK  status: ('A' for Active; 'I' for Inactive)
REMARK    1  A    between atoms: C3_3  and  O4_4 
ROOT
ATOM      1  C1  <0> d   1      16.617   0.174   6.103  0.00  0.00     0.015 C 
ATOM      2  C2  <0> d   1      17.422  -0.404   6.730  0.00  0.00    -0.078 C 
ATOM      3  C3  <0> d   1      18.433  -1.130   7.517  0.00  0.00     0.128 C 
ATOM      4  C5  <0> d   1      17.815  -2.407   8.139  0.00  0.00     0.052 C 
ATOM      5  C6  <0> d   1      17.857  -2.209   9.679  0.00  0.00     0.010 C 
ATOM      6  C7  <0> d   1      17.897  -0.684   9.828  0.00  0.00     0.002 C 
ATOM      7  C9  <0> d   1      18.452  -0.161  11.140  0.00  0.00    -0.004 C 
ATOM      8  C11 <0> d   1      17.561  -0.612  12.300  0.00  0.00     0.010 C 
ATOM      9  C12 <0> d   1      18.155  -0.121  13.623  0.00  0.00     0.035 C 
ATOM     10  C13 <0> d   1      18.328   1.389  13.535  0.00  0.00    -0.068 A 
ATOM     11  C14 <0> d   1      17.819   2.117  14.528  0.00  0.00     0.043 A 
ATOM     12  C15 <0> d   1      17.968   3.574  14.463  0.00  0.00     0.109 A 
ATOM     13  C16 <0> d   1      18.603   4.175  13.404  0.00  0.00    -0.002 A 
ATOM     14  C17 <0> d   1      18.537   5.539  13.700  0.00  0.00     0.156 A 
ATOM     15  N18 <0> d   1      17.908   5.637  14.842  0.00  0.00    -0.140 NA
ATOM     16  O19 <0> d   1      17.584   4.551  15.281  0.00  0.00    -0.213 OA
ATOM     17  C20 <0> d   1      19.197   3.440  12.253  0.00  0.00     0.057 A 
ATOM     18  C21 <0> d   1      19.050   1.941  12.353  0.00  0.00    -0.013 A 
ATOM     19  C22 <0> d   1      20.471   1.375  12.417  0.00  0.00     0.021 C 
ATOM     20  C23 <0> d   1      18.475   1.372  11.052  0.00  0.00     0.003 C 
ATOM     21  C25 <0> d   1      19.316   1.854   9.874  0.00  0.00     0.007 C 
ATOM     22  C26 <0> d   1      18.858   1.217   8.552  0.00  0.00     0.014 C 
ATOM     23  C27 <0> d   1      18.888  -0.284   8.702  0.00  0.00     0.003 C 
ATOM     24  C28 <0> d   1      20.277  -0.731   9.162  0.00  0.00     0.020 C 
ENDROOT
BRANCH   3  25
ATOM     25  O4  <0> d   1      19.550  -1.469   6.694  0.00  0.00    -0.377 OA
ATOM     26  H30 <0> d   1      19.326  -1.606   5.762  0.00  0.00     0.211 HD
ENDBRANCH   3  25
TORSDOF 1
ENDMDL
MODEL 8
REMARK VINA RESULT:      -7.8      3.946      7.366
REMARK  1 active torsions:
REMARK  status: ('A' for Active; 'I' for Inactive)
REMARK    1  A    between atoms: C3_3  and  O4_4 
ROOT
ATOM      1  C1  <0> d   1      16.632   0.226  12.304  0.00  0.00     0.015 C 
ATOM      2  C2  <0> d   1      17.619   0.428  11.703  0.00  0.00    -0.078 C 
ATOM      3  C3  <0> d   1      18.858   0.682  10.949  0.00  0.00     0.128 C 
ATOM      4  C5  <0> d   1      18.816   2.090  10.305  0.00  0.00     0.052 C 
ATOM      5  C6  <0> d   1      18.822   1.870   8.767  0.00  0.00     0.010 C 
ATOM      6  C7  <0> d   1      18.258   0.452   8.622  0.00  0.00     0.002 C 
ATOM      7  C9  <0> d   1      18.599  -0.265   7.329  0.00  0.00    -0.004 C 
ATOM      8  C11 <0> d   1      17.995   0.486   6.141  0.00  0.00     0.010 C 
ATOM      9  C12 <0> d   1      18.385  -0.219   4.838  0.00  0.00     0.035 C 
ATOM     10  C13 <0> d   1      17.941  -1.673   4.934  0.00  0.00    -0.068 A 
ATOM     11  C14 <0> d   1      17.215  -2.153   3.925  0.00  0.00     0.043 A 
ATOM     12  C15 <0> d   1      16.771  -3.548   3.996  0.00  0.00     0.109 A 
ATOM     13  C16 <0> d   1      17.083  -4.338   5.077  0.00  0.00    -0.002 A 
ATOM     14  C17 <0> d   1      16.490  -5.567   4.780  0.00  0.00     0.156 A 
ATOM     15  N18 <0> d   1      15.907  -5.424   3.618  0.00  0.00    -0.140 NA
ATOM     16  O19 <0> d   1      16.055  -4.304   3.168  0.00  0.00    -0.213 OA
ATOM     17  C20 <0> d   1      17.886  -3.882   6.245  0.00  0.00     0.057 A 
ATOM     18  C21 <0> d   1      18.349  -2.450   6.139  0.00  0.00    -0.013 A 
ATOM     19  C22 <0> d   1      19.879  -2.494   6.121  0.00  0.00     0.021 C 
ATOM     20  C23 <0> d   1      18.008  -1.681   7.420  0.00  0.00     0.003 C 
ATOM     21  C25 <0> d   1      18.553  -2.440   8.626  0.00  0.00     0.007 C 
ATOM     22  C26 <0> d   1      18.347  -1.655   9.931  0.00  0.00     0.014 C 
ATOM     23  C27 <0> d   1      18.974  -0.292   9.780  0.00  0.00     0.003 C 
ATOM     24  C28 <0> d   1      20.441  -0.439   9.366  0.00  0.00     0.020 C 
ENDROOT
BRANCH   3  25
ATOM     25  O4  <0> d   1      19.993   0.562  11.808  0.00  0.00    -0.377 OA
ATOM     26  H30 <0> d   1      20.775   0.187  11.377  0.00  0.00     0.211 HD
ENDBRANCH   3  25
TORSDOF 1
ENDMDL
MODEL 9
REMARK VINA RESULT:      -7.7      2.981      4.710
REMARK  1 active torsions:
REMARK  status: ('A' for Active; 'I' for Inactive)
REMARK    1  A    between atoms: C3_3  and  O4_4 
ROOT
ATOM      1  C1  <0> d   1      19.935  -5.010   9.661  0.00  0.00     0.015 C 
ATOM      2  C2  <0> d   1      19.352  -4.037   9.359  0.00  0.00    -0.078 C 
ATOM      3  C3  <0> d   1      18.621  -2.817   8.980  0.00  0.00     0.128 C 
ATOM      4  C5  <0> d   1      19.548  -1.857   8.195  0.00  0.00     0.052 C 
ATOM      5  C6  <0> d   1      19.702  -0.582   9.070  0.00  0.00     0.010 C 
ATOM      6  C7  <0> d   1      19.406  -1.099  10.482  0.00  0.00     0.002 C 
ATOM      7  C9  <0> d   1      18.968  -0.053  11.491  0.00  0.00    -0.004 C 
ATOM      8  C11 <0> d   1      20.089   0.965  11.707  0.00  0.00     0.010 C 
ATOM      9  C12 <0> d   1      19.620   2.043  12.689  0.00  0.00     0.035 C 
ATOM     10  C13 <0> d   1      19.163   1.354  13.968  0.00  0.00    -0.068 A 
ATOM     11  C14 <0> d   1      19.672   1.801  15.114  0.00  0.00     0.043 A 
ATOM     12  C15 <0> d   1      19.252   1.151  16.359  0.00  0.00     0.109 A 
ATOM     13  C16 <0> d   1      18.366   0.101  16.345  0.00  0.00    -0.002 A 
ATOM     14  C17 <0> d   1      18.225  -0.240  17.692  0.00  0.00     0.156 A 
ATOM     15  N18 <0> d   1      18.990   0.583  18.362  0.00  0.00    -0.140 NA
ATOM     16  O19 <0> d   1      19.568   1.365  17.633  0.00  0.00    -0.213 OA
ATOM     17  C20 <0> d   1      17.751  -0.464  15.112  0.00  0.00     0.057 A 
ATOM     18  C21 <0> d   1      18.183   0.236  13.846  0.00  0.00    -0.013 A 
ATOM     19  C22 <0> d   1      16.916   0.843  13.239  0.00  0.00     0.021 C 
ATOM     20  C23 <0> d   1      18.652  -0.784  12.804  0.00  0.00     0.003 C 
ATOM     21  C25 <0> d   1      17.570  -1.843  12.611  0.00  0.00     0.007 C 
ATOM     22  C26 <0> d   1      17.934  -2.827  11.487  0.00  0.00     0.014 C 
ATOM     23  C27 <0> d   1      18.201  -2.044  10.226  0.00  0.00     0.003 C 
ATOM     24  C28 <0> d   1      17.002  -1.148   9.907  0.00  0.00     0.020 C 
ENDROOT
BRANCH   3  25
ATOM     25  O4  <0> d   1      17.474  -3.152   8.196  0.00  0.00    -0.377 OA
ATOM     26  H30 <0> d   1      17.404  -2.654   7.369  0.00  0.00     0.211 HD
ENDBRANCH   3  25
TORSDOF 1
ENDMDL
