MODEL 1
REMARK VINA RESULT:      -7.9      0.000      0.000
REMARK  4 active torsions:
REMARK  status: ('A' for Active; 'I' for Inactive)
REMARK    1  A    between atoms: C3_3  and  C4_4 
REMARK    2  A    between atoms: C4_4  and  C6_5 
REMARK    3  A    between atoms: C4_4  and  N11_10 
REMARK    4  A    between atoms: C13_12  and  C14_13 
ROOT
ATOM      1  N1  <0> d   1      17.701   5.269   9.933  0.00  0.00    -0.197 NA
ATOM      2  C2  <0> d   1      17.648   4.170  10.215  0.00  0.00     0.061 C 
ATOM      3  C3  <0> d   1      17.580   2.745  10.579  0.00  0.00     0.151 C 
ENDROOT
BRANCH   3   4
ATOM      4  C4  <0> d   1      18.985   2.142  10.538  0.00  0.00     0.126 C 
BRANCH   4   5
ATOM      5  C6  <0> d   1      19.060   1.100   9.419  0.00  0.00     0.011 C 
ATOM      6  C10 <0> d   1      19.430   1.770   8.080  0.00  0.00     0.007 C 
ATOM      7  C9  <0> d   1      18.617   1.052   6.989  0.00  0.00     0.000 C 
ATOM      8  C8  <0> d   1      17.782  -0.030   7.702  0.00  0.00     0.000 C 
ATOM      9  C7  <0> d   1      17.664   0.480   9.160  0.00  0.00     0.007 C 
ENDBRANCH   4   5
BRANCH   4  10
ATOM     10  N11 <0> d   1      19.280   1.501  11.822  0.00  0.00    -0.274 N 
ATOM     11  N24 <0> d   1      20.424   0.751  12.120  0.00  0.00    -0.184 NA
ATOM     12  C23 <0> d   1      20.342   0.343  13.359  0.00  0.00     0.154 A 
ATOM     13  C13 <0> d   1      19.125   0.814  13.895  0.00  0.00     0.030 A 
ATOM     14  C12 <0> d   1      18.493   1.527  12.914  0.00  0.00     0.128 A 
BRANCH  13  15
ATOM     15  C14 <0> d   1      18.623   0.578  15.267  0.00  0.00     0.085 A 
ATOM     16  N22 <0> d   1      17.998  -0.554  15.581  0.00  0.00    -0.240 NA
ATOM     17  C21 <0> d   1      17.554  -0.770  16.805  0.00  0.00     0.236 A 
ATOM     18  N20 <0> d   1      17.689   0.108  17.777  0.00  0.00    -0.224 NA
ATOM     19  C19 <0> d   1      18.295   1.272  17.562  0.00  0.00     0.141 A 
ATOM     20  C15 <0> d   1      18.791   1.546  16.272  0.00  0.00     0.041 A 
ATOM     21  N18 <0> d   1      18.583   2.360  18.342  0.00  0.00    -0.350 N 
ATOM     22  C16 <0> d   1      19.394   2.875  16.340  0.00  0.00     0.034 A 
ATOM     23  C17 <0> d   1      19.237   3.309  17.602  0.00  0.00     0.091 A 
ATOM     24  H39 <0> d   1      18.356   2.445  19.282  0.00  0.00     0.166 HD
ENDBRANCH  13  15
ENDBRANCH   4  10
ENDBRANCH   3   4
TORSDOF 4
ENDMDL
MODEL 2
REMARK VINA RESULT:      -7.8      0.728      1.932
REMARK  4 active torsions:
REMARK  status: ('A' for Active; 'I' for Inactive)
REMARK    1  A    between atoms: C3_3  and  C4_4 
REMARK    2  A    between atoms: C4_4  and  C6_5 
REMARK    3  A    between atoms: C4_4  and  N11_10 
REMARK    4  A    between atoms: C13_12  and  C14_13 
ROOT
ATOM      1  N1  <0> d   1      17.756   5.442   9.694  0.00  0.00    -0.197 NA
ATOM      2  C2  <0> d   1      17.696   4.352  10.007  0.00  0.00     0.061 C 
ATOM      3  C3  <0> d   1      17.618   2.939  10.412  0.00  0.00     0.151 C 
ENDROOT
BRANCH   3   4
ATOM      4  C4  <0> d   1      19.021   2.330  10.410  0.00  0.00     0.126 C 
BRANCH   4   5
ATOM      5  C6  <0> d   1      19.084   1.197   9.384  0.00  0.00     0.011 C 
ATOM      6  C10 <0> d   1      19.341   1.760   7.971  0.00  0.00     0.007 C 
ATOM      7  C9  <0> d   1      18.504   0.911   6.999  0.00  0.00     0.000 C 
ATOM      8  C8  <0> d   1      17.767  -0.139   7.855  0.00  0.00     0.000 C 
ATOM      9  C7  <0> d   1      17.708   0.494   9.267  0.00  0.00     0.007 C 
ENDBRANCH   4   5
BRANCH   4  10
ATOM     10  N11 <0> d   1      19.326   1.800  11.742  0.00  0.00    -0.274 N 
ATOM     11  N24 <0> d   1      20.175   0.723  12.020  0.00  0.00    -0.184 NA
ATOM     12  C23 <0> d   1      20.206   0.542  13.314  0.00  0.00     0.154 A 
ATOM     13  C13 <0> d   1      19.361   1.501  13.910  0.00  0.00     0.030 A 
ATOM     14  C12 <0> d   1      18.832   2.263  12.906  0.00  0.00     0.128 A 
BRANCH  13  15
ATOM     15  C14 <0> d   1      19.094   1.653  15.358  0.00  0.00     0.085 A 
ATOM     16  N22 <0> d   1      19.516   2.728  16.021  0.00  0.00    -0.240 NA
ATOM     17  C21 <0> d   1      19.276   2.869  17.311  0.00  0.00     0.236 A 
ATOM     18  N20 <0> d   1      18.624   1.970  18.017  0.00  0.00    -0.224 NA
ATOM     19  C19 <0> d   1      18.167   0.858  17.447  0.00  0.00     0.141 A 
ATOM     20  C15 <0> d   1      18.394   0.664  16.070  0.00  0.00     0.041 A 
ATOM     21  N18 <0> d   1      17.475  -0.233  17.898  0.00  0.00    -0.350 N 
ATOM     22  C16 <0> d   1      17.788  -0.621  15.734  0.00  0.00     0.034 A 
ATOM     23  C17 <0> d   1      17.255  -1.108  16.867  0.00  0.00     0.091 A 
ATOM     24  H39 <0> d   1      17.182  -0.367  18.813  0.00  0.00     0.166 HD
ENDBRANCH  13  15
ENDBRANCH   4  10
ENDBRANCH   3   4
TORSDOF 4
ENDMDL
MODEL 3
REMARK VINA RESULT:      -7.6      1.734      3.431
REMARK  4 active torsions:
REMARK  status: ('A' for Active; 'I' for Inactive)
REMARK    1  A    between atoms: C3_3  and  C4_4 
REMARK    2  A    between atoms: C4_4  and  C6_5 
REMARK    3  A    between atoms: C4_4  and  N11_10 
REMARK    4  A    between atoms: C13_12  and  C14_13 
ROOT
ATOM      1  N1  <0> d   1      19.405  -3.111  11.051  0.00  0.00    -0.197 NA
ATOM      2  C2  <0> d   1      19.503  -1.998  10.843  0.00  0.00     0.061 C 
ATOM      3  C3  <0> d   1      19.631  -0.556  10.575  0.00  0.00     0.151 C 
ENDROOT
BRANCH   3   4
ATOM      4  C4  <0> d   1      18.245   0.090  10.598  0.00  0.00     0.126 C 
BRANCH   4   5
ATOM      5  C6  <0> d   1      18.002   0.825   9.278  0.00  0.00     0.011 C 
ATOM      6  C10 <0> d   1      17.420  -0.137   8.222  0.00  0.00     0.007 C 
ATOM      7  C9  <0> d   1      18.056   0.249   6.876  0.00  0.00     0.000 C 
ATOM      8  C8  <0> d   1      19.003   1.434   7.160  0.00  0.00     0.000 C 
ATOM      9  C7  <0> d   1      19.345   1.295   8.664  0.00  0.00     0.007 C 
ENDBRANCH   4   5
BRANCH   4  10
ATOM     10  N11 <0> d   1      18.169   1.044  11.708  0.00  0.00    -0.274 N 
ATOM     11  N24 <0> d   1      17.496   2.271  11.690  0.00  0.00    -0.184 NA
ATOM     12  C23 <0> d   1      17.643   2.843  12.856  0.00  0.00     0.154 A 
ATOM     13  C13 <0> d   1      18.433   1.996  13.662  0.00  0.00     0.030 A 
ATOM     14  C12 <0> d   1      18.740   0.891  12.918  0.00  0.00     0.128 A 
BRANCH  13  15
ATOM     15  C14 <0> d   1      18.852   2.257  15.057  0.00  0.00     0.085 A 
ATOM     16  N22 <0> d   1      19.177   3.485  15.454  0.00  0.00    -0.240 NA
ATOM     17  C21 <0> d   1      19.547   3.722  16.698  0.00  0.00     0.236 A 
ATOM     18  N20 <0> d   1      19.627   2.777  17.611  0.00  0.00    -0.224 NA
ATOM     19  C19 <0> d   1      19.327   1.516  17.311  0.00  0.00     0.141 A 
ATOM     20  C15 <0> d   1      18.922   1.214  15.996  0.00  0.00     0.041 A 
ATOM     21  N18 <0> d   1      19.312   0.342  18.016  0.00  0.00    -0.350 N 
ATOM     22  C16 <0> d   1      18.665  -0.224  15.968  0.00  0.00     0.034 A 
ATOM     23  C17 <0> d   1      18.916  -0.688  17.204  0.00  0.00     0.091 A 
ATOM     24  H39 <0> d   1      19.546   0.254  18.953  0.00  0.00     0.166 HD
ENDBRANCH  13  15
ENDBRANCH   4  10
ENDBRANCH   3   4
TORSDOF 4
ENDMDL
MODEL 4
REMARK VINA RESULT:      -7.6      3.333      8.065
REMARK  4 active torsions:
REMARK  status: ('A' for Active; 'I' for Inactive)
REMARK    1  A    between atoms: C3_3  and  C4_4 
REMARK    2  A    between atoms: C4_4  and  C6_5 
REMARK    3  A    between atoms: C4_4  and  N11_10 
REMARK    4  A    between atoms: C13_12  and  C14_13 
ROOT
ATOM      1  N1  <0> d   1      20.004   2.904  11.613  0.00  0.00    -0.197 NA
ATOM      2  C2  <0> d   1      19.963   1.846  12.025  0.00  0.00     0.061 C 
ATOM      3  C3  <0> d   1      19.909   0.475  12.558  0.00  0.00     0.151 C 
ENDROOT
BRANCH   3   4
ATOM      4  C4  <0> d   1      18.470  -0.041  12.492  0.00  0.00     0.126 C 
BRANCH   4   5
ATOM      5  C6  <0> d   1      18.116  -0.735  13.809  0.00  0.00     0.011 C 
ATOM      6  C10 <0> d   1      17.599   0.290  14.839  0.00  0.00     0.007 C 
ATOM      7  C9  <0> d   1      18.152  -0.144  16.207  0.00  0.00     0.000 C 
ATOM      8  C8  <0> d   1      18.986  -1.418  15.962  0.00  0.00     0.000 C 
ATOM      9  C7  <0> d   1      19.387  -1.328  14.469  0.00  0.00     0.007 C 
ENDBRANCH   4   5
BRANCH   4  10
ATOM     10  N11 <0> d   1      18.343  -0.995  11.388  0.00  0.00    -0.274 N 
ATOM     11  N24 <0> d   1      17.622  -2.194  11.419  0.00  0.00    -0.184 NA
ATOM     12  C23 <0> d   1      17.732  -2.777  10.255  0.00  0.00     0.154 A 
ATOM     13  C13 <0> d   1      18.546  -1.966   9.436  0.00  0.00     0.030 A 
ATOM     14  C12 <0> d   1      18.907  -0.871  10.171  0.00  0.00     0.128 A 
BRANCH  13  15
ATOM     15  C14 <0> d   1      18.939  -2.250   8.037  0.00  0.00     0.085 A 
ATOM     16  N22 <0> d   1      19.314  -3.473   7.668  0.00  0.00    -0.240 NA
ATOM     17  C21 <0> d   1      19.660  -3.730   6.421  0.00  0.00     0.236 A 
ATOM     18  N20 <0> d   1      19.667  -2.811   5.478  0.00  0.00    -0.224 NA
ATOM     19  C19 <0> d   1      19.313  -1.558   5.749  0.00  0.00     0.141 A 
ATOM     20  C15 <0> d   1      18.930  -1.234   7.066  0.00  0.00     0.041 A 
ATOM     21  N18 <0> d   1      19.219  -0.409   5.010  0.00  0.00    -0.350 N 
ATOM     22  C16 <0> d   1      18.602   0.189   7.058  0.00  0.00     0.034 A 
ATOM     23  C17 <0> d   1      18.795   0.625   5.802  0.00  0.00     0.091 A 
ATOM     24  H39 <0> d   1      19.422  -0.339   4.064  0.00  0.00     0.166 HD
ENDBRANCH  13  15
ENDBRANCH   4  10
ENDBRANCH   3   4
TORSDOF 4
ENDMDL
MODEL 5
REMARK VINA RESULT:      -7.4      2.884      3.664
REMARK  4 active torsions:
REMARK  status: ('A' for Active; 'I' for Inactive)
REMARK    1  A    between atoms: C3_3  and  C4_4 
REMARK    2  A    between atoms: C4_4  and  C6_5 
REMARK    3  A    between atoms: C4_4  and  N11_10 
REMARK    4  A    between atoms: C13_12  and  C14_13 
ROOT
ATOM      1  N1  <0> d   1      19.460   0.928   9.287  0.00  0.00    -0.197 NA
ATOM      2  C2  <0> d   1      19.028  -0.025   9.731  0.00  0.00     0.061 C 
ATOM      3  C3  <0> d   1      18.470  -1.259  10.306  0.00  0.00     0.151 C 
ENDROOT
BRANCH   3   4
ATOM      4  C4  <0> d   1      19.260  -1.640  11.559  0.00  0.00     0.126 C 
BRANCH   4   5
ATOM      5  C6  <0> d   1      19.105  -3.139  11.824  0.00  0.00     0.011 C 
ATOM      6  C10 <0> d   1      19.805  -3.959  10.721  0.00  0.00     0.007 C 
ATOM      7  C9  <0> d   1      18.916  -5.187  10.454  0.00  0.00     0.000 C 
ATOM      8  C8  <0> d   1      17.707  -5.070  11.404  0.00  0.00     0.000 C 
ATOM      9  C7  <0> d   1      17.616  -3.557  11.720  0.00  0.00     0.007 C 
ENDBRANCH   4   5
BRANCH   4  10
ATOM     10  N11 <0> d   1      18.751  -0.886  12.707  0.00  0.00    -0.274 N 
ATOM     11  N24 <0> d   1      17.502  -0.261  12.788  0.00  0.00    -0.184 NA
ATOM     12  C23 <0> d   1      17.396   0.308  13.960  0.00  0.00     0.154 A 
ATOM     13  C13 <0> d   1      18.592   0.071  14.670  0.00  0.00     0.030 A 
ATOM     14  C12 <0> d   1      19.408  -0.671  13.863  0.00  0.00     0.128 A 
BRANCH  13  15
ATOM     15  C14 <0> d   1      18.906   0.542  16.038  0.00  0.00     0.085 A 
ATOM     16  N22 <0> d   1      19.079  -0.324  17.034  0.00  0.00    -0.240 NA
ATOM     17  C21 <0> d   1      19.364   0.092  18.254  0.00  0.00     0.236 A 
ATOM     18  N20 <0> d   1      19.484   1.366  18.564  0.00  0.00    -0.224 NA
ATOM     19  C19 <0> d   1      19.324   2.308  17.638  0.00  0.00     0.141 A 
ATOM     20  C15 <0> d   1      19.023   1.913  16.319  0.00  0.00     0.041 A 
ATOM     21  N18 <0> d   1      19.382   3.675  17.645  0.00  0.00    -0.350 N 
ATOM     22  C16 <0> d   1      18.907   3.144  15.541  0.00  0.00     0.034 A 
ATOM     23  C17 <0> d   1      19.131   4.162  16.389  0.00  0.00     0.091 A 
ATOM     24  H39 <0> d   1      19.573   4.220  18.425  0.00  0.00     0.166 HD
ENDBRANCH  13  15
ENDBRANCH   4  10
ENDBRANCH   3   4
TORSDOF 4
ENDMDL
MODEL 6
REMARK VINA RESULT:      -7.4      2.690      7.435
REMARK  4 active torsions:
REMARK  status: ('A' for Active; 'I' for Inactive)
REMARK    1  A    between atoms: C3_3  and  C4_4 
REMARK    2  A    between atoms: C4_4  and  C6_5 
REMARK    3  A    between atoms: C4_4  and  N11_10 
REMARK    4  A    between atoms: C13_12  and  C14_13 
ROOT
ATOM      1  N1  <0> d   1      17.972   4.252  13.937  0.00  0.00    -0.197 NA
ATOM      2  C2  <0> d   1      18.381   3.220  14.178  0.00  0.00     0.061 C 
ATOM      3  C3  <0> d   1      18.911   1.882  14.489  0.00  0.00     0.151 C 
ENDROOT
BRANCH   3   4
ATOM      4  C4  <0> d   1      18.085   0.823  13.757  0.00  0.00     0.126 C 
BRANCH   4   5
ATOM      5  C6  <0> d   1      17.851  -0.372  14.683  0.00  0.00     0.011 C 
ATOM      6  C10 <0> d   1      17.230   0.091  16.017  0.00  0.00     0.007 C 
ATOM      7  C9  <0> d   1      17.864  -0.774  17.121  0.00  0.00     0.000 C 
ATOM      8  C8  <0> d   1      18.848  -1.732  16.419  0.00  0.00     0.000 C 
ATOM      9  C7  <0> d   1      19.201  -1.012  15.095  0.00  0.00     0.007 C 
ENDBRANCH   4   5
BRANCH   4  10
ATOM     10  N11 <0> d   1      18.806   0.380  12.561  0.00  0.00    -0.274 N 
ATOM     11  N24 <0> d   1      20.177   0.534  12.326  0.00  0.00    -0.184 NA
ATOM     12  C23 <0> d   1      20.461   0.015  11.161  0.00  0.00     0.154 A 
ATOM     13  C13 <0> d   1      19.265  -0.482  10.602  0.00  0.00     0.030 A 
ATOM     14  C12 <0> d   1      18.261  -0.238  11.496  0.00  0.00     0.128 A 
BRANCH  13  15
ATOM     15  C14 <0> d   1      19.124  -1.146   9.286  0.00  0.00     0.085 A 
ATOM     16  N22 <0> d   1      19.064  -2.473   9.194  0.00  0.00    -0.240 NA
ATOM     17  C21 <0> d   1      18.934  -3.068   8.024  0.00  0.00     0.236 A 
ATOM     18  N20 <0> d   1      18.865  -2.403   6.889  0.00  0.00    -0.224 NA
ATOM     19  C19 <0> d   1      18.922  -1.074   6.876  0.00  0.00     0.141 A 
ATOM     20  C15 <0> d   1      19.056  -0.393   8.102  0.00  0.00     0.041 A 
ATOM     21  N18 <0> d   1      18.879  -0.124   5.892  0.00  0.00    -0.350 N 
ATOM     22  C16 <0> d   1      19.090   1.030   7.777  0.00  0.00     0.034 A 
ATOM     23  C17 <0> d   1      18.980   1.127   6.441  0.00  0.00     0.091 A 
ATOM     24  H39 <0> d   1      18.789  -0.310   4.943  0.00  0.00     0.166 HD
ENDBRANCH  13  15
ENDBRANCH   4  10
ENDBRANCH   3   4
TORSDOF 4
ENDMDL
MODEL 7
REMARK VINA RESULT:      -7.4      3.364      8.048
REMARK  4 active torsions:
REMARK  status: ('A' for Active; 'I' for Inactive)
REMARK    1  A    between atoms: C3_3  and  C4_4 
REMARK    2  A    between atoms: C4_4  and  C6_5 
REMARK    3  A    between atoms: C4_4  and  N11_10 
REMARK    4  A    between atoms: C13_12  and  C14_13 
ROOT
ATOM      1  N1  <0> d   1      16.999   3.880  11.217  0.00  0.00    -0.197 NA
ATOM      2  C2  <0> d   1      17.567   3.022  11.699  0.00  0.00     0.061 C 
ATOM      3  C3  <0> d   1      18.303   1.910  12.323  0.00  0.00     0.151 C 
ENDROOT
BRANCH   3   4
ATOM      4  C4  <0> d   1      17.719   0.580  11.845  0.00  0.00     0.126 C 
BRANCH   4   5
ATOM      5  C6  <0> d   1      17.812  -0.452  12.970  0.00  0.00     0.011 C 
ATOM      6  C10 <0> d   1      17.534   0.209  14.335  0.00  0.00     0.007 C 
ATOM      7  C9  <0> d   1      18.488  -0.450  15.346  0.00  0.00     0.000 C 
ATOM      8  C8  <0> d   1      19.313  -1.490  14.560  0.00  0.00     0.000 C 
ATOM      9  C7  <0> d   1      19.261  -0.989  13.096  0.00  0.00     0.007 C 
ENDBRANCH   4   5
BRANCH   4  10
ATOM     10  N11 <0> d   1      18.473   0.104  10.682  0.00  0.00    -0.274 N 
ATOM     11  N24 <0> d   1      19.740   0.551  10.288  0.00  0.00    -0.184 NA
ATOM     12  C23 <0> d   1      20.095  -0.102   9.213  0.00  0.00     0.154 A 
ATOM     13  C13 <0> d   1      19.050  -0.988   8.875  0.00  0.00     0.030 A 
ATOM     14  C12 <0> d   1      18.062  -0.833   9.807  0.00  0.00     0.128 A 
BRANCH  13  15
ATOM     15  C14 <0> d   1      19.029  -1.915   7.721  0.00  0.00     0.085 A 
ATOM     16  N22 <0> d   1      19.038  -3.234   7.905  0.00  0.00    -0.240 NA
ATOM     17  C21 <0> d   1      19.014  -4.064   6.879  0.00  0.00     0.236 A 
ATOM     18  N20 <0> d   1      18.989  -3.651   5.629  0.00  0.00    -0.224 NA
ATOM     19  C19 <0> d   1      18.982  -2.352   5.342  0.00  0.00     0.141 A 
ATOM     20  C15 <0> d   1      19.002  -1.427   6.404  0.00  0.00     0.041 A 
ATOM     21  N18 <0> d   1      18.959  -1.630   4.180  0.00  0.00    -0.350 N 
ATOM     22  C16 <0> d   1      18.989  -0.102   5.790  0.00  0.00     0.034 A 
ATOM     23  C17 <0> d   1      18.963  -0.289   4.460  0.00  0.00     0.091 A 
ATOM     24  H39 <0> d   1      18.940  -2.012   3.288  0.00  0.00     0.166 HD
ENDBRANCH  13  15
ENDBRANCH   4  10
ENDBRANCH   3   4
TORSDOF 4
ENDMDL
MODEL 8
REMARK VINA RESULT:      -7.3      3.548      8.379
REMARK  4 active torsions:
REMARK  status: ('A' for Active; 'I' for Inactive)
REMARK    1  A    between atoms: C3_3  and  C4_4 
REMARK    2  A    between atoms: C4_4  and  C6_5 
REMARK    3  A    between atoms: C4_4  and  N11_10 
REMARK    4  A    between atoms: C13_12  and  C14_13 
ROOT
ATOM      1  N1  <0> d   1      19.541  -1.743  12.793  0.00  0.00    -0.197 NA
ATOM      2  C2  <0> d   1      19.162  -0.675  12.719  0.00  0.00     0.061 C 
ATOM      3  C3  <0> d   1      18.672   0.710  12.622  0.00  0.00     0.151 C 
ENDROOT
BRANCH   3   4
ATOM      4  C4  <0> d   1      19.275   1.379  11.386  0.00  0.00     0.126 C 
BRANCH   4   5
ATOM      5  C6  <0> d   1      18.937   2.871  11.397  0.00  0.00     0.011 C 
ATOM      6  C10 <0> d   1      20.115   3.690  11.962  0.00  0.00     0.007 C 
ATOM      7  C9  <0> d   1      19.501   4.822  12.803  0.00  0.00     0.000 C 
ATOM      8  C8  <0> d   1      17.971   4.653  12.719  0.00  0.00     0.000 C 
ATOM      9  C7  <0> d   1      17.771   3.156  12.378  0.00  0.00     0.007 C 
ENDBRANCH   4   5
BRANCH   4  10
ATOM     10  N11 <0> d   1      18.723   0.762  10.177  0.00  0.00    -0.274 N 
ATOM     11  N24 <0> d   1      17.371   0.490   9.940  0.00  0.00    -0.184 NA
ATOM     12  C23 <0> d   1      17.257  -0.056   8.758  0.00  0.00     0.154 A 
ATOM     13  C13 <0> d   1      18.549  -0.164   8.201  0.00  0.00     0.030 A 
ATOM     14  C12 <0> d   1      19.432   0.352   9.108  0.00  0.00     0.128 A 
BRANCH  13  15
ATOM     15  C14 <0> d   1      18.886  -0.733   6.877  0.00  0.00     0.085 A 
ATOM     16  N22 <0> d   1      19.111   0.059   5.831  0.00  0.00    -0.240 NA
ATOM     17  C21 <0> d   1      19.416  -0.444   4.650  0.00  0.00     0.236 A 
ATOM     18  N20 <0> d   1      19.508  -1.739   4.428  0.00  0.00    -0.224 NA
ATOM     19  C19 <0> d   1      19.295  -2.612   5.409  0.00  0.00     0.141 A 
ATOM     20  C15 <0> d   1      18.971  -2.123   6.690  0.00  0.00     0.041 A 
ATOM     21  N18 <0> d   1      19.314  -3.978   5.494  0.00  0.00    -0.350 N 
ATOM     22  C16 <0> d   1      18.798  -3.295   7.543  0.00  0.00     0.034 A 
ATOM     23  C17 <0> d   1      19.015  -4.374   6.771  0.00  0.00     0.091 A 
ATOM     24  H39 <0> d   1      19.510  -4.578   4.757  0.00  0.00     0.166 HD
ENDBRANCH  13  15
ENDBRANCH   4  10
ENDBRANCH   3   4
TORSDOF 4
ENDMDL
MODEL 9
REMARK VINA RESULT:      -7.2      3.829      8.242
REMARK  4 active torsions:
REMARK  status: ('A' for Active; 'I' for Inactive)
REMARK    1  A    between atoms: C3_3  and  C4_4 
REMARK    2  A    between atoms: C4_4  and  C6_5 
REMARK    3  A    between atoms: C4_4  and  N11_10 
REMARK    4  A    between atoms: C13_12  and  C14_13 
ROOT
ATOM      1  N1  <0> d   1      19.969   2.959  11.708  0.00  0.00    -0.197 NA
ATOM      2  C2  <0> d   1      19.909   1.893  12.098  0.00  0.00     0.061 C 
ATOM      3  C3  <0> d   1      19.830   0.512  12.602  0.00  0.00     0.151 C 
ENDROOT
BRANCH   3   4
ATOM      4  C4  <0> d   1      18.377   0.037  12.560  0.00  0.00     0.126 C 
BRANCH   4   5
ATOM      5  C6  <0> d   1      18.015  -0.618  13.895  0.00  0.00     0.011 C 
ATOM      6  C10 <0> d   1      17.559   0.447  14.913  0.00  0.00     0.007 C 
ATOM      7  C9  <0> d   1      18.116   0.015  16.281  0.00  0.00     0.000 C 
ATOM      8  C8  <0> d   1      18.891  -1.298  16.047  0.00  0.00     0.000 C 
ATOM      9  C7  <0> d   1      19.271  -1.252  14.546  0.00  0.00     0.007 C 
ENDBRANCH   4   5
BRANCH   4  10
ATOM     10  N11 <0> d   1      18.212  -0.938  11.478  0.00  0.00    -0.274 N 
ATOM     11  N24 <0> d   1      17.378  -2.061  11.507  0.00  0.00    -0.184 NA
ATOM     12  C23 <0> d   1      17.489  -2.691  10.367  0.00  0.00     0.154 A 
ATOM     13  C13 <0> d   1      18.416  -1.989   9.569  0.00  0.00     0.030 A 
ATOM     14  C12 <0> d   1      18.843  -0.909  10.289  0.00  0.00     0.128 A 
BRANCH  13  15
ATOM     15  C14 <0> d   1      18.847  -2.355   8.201  0.00  0.00     0.085 A 
ATOM     16  N22 <0> d   1      18.747  -1.486   7.197  0.00  0.00    -0.240 NA
ATOM     17  C21 <0> d   1      19.135  -1.808   5.978  0.00  0.00     0.236 A 
ATOM     18  N20 <0> d   1      19.627  -2.990   5.675  0.00  0.00    -0.224 NA
ATOM     19  C19 <0> d   1      19.762  -3.929   6.607  0.00  0.00     0.141 A 
ATOM     20  C15 <0> d   1      19.367  -3.632   7.926  0.00  0.00     0.041 A 
ATOM     21  N18 <0> d   1      20.226  -5.217   6.608  0.00  0.00    -0.350 N 
ATOM     22  C16 <0> d   1      19.628  -4.834   8.712  0.00  0.00     0.034 A 
ATOM     23  C17 <0> d   1      20.141  -5.746   7.869  0.00  0.00     0.091 A 
ATOM     24  H39 <0> d   1      20.566  -5.686   5.829  0.00  0.00     0.166 HD
ENDBRANCH  13  15
ENDBRANCH   4  10
ENDBRANCH   3   4
TORSDOF 4
ENDMDL
