MODEL 1
REMARK VINA RESULT:      -9.3      0.000      0.000
REMARK  6 active torsions:
REMARK  status: ('A' for Active; 'I' for Inactive)
REMARK    1  A    between atoms: C4_4  and  O6_5 
REMARK    2  A    between atoms: C24_21  and  O26_22 
REMARK    3  A    between atoms: C27_23  and  O28_24 
REMARK    4  A    between atoms: C27_23  and  C29_25 
REMARK    5  A    between atoms: C29_25  and  C31_27 
REMARK    6  A    between atoms: C31_27  and  O32_28 
ROOT
ATOM      1  C1  ZIN A   1      17.210   0.465  11.987  0.00  0.00     0.019 C 
ATOM      2  C2  ZIN A   1      18.726   0.305  12.118  0.00  0.00     0.003 C 
ATOM      3  C3  ZIN A   1      19.428   1.318  11.233  0.00  0.00     0.048 C 
ATOM      4  C4  ZIN A   1      18.872   1.137   9.812  0.00  0.00     0.160 C 
ATOM      5  C7  ZIN A   1      19.072  -0.287   9.304  0.00  0.00     0.147 C 
ATOM      6  F8  ZIN A   1      20.441  -0.535   9.156  0.00  0.00    -0.238 F 
ATOM      7  C9  ZIN A   1      18.492  -1.326  10.277  0.00  0.00     0.035 C 
ATOM      8  C11 ZIN A   1      18.785  -2.734   9.757  0.00  0.00     0.013 C 
ATOM      9  C12 ZIN A   1      18.070  -2.953   8.421  0.00  0.00     0.036 C 
ATOM     10  C13 ZIN A   1      18.492  -1.844   7.474  0.00  0.00    -0.061 A 
ATOM     11  C14 ZIN A   1      18.950  -2.163   6.273  0.00  0.00     0.058 A 
ATOM     12  C15 ZIN A   1      19.387  -1.117   5.335  0.00  0.00     0.172 A 
ATOM     13  O16 ZIN A   1      19.774  -1.404   4.218  0.00  0.00    -0.289 OA
ATOM     14  C17 ZIN A   1      19.342   0.286   5.780  0.00  0.00     0.052 A 
ATOM     15  C18 ZIN A   1      18.876   0.584   6.982  0.00  0.00    -0.006 A 
ATOM     16  C19 ZIN A   1      18.382  -0.442   7.945  0.00  0.00     0.036 A 
ATOM     17  C20 ZIN A   1      16.893  -0.181   8.186  0.00  0.00     0.028 C 
ATOM     18  C21 ZIN A   1      19.151  -1.105  11.626  0.00  0.00     0.007 C 
ATOM     19  C23 ZIN A   1      18.661  -2.011  12.762  0.00  0.00     0.041 C 
ATOM     20  C24 ZIN A   1      19.026  -1.200  14.036  0.00  0.00     0.161 C 
ATOM     21  C27 ZIN A   1      19.119   0.296  13.591  0.00  0.00     0.153 C 
ENDROOT
BRANCH  21  22
ATOM     22  O28 ZIN A   1      20.457   0.776  13.750  0.00  0.00    -0.378 OA
ATOM     23  H52 ZIN A   1      20.891   1.010  12.919  0.00  0.00     0.211 HD
ENDBRANCH  21  22
BRANCH  21  24
ATOM     24  C29 ZIN A   1      18.163   1.140  14.393  0.00  0.00     0.187 C 
ATOM     25  O30 ZIN A   1      17.273   0.615  15.020  0.00  0.00    -0.292 OA
BRANCH  24  26
ATOM     26  C31 ZIN A   1      18.315   2.639  14.414  0.00  0.00     0.245 C 
BRANCH  26  27
ATOM     27  O32 ZIN A   1      19.488   2.989  15.152  0.00  0.00    -0.393 OA
ATOM     28  H55 ZIN A   1      20.043   3.650  14.715  0.00  0.00     0.209 HD
ENDBRANCH  26  27
ENDBRANCH  24  26
ENDBRANCH  21  24
BRANCH  20  29
ATOM     29  O26 ZIN A   1      20.287  -1.633  14.548  0.00  0.00    -0.392 OA
ATOM     30  H51 ZIN A   1      20.532  -1.222  15.389  0.00  0.00     0.210 HD
ENDBRANCH  20  29
BRANCH   4  31
ATOM     31  O6  ZIN A   1      17.475   1.437   9.816  0.00  0.00    -0.392 OA
ATOM     32  H38 ZIN A   1      17.091   1.536   8.934  0.00  0.00     0.210 HD
ENDBRANCH   4  31
TORSDOF 6
ENDMDL
MODEL 2
REMARK VINA RESULT:      -8.7      2.244      7.296
REMARK  6 active torsions:
REMARK  status: ('A' for Active; 'I' for Inactive)
REMARK    1  A    between atoms: C4_4  and  O6_5 
REMARK    2  A    between atoms: C24_21  and  O26_22 
REMARK    3  A    between atoms: C27_23  and  O28_24 
REMARK    4  A    between atoms: C27_23  and  C29_25 
REMARK    5  A    between atoms: C29_25  and  C31_27 
REMARK    6  A    between atoms: C31_27  and  O32_28 
ROOT
ATOM      1  C1  ZIN A   1      17.201  -0.348  10.932  0.00  0.00     0.019 C 
ATOM      2  C2  ZIN A   1      18.720  -0.216  10.804  0.00  0.00     0.003 C 
ATOM      3  C3  ZIN A   1      19.400  -1.267  11.661  0.00  0.00     0.048 C 
ATOM      4  C4  ZIN A   1      18.847  -1.113  13.087  0.00  0.00     0.160 C 
ATOM      5  C7  ZIN A   1      19.078   0.292  13.633  0.00  0.00     0.147 C 
ATOM      6  F8  ZIN A   1      20.452   0.507  13.787  0.00  0.00    -0.238 F 
ATOM      7  C9  ZIN A   1      18.520   1.369  12.689  0.00  0.00     0.035 C 
ATOM      8  C11 ZIN A   1      18.843   2.756  13.246  0.00  0.00     0.013 C 
ATOM      9  C12 ZIN A   1      18.133   2.954  14.588  0.00  0.00     0.036 C 
ATOM     10  C13 ZIN A   1      18.530   1.811  15.504  0.00  0.00    -0.061 A 
ATOM     11  C14 ZIN A   1      18.995   2.088  16.714  0.00  0.00     0.058 A 
ATOM     12  C15 ZIN A   1      19.409   1.007  17.623  0.00  0.00     0.172 A 
ATOM     13  O16 ZIN A   1      19.803   1.256  18.747  0.00  0.00    -0.289 OA
ATOM     14  C17 ZIN A   1      19.336  -0.381  17.140  0.00  0.00     0.052 A 
ATOM     15  C18 ZIN A   1      18.863  -0.636  15.930  0.00  0.00    -0.006 A 
ATOM     16  C19 ZIN A   1      18.391   0.425  14.996  0.00  0.00     0.036 A 
ATOM     17  C20 ZIN A   1      16.897   0.202  14.749  0.00  0.00     0.028 C 
ATOM     18  C21 ZIN A   1      19.174   1.170  11.334  0.00  0.00     0.007 C 
ATOM     19  C23 ZIN A   1      18.704   2.117  10.223  0.00  0.00     0.041 C 
ATOM     20  C24 ZIN A   1      19.051   1.333   8.927  0.00  0.00     0.161 C 
ATOM     21  C27 ZIN A   1      19.113  -0.176   9.332  0.00  0.00     0.153 C 
ENDROOT
BRANCH  21  22
ATOM     22  O28 ZIN A   1      20.440  -0.680   9.160  0.00  0.00    -0.378 OA
ATOM     23  H52 ZIN A   1      20.782  -1.157   9.927  0.00  0.00     0.211 HD
ENDBRANCH  21  22
BRANCH  21  24
ATOM     24  C29 ZIN A   1      18.139  -0.978   8.508  0.00  0.00     0.187 C 
ATOM     25  O30 ZIN A   1      17.263  -0.417   7.894  0.00  0.00    -0.292 OA
BRANCH  24  26
ATOM     26  C31 ZIN A   1      18.257  -2.479   8.449  0.00  0.00     0.245 C 
BRANCH  26  27
ATOM     27  O32 ZIN A   1      19.493  -2.835   7.827  0.00  0.00    -0.393 OA
ATOM     28  H55 ZIN A   1      19.413  -3.545   7.174  0.00  0.00     0.209 HD
ENDBRANCH  26  27
ENDBRANCH  24  26
ENDBRANCH  21  24
BRANCH  20  29
ATOM     29  O26 ZIN A   1      20.322   1.753   8.426  0.00  0.00    -0.392 OA
ATOM     30  H51 ZIN A   1      20.846   2.261   9.061  0.00  0.00     0.210 HD
ENDBRANCH  20  29
BRANCH   4  31
ATOM     31  O6  ZIN A   1      17.445  -1.383  13.075  0.00  0.00    -0.392 OA
ATOM     32  H38 ZIN A   1      17.220  -2.281  12.795  0.00  0.00     0.210 HD
ENDBRANCH   4  31
TORSDOF 6
ENDMDL
MODEL 3
REMARK VINA RESULT:      -8.5      1.897      6.798
REMARK  6 active torsions:
REMARK  status: ('A' for Active; 'I' for Inactive)
REMARK    1  A    between atoms: C4_4  and  O6_5 
REMARK    2  A    between atoms: C24_21  and  O26_22 
REMARK    3  A    between atoms: C27_23  and  O28_24 
REMARK    4  A    between atoms: C27_23  and  C29_25 
REMARK    5  A    between atoms: C29_25  and  C31_27 
REMARK    6  A    between atoms: C31_27  and  O32_28 
ROOT
ATOM      1  C1  ZIN A   1      19.783   0.435   8.737  0.00  0.00     0.019 C 
ATOM      2  C2  ZIN A   1      18.412  -0.237   8.642  0.00  0.00     0.003 C 
ATOM      3  C3  ZIN A   1      17.367   0.631   9.318  0.00  0.00     0.048 C 
ATOM      4  C4  ZIN A   1      17.863   0.905  10.746  0.00  0.00     0.160 C 
ATOM      5  C7  ZIN A   1      18.104  -0.388  11.518  0.00  0.00     0.147 C 
ATOM      6  F8  ZIN A   1      16.883  -1.042  11.714  0.00  0.00    -0.238 F 
ATOM      7  C9  ZIN A   1      19.048  -1.336  10.761  0.00  0.00     0.035 C 
ATOM      8  C11 ZIN A   1      19.195  -2.643  11.542  0.00  0.00     0.013 C 
ATOM      9  C12 ZIN A   1      19.859  -2.367  12.894  0.00  0.00     0.036 C 
ATOM     10  C13 ZIN A   1      19.044  -1.306  13.611  0.00  0.00    -0.061 A 
ATOM     11  C14 ZIN A   1      18.641  -1.535  14.853  0.00  0.00     0.058 A 
ATOM     12  C15 ZIN A   1      17.832  -0.539  15.573  0.00  0.00     0.172 A 
ATOM     13  O16 ZIN A   1      17.491  -0.730  16.725  0.00  0.00    -0.289 OA
ATOM     14  C17 ZIN A   1      17.447   0.695  14.867  0.00  0.00     0.052 A 
ATOM     15  C18 ZIN A   1      17.865   0.906  13.629  0.00  0.00    -0.006 A 
ATOM     16  C19 ZIN A   1      18.723  -0.057  12.880  0.00  0.00     0.036 A 
ATOM     17  C20 ZIN A   1      20.058   0.632  12.591  0.00  0.00     0.028 C 
ATOM     18  C21 ZIN A   1      18.437  -1.594   9.396  0.00  0.00     0.007 C 
ATOM     19  C23 ZIN A   1      19.263  -2.479   8.454  0.00  0.00     0.041 C 
ATOM     20  C24 ZIN A   1      18.734  -2.079   7.049  0.00  0.00     0.161 C 
ATOM     21  C27 ZIN A   1      18.135  -0.643   7.199  0.00  0.00     0.153 C 
ENDROOT
BRANCH  21  22
ATOM     22  O28 ZIN A   1      16.726  -0.667   6.954  0.00  0.00    -0.378 OA
ATOM     23  H52 ZIN A   1      16.286  -1.468   7.269  0.00  0.00     0.211 HD
ENDBRANCH  21  22
BRANCH  21  24
ATOM     24  C29 ZIN A   1      18.813   0.309   6.248  0.00  0.00     0.187 C 
ATOM     25  O30 ZIN A   1      18.768   1.499   6.450  0.00  0.00    -0.292 OA
BRANCH  24  26
ATOM     26  C31 ZIN A   1      19.549  -0.223   5.045  0.00  0.00     0.245 C 
BRANCH  26  27
ATOM     27  O32 ZIN A   1      18.623  -0.441   3.979  0.00  0.00    -0.393 OA
ATOM     28  H55 ZIN A   1      17.974   0.267   3.872  0.00  0.00     0.209 HD
ENDBRANCH  26  27
ENDBRANCH  24  26
ENDBRANCH  21  24
BRANCH  20  29
ATOM     29  O26 ZIN A   1      17.715  -2.988   6.632  0.00  0.00    -0.392 OA
ATOM     30  H51 ZIN A   1      17.616  -3.759   7.207  0.00  0.00     0.210 HD
ENDBRANCH  20  29
BRANCH   4  31
ATOM     31  O6  ZIN A   1      19.085   1.643  10.681  0.00  0.00    -0.392 OA
ATOM     32  H38 ZIN A   1      19.539   1.726  11.531  0.00  0.00     0.210 HD
ENDBRANCH   4  31
TORSDOF 6
ENDMDL
MODEL 4
REMARK VINA RESULT:      -8.4      2.914      6.150
REMARK  6 active torsions:
REMARK  status: ('A' for Active; 'I' for Inactive)
REMARK    1  A    between atoms: C4_4  and  O6_5 
REMARK    2  A    between atoms: C24_21  and  O26_22 
REMARK    3  A    between atoms: C27_23  and  O28_24 
REMARK    4  A    between atoms: C27_23  and  C29_25 
REMARK    5  A    between atoms: C29_25  and  C31_27 
REMARK    6  A    between atoms: C31_27  and  O32_28 
ROOT
ATOM      1  C1  ZIN A   1      19.957  -2.975   9.951  0.00  0.00     0.019 C 
ATOM      2  C2  ZIN A   1      18.615  -2.921   9.219  0.00  0.00     0.003 C 
ATOM      3  C3  ZIN A   1      18.670  -1.875   8.121  0.00  0.00     0.048 C 
ATOM      4  C4  ZIN A   1      19.112  -0.556   8.777  0.00  0.00     0.160 C 
ATOM      5  C7  ZIN A   1      18.169  -0.142   9.901  0.00  0.00     0.147 C 
ATOM      6  F8  ZIN A   1      16.914   0.162   9.362  0.00  0.00    -0.238 F 
ATOM      7  C9  ZIN A   1      17.993  -1.261  10.940  0.00  0.00     0.035 C 
ATOM      8  C11 ZIN A   1      16.983  -0.822  12.002  0.00  0.00     0.013 C 
ATOM      9  C12 ZIN A   1      17.528   0.390  12.765  0.00  0.00     0.036 C 
ATOM     10  C13 ZIN A   1      17.872   1.468  11.753  0.00  0.00    -0.061 A 
ATOM     11  C14 ZIN A   1      17.389   2.689  11.927  0.00  0.00     0.058 A 
ATOM     12  C15 ZIN A   1      17.684   3.756  10.956  0.00  0.00     0.172 A 
ATOM     13  O16 ZIN A   1      17.272   4.888  11.131  0.00  0.00    -0.289 OA
ATOM     14  C17 ZIN A   1      18.491   3.422   9.771  0.00  0.00     0.052 A 
ATOM     15  C18 ZIN A   1      18.969   2.197   9.621  0.00  0.00    -0.006 A 
ATOM     16  C19 ZIN A   1      18.731   1.099  10.602  0.00  0.00     0.036 A 
ATOM     17  C20 ZIN A   1      20.085   0.689  11.185  0.00  0.00     0.028 C 
ATOM     18  C21 ZIN A   1      17.495  -2.491  10.204  0.00  0.00     0.007 C 
ATOM     19  C23 ZIN A   1      17.310  -3.750  11.061  0.00  0.00     0.041 C 
ATOM     20  C24 ZIN A   1      17.394  -4.897  10.018  0.00  0.00     0.161 C 
ATOM     21  C27 ZIN A   1      18.196  -4.327   8.803  0.00  0.00     0.153 C 
ENDROOT
BRANCH  21  22
ATOM     22  O28 ZIN A   1      17.363  -4.272   7.642  0.00  0.00    -0.378 OA
ATOM     23  H52 ZIN A   1      16.827  -3.470   7.581  0.00  0.00     0.211 HD
ENDBRANCH  21  22
BRANCH  21  24
ATOM     24  C29 ZIN A   1      19.412  -5.176   8.534  0.00  0.00     0.187 C 
ATOM     25  O30 ZIN A   1      19.945  -5.771   9.440  0.00  0.00    -0.292 OA
BRANCH  24  26
ATOM     26  C31 ZIN A   1      19.962  -5.284   7.135  0.00  0.00     0.245 C 
BRANCH  26  27
ATOM     27  O32 ZIN A   1      21.036  -4.354   6.973  0.00  0.00    -0.393 OA
ATOM     28  H55 ZIN A   1      20.980  -3.828   6.163  0.00  0.00     0.209 HD
ENDBRANCH  26  27
ENDBRANCH  24  26
ENDBRANCH  21  24
BRANCH  20  29
ATOM     29  O26 ZIN A   1      16.082  -5.275   9.598  0.00  0.00    -0.392 OA
ATOM     30  H51 ZIN A   1      16.044  -5.630   8.699  0.00  0.00     0.210 HD
ENDBRANCH  20  29
BRANCH   4  31
ATOM     31  O6  ZIN A   1      20.427  -0.718   9.309  0.00  0.00    -0.392 OA
ATOM     32  H38 ZIN A   1      21.132  -0.435   8.710  0.00  0.00     0.210 HD
ENDBRANCH   4  31
TORSDOF 6
ENDMDL
MODEL 5
REMARK VINA RESULT:      -8.3      2.820      6.608
REMARK  6 active torsions:
REMARK  status: ('A' for Active; 'I' for Inactive)
REMARK    1  A    between atoms: C4_4  and  O6_5 
REMARK    2  A    between atoms: C24_21  and  O26_22 
REMARK    3  A    between atoms: C27_23  and  O28_24 
REMARK    4  A    between atoms: C27_23  and  C29_25 
REMARK    5  A    between atoms: C29_25  and  C31_27 
REMARK    6  A    between atoms: C31_27  and  O32_28 
ROOT
ATOM      1  C1  ZIN A   1      17.367  -3.370   9.222  0.00  0.00     0.019 C 
ATOM      2  C2  ZIN A   1      18.893  -3.416   9.327  0.00  0.00     0.003 C 
ATOM      3  C3  ZIN A   1      19.310  -3.355  10.784  0.00  0.00     0.048 C 
ATOM      4  C4  ZIN A   1      18.649  -2.107  11.391  0.00  0.00     0.160 C 
ATOM      5  C7  ZIN A   1      19.044  -0.840  10.640  0.00  0.00     0.147 C 
ATOM      6  F8  ZIN A   1      20.412  -0.606  10.816  0.00  0.00    -0.238 F 
ATOM      7  C9  ZIN A   1      18.759  -0.957   9.134  0.00  0.00     0.035 C 
ATOM      8  C11 ZIN A   1      19.241   0.308   8.422  0.00  0.00     0.013 C 
ATOM      9  C12 ZIN A   1      18.441   1.517   8.916  0.00  0.00     0.036 C 
ATOM     10  C13 ZIN A   1      18.560   1.575  10.428  0.00  0.00    -0.061 A 
ATOM     11  C14 ZIN A   1      18.940   2.708  11.000  0.00  0.00     0.058 A 
ATOM     12  C15 ZIN A   1      19.086   2.797  12.462  0.00  0.00     0.172 A 
ATOM     13  O16 ZIN A   1      19.400   3.846  12.993  0.00  0.00    -0.289 OA
ATOM     14  C17 ZIN A   1      18.842   1.588  13.265  0.00  0.00     0.052 A 
ATOM     15  C18 ZIN A   1      18.457   0.468  12.674  0.00  0.00    -0.006 A 
ATOM     16  C19 ZIN A   1      18.254   0.348  11.201  0.00  0.00     0.036 A 
ATOM     17  C20 ZIN A   1      16.776   0.037  10.956  0.00  0.00     0.028 C 
ATOM     18  C21 ZIN A   1      19.506  -2.175   8.623  0.00  0.00     0.007 C 
ATOM     19  C23 ZIN A   1      19.304  -2.505   7.139  0.00  0.00     0.041 C 
ATOM     20  C24 ZIN A   1      19.650  -4.018   7.069  0.00  0.00     0.161 C 
ATOM     21  C27 ZIN A   1      19.432  -4.585   8.509  0.00  0.00     0.153 C 
ENDROOT
BRANCH  21  22
ATOM     22  O28 ZIN A   1      20.673  -5.040   9.055  0.00  0.00    -0.378 OA
ATOM     23  H52 ZIN A   1      21.315  -5.322   8.390  0.00  0.00     0.211 HD
ENDBRANCH  21  22
BRANCH  21  24
ATOM     24  C29 ZIN A   1      18.430  -5.710   8.482  0.00  0.00     0.187 C 
ATOM     25  O30 ZIN A   1      18.161  -6.304   9.499  0.00  0.00    -0.292 OA
BRANCH  24  26
ATOM     26  C31 ZIN A   1      17.764  -6.096   7.187  0.00  0.00     0.245 C 
BRANCH  26  27
ATOM     27  O32 ZIN A   1      18.383  -7.274   6.665  0.00  0.00    -0.393 OA
ATOM     28  H55 ZIN A   1      18.613  -7.213   5.728  0.00  0.00     0.209 HD
ENDBRANCH  26  27
ENDBRANCH  24  26
ENDBRANCH  21  24
BRANCH  20  29
ATOM     29  O26 ZIN A   1      21.014  -4.191   6.682  0.00  0.00    -0.392 OA
ATOM     30  H51 ZIN A   1      21.176  -4.987   6.155  0.00  0.00     0.210 HD
ENDBRANCH  20  29
BRANCH   4  31
ATOM     31  O6  ZIN A   1      17.230  -2.257  11.336  0.00  0.00    -0.392 OA
ATOM     32  H38 ZIN A   1      16.924  -3.162  11.488  0.00  0.00     0.210 HD
ENDBRANCH   4  31
TORSDOF 6
ENDMDL
MODEL 6
REMARK VINA RESULT:      -8.3      2.870      4.804
REMARK  6 active torsions:
REMARK  status: ('A' for Active; 'I' for Inactive)
REMARK    1  A    between atoms: C4_4  and  O6_5 
REMARK    2  A    between atoms: C24_21  and  O26_22 
REMARK    3  A    between atoms: C27_23  and  O28_24 
REMARK    4  A    between atoms: C27_23  and  C29_25 
REMARK    5  A    between atoms: C29_25  and  C31_27 
REMARK    6  A    between atoms: C31_27  and  O32_28 
ROOT
ATOM      1  C1  ZIN A   1      17.713   5.095  14.188  0.00  0.00     0.019 C 
ATOM      2  C2  ZIN A   1      19.085   4.497  14.507  0.00  0.00     0.003 C 
ATOM      3  C3  ZIN A   1      20.053   4.800  13.379  0.00  0.00     0.048 C 
ATOM      4  C4  ZIN A   1      19.404   4.295  12.080  0.00  0.00     0.160 C 
ATOM      5  C7  ZIN A   1      19.077   2.808  12.154  0.00  0.00     0.147 C 
ATOM      6  F8  ZIN A   1      20.267   2.077  12.234  0.00  0.00    -0.238 F 
ATOM      7  C9  ZIN A   1      18.218   2.474  13.384  0.00  0.00     0.035 C 
ATOM      8  C11 ZIN A   1      17.982   0.964  13.451  0.00  0.00     0.013 C 
ATOM      9  C12 ZIN A   1      17.176   0.511  12.229  0.00  0.00     0.036 C 
ATOM     10  C13 ZIN A   1      17.912   0.969  10.983  0.00  0.00    -0.061 A 
ATOM     11  C14 ZIN A   1      18.176   0.085  10.032  0.00  0.00     0.058 A 
ATOM     12  C15 ZIN A   1      18.905   0.487   8.818  0.00  0.00     0.172 A 
ATOM     13  O16 ZIN A   1      19.118  -0.313   7.926  0.00  0.00    -0.289 OA
ATOM     14  C17 ZIN A   1      19.369   1.880   8.708  0.00  0.00     0.052 A 
ATOM     15  C18 ZIN A   1      19.088   2.748   9.668  0.00  0.00    -0.006 A 
ATOM     16  C19 ZIN A   1      18.315   2.393  10.891  0.00  0.00     0.036 A 
ATOM     17  C20 ZIN A   1      17.021   3.210  10.882  0.00  0.00     0.028 C 
ATOM     18  C21 ZIN A   1      18.973   2.952  14.611  0.00  0.00     0.007 C 
ATOM     19  C23 ZIN A   1      18.252   2.763  15.951  0.00  0.00     0.041 C 
ATOM     20  C24 ZIN A   1      18.932   3.822  16.863  0.00  0.00     0.161 C 
ATOM     21  C27 ZIN A   1      19.516   4.913  15.909  0.00  0.00     0.153 C 
ENDROOT
BRANCH  21  22
ATOM     22  O28 ZIN A   1      20.943   4.937  16.000  0.00  0.00    -0.378 OA
ATOM     23  H52 ZIN A   1      21.343   4.068  16.141  0.00  0.00     0.211 HD
ENDBRANCH  21  22
BRANCH  21  24
ATOM     24  C29 ZIN A   1      18.948   6.266  16.251  0.00  0.00     0.187 C 
ATOM     25  O30 ZIN A   1      19.330   7.248  15.660  0.00  0.00    -0.292 OA
BRANCH  24  26
ATOM     26  C31 ZIN A   1      17.904   6.394  17.330  0.00  0.00     0.245 C 
BRANCH  26  27
ATOM     27  O32 ZIN A   1      18.509   6.908  18.519  0.00  0.00    -0.393 OA
ATOM     28  H55 ZIN A   1      19.038   6.258  19.002  0.00  0.00     0.209 HD
ENDBRANCH  26  27
ENDBRANCH  24  26
ENDBRANCH  21  24
BRANCH  20  29
ATOM     29  O26 ZIN A   1      19.988   3.217  17.612  0.00  0.00    -0.392 OA
ATOM     30  H51 ZIN A   1      20.090   2.269  17.453  0.00  0.00     0.210 HD
ENDBRANCH  20  29
BRANCH   4  31
ATOM     31  O6  ZIN A   1      18.199   5.025  11.846  0.00  0.00    -0.392 OA
ATOM     32  H38 ZIN A   1      17.449   4.728  12.380  0.00  0.00     0.210 HD
ENDBRANCH   4  31
TORSDOF 6
ENDMDL
MODEL 7
REMARK VINA RESULT:      -8.1      2.498      4.547
REMARK  6 active torsions:
REMARK  status: ('A' for Active; 'I' for Inactive)
REMARK    1  A    between atoms: C4_4  and  O6_5 
REMARK    2  A    between atoms: C24_21  and  O26_22 
REMARK    3  A    between atoms: C27_23  and  O28_24 
REMARK    4  A    between atoms: C27_23  and  C29_25 
REMARK    5  A    between atoms: C29_25  and  C31_27 
REMARK    6  A    between atoms: C31_27  and  O32_28 
ROOT
ATOM      1  C1  ZIN A   1      19.969   2.080  11.969  0.00  0.00     0.019 C 
ATOM      2  C2  ZIN A   1      18.462   2.325  11.871  0.00  0.00     0.003 C 
ATOM      3  C3  ZIN A   1      17.731   1.428  12.853  0.00  0.00     0.048 C 
ATOM      4  C4  ZIN A   1      18.180  -0.014  12.567  0.00  0.00     0.160 C 
ATOM      5  C7  ZIN A   1      17.900  -0.416  11.123  0.00  0.00     0.147 C 
ATOM      6  F8  ZIN A   1      16.517  -0.454  10.915  0.00  0.00    -0.238 F 
ATOM      7  C9  ZIN A   1      18.515   0.578  10.125  0.00  0.00     0.035 C 
ATOM      8  C11 ZIN A   1      18.142   0.169   8.699  0.00  0.00     0.013 C 
ATOM      9  C12 ZIN A   1      18.753  -1.197   8.375  0.00  0.00     0.036 C 
ATOM     10  C13 ZIN A   1      18.301  -2.180   9.439  0.00  0.00    -0.061 A 
ATOM     11  C14 ZIN A   1      17.750  -3.325   9.064  0.00  0.00     0.058 A 
ATOM     12  C15 ZIN A   1      17.280  -4.295  10.067  0.00  0.00     0.172 A 
ATOM     13  O16 ZIN A   1      16.806  -5.362   9.726  0.00  0.00    -0.289 OA
ATOM     14  C17 ZIN A   1      17.400  -3.943  11.491  0.00  0.00     0.052 A 
ATOM     15  C18 ZIN A   1      17.959  -2.796  11.844  0.00  0.00    -0.006 A 
ATOM     16  C19 ZIN A   1      18.488  -1.807  10.862  0.00  0.00     0.036 A 
ATOM     17  C20 ZIN A   1      19.997  -1.685  11.084  0.00  0.00     0.028 C 
ATOM     18  C21 ZIN A   1      17.960   1.952  10.450  0.00  0.00     0.007 C 
ATOM     19  C23 ZIN A   1      18.500   3.107   9.597  0.00  0.00     0.041 C 
ATOM     20  C24 ZIN A   1      18.252   4.349  10.496  0.00  0.00     0.161 C 
ATOM     21  C27 ZIN A   1      18.174   3.819  11.965  0.00  0.00     0.153 C 
ENDROOT
BRANCH  21  22
ATOM     22  O28 ZIN A   1      16.867   4.038  12.501  0.00  0.00    -0.378 OA
ATOM     23  H52 ZIN A   1      16.414   4.807  12.131  0.00  0.00     0.211 HD
ENDBRANCH  21  22
BRANCH  21  24
ATOM     24  C29 ZIN A   1      19.211   4.499  12.822  0.00  0.00     0.187 C 
ATOM     25  O30 ZIN A   1      20.132   5.084  12.304  0.00  0.00    -0.292 OA
BRANCH  24  26
ATOM     26  C31 ZIN A   1      19.099   4.449  14.324  0.00  0.00     0.245 C 
BRANCH  26  27
ATOM     27  O32 ZIN A   1      20.277   5.008  14.908  0.00  0.00    -0.393 OA
ATOM     28  H55 ZIN A   1      20.527   5.867  14.541  0.00  0.00     0.209 HD
ENDBRANCH  26  27
ENDBRANCH  24  26
ENDBRANCH  21  24
BRANCH  20  29
ATOM     29  O26 ZIN A   1      17.017   4.973  10.140  0.00  0.00    -0.392 OA
ATOM     30  H51 ZIN A   1      17.098   5.636   9.441  0.00  0.00     0.210 HD
ENDBRANCH  20  29
BRANCH   4  31
ATOM     31  O6  ZIN A   1      19.582  -0.124  12.817  0.00  0.00    -0.392 OA
ATOM     32  H38 ZIN A   1      19.894   0.418  13.555  0.00  0.00     0.210 HD
ENDBRANCH   4  31
TORSDOF 6
ENDMDL
MODEL 8
REMARK VINA RESULT:      -8.1      2.835      4.711
REMARK  6 active torsions:
REMARK  status: ('A' for Active; 'I' for Inactive)
REMARK    1  A    between atoms: C4_4  and  O6_5 
REMARK    2  A    between atoms: C24_21  and  O26_22 
REMARK    3  A    between atoms: C27_23  and  O28_24 
REMARK    4  A    between atoms: C27_23  and  C29_25 
REMARK    5  A    between atoms: C29_25  and  C31_27 
REMARK    6  A    between atoms: C31_27  and  O32_28 
ROOT
ATOM      1  C1  ZIN A   1      17.335   3.474  13.959  0.00  0.00     0.019 C 
ATOM      2  C2  ZIN A   1      18.863   3.528  13.900  0.00  0.00     0.003 C 
ATOM      3  C3  ZIN A   1      19.323   3.480  12.455  0.00  0.00     0.048 C 
ATOM      4  C4  ZIN A   1      18.687   2.232  11.821  0.00  0.00     0.160 C 
ATOM      5  C7  ZIN A   1      19.066   0.962  12.574  0.00  0.00     0.147 C 
ATOM      6  F8  ZIN A   1      20.440   0.737  12.436  0.00  0.00    -0.238 F 
ATOM      7  C9  ZIN A   1      18.738   1.067  14.071  0.00  0.00     0.035 C 
ATOM      8  C11 ZIN A   1      19.205  -0.201  14.789  0.00  0.00     0.013 C 
ATOM      9  C12 ZIN A   1      18.427  -1.410  14.263  0.00  0.00     0.036 C 
ATOM     10  C13 ZIN A   1      18.590  -1.457  12.755  0.00  0.00    -0.061 A 
ATOM     11  C14 ZIN A   1      18.992  -2.584  12.187  0.00  0.00     0.058 A 
ATOM     12  C15 ZIN A   1      19.181  -2.662  10.729  0.00  0.00     0.172 A 
ATOM     13  O16 ZIN A   1      19.517  -3.705  10.199  0.00  0.00    -0.289 OA
ATOM     14  C17 ZIN A   1      18.954  -1.448   9.927  0.00  0.00     0.052 A 
ATOM     15  C18 ZIN A   1      18.546  -0.334  10.515  0.00  0.00    -0.006 A 
ATOM     16  C19 ZIN A   1      18.300  -0.225  11.981  0.00  0.00     0.036 A 
ATOM     17  C20 ZIN A   1      16.814   0.075  12.186  0.00  0.00     0.028 C 
ATOM     18  C21 ZIN A   1      19.462   2.286  14.612  0.00  0.00     0.007 C 
ATOM     19  C23 ZIN A   1      19.216   2.604  16.092  0.00  0.00     0.041 C 
ATOM     20  C24 ZIN A   1      19.551   4.118  16.183  0.00  0.00     0.161 C 
ATOM     21  C27 ZIN A   1      19.372   4.694  14.740  0.00  0.00     0.153 C 
ENDROOT
BRANCH  21  22
ATOM     22  O28 ZIN A   1      20.626   5.159  14.234  0.00  0.00    -0.378 OA
ATOM     23  H52 ZIN A   1      20.770   4.962  13.299  0.00  0.00     0.211 HD
ENDBRANCH  21  22
BRANCH  21  24
ATOM     24  C29 ZIN A   1      18.363   5.814  14.746  0.00  0.00     0.187 C 
ATOM     25  O30 ZIN A   1      17.978   6.285  13.703  0.00  0.00    -0.292 OA
BRANCH  24  26
ATOM     26  C31 ZIN A   1      17.835   6.347  16.053  0.00  0.00     0.245 C 
BRANCH  26  27
ATOM     27  O32 ZIN A   1      18.472   7.590  16.353  0.00  0.00    -0.393 OA
ATOM     28  H55 ZIN A   1      17.952   8.367  16.103  0.00  0.00     0.209 HD
ENDBRANCH  26  27
ENDBRANCH  24  26
ENDBRANCH  21  24
BRANCH  20  29
ATOM     29  O26 ZIN A   1      20.902   4.296  16.611  0.00  0.00    -0.392 OA
ATOM     30  H51 ZIN A   1      21.541   4.350  15.886  0.00  0.00     0.210 HD
ENDBRANCH  20  29
BRANCH   4  31
ATOM     31  O6  ZIN A   1      17.266   2.375  11.835  0.00  0.00    -0.392 OA
ATOM     32  H38 ZIN A   1      16.868   2.437  10.955  0.00  0.00     0.210 HD
ENDBRANCH   4  31
TORSDOF 6
ENDMDL
MODEL 9
REMARK VINA RESULT:      -8.0      2.778      4.544
REMARK  6 active torsions:
REMARK  status: ('A' for Active; 'I' for Inactive)
REMARK    1  A    between atoms: C4_4  and  O6_5 
REMARK    2  A    between atoms: C24_21  and  O26_22 
REMARK    3  A    between atoms: C27_23  and  O28_24 
REMARK    4  A    between atoms: C27_23  and  C29_25 
REMARK    5  A    between atoms: C29_25  and  C31_27 
REMARK    6  A    between atoms: C31_27  and  O32_28 
ROOT
ATOM      1  C1  ZIN A   1      19.819  -2.423  11.661  0.00  0.00     0.019 C 
ATOM      2  C2  ZIN A   1      18.401  -2.008  11.266  0.00  0.00     0.003 C 
ATOM      3  C3  ZIN A   1      17.447  -3.167  11.483  0.00  0.00     0.048 C 
ATOM      4  C4  ZIN A   1      18.015  -4.370  10.713  0.00  0.00     0.160 C 
ATOM      5  C7  ZIN A   1      18.192  -4.058   9.231  0.00  0.00     0.147 C 
ATOM      6  F8  ZIN A   1      16.935  -3.858   8.648  0.00  0.00    -0.238 F 
ATOM      7  C9  ZIN A   1      19.037  -2.793   9.011  0.00  0.00     0.035 C 
ATOM      8  C11 ZIN A   1      19.120  -2.485   7.515  0.00  0.00     0.013 C 
ATOM      9  C12 ZIN A   1      19.852  -3.620   6.793  0.00  0.00     0.036 C 
ATOM     10  C13 ZIN A   1      19.142  -4.921   7.119  0.00  0.00    -0.061 A 
ATOM     11  C14 ZIN A   1      18.771  -5.717   6.126  0.00  0.00     0.058 A 
ATOM     12  C15 ZIN A   1      18.063  -6.978   6.402  0.00  0.00     0.172 A 
ATOM     13  O16 ZIN A   1      17.752  -7.728   5.496  0.00  0.00    -0.289 OA
ATOM     14  C17 ZIN A   1      17.740  -7.309   7.800  0.00  0.00     0.052 A 
ATOM     15  C18 ZIN A   1      18.125  -6.502   8.776  0.00  0.00    -0.006 A 
ATOM     16  C19 ZIN A   1      18.883  -5.240   8.544  0.00  0.00     0.036 A 
ATOM     17  C20 ZIN A   1      20.253  -5.385   9.211  0.00  0.00     0.028 C 
ATOM     18  C21 ZIN A   1      18.358  -1.657   9.754  0.00  0.00     0.007 C 
ATOM     19  C23 ZIN A   1      19.082  -0.306   9.709  0.00  0.00     0.041 C 
ATOM     20  C24 ZIN A   1      18.531   0.427  10.964  0.00  0.00     0.161 C 
ATOM     21  C27 ZIN A   1      18.041  -0.690  11.943  0.00  0.00     0.153 C 
ENDROOT
BRANCH  21  22
ATOM     22  O28 ZIN A   1      16.626  -0.599  12.128  0.00  0.00    -0.378 OA
ATOM     23  H52 ZIN A   1      16.161  -1.439  12.022  0.00  0.00     0.211 HD
ENDBRANCH  21  22
BRANCH  21  24
ATOM     24  C29 ZIN A   1      18.750  -0.571  13.267  0.00  0.00     0.187 C 
ATOM     25  O30 ZIN A   1      18.606  -1.427  14.107  0.00  0.00    -0.292 OA
BRANCH  24  26
ATOM     26  C31 ZIN A   1      19.638   0.614  13.544  0.00  0.00     0.245 C 
BRANCH  26  27
ATOM     27  O32 ZIN A   1      21.005   0.240  13.358  0.00  0.00    -0.393 OA
ATOM     28  H55 ZIN A   1      21.628   0.975  13.442  0.00  0.00     0.209 HD
ENDBRANCH  26  27
ENDBRANCH  24  26
ENDBRANCH  21  24
BRANCH  20  29
ATOM     29  O26 ZIN A   1      17.435   1.266  10.599  0.00  0.00    -0.392 OA
ATOM     30  H51 ZIN A   1      17.656   1.936   9.936  0.00  0.00     0.210 HD
ENDBRANCH  20  29
BRANCH   4  31
ATOM     31  O6  ZIN A   1      19.283  -4.722  11.269  0.00  0.00    -0.392 OA
ATOM     32  H38 ZIN A   1      19.776  -5.367  10.744  0.00  0.00     0.210 HD
ENDBRANCH   4  31
TORSDOF 6
ENDMDL
