MODEL 1
REMARK VINA RESULT:      -7.9      0.000      0.000
REMARK  11 active torsions:
REMARK  status: ('A' for Active; 'I' for Inactive)
REMARK    1  A    between atoms: N1_1  and  C2_2 
REMARK    2  A    between atoms: C4_4  and  C5_5 
REMARK    3  A    between atoms: C5_5  and  C6_6 
REMARK       I    between atoms: C6_6  and  N8_8 
REMARK    4  A    between atoms: N8_8  and  C9_9 
REMARK    5  A    between atoms: C12_12  and  C13_13 
REMARK    6  A    between atoms: C13_13  and  C14_14 
REMARK    7  A    between atoms: C14_14  and  N15_15 
REMARK    8  A    between atoms: N15_15  and  C18_18 
REMARK    9  A    between atoms: C18_18  and  C19_19 
REMARK   10  A    between atoms: C19_19  and  O21_20 
REMARK   11  A    between atoms: C19_19  and  C22_21 
ROOT
ATOM      1  C9  <0> d   1      18.733   0.355   8.196  0.00  0.00     0.034 A 
ATOM      2  C10 <0> d   1      17.614   0.196   9.002  0.00  0.00     0.030 A 
ATOM      3  C11 <0> d   1      17.303   1.153   9.948  0.00  0.00     0.009 A 
ATOM      4  C12 <0> d   1      18.106   2.270  10.092  0.00  0.00    -0.057 A 
ATOM      5  C28 <0> d   1      19.223   2.431   9.292  0.00  0.00     0.009 A 
ATOM      6  C29 <0> d   1      19.541   1.474   8.348  0.00  0.00     0.030 A 
ENDROOT
BRANCH   4   7
ATOM      7  C13 <0> d   1      17.764   3.312  11.126  0.00  0.00     0.066 C 
BRANCH   7   8
ATOM      8  C14 <0> d   1      17.815   2.684  12.519  0.00  0.00     0.237 C 
BRANCH   8   9
ATOM      9  N15 <0> d   1      19.216   2.531  12.936  0.00  0.00    -0.072 N 
ATOM     10  H16 <0> d   1      19.809   2.501  12.121  0.00  0.00     0.277 HD
ATOM     11  H17 <0> d   1      19.482   3.313  13.516  0.00  0.00     0.277 HD
BRANCH   9  12
ATOM     12  C18 <0> d   1      19.368   1.284  13.697  0.00  0.00     0.268 C 
BRANCH  12  13
ATOM     13  C19 <0> d   1      20.337   0.354  12.965  0.00  0.00     0.176 C 
BRANCH  13  14
ATOM     14  O21 <0> d   1      21.069   1.101  11.991  0.00  0.00    -0.389 OA
ATOM     15  H45 <0> d   1      20.710   1.982  11.819  0.00  0.00     0.210 HD
ENDBRANCH  13  14
BRANCH  13  16
ATOM     16  C22 <0> d   1      19.560  -0.741  12.279  0.00  0.00    -0.028 A 
ATOM     17  C27 <0> d   1      20.125  -1.431  11.223  0.00  0.00     0.010 A 
ATOM     18  C26 <0> d   1      19.414  -2.438  10.597  0.00  0.00     0.001 A 
ATOM     19  C25 <0> d   1      18.135  -2.749  11.021  0.00  0.00     0.000 A 
ATOM     20  C24 <0> d   1      17.569  -2.054  12.074  0.00  0.00     0.001 A 
ATOM     21  C23 <0> d   1      18.282  -1.051  12.703  0.00  0.00     0.010 A 
ENDBRANCH  13  16
ENDBRANCH  12  13
ENDBRANCH   9  12
ENDBRANCH   8   9
ENDBRANCH   7   8
ENDBRANCH   4   7
BRANCH   1  22
ATOM     22  N8  <0> d   1      19.050  -0.612   7.236  0.00  0.00    -0.327 N 
ATOM     23  C6  <0> d   1      18.642  -0.456   5.961  0.00  0.00     0.227 C 
ATOM     24  O7  <0> d   1      17.930   0.479   5.663  0.00  0.00    -0.273 OA
ATOM     25  H36 <0> d   1      19.564  -1.396   7.488  0.00  0.00     0.169 HD
BRANCH  23  26
ATOM     26  C5  <0> d   1      19.071  -1.444   4.906  0.00  0.00     0.163 C 
BRANCH  26  27
ATOM     27  C4  <0> d   1      19.095  -2.830   5.496  0.00  0.00     0.052 A 
ATOM     28  N3  <0> d   1      20.079  -3.261   6.266  0.00  0.00    -0.228 NA
ATOM     29  C2  <0> d   1      19.985  -4.474   6.713  0.00  0.00     0.164 A 
ATOM     30  S31 <0> d   1      18.547  -5.201   6.142  0.00  0.00    -0.062 SA
ATOM     31  C30 <0> d   1      18.127  -3.721   5.284  0.00  0.00     0.081 A 
BRANCH  29  32
ATOM     32  N1  <0> d   1      20.918  -5.094   7.530  0.00  0.00    -0.378 N 
ATOM     33  H32 <0> d   1      20.658  -5.413   8.408  0.00  0.00     0.158 HD
ATOM     34  H33 <0> d   1      21.830  -5.213   7.221  0.00  0.00     0.158 HD
ENDBRANCH  29  32
ENDBRANCH  26  27
ENDBRANCH  23  26
ENDBRANCH   1  22
TORSDOF 11
ENDMDL
MODEL 2
REMARK VINA RESULT:      -7.5      4.042      8.633
REMARK  11 active torsions:
REMARK  status: ('A' for Active; 'I' for Inactive)
REMARK    1  A    between atoms: N1_1  and  C2_2 
REMARK    2  A    between atoms: C4_4  and  C5_5 
REMARK    3  A    between atoms: C5_5  and  C6_6 
REMARK       I    between atoms: C6_6  and  N8_8 
REMARK    4  A    between atoms: N8_8  and  C9_9 
REMARK    5  A    between atoms: C12_12  and  C13_13 
REMARK    6  A    between atoms: C13_13  and  C14_14 
REMARK    7  A    between atoms: C14_14  and  N15_15 
REMARK    8  A    between atoms: N15_15  and  C18_18 
REMARK    9  A    between atoms: C18_18  and  C19_19 
REMARK   10  A    between atoms: C19_19  and  O21_20 
REMARK   11  A    between atoms: C19_19  and  C22_21 
ROOT
ATOM      1  C9  <0> d   1      18.664   0.457  14.561  0.00  0.00     0.034 A 
ATOM      2  C10 <0> d   1      17.514   0.531  13.787  0.00  0.00     0.030 A 
ATOM      3  C11 <0> d   1      17.269  -0.428  12.823  0.00  0.00     0.009 A 
ATOM      4  C12 <0> d   1      18.169  -1.461  12.629  0.00  0.00    -0.057 A 
ATOM      5  C28 <0> d   1      19.316  -1.536  13.399  0.00  0.00     0.009 A 
ATOM      6  C29 <0> d   1      19.568  -0.577  14.360  0.00  0.00     0.030 A 
ENDROOT
BRANCH   4   7
ATOM      7  C13 <0> d   1      17.899  -2.505  11.577  0.00  0.00     0.066 C 
BRANCH   7   8
ATOM      8  C14 <0> d   1      19.204  -3.218  11.220  0.00  0.00     0.237 C 
BRANCH   8   9
ATOM      9  N15 <0> d   1      19.763  -2.632   9.994  0.00  0.00    -0.072 N 
ATOM     10  H16 <0> d   1      20.746  -2.453  10.124  0.00  0.00     0.277 HD
ATOM     11  H17 <0> d   1      19.636  -3.274   9.226  0.00  0.00     0.277 HD
BRANCH   9  12
ATOM     12  C18 <0> d   1      19.071  -1.371   9.695  0.00  0.00     0.268 C 
BRANCH  12  13
ATOM     13  C19 <0> d   1      20.089  -0.230   9.648  0.00  0.00     0.176 C 
BRANCH  13  14
ATOM     14  O21 <0> d   1      21.256  -0.602  10.384  0.00  0.00    -0.389 OA
ATOM     15  H45 <0> d   1      21.380  -0.103  11.203  0.00  0.00     0.210 HD
ENDBRANCH  13  14
BRANCH  13  16
ATOM     16  C22 <0> d   1      19.483   1.009  10.259  0.00  0.00    -0.028 A 
ATOM     17  C27 <0> d   1      18.289   1.505   9.773  0.00  0.00     0.010 A 
ATOM     18  C26 <0> d   1      17.731   2.638  10.336  0.00  0.00     0.001 A 
ATOM     19  C25 <0> d   1      18.373   3.280  11.378  0.00  0.00     0.000 A 
ATOM     20  C24 <0> d   1      19.572   2.786  11.860  0.00  0.00     0.001 A 
ATOM     21  C23 <0> d   1      20.126   1.651  11.300  0.00  0.00     0.010 A 
ENDBRANCH  13  16
ENDBRANCH  12  13
ENDBRANCH   9  12
ENDBRANCH   8   9
ENDBRANCH   7   8
ENDBRANCH   4   7
BRANCH   1  22
ATOM     22  N8  <0> d   1      18.914   1.427  15.539  0.00  0.00    -0.327 N 
ATOM     23  C6  <0> d   1      18.441   1.260  16.790  0.00  0.00     0.227 C 
ATOM     24  O7  <0> d   1      17.729   0.313  17.048  0.00  0.00    -0.273 OA
ATOM     25  H36 <0> d   1      19.428   2.219  15.316  0.00  0.00     0.169 HD
BRANCH  23  26
ATOM     26  C5  <0> d   1      18.798   2.251  17.869  0.00  0.00     0.163 C 
BRANCH  26  27
ATOM     27  C4  <0> d   1      19.085   3.592  17.244  0.00  0.00     0.052 A 
ATOM     28  N3  <0> d   1      20.249   3.888  16.694  0.00  0.00    -0.228 NA
ATOM     29  C2  <0> d   1      20.374   5.076  16.190  0.00  0.00     0.164 A 
ATOM     30  S31 <0> d   1      18.924   5.958  16.399  0.00  0.00    -0.062 SA
ATOM     31  C30 <0> d   1      18.185   4.574  17.201  0.00  0.00     0.081 A 
BRANCH  29  32
ATOM     32  N1  <0> d   1      21.517   5.563  15.576  0.00  0.00    -0.378 N 
ATOM     33  H32 <0> d   1      21.708   6.514  15.591  0.00  0.00     0.158 HD
ATOM     34  H33 <0> d   1      22.128   4.952  15.136  0.00  0.00     0.158 HD
ENDBRANCH  29  32
ENDBRANCH  26  27
ENDBRANCH  23  26
ENDBRANCH   1  22
TORSDOF 11
ENDMDL
MODEL 3
REMARK VINA RESULT:      -7.4      3.596      7.094
REMARK  11 active torsions:
REMARK  status: ('A' for Active; 'I' for Inactive)
REMARK    1  A    between atoms: N1_1  and  C2_2 
REMARK    2  A    between atoms: C4_4  and  C5_5 
REMARK    3  A    between atoms: C5_5  and  C6_6 
REMARK       I    between atoms: C6_6  and  N8_8 
REMARK    4  A    between atoms: N8_8  and  C9_9 
REMARK    5  A    between atoms: C12_12  and  C13_13 
REMARK    6  A    between atoms: C13_13  and  C14_14 
REMARK    7  A    between atoms: C14_14  and  N15_15 
REMARK    8  A    between atoms: N15_15  and  C18_18 
REMARK    9  A    between atoms: C18_18  and  C19_19 
REMARK   10  A    between atoms: C19_19  and  O21_20 
REMARK   11  A    between atoms: C19_19  and  C22_21 
ROOT
ATOM      1  C9  <0> d   1      18.272   2.401  10.613  0.00  0.00     0.034 A 
ATOM      2  C10 <0> d   1      18.996   2.439   9.430  0.00  0.00     0.030 A 
ATOM      3  C11 <0> d   1      18.811   1.458   8.476  0.00  0.00     0.009 A 
ATOM      4  C12 <0> d   1      17.903   0.437   8.699  0.00  0.00    -0.057 A 
ATOM      5  C28 <0> d   1      17.181   0.397   9.878  0.00  0.00     0.009 A 
ATOM      6  C29 <0> d   1      17.366   1.372  10.838  0.00  0.00     0.030 A 
ENDROOT
BRANCH   4   7
ATOM      7  C13 <0> d   1      17.703  -0.632   7.656  0.00  0.00     0.066 C 
BRANCH   7   8
ATOM      8  C14 <0> d   1      18.519  -1.870   8.033  0.00  0.00     0.237 C 
BRANCH   8   9
ATOM      9  N15 <0> d   1      17.637  -2.867   8.654  0.00  0.00    -0.072 N 
ATOM     10  H16 <0> d   1      16.683  -2.541   8.618  0.00  0.00     0.277 HD
ATOM     11  H17 <0> d   1      17.713  -3.741   8.156  0.00  0.00     0.277 HD
BRANCH   9  12
ATOM     12  C18 <0> d   1      18.032  -3.067  10.054  0.00  0.00     0.268 C 
BRANCH  12  13
ATOM     13  C19 <0> d   1      19.517  -2.738  10.216  0.00  0.00     0.176 C 
BRANCH  13  14
ATOM     14  O21 <0> d   1      20.227  -3.917  10.600  0.00  0.00    -0.389 OA
ATOM     15  H45 <0> d   1      20.253  -4.068  11.554  0.00  0.00     0.210 HD
ENDBRANCH  13  14
BRANCH  13  16
ATOM     16  C22 <0> d   1      19.685  -1.682  11.281  0.00  0.00    -0.028 A 
ATOM     17  C27 <0> d   1      20.584  -0.650  11.094  0.00  0.00     0.010 A 
ATOM     18  C26 <0> d   1      20.735   0.320  12.068  0.00  0.00     0.001 A 
ATOM     19  C25 <0> d   1      19.993   0.252  13.232  0.00  0.00     0.000 A 
ATOM     20  C24 <0> d   1      19.098  -0.785  13.421  0.00  0.00     0.001 A 
ATOM     21  C23 <0> d   1      18.944  -1.752  12.445  0.00  0.00     0.010 A 
ENDBRANCH  13  16
ENDBRANCH  12  13
ENDBRANCH   9  12
ENDBRANCH   8   9
ENDBRANCH   7   8
ENDBRANCH   4   7
BRANCH   1  22
ATOM     22  N8  <0> d   1      18.457   3.394  11.581  0.00  0.00    -0.327 N 
ATOM     23  C6  <0> d   1      17.500   4.320  11.789  0.00  0.00     0.227 C 
ATOM     24  O7  <0> d   1      16.515   4.344  11.081  0.00  0.00    -0.273 OA
ATOM     25  H36 <0> d   1      19.275   3.417  12.103  0.00  0.00     0.169 HD
BRANCH  23  26
ATOM     26  C5  <0> d   1      17.653   5.326  12.901  0.00  0.00     0.163 C 
BRANCH  26  27
ATOM     27  C4  <0> d   1      18.242   4.650  14.112  0.00  0.00     0.052 A 
ATOM     28  N3  <0> d   1      17.868   3.447  14.511  0.00  0.00    -0.228 NA
ATOM     29  C2  <0> d   1      18.450   2.973  15.568  0.00  0.00     0.164 A 
ATOM     30  S31 <0> d   1      19.583   4.102  16.172  0.00  0.00    -0.062 SA
ATOM     31  C30 <0> d   1      19.182   5.217  14.868  0.00  0.00     0.081 A 
BRANCH  29  32
ATOM     32  N1  <0> d   1      18.187   1.734  16.131  0.00  0.00    -0.378 N 
ATOM     33  H32 <0> d   1      18.555   1.508  16.999  0.00  0.00     0.158 HD
ATOM     34  H33 <0> d   1      17.631   1.095  15.659  0.00  0.00     0.158 HD
ENDBRANCH  29  32
ENDBRANCH  26  27
ENDBRANCH  23  26
ENDBRANCH   1  22
TORSDOF 11
ENDMDL
MODEL 4
REMARK VINA RESULT:      -7.2      1.654      2.254
REMARK  11 active torsions:
REMARK  status: ('A' for Active; 'I' for Inactive)
REMARK    1  A    between atoms: N1_1  and  C2_2 
REMARK    2  A    between atoms: C4_4  and  C5_5 
REMARK    3  A    between atoms: C5_5  and  C6_6 
REMARK       I    between atoms: C6_6  and  N8_8 
REMARK    4  A    between atoms: N8_8  and  C9_9 
REMARK    5  A    between atoms: C12_12  and  C13_13 
REMARK    6  A    between atoms: C13_13  and  C14_14 
REMARK    7  A    between atoms: C14_14  and  N15_15 
REMARK    8  A    between atoms: N15_15  and  C18_18 
REMARK    9  A    between atoms: C18_18  and  C19_19 
REMARK   10  A    between atoms: C19_19  and  O21_20 
REMARK   11  A    between atoms: C19_19  and  C22_21 
ROOT
ATOM      1  C9  <0> d   1      18.997   0.157   8.304  0.00  0.00     0.034 A 
ATOM      2  C10 <0> d   1      18.523  -0.164   9.569  0.00  0.00     0.030 A 
ATOM      3  C11 <0> d   1      18.326   0.833  10.504  0.00  0.00     0.009 A 
ATOM      4  C12 <0> d   1      18.600   2.150  10.181  0.00  0.00    -0.057 A 
ATOM      5  C28 <0> d   1      19.073   2.472   8.922  0.00  0.00     0.009 A 
ATOM      6  C29 <0> d   1      19.277   1.478   7.984  0.00  0.00     0.030 A 
ENDROOT
BRANCH   4   7
ATOM      7  C13 <0> d   1      18.384   3.236  11.204  0.00  0.00     0.066 C 
BRANCH   7   8
ATOM      8  C14 <0> d   1      19.717   3.581  11.870  0.00  0.00     0.237 C 
BRANCH   8   9
ATOM      9  N15 <0> d   1      19.477   3.991  13.260  0.00  0.00    -0.072 N 
ATOM     10  H16 <0> d   1      20.281   3.759  13.823  0.00  0.00     0.277 HD
ATOM     11  H17 <0> d   1      19.318   4.986  13.295  0.00  0.00     0.277 HD
BRANCH   9  12
ATOM     12  C18 <0> d   1      18.297   3.289  13.782  0.00  0.00     0.268 C 
BRANCH  12  13
ATOM     13  C19 <0> d   1      18.611   2.724  15.168  0.00  0.00     0.176 C 
BRANCH  13  14
ATOM     14  O21 <0> d   1      19.877   3.218  15.608  0.00  0.00    -0.389 OA
ATOM     15  H45 <0> d   1      19.893   3.491  16.536  0.00  0.00     0.210 HD
ENDBRANCH  13  14
BRANCH  13  16
ATOM     16  C22 <0> d   1      18.655   1.218  15.099  0.00  0.00    -0.028 A 
ATOM     17  C27 <0> d   1      19.503   0.593  14.205  0.00  0.00     0.010 A 
ATOM     18  C26 <0> d   1      19.547  -0.788  14.144  0.00  0.00     0.001 A 
ATOM     19  C25 <0> d   1      18.736  -1.543  14.971  0.00  0.00     0.000 A 
ATOM     20  C24 <0> d   1      17.883  -0.916  15.860  0.00  0.00     0.001 A 
ATOM     21  C23 <0> d   1      17.843   0.464  15.925  0.00  0.00     0.010 A 
ENDBRANCH  13  16
ENDBRANCH  12  13
ENDBRANCH   9  12
ENDBRANCH   8   9
ENDBRANCH   7   8
ENDBRANCH   4   7
BRANCH   1  22
ATOM     22  N8  <0> d   1      19.197  -0.851   7.354  0.00  0.00    -0.327 N 
ATOM     23  C6  <0> d   1      18.297  -1.036   6.368  0.00  0.00     0.227 C 
ATOM     24  O7  <0> d   1      17.273  -0.386   6.351  0.00  0.00    -0.273 OA
ATOM     25  H36 <0> d   1      19.983  -1.417   7.405  0.00  0.00     0.169 HD
BRANCH  23  26
ATOM     26  C5  <0> d   1      18.563  -2.051   5.285  0.00  0.00     0.163 C 
BRANCH  26  27
ATOM     27  C4  <0> d   1      18.930  -3.371   5.913  0.00  0.00     0.052 A 
ATOM     28  N3  <0> d   1      20.139  -3.627   6.382  0.00  0.00    -0.228 NA
ATOM     29  C2  <0> d   1      20.330  -4.800   6.899  0.00  0.00     0.164 A 
ATOM     30  S31 <0> d   1      18.893  -5.722   6.814  0.00  0.00    -0.062 SA
ATOM     31  C30 <0> d   1      18.062  -4.374   6.041  0.00  0.00     0.081 A 
BRANCH  29  32
ATOM     32  N1  <0> d   1      21.528  -5.246   7.436  0.00  0.00    -0.378 N 
ATOM     33  H32 <0> d   1      21.590  -6.140   7.807  0.00  0.00     0.158 HD
ATOM     34  H33 <0> d   1      22.304  -4.665   7.438  0.00  0.00     0.158 HD
ENDBRANCH  29  32
ENDBRANCH  26  27
ENDBRANCH  23  26
ENDBRANCH   1  22
TORSDOF 11
ENDMDL
MODEL 5
REMARK VINA RESULT:      -7.2      3.188      6.845
REMARK  11 active torsions:
REMARK  status: ('A' for Active; 'I' for Inactive)
REMARK    1  A    between atoms: N1_1  and  C2_2 
REMARK    2  A    between atoms: C4_4  and  C5_5 
REMARK    3  A    between atoms: C5_5  and  C6_6 
REMARK       I    between atoms: C6_6  and  N8_8 
REMARK    4  A    between atoms: N8_8  and  C9_9 
REMARK    5  A    between atoms: C12_12  and  C13_13 
REMARK    6  A    between atoms: C13_13  and  C14_14 
REMARK    7  A    between atoms: C14_14  and  N15_15 
REMARK    8  A    between atoms: N15_15  and  C18_18 
REMARK    9  A    between atoms: C18_18  and  C19_19 
REMARK   10  A    between atoms: C19_19  and  O21_20 
REMARK   11  A    between atoms: C19_19  and  C22_21 
ROOT
ATOM      1  C9  <0> d   1      19.367   1.334   9.432  0.00  0.00     0.034 A 
ATOM      2  C10 <0> d   1      19.089   1.754   8.138  0.00  0.00     0.030 A 
ATOM      3  C11 <0> d   1      18.892   0.821   7.138  0.00  0.00     0.009 A 
ATOM      4  C12 <0> d   1      18.971  -0.530   7.426  0.00  0.00    -0.057 A 
ATOM      5  C28 <0> d   1      19.249  -0.950   8.714  0.00  0.00     0.009 A 
ATOM      6  C29 <0> d   1      19.452  -0.022   9.717  0.00  0.00     0.030 A 
ENDROOT
BRANCH   4   7
ATOM      7  C13 <0> d   1      18.756  -1.544   6.333  0.00  0.00     0.066 C 
BRANCH   7   8
ATOM      8  C14 <0> d   1      19.263  -2.910   6.799  0.00  0.00     0.237 C 
BRANCH   8   9
ATOM      9  N15 <0> d   1      18.121  -3.813   7.000  0.00  0.00    -0.072 N 
ATOM     10  H16 <0> d   1      17.398  -3.332   7.514  0.00  0.00     0.277 HD
ATOM     11  H17 <0> d   1      17.760  -4.104   6.105  0.00  0.00     0.277 HD
BRANCH   9  12
ATOM     12  C18 <0> d   1      18.557  -4.992   7.759  0.00  0.00     0.268 C 
BRANCH  12  13
ATOM     13  C19 <0> d   1      17.688  -5.145   9.009  0.00  0.00     0.176 C 
BRANCH  13  14
ATOM     14  O21 <0> d   1      16.369  -4.669   8.733  0.00  0.00    -0.389 OA
ATOM     15  H45 <0> d   1      16.102  -3.915   9.276  0.00  0.00     0.210 HD
ENDBRANCH  13  14
BRANCH  13  16
ATOM     16  C22 <0> d   1      18.286  -4.342  10.137  0.00  0.00    -0.028 A 
ATOM     17  C27 <0> d   1      17.497  -3.463  10.854  0.00  0.00     0.010 A 
ATOM     18  C26 <0> d   1      18.044  -2.730  11.891  0.00  0.00     0.001 A 
ATOM     19  C25 <0> d   1      19.383  -2.870  12.205  0.00  0.00     0.000 A 
ATOM     20  C24 <0> d   1      20.174  -3.745  11.483  0.00  0.00     0.001 A 
ATOM     21  C23 <0> d   1      19.625  -4.481  10.450  0.00  0.00     0.010 A 
ENDBRANCH  13  16
ENDBRANCH  12  13
ENDBRANCH   9  12
ENDBRANCH   8   9
ENDBRANCH   7   8
ENDBRANCH   4   7
BRANCH   1  22
ATOM     22  N8  <0> d   1      19.566   2.277  10.447  0.00  0.00    -0.327 N 
ATOM     23  C6  <0> d   1      18.507   2.811  11.089  0.00  0.00     0.227 C 
ATOM     24  O7  <0> d   1      17.381   2.538  10.731  0.00  0.00    -0.273 OA
ATOM     25  H36 <0> d   1      20.466   2.546  10.690  0.00  0.00     0.169 HD
BRANCH  23  26
ATOM     26  C5  <0> d   1      18.724   3.746  12.251  0.00  0.00     0.163 C 
BRANCH  26  27
ATOM     27  C4  <0> d   1      18.831   2.948  13.525  0.00  0.00     0.052 A 
ATOM     28  N3  <0> d   1      18.998   1.637  13.534  0.00  0.00    -0.228 NA
ATOM     29  C2  <0> d   1      19.076   1.065  14.694  0.00  0.00     0.164 A 
ATOM     30  S31 <0> d   1      18.927   2.231  15.936  0.00  0.00    -0.062 SA
ATOM     31  C30 <0> d   1      18.766   3.507  14.733  0.00  0.00     0.081 A 
BRANCH  29  32
ATOM     32  N1  <0> d   1      19.248  -0.295  14.899  0.00  0.00    -0.378 N 
ATOM     33  H32 <0> d   1      19.167  -0.665  15.792  0.00  0.00     0.158 HD
ATOM     34  H33 <0> d   1      19.446  -0.877  14.150  0.00  0.00     0.158 HD
ENDBRANCH  29  32
ENDBRANCH  26  27
ENDBRANCH  23  26
ENDBRANCH   1  22
TORSDOF 11
ENDMDL
MODEL 6
REMARK VINA RESULT:      -7.0      2.319      4.047
REMARK  11 active torsions:
REMARK  status: ('A' for Active; 'I' for Inactive)
REMARK    1  A    between atoms: N1_1  and  C2_2 
REMARK    2  A    between atoms: C4_4  and  C5_5 
REMARK    3  A    between atoms: C5_5  and  C6_6 
REMARK       I    between atoms: C6_6  and  N8_8 
REMARK    4  A    between atoms: N8_8  and  C9_9 
REMARK    5  A    between atoms: C12_12  and  C13_13 
REMARK    6  A    between atoms: C13_13  and  C14_14 
REMARK    7  A    between atoms: C14_14  and  N15_15 
REMARK    8  A    between atoms: N15_15  and  C18_18 
REMARK    9  A    between atoms: C18_18  and  C19_19 
REMARK   10  A    between atoms: C19_19  and  O21_20 
REMARK   11  A    between atoms: C19_19  and  C22_21 
ROOT
ATOM      1  C9  <0> d   1      17.941  -2.314  11.631  0.00  0.00     0.034 A 
ATOM      2  C10 <0> d   1      18.752  -2.348  12.758  0.00  0.00     0.030 A 
ATOM      3  C11 <0> d   1      18.680  -1.332  13.690  0.00  0.00     0.009 A 
ATOM      4  C12 <0> d   1      17.800  -0.281  13.503  0.00  0.00    -0.057 A 
ATOM      5  C28 <0> d   1      16.992  -0.244  12.381  0.00  0.00     0.009 A 
ATOM      6  C29 <0> d   1      17.064  -1.255  11.442  0.00  0.00     0.030 A 
ENDROOT
BRANCH   4   7
ATOM      7  C13 <0> d   1      17.724   0.826  14.522  0.00  0.00     0.066 C 
BRANCH   7   8
ATOM      8  C14 <0> d   1      18.908   1.775  14.333  0.00  0.00     0.237 C 
BRANCH   8   9
ATOM      9  N15 <0> d   1      18.424   3.066  13.823  0.00  0.00    -0.072 N 
ATOM     10  H16 <0> d   1      17.452   3.181  14.066  0.00  0.00     0.277 HD
ATOM     11  H17 <0> d   1      18.964   3.813  14.233  0.00  0.00     0.277 HD
BRANCH   9  12
ATOM     12  C18 <0> d   1      18.571   3.102  12.362  0.00  0.00     0.268 C 
BRANCH  12  13
ATOM     13  C19 <0> d   1      19.852   2.370  11.960  0.00  0.00     0.176 C 
BRANCH  13  14
ATOM     14  O21 <0> d   1      20.875   3.325  11.671  0.00  0.00    -0.389 OA
ATOM     15  H45 <0> d   1      20.702   3.861  10.885  0.00  0.00     0.210 HD
ENDBRANCH  13  14
BRANCH  13  16
ATOM     16  C22 <0> d   1      19.588   1.530  10.735  0.00  0.00    -0.028 A 
ATOM     17  C27 <0> d   1      20.277   0.347  10.548  0.00  0.00     0.010 A 
ATOM     18  C26 <0> d   1      20.032  -0.425   9.427  0.00  0.00     0.001 A 
ATOM     19  C25 <0> d   1      19.104  -0.008   8.490  0.00  0.00     0.000 A 
ATOM     20  C24 <0> d   1      18.420   1.179   8.675  0.00  0.00     0.001 A 
ATOM     21  C23 <0> d   1      18.662   1.947   9.798  0.00  0.00     0.010 A 
ENDBRANCH  13  16
ENDBRANCH  12  13
ENDBRANCH   9  12
ENDBRANCH   8   9
ENDBRANCH   7   8
ENDBRANCH   4   7
BRANCH   1  22
ATOM     22  N8  <0> d   1      18.012  -3.342  10.685  0.00  0.00    -0.327 N 
ATOM     23  C6  <0> d   1      17.130  -4.361  10.729  0.00  0.00     0.227 C 
ATOM     24  O7  <0> d   1      16.329  -4.430  11.637  0.00  0.00    -0.273 OA
ATOM     25  H36 <0> d   1      18.695  -3.323   9.997  0.00  0.00     0.169 HD
BRANCH  23  26
ATOM     26  C5  <0> d   1      17.139  -5.414   9.650  0.00  0.00     0.163 C 
BRANCH  26  27
ATOM     27  C4  <0> d   1      18.239  -5.113   8.665  0.00  0.00     0.052 A 
ATOM     28  N3  <0> d   1      18.222  -4.049   7.880  0.00  0.00    -0.228 NA
ATOM     29  C2  <0> d   1      19.226  -3.901   7.074  0.00  0.00     0.164 A 
ATOM     30  S31 <0> d   1      20.331  -5.191   7.267  0.00  0.00    -0.062 SA
ATOM     31  C30 <0> d   1      19.305  -5.896   8.514  0.00  0.00     0.081 A 
BRANCH  29  32
ATOM     32  N1  <0> d   1      19.380  -2.852   6.181  0.00  0.00    -0.378 N 
ATOM     33  H32 <0> d   1      20.238  -2.697   5.757  0.00  0.00     0.158 HD
ATOM     34  H33 <0> d   1      18.627  -2.276   5.976  0.00  0.00     0.158 HD
ENDBRANCH  29  32
ENDBRANCH  26  27
ENDBRANCH  23  26
ENDBRANCH   1  22
TORSDOF 11
ENDMDL
MODEL 7
REMARK VINA RESULT:      -7.0      1.817      3.680
REMARK  11 active torsions:
REMARK  status: ('A' for Active; 'I' for Inactive)
REMARK    1  A    between atoms: N1_1  and  C2_2 
REMARK    2  A    between atoms: C4_4  and  C5_5 
REMARK    3  A    between atoms: C5_5  and  C6_6 
REMARK       I    between atoms: C6_6  and  N8_8 
REMARK    4  A    between atoms: N8_8  and  C9_9 
REMARK    5  A    between atoms: C12_12  and  C13_13 
REMARK    6  A    between atoms: C13_13  and  C14_14 
REMARK    7  A    between atoms: C14_14  and  N15_15 
REMARK    8  A    between atoms: N15_15  and  C18_18 
REMARK    9  A    between atoms: C18_18  and  C19_19 
REMARK   10  A    between atoms: C19_19  and  O21_20 
REMARK   11  A    between atoms: C19_19  and  C22_21 
ROOT
ATOM      1  C9  <0> d   1      18.227  -0.417   9.570  0.00  0.00     0.034 A 
ATOM      2  C10 <0> d   1      19.305  -0.809  10.353  0.00  0.00     0.030 A 
ATOM      3  C11 <0> d   1      19.274  -0.610  11.719  0.00  0.00     0.009 A 
ATOM      4  C12 <0> d   1      18.169  -0.020  12.308  0.00  0.00    -0.057 A 
ATOM      5  C28 <0> d   1      17.095   0.372  11.530  0.00  0.00     0.009 A 
ATOM      6  C29 <0> d   1      17.122   0.180  10.163  0.00  0.00     0.030 A 
ENDROOT
BRANCH   4   7
ATOM      7  C13 <0> d   1      18.138   0.196  13.799  0.00  0.00     0.066 C 
BRANCH   7   8
ATOM      8  C14 <0> d   1      19.549   0.513  14.297  0.00  0.00     0.237 C 
BRANCH   8   9
ATOM      9  N15 <0> d   1      19.495   1.650  15.227  0.00  0.00    -0.072 N 
ATOM     10  H16 <0> d   1      19.426   1.307  16.173  0.00  0.00     0.277 HD
ATOM     11  H17 <0> d   1      20.332   2.205  15.130  0.00  0.00     0.277 HD
BRANCH   9  12
ATOM     12  C18 <0> d   1      18.321   2.478  14.921  0.00  0.00     0.268 C 
BRANCH  12  13
ATOM     13  C19 <0> d   1      18.778   3.806  14.315  0.00  0.00     0.176 C 
BRANCH  13  14
ATOM     14  O21 <0> d   1      18.046   4.879  14.912  0.00  0.00    -0.389 OA
ATOM     15  H45 <0> d   1      18.411   5.755  14.728  0.00  0.00     0.210 HD
ENDBRANCH  13  14
BRANCH  13  16
ATOM     16  C22 <0> d   1      18.528   3.793  12.828  0.00  0.00    -0.028 A 
ATOM     17  C27 <0> d   1      17.337   4.280  12.324  0.00  0.00     0.010 A 
ATOM     18  C26 <0> d   1      17.109   4.271  10.960  0.00  0.00     0.001 A 
ATOM     19  C25 <0> d   1      18.068   3.768  10.102  0.00  0.00     0.000 A 
ATOM     20  C24 <0> d   1      19.257   3.276  10.608  0.00  0.00     0.001 A 
ATOM     21  C23 <0> d   1      19.487   3.289  11.970  0.00  0.00     0.010 A 
ENDBRANCH  13  16
ENDBRANCH  12  13
ENDBRANCH   9  12
ENDBRANCH   8   9
ENDBRANCH   7   8
ENDBRANCH   4   7
BRANCH   1  22
ATOM     22  N8  <0> d   1      18.256  -0.618   8.186  0.00  0.00    -0.327 N 
ATOM     23  C6  <0> d   1      18.821   0.305   7.382  0.00  0.00     0.227 C 
ATOM     24  O7  <0> d   1      19.228   1.347   7.849  0.00  0.00    -0.273 OA
ATOM     25  H36 <0> d   1      17.870  -1.422   7.804  0.00  0.00     0.169 HD
BRANCH  23  26
ATOM     26  C5  <0> d   1      18.946   0.042   5.903  0.00  0.00     0.163 C 
BRANCH  26  27
ATOM     27  C4  <0> d   1      18.882  -1.442   5.650  0.00  0.00     0.052 A 
ATOM     28  N3  <0> d   1      19.671  -2.305   6.266  0.00  0.00    -0.228 NA
ATOM     29  C2  <0> d   1      19.521  -3.557   5.962  0.00  0.00     0.164 A 
ATOM     30  S31 <0> d   1      18.288  -3.733   4.791  0.00  0.00    -0.062 SA
ATOM     31  C30 <0> d   1      18.027  -1.990   4.788  0.00  0.00     0.081 A 
BRANCH  29  32
ATOM     32  N1  <0> d   1      20.256  -4.600   6.503  0.00  0.00    -0.378 N 
ATOM     33  H32 <0> d   1      20.099  -5.509   6.205  0.00  0.00     0.158 HD
ATOM     34  H33 <0> d   1      20.930  -4.419   7.176  0.00  0.00     0.158 HD
ENDBRANCH  29  32
ENDBRANCH  26  27
ENDBRANCH  23  26
ENDBRANCH   1  22
TORSDOF 11
ENDMDL
MODEL 8
REMARK VINA RESULT:      -6.8      2.989      6.822
REMARK  11 active torsions:
REMARK  status: ('A' for Active; 'I' for Inactive)
REMARK    1  A    between atoms: N1_1  and  C2_2 
REMARK    2  A    between atoms: C4_4  and  C5_5 
REMARK    3  A    between atoms: C5_5  and  C6_6 
REMARK       I    between atoms: C6_6  and  N8_8 
REMARK    4  A    between atoms: N8_8  and  C9_9 
REMARK    5  A    between atoms: C12_12  and  C13_13 
REMARK    6  A    between atoms: C13_13  and  C14_14 
REMARK    7  A    between atoms: C14_14  and  N15_15 
REMARK    8  A    between atoms: N15_15  and  C18_18 
REMARK    9  A    between atoms: C18_18  and  C19_19 
REMARK   10  A    between atoms: C19_19  and  O21_20 
REMARK   11  A    between atoms: C19_19  and  C22_21 
ROOT
ATOM      1  C9  <0> d   1      18.711   1.228   9.256  0.00  0.00     0.034 A 
ATOM      2  C10 <0> d   1      19.257   1.757   8.094  0.00  0.00     0.030 A 
ATOM      3  C11 <0> d   1      18.847   1.285   6.863  0.00  0.00     0.009 A 
ATOM      4  C12 <0> d   1      17.892   0.286   6.787  0.00  0.00    -0.057 A 
ATOM      5  C28 <0> d   1      17.348  -0.243   7.942  0.00  0.00     0.009 A 
ATOM      6  C29 <0> d   1      17.758   0.222   9.177  0.00  0.00     0.030 A 
ENDROOT
BRANCH   4   7
ATOM      7  C13 <0> d   1      17.448  -0.227   5.441  0.00  0.00     0.066 C 
BRANCH   7   8
ATOM      8  C14 <0> d   1      18.675  -0.516   4.575  0.00  0.00     0.237 C 
BRANCH   8   9
ATOM      9  N15 <0> d   1      18.768  -1.961   4.327  0.00  0.00    -0.072 N 
ATOM     10  H16 <0> d   1      17.841  -2.354   4.272  0.00  0.00     0.277 HD
ATOM     11  H17 <0> d   1      19.253  -2.123   3.457  0.00  0.00     0.277 HD
BRANCH   9  12
ATOM     12  C18 <0> d   1      19.506  -2.601   5.424  0.00  0.00     0.268 C 
BRANCH  12  13
ATOM     13  C19 <0> d   1      18.849  -3.939   5.769  0.00  0.00     0.176 C 
BRANCH  13  14
ATOM     14  O21 <0> d   1      17.436  -3.838   5.581  0.00  0.00    -0.389 OA
ATOM     15  H45 <0> d   1      17.022  -3.126   6.086  0.00  0.00     0.210 HD
ENDBRANCH  13  14
BRANCH  13  16
ATOM     16  C22 <0> d   1      19.142  -4.286   7.207  0.00  0.00    -0.028 A 
ATOM     17  C27 <0> d   1      19.884  -5.412   7.508  0.00  0.00     0.010 A 
ATOM     18  C26 <0> d   1      20.156  -5.728   8.827  0.00  0.00     0.001 A 
ATOM     19  C25 <0> d   1      19.676  -4.924   9.843  0.00  0.00     0.000 A 
ATOM     20  C24 <0> d   1      18.928  -3.801   9.541  0.00  0.00     0.001 A 
ATOM     21  C23 <0> d   1      18.661  -3.482   8.223  0.00  0.00     0.010 A 
ENDBRANCH  13  16
ENDBRANCH  12  13
ENDBRANCH   9  12
ENDBRANCH   8   9
ENDBRANCH   7   8
ENDBRANCH   4   7
BRANCH   1  22
ATOM     22  N8  <0> d   1      19.124   1.705  10.505  0.00  0.00    -0.327 N 
ATOM     23  C6  <0> d   1      18.307   2.499  11.228  0.00  0.00     0.227 C 
ATOM     24  O7  <0> d   1      17.251   2.867  10.760  0.00  0.00    -0.273 OA
ATOM     25  H36 <0> d   1      19.997   1.465  10.852  0.00  0.00     0.169 HD
BRANCH  23  26
ATOM     26  C5  <0> d   1      18.708   2.927  12.616  0.00  0.00     0.163 C 
BRANCH  26  27
ATOM     27  C4  <0> d   1      18.716   1.728  13.529  0.00  0.00     0.052 A 
ATOM     28  N3  <0> d   1      19.433   0.646  13.280  0.00  0.00    -0.228 NA
ATOM     29  C2  <0> d   1      19.356  -0.319  14.142  0.00  0.00     0.164 A 
ATOM     30  S31 <0> d   1      18.291   0.108  15.409  0.00  0.00    -0.062 SA
ATOM     31  C30 <0> d   1      18.002   1.673  14.653  0.00  0.00     0.081 A 
BRANCH  29  32
ATOM     32  N1  <0> d   1      20.033  -1.525  14.047  0.00  0.00    -0.378 N 
ATOM     33  H32 <0> d   1      20.112  -2.099  14.824  0.00  0.00     0.158 HD
ATOM     34  H33 <0> d   1      20.424  -1.796  13.202  0.00  0.00     0.158 HD
ENDBRANCH  29  32
ENDBRANCH  26  27
ENDBRANCH  23  26
ENDBRANCH   1  22
TORSDOF 11
ENDMDL
MODEL 9
REMARK VINA RESULT:      -6.8      1.670      2.198
REMARK  11 active torsions:
REMARK  status: ('A' for Active; 'I' for Inactive)
REMARK    1  A    between atoms: N1_1  and  C2_2 
REMARK    2  A    between atoms: C4_4  and  C5_5 
REMARK    3  A    between atoms: C5_5  and  C6_6 
REMARK       I    between atoms: C6_6  and  N8_8 
REMARK    4  A    between atoms: N8_8  and  C9_9 
REMARK    5  A    between atoms: C12_12  and  C13_13 
REMARK    6  A    between atoms: C13_13  and  C14_14 
REMARK    7  A    between atoms: C14_14  and  N15_15 
REMARK    8  A    between atoms: N15_15  and  C18_18 
REMARK    9  A    between atoms: C18_18  and  C19_19 
REMARK   10  A    between atoms: C19_19  and  O21_20 
REMARK   11  A    between atoms: C19_19  and  C22_21 
ROOT
ATOM      1  C9  <0> d   1      18.294   0.304   7.123  0.00  0.00     0.034 A 
ATOM      2  C10 <0> d   1      19.162   1.352   7.400  0.00  0.00     0.030 A 
ATOM      3  C11 <0> d   1      19.134   1.961   8.639  0.00  0.00     0.009 A 
ATOM      4  C12 <0> d   1      18.242   1.527   9.604  0.00  0.00    -0.057 A 
ATOM      5  C28 <0> d   1      17.376   0.485   9.330  0.00  0.00     0.009 A 
ATOM      6  C29 <0> d   1      17.396  -0.125   8.090  0.00  0.00     0.030 A 
ENDROOT
BRANCH   4   7
ATOM      7  C13 <0> d   1      18.213   2.195  10.955  0.00  0.00     0.066 C 
BRANCH   7   8
ATOM      8  C14 <0> d   1      19.645   2.412  11.446  0.00  0.00     0.237 C 
BRANCH   8   9
ATOM      9  N15 <0> d   1      19.799   1.821  12.783  0.00  0.00    -0.072 N 
ATOM     10  H16 <0> d   1      20.426   2.389  13.332  0.00  0.00     0.277 HD
ATOM     11  H17 <0> d   1      18.899   1.779  13.237  0.00  0.00     0.277 HD
BRANCH   9  12
ATOM     12  C18 <0> d   1      20.348   0.465  12.659  0.00  0.00     0.268 C 
BRANCH  12  13
ATOM     13  C19 <0> d   1      19.355  -0.543  13.240  0.00  0.00     0.176 C 
BRANCH  13  14
ATOM     14  O21 <0> d   1      19.974  -1.258  14.312  0.00  0.00    -0.389 OA
ATOM     15  H45 <0> d   1      20.229  -2.162  14.086  0.00  0.00     0.210 HD
ENDBRANCH  13  14
BRANCH  13  16
ATOM     16  C22 <0> d   1      18.937  -1.514  12.164  0.00  0.00    -0.028 A 
ATOM     17  C27 <0> d   1      17.781  -2.257  12.315  0.00  0.00     0.010 A 
ATOM     18  C26 <0> d   1      17.396  -3.143  11.327  0.00  0.00     0.001 A 
ATOM     19  C25 <0> d   1      18.171  -3.294  10.192  0.00  0.00     0.000 A 
ATOM     20  C24 <0> d   1      19.330  -2.555  10.044  0.00  0.00     0.001 A 
ATOM     21  C23 <0> d   1      19.712  -1.665  11.030  0.00  0.00     0.010 A 
ENDBRANCH  13  16
ENDBRANCH  12  13
ENDBRANCH   9  12
ENDBRANCH   8   9
ENDBRANCH   7   8
ENDBRANCH   4   7
BRANCH   1  22
ATOM     22  N8  <0> d   1      18.321  -0.316   5.868  0.00  0.00    -0.327 N 
ATOM     23  C6  <0> d   1      19.039  -1.443   5.688  0.00  0.00     0.227 C 
ATOM     24  O7  <0> d   1      19.728  -1.873   6.589  0.00  0.00    -0.273 OA
ATOM     25  H36 <0> d   1      17.823   0.065   5.128  0.00  0.00     0.169 HD
BRANCH  23  26
ATOM     26  C5  <0> d   1      18.985  -2.168   4.368  0.00  0.00     0.163 C 
BRANCH  26  27
ATOM     27  C4  <0> d   1      18.123  -3.396   4.504  0.00  0.00     0.052 A 
ATOM     28  N3  <0> d   1      18.493  -4.453   5.207  0.00  0.00    -0.228 NA
ATOM     29  C2  <0> d   1      17.663  -5.448   5.247  0.00  0.00     0.164 A 
ATOM     30  S31 <0> d   1      16.267  -5.088   4.329  0.00  0.00    -0.062 SA
ATOM     31  C30 <0> d   1      16.927  -3.505   3.926  0.00  0.00     0.081 A 
BRANCH  29  32
ATOM     32  N1  <0> d   1      17.879  -6.635   5.930  0.00  0.00    -0.378 N 
ATOM     33  H32 <0> d   1      18.774  -7.005   5.988  0.00  0.00     0.158 HD
ATOM     34  H33 <0> d   1      17.137  -7.092   6.354  0.00  0.00     0.158 HD
ENDBRANCH  29  32
ENDBRANCH  26  27
ENDBRANCH  23  26
ENDBRANCH   1  22
TORSDOF 11
ENDMDL
