MODEL 1
REMARK VINA RESULT:      -4.6      0.000      0.000
REMARK  2 active torsions:
REMARK  status: ('A' for Active; 'I' for Inactive)
REMARK    1  A    between atoms: O1_1  and  C2_2 
REMARK    2  A    between atoms: C2_2  and  C3_3 
ROOT
ATOM      1  C3  ZIN A   1      18.517   0.352   6.179  0.00  0.00    -0.035 A 
ATOM      2  C4  ZIN A   1      17.586  -0.431   6.835  0.00  0.00     0.009 A 
ATOM      3  C5  ZIN A   1      17.317  -0.210   8.173  0.00  0.00     0.001 A 
ATOM      4  C6  ZIN A   1      17.980   0.794   8.854  0.00  0.00     0.000 A 
ATOM      5  C7  ZIN A   1      18.912   1.576   8.198  0.00  0.00     0.001 A 
ATOM      6  C8  ZIN A   1      19.184   1.351   6.862  0.00  0.00     0.009 A 
ENDROOT
BRANCH   1   7
ATOM      7  C2  ZIN A   1      18.811   0.111   4.720  0.00  0.00     0.202 C 
BRANCH   7   8
ATOM      8  O1  ZIN A   1      20.058  -0.576   4.592  0.00  0.00    -0.396 OA
ATOM      9  H9  ZIN A   1      20.080  -1.436   5.032  0.00  0.00     0.209 HD
ENDBRANCH   7   8
ENDBRANCH   1   7
TORSDOF 2
ENDMDL
MODEL 2
REMARK VINA RESULT:      -4.5      2.881      3.790
REMARK  2 active torsions:
REMARK  status: ('A' for Active; 'I' for Inactive)
REMARK    1  A    between atoms: O1_1  and  C2_2 
REMARK    2  A    between atoms: C2_2  and  C3_3 
ROOT
ATOM      1  C3  ZIN A   1      19.737  -0.066   9.508  0.00  0.00    -0.035 A 
ATOM      2  C4  ZIN A   1      19.494  -0.907   8.438  0.00  0.00     0.009 A 
ATOM      3  C5  ZIN A   1      19.049  -0.386   7.237  0.00  0.00     0.001 A 
ATOM      4  C6  ZIN A   1      18.847   0.976   7.107  0.00  0.00     0.000 A 
ATOM      5  C7  ZIN A   1      19.090   1.816   8.177  0.00  0.00     0.001 A 
ATOM      6  C8  ZIN A   1      19.530   1.294   9.379  0.00  0.00     0.009 A 
ENDROOT
BRANCH   1   7
ATOM      7  C2  ZIN A   1      20.222  -0.634  10.818  0.00  0.00     0.202 C 
BRANCH   7   8
ATOM      8  O1  ZIN A   1      21.650  -0.604  10.851  0.00  0.00    -0.396 OA
ATOM      9  H9  ZIN A   1      22.026  -0.750  11.730  0.00  0.00     0.209 HD
ENDBRANCH   7   8
ENDBRANCH   1   7
TORSDOF 2
ENDMDL
MODEL 3
REMARK VINA RESULT:      -4.4      0.556      1.768
REMARK  2 active torsions:
REMARK  status: ('A' for Active; 'I' for Inactive)
REMARK    1  A    between atoms: O1_1  and  C2_2 
REMARK    2  A    between atoms: C2_2  and  C3_3 
ROOT
ATOM      1  C3  ZIN A   1      18.331   0.247   6.555  0.00  0.00    -0.035 A 
ATOM      2  C4  ZIN A   1      19.124   1.281   7.013  0.00  0.00     0.009 A 
ATOM      3  C5  ZIN A   1      19.041   1.685   8.333  0.00  0.00     0.001 A 
ATOM      4  C6  ZIN A   1      18.162   1.053   9.194  0.00  0.00     0.000 A 
ATOM      5  C7  ZIN A   1      17.368   0.019   8.736  0.00  0.00     0.001 A 
ATOM      6  C8  ZIN A   1      17.448  -0.380   7.415  0.00  0.00     0.009 A 
ENDROOT
BRANCH   1   7
ATOM      7  C2  ZIN A   1      18.421  -0.193   5.116  0.00  0.00     0.202 C 
BRANCH   7   8
ATOM      8  O1  ZIN A   1      19.656   0.258   4.557  0.00  0.00    -0.396 OA
ATOM      9  H9  ZIN A   1      19.676   1.204   4.358  0.00  0.00     0.209 HD
ENDBRANCH   7   8
ENDBRANCH   1   7
TORSDOF 2
ENDMDL
MODEL 4
REMARK VINA RESULT:      -4.4      3.500      4.809
REMARK  2 active torsions:
REMARK  status: ('A' for Active; 'I' for Inactive)
REMARK    1  A    between atoms: O1_1  and  C2_2 
REMARK    2  A    between atoms: C2_2  and  C3_3 
ROOT
ATOM      1  C3  ZIN A   1      19.818   0.693  10.652  0.00  0.00    -0.035 A 
ATOM      2  C4  ZIN A   1      19.330   1.976  10.484  0.00  0.00     0.009 A 
ATOM      3  C5  ZIN A   1      18.875   2.385   9.245  0.00  0.00     0.001 A 
ATOM      4  C6  ZIN A   1      18.908   1.512   8.173  0.00  0.00     0.000 A 
ATOM      5  C7  ZIN A   1      19.397   0.230   8.341  0.00  0.00     0.001 A 
ATOM      6  C8  ZIN A   1      19.857  -0.177   9.580  0.00  0.00     0.009 A 
ENDROOT
BRANCH   1   7
ATOM      7  C2  ZIN A   1      20.315   0.247  12.003  0.00  0.00     0.202 C 
BRANCH   7   8
ATOM      8  O1  ZIN A   1      21.685   0.625  12.157  0.00  0.00    -0.396 OA
ATOM      9  H9  ZIN A   1      22.313  -0.021  11.805  0.00  0.00     0.209 HD
ENDBRANCH   7   8
ENDBRANCH   1   7
TORSDOF 2
ENDMDL
MODEL 5
REMARK VINA RESULT:      -4.4      8.550     10.106
REMARK  2 active torsions:
REMARK  status: ('A' for Active; 'I' for Inactive)
REMARK    1  A    between atoms: O1_1  and  C2_2 
REMARK    2  A    between atoms: C2_2  and  C3_3 
ROOT
ATOM      1  C3  ZIN A   1      18.802  -0.223  16.911  0.00  0.00    -0.035 A 
ATOM      2  C4  ZIN A   1      18.039   0.761  16.312  0.00  0.00     0.009 A 
ATOM      3  C5  ZIN A   1      17.610   0.605  15.007  0.00  0.00     0.001 A 
ATOM      4  C6  ZIN A   1      17.944  -0.537  14.302  0.00  0.00     0.000 A 
ATOM      5  C7  ZIN A   1      18.708  -1.521  14.901  0.00  0.00     0.001 A 
ATOM      6  C8  ZIN A   1      19.141  -1.361  16.204  0.00  0.00     0.009 A 
ENDROOT
BRANCH   1   7
ATOM      7  C2  ZIN A   1      19.270  -0.053  18.334  0.00  0.00     0.202 C 
BRANCH   7   8
ATOM      8  O1  ZIN A   1      19.886   1.228  18.483  0.00  0.00    -0.396 OA
ATOM      9  H9  ZIN A   1      20.340   1.541  17.689  0.00  0.00     0.209 HD
ENDBRANCH   7   8
ENDBRANCH   1   7
TORSDOF 2
ENDMDL
MODEL 6
REMARK VINA RESULT:      -4.3      9.251     10.665
REMARK  2 active torsions:
REMARK  status: ('A' for Active; 'I' for Inactive)
REMARK    1  A    between atoms: O1_1  and  C2_2 
REMARK    2  A    between atoms: C2_2  and  C3_3 
ROOT
ATOM      1  C3  ZIN A   1      18.440   0.577  17.362  0.00  0.00    -0.035 A 
ATOM      2  C4  ZIN A   1      19.104  -0.610  17.611  0.00  0.00     0.009 A 
ATOM      3  C5  ZIN A   1      19.184  -1.577  16.627  0.00  0.00     0.001 A 
ATOM      4  C6  ZIN A   1      18.601  -1.357  15.393  0.00  0.00     0.000 A 
ATOM      5  C7  ZIN A   1      17.937  -0.170  15.143  0.00  0.00     0.001 A 
ATOM      6  C8  ZIN A   1      17.853   0.794  16.130  0.00  0.00     0.009 A 
ENDROOT
BRANCH   1   7
ATOM      7  C2  ZIN A   1      18.352   1.631  18.435  0.00  0.00     0.202 C 
BRANCH   7   8
ATOM      8  O1  ZIN A   1      19.667   1.969  18.882  0.00  0.00    -0.396 OA
ATOM      9  H9  ZIN A   1      20.199   2.433  18.222  0.00  0.00     0.209 HD
ENDBRANCH   7   8
ENDBRANCH   1   7
TORSDOF 2
ENDMDL
MODEL 7
REMARK VINA RESULT:      -4.2      2.661      3.747
REMARK  2 active torsions:
REMARK  status: ('A' for Active; 'I' for Inactive)
REMARK    1  A    between atoms: O1_1  and  C2_2 
REMARK    2  A    between atoms: C2_2  and  C3_3 
ROOT
ATOM      1  C3  ZIN A   1      18.728   1.669   9.214  0.00  0.00    -0.035 A 
ATOM      2  C4  ZIN A   1      17.773   0.700   9.461  0.00  0.00     0.009 A 
ATOM      3  C5  ZIN A   1      17.330  -0.110   8.433  0.00  0.00     0.001 A 
ATOM      4  C6  ZIN A   1      17.841   0.048   7.158  0.00  0.00     0.000 A 
ATOM      5  C7  ZIN A   1      18.795   1.018   6.911  0.00  0.00     0.001 A 
ATOM      6  C8  ZIN A   1      19.234   1.832   7.938  0.00  0.00     0.009 A 
ENDROOT
BRANCH   1   7
ATOM      7  C2  ZIN A   1      19.211   2.554  10.335  0.00  0.00     0.202 C 
BRANCH   7   8
ATOM      8  O1  ZIN A   1      20.166   1.844  11.125  0.00  0.00    -0.396 OA
ATOM      9  H9  ZIN A   1      20.257   0.911  10.888  0.00  0.00     0.209 HD
ENDBRANCH   7   8
ENDBRANCH   1   7
TORSDOF 2
ENDMDL
MODEL 8
REMARK VINA RESULT:      -4.2      7.034      8.406
REMARK  2 active torsions:
REMARK  status: ('A' for Active; 'I' for Inactive)
REMARK    1  A    between atoms: O1_1  and  C2_2 
REMARK    2  A    between atoms: C2_2  and  C3_3 
ROOT
ATOM      1  C3  ZIN A   1      18.835  -0.130  14.442  0.00  0.00    -0.035 A 
ATOM      2  C4  ZIN A   1      17.769   0.562  14.985  0.00  0.00     0.009 A 
ATOM      3  C5  ZIN A   1      17.185   0.123  16.159  0.00  0.00     0.001 A 
ATOM      4  C6  ZIN A   1      17.667  -1.009  16.789  0.00  0.00     0.000 A 
ATOM      5  C7  ZIN A   1      18.733  -1.702  16.246  0.00  0.00     0.001 A 
ATOM      6  C8  ZIN A   1      19.313  -1.266  15.069  0.00  0.00     0.009 A 
ENDROOT
BRANCH   1   7
ATOM      7  C2  ZIN A   1      19.472   0.348  13.162  0.00  0.00     0.202 C 
BRANCH   7   8
ATOM      8  O1  ZIN A   1      20.893   0.342  13.306  0.00  0.00    -0.396 OA
ATOM      9  H9  ZIN A   1      21.350   0.963  12.722  0.00  0.00     0.209 HD
ENDBRANCH   7   8
ENDBRANCH   1   7
TORSDOF 2
ENDMDL
MODEL 9
REMARK VINA RESULT:      -4.2      7.108      8.480
REMARK  2 active torsions:
REMARK  status: ('A' for Active; 'I' for Inactive)
REMARK    1  A    between atoms: O1_1  and  C2_2 
REMARK    2  A    between atoms: C2_2  and  C3_3 
ROOT
ATOM      1  C3  ZIN A   1      18.838   0.065  14.607  0.00  0.00    -0.035 A 
ATOM      2  C4  ZIN A   1      19.295  -1.155  15.070  0.00  0.00     0.009 A 
ATOM      3  C5  ZIN A   1      18.676  -1.762  16.147  0.00  0.00     0.001 A 
ATOM      4  C6  ZIN A   1      17.600  -1.147  16.762  0.00  0.00     0.000 A 
ATOM      5  C7  ZIN A   1      17.144   0.074  16.299  0.00  0.00     0.001 A 
ATOM      6  C8  ZIN A   1      17.767   0.682  15.226  0.00  0.00     0.009 A 
ENDROOT
BRANCH   1   7
ATOM      7  C2  ZIN A   1      19.514   0.726  13.433  0.00  0.00     0.202 C 
BRANCH   7   8
ATOM      8  O1  ZIN A   1      20.876   0.299  13.363  0.00  0.00    -0.396 OA
ATOM      9  H9  ZIN A   1      21.471   0.785  13.950  0.00  0.00     0.209 HD
ENDBRANCH   7   8
ENDBRANCH   1   7
TORSDOF 2
ENDMDL
