MODEL 1
REMARK VINA RESULT:      -9.8      0.000      0.000
REMARK  5 active torsions:
REMARK  status: ('A' for Active; 'I' for Inactive)
REMARK    1  A    between atoms: C21_18  and  O23_19 
REMARK    2  A    between atoms: C27_23  and  O28_24 
REMARK    3  A    between atoms: C27_23  and  C29_25 
REMARK    4  A    between atoms: C29_25  and  C31_27 
REMARK    5  A    between atoms: C31_27  and  O32_28 
ROOT
ATOM      1  C1  <0> d   1      18.436  -1.534  15.170  0.00  0.00     0.013 C 
ATOM      2  C2  <0> d   1      19.452  -1.329  14.045  0.00  0.00     0.025 C 
ATOM      3  C4  <0> d   1      19.005  -2.106  12.776  0.00  0.00     0.013 C 
ATOM      4  C5  <0> d   1      19.424  -1.169  11.636  0.00  0.00     0.005 C 
ATOM      5  C7  <0> d   1      18.696  -1.367  10.319  0.00  0.00     0.035 C 
ATOM      6  C9  <0> d   1      18.992  -2.762   9.765  0.00  0.00     0.013 C 
ATOM      7  C10 <0> d   1      18.224  -2.971   8.456  0.00  0.00     0.036 C 
ATOM      8  C11 <0> d   1      18.589  -1.843   7.510  0.00  0.00    -0.061 A 
ATOM      9  C12 <0> d   1      18.997  -2.139   6.283  0.00  0.00     0.058 A 
ATOM     10  C13 <0> d   1      19.378  -1.072   5.344  0.00  0.00     0.172 A 
ATOM     11  O14 <0> d   1      19.715  -1.337   4.206  0.00  0.00    -0.289 OA
ATOM     12  C15 <0> d   1      19.342   0.323   5.813  0.00  0.00     0.052 A 
ATOM     13  C16 <0> d   1      18.924   0.596   7.040  0.00  0.00    -0.006 A 
ATOM     14  C17 <0> d   1      18.465  -0.435   8.013  0.00  0.00     0.036 A 
ATOM     15  C18 <0> d   1      16.988  -0.172   8.312  0.00  0.00     0.028 C 
ATOM     16  C19 <0> d   1      19.202  -0.288   9.347  0.00  0.00     0.147 C 
ATOM     17  F20 <0> d   1      20.572  -0.486   9.141  0.00  0.00    -0.238 F 
ATOM     18  C21 <0> d   1      18.995   1.123   9.886  0.00  0.00     0.160 C 
ATOM     19  C24 <0> d   1      19.605   1.292  11.287  0.00  0.00     0.048 C 
ATOM     20  C25 <0> d   1      19.017   0.217  12.202  0.00  0.00     0.001 C 
ATOM     21  C26 <0> d   1      17.488   0.286  12.168  0.00  0.00     0.019 C 
ATOM     22  C27 <0> d   1      19.512   0.166  13.646  0.00  0.00     0.131 C 
ENDROOT
BRANCH  22  23
ATOM     23  O28 <0> d   1      20.840   0.685  13.732  0.00  0.00    -0.381 OA
ATOM     24  H54 <0> d   1      21.353   0.332  14.471  0.00  0.00     0.211 HD
ENDBRANCH  22  23
BRANCH  22  25
ATOM     25  C29 <0> d   1      18.585   0.945  14.542  0.00  0.00     0.185 C 
ATOM     26  O30 <0> d   1      17.398   0.725  14.523  0.00  0.00    -0.292 OA
BRANCH  25  27
ATOM     27  C31 <0> d   1      19.140   2.000  15.465  0.00  0.00     0.245 C 
BRANCH  27  28
ATOM     28  O32 <0> d   1      19.556   3.132  14.698  0.00  0.00    -0.393 OA
ATOM     29  H57 <0> d   1      19.978   2.905  13.859  0.00  0.00     0.209 HD
ENDBRANCH  27  28
ENDBRANCH  25  27
ENDBRANCH  22  25
BRANCH  18  30
ATOM     30  O23 <0> d   1      17.593   1.395   9.954  0.00  0.00    -0.392 OA
ATOM     31  H48 <0> d   1      17.095   1.088   9.184  0.00  0.00     0.210 HD
ENDBRANCH  18  30
TORSDOF 5
ENDMDL
MODEL 2
REMARK VINA RESULT:      -9.1      2.557      6.286
REMARK  5 active torsions:
REMARK  status: ('A' for Active; 'I' for Inactive)
REMARK    1  A    between atoms: C21_18  and  O23_19 
REMARK    2  A    between atoms: C27_23  and  O28_24 
REMARK    3  A    between atoms: C27_23  and  C29_25 
REMARK    4  A    between atoms: C29_25  and  C31_27 
REMARK    5  A    between atoms: C31_27  and  O32_28 
ROOT
ATOM      1  C1  <0> d   1      17.768  -5.647  10.508  0.00  0.00     0.013 C 
ATOM      2  C2  <0> d   1      17.324  -4.241  10.101  0.00  0.00     0.025 C 
ATOM      3  C4  <0> d   1      17.277  -3.315  11.348  0.00  0.00     0.013 C 
ATOM      4  C5  <0> d   1      17.764  -1.970  10.794  0.00  0.00     0.005 C 
ATOM      5  C7  <0> d   1      18.321  -0.998  11.819  0.00  0.00     0.035 C 
ATOM      6  C9  <0> d   1      17.225  -0.604  12.810  0.00  0.00     0.013 C 
ATOM      7  C10 <0> d   1      17.801   0.346  13.866  0.00  0.00     0.036 C 
ATOM      8  C11 <0> d   1      18.434   1.522  13.146  0.00  0.00    -0.061 A 
ATOM      9  C12 <0> d   1      18.097   2.753  13.505  0.00  0.00     0.058 A 
ATOM     10  C13 <0> d   1      18.675   3.918  12.817  0.00  0.00     0.172 A 
ATOM     11  O14 <0> d   1      18.398   5.049  13.170  0.00  0.00    -0.289 OA
ATOM     12  C15 <0> d   1      19.596   3.685  11.692  0.00  0.00     0.052 A 
ATOM     13  C16 <0> d   1      19.923   2.447  11.355  0.00  0.00    -0.006 A 
ATOM     14  C17 <0> d   1      19.422   1.231  12.054  0.00  0.00     0.036 A 
ATOM     15  C18 <0> d   1      20.623   0.525  12.686  0.00  0.00     0.028 C 
ATOM     16  C19 <0> d   1      18.822   0.238  11.055  0.00  0.00     0.147 C 
ATOM     17  F20 <0> d   1      17.730   0.834  10.413  0.00  0.00    -0.238 F 
ATOM     18  C21 <0> d   1      19.867  -0.112  10.002  0.00  0.00     0.160 C 
ATOM     19  C24 <0> d   1      19.365  -1.204   9.044  0.00  0.00     0.048 C 
ATOM     20  C25 <0> d   1      18.933  -2.413   9.874  0.00  0.00     0.001 C 
ATOM     21  C26 <0> d   1      20.080  -2.855  10.785  0.00  0.00     0.019 C 
ATOM     22  C27 <0> d   1      18.356  -3.616   9.130  0.00  0.00     0.131 C 
ENDROOT
BRANCH  22  23
ATOM     23  O28 <0> d   1      17.748  -3.196   7.907  0.00  0.00    -0.381 OA
ATOM     24  H54 <0> d   1      18.370  -2.829   7.264  0.00  0.00     0.211 HD
ENDBRANCH  22  23
BRANCH  22  25
ATOM     25  C29 <0> d   1      19.439  -4.627   8.856  0.00  0.00     0.185 C 
ATOM     26  O30 <0> d   1      19.989  -5.188   9.774  0.00  0.00    -0.292 OA
BRANCH  25  27
ATOM     27  C31 <0> d   1      19.836  -4.940   7.436  0.00  0.00     0.245 C 
BRANCH  27  28
ATOM     28  O32 <0> d   1      20.536  -3.825   6.880  0.00  0.00    -0.393 OA
ATOM     29  H57 <0> d   1      21.159  -3.409   7.490  0.00  0.00     0.209 HD
ENDBRANCH  27  28
ENDBRANCH  25  27
ENDBRANCH  22  25
BRANCH  18  30
ATOM     30  O23 <0> d   1      21.050  -0.577  10.656  0.00  0.00    -0.392 OA
ATOM     31  H48 <0> d   1      21.401  -1.404  10.296  0.00  0.00     0.210 HD
ENDBRANCH  18  30
TORSDOF 5
ENDMDL
MODEL 3
REMARK VINA RESULT:      -8.6      2.605      4.437
REMARK  5 active torsions:
REMARK  status: ('A' for Active; 'I' for Inactive)
REMARK    1  A    between atoms: C21_18  and  O23_19 
REMARK    2  A    between atoms: C27_23  and  O28_24 
REMARK    3  A    between atoms: C27_23  and  C29_25 
REMARK    4  A    between atoms: C29_25  and  C31_27 
REMARK    5  A    between atoms: C31_27  and  O32_28 
ROOT
ATOM      1  C1  <0> d   1      17.717   5.436  11.761  0.00  0.00     0.013 C 
ATOM      2  C2  <0> d   1      17.249   4.077  12.284  0.00  0.00     0.025 C 
ATOM      3  C4  <0> d   1      17.248   3.035  11.131  0.00  0.00     0.013 C 
ATOM      4  C5  <0> d   1      17.705   1.750  11.831  0.00  0.00     0.005 C 
ATOM      5  C7  <0> d   1      18.298   0.682  10.929  0.00  0.00     0.035 C 
ATOM      6  C9  <0> d   1      17.241   0.195   9.937  0.00  0.00     0.013 C 
ATOM      7  C10 <0> d   1      17.855  -0.853   9.003  0.00  0.00     0.036 C 
ATOM      8  C11 <0> d   1      18.452  -1.955   9.858  0.00  0.00    -0.061 A 
ATOM      9  C12 <0> d   1      18.123  -3.215   9.605  0.00  0.00     0.058 A 
ATOM     10  C13 <0> d   1      18.666  -4.308  10.427  0.00  0.00     0.172 A 
ATOM     11  O14 <0> d   1      18.398  -5.467  10.173  0.00  0.00    -0.289 OA
ATOM     12  C15 <0> d   1      19.542  -3.968  11.560  0.00  0.00     0.052 A 
ATOM     13  C16 <0> d   1      19.862  -2.704  11.789  0.00  0.00    -0.006 A 
ATOM     14  C17 <0> d   1      19.395  -1.561  10.956  0.00  0.00     0.036 A 
ATOM     15  C18 <0> d   1      20.625  -0.921  10.308  0.00  0.00     0.028 C 
ATOM     16  C19 <0> d   1      18.761  -0.475  11.829  0.00  0.00     0.147 C 
ATOM     17  F20 <0> d   1      17.641  -1.005  12.480  0.00  0.00    -0.238 F 
ATOM     18  C21 <0> d   1      19.764  -0.026  12.885  0.00  0.00     0.160 C 
ATOM     19  C24 <0> d   1      19.229   1.155  13.712  0.00  0.00     0.048 C 
ATOM     20  C25 <0> d   1      18.837   2.278  12.751  0.00  0.00     0.001 C 
ATOM     21  C26 <0> d   1      20.023   2.628  11.850  0.00  0.00     0.019 C 
ATOM     22  C27 <0> d   1      18.238   3.548  13.352  0.00  0.00     0.131 C 
ENDROOT
BRANCH  22  23
ATOM     23  O28 <0> d   1      17.578   3.249  14.583  0.00  0.00    -0.381 OA
ATOM     24  H54 <0> d   1      17.501   4.004  15.182  0.00  0.00     0.211 HD
ENDBRANCH  22  23
BRANCH  22  25
ATOM     25  C29 <0> d   1      19.314   4.580  13.571  0.00  0.00     0.185 C 
ATOM     26  O30 <0> d   1      19.958   4.990  12.635  0.00  0.00    -0.292 OA
BRANCH  25  27
ATOM     27  C31 <0> d   1      19.586   5.101  14.959  0.00  0.00     0.245 C 
BRANCH  27  28
ATOM     28  O32 <0> d   1      20.153   4.059  15.756  0.00  0.00    -0.393 OA
ATOM     29  H57 <0> d   1      19.539   3.680  16.400  0.00  0.00     0.209 HD
ENDBRANCH  27  28
ENDBRANCH  25  27
ENDBRANCH  22  25
BRANCH  18  30
ATOM     30  O23 <0> d   1      20.975   0.372  12.239  0.00  0.00    -0.392 OA
ATOM     31  H48 <0> d   1      21.607   0.815  12.822  0.00  0.00     0.210 HD
ENDBRANCH  18  30
TORSDOF 5
ENDMDL
MODEL 4
REMARK VINA RESULT:      -8.4      3.001      6.226
REMARK  5 active torsions:
REMARK  status: ('A' for Active; 'I' for Inactive)
REMARK    1  A    between atoms: C21_18  and  O23_19 
REMARK    2  A    between atoms: C27_23  and  O28_24 
REMARK    3  A    between atoms: C27_23  and  C29_25 
REMARK    4  A    between atoms: C29_25  and  C31_27 
REMARK    5  A    between atoms: C31_27  and  O32_28 
ROOT
ATOM      1  C1  <0> d   1      17.516  -6.338  11.125  0.00  0.00     0.013 C 
ATOM      2  C2  <0> d   1      16.836  -5.081  10.579  0.00  0.00     0.025 C 
ATOM      3  C4  <0> d   1      17.068  -3.888  11.547  0.00  0.00     0.013 C 
ATOM      4  C5  <0> d   1      17.235  -2.701  10.591  0.00  0.00     0.005 C 
ATOM      5  C7  <0> d   1      17.971  -1.498  11.155  0.00  0.00     0.035 C 
ATOM      6  C9  <0> d   1      17.182  -0.910  12.327  0.00  0.00     0.013 C 
ATOM      7  C10 <0> d   1      17.948   0.279  12.918  0.00  0.00     0.036 C 
ATOM      8  C11 <0> d   1      18.221   1.267  11.801  0.00  0.00    -0.061 A 
ATOM      9  C12 <0> d   1      17.886   2.539  11.970  0.00  0.00     0.058 A 
ATOM     10  C13 <0> d   1      18.118   3.522  10.900  0.00  0.00     0.172 A 
ATOM     11  O14 <0> d   1      17.848   4.696  11.067  0.00  0.00    -0.289 OA
ATOM     12  C15 <0> d   1      18.685   3.053   9.625  0.00  0.00     0.052 A 
ATOM     13  C16 <0> d   1      19.019   1.780   9.481  0.00  0.00    -0.006 A 
ATOM     14  C17 <0> d   1      18.868   0.752  10.548  0.00  0.00     0.036 A 
ATOM     15  C18 <0> d   1      20.265   0.248  10.915  0.00  0.00     0.028 C 
ATOM     16  C19 <0> d   1      18.100  -0.466  10.024  0.00  0.00     0.147 C 
ATOM     17  F20 <0> d   1      16.815  -0.068   9.638  0.00  0.00    -0.238 F 
ATOM     18  C21 <0> d   1      18.818  -1.028   8.802  0.00  0.00     0.160 C 
ATOM     19  C24 <0> d   1      18.166  -2.329   8.308  0.00  0.00     0.048 C 
ATOM     20  C25 <0> d   1      18.119  -3.318   9.474  0.00  0.00     0.001 C 
ATOM     21  C26 <0> d   1      19.521  -3.499  10.058  0.00  0.00     0.019 C 
ATOM     22  C27 <0> d   1      17.470  -4.678   9.225  0.00  0.00     0.131 C 
ENDROOT
BRANCH  22  23
ATOM     23  O28 <0> d   1      16.490  -4.576   8.190  0.00  0.00    -0.381 OA
ATOM     24  H54 <0> d   1      15.763  -5.208   8.274  0.00  0.00     0.211 HD
ENDBRANCH  22  23
BRANCH  22  25
ATOM     25  C29 <0> d   1      18.518  -5.695   8.857  0.00  0.00     0.185 C 
ATOM     26  O30 <0> d   1      19.593  -5.682   9.406  0.00  0.00    -0.292 OA
BRANCH  25  27
ATOM     27  C31 <0> d   1      18.224  -6.732   7.802  0.00  0.00     0.245 C 
BRANCH  27  28
ATOM     28  O32 <0> d   1      19.080  -6.523   6.677  0.00  0.00    -0.393 OA
ATOM     29  H57 <0> d   1      18.771  -6.947   5.865  0.00  0.00     0.209 HD
ENDBRANCH  27  28
ENDBRANCH  25  27
ENDBRANCH  22  25
BRANCH  18  30
ATOM     30  O23 <0> d   1      20.181  -1.292   9.143  0.00  0.00    -0.392 OA
ATOM     31  H48 <0> d   1      20.302  -1.652  10.033  0.00  0.00     0.210 HD
ENDBRANCH  18  30
TORSDOF 5
ENDMDL
MODEL 5
REMARK VINA RESULT:      -8.4      1.717      6.801
REMARK  5 active torsions:
REMARK  status: ('A' for Active; 'I' for Inactive)
REMARK    1  A    between atoms: C21_18  and  O23_19 
REMARK    2  A    between atoms: C27_23  and  O28_24 
REMARK    3  A    between atoms: C27_23  and  C29_25 
REMARK    4  A    between atoms: C29_25  and  C31_27 
REMARK    5  A    between atoms: C31_27  and  O32_28 
ROOT
ATOM      1  C1  <0> d   1      18.929  -3.281   6.991  0.00  0.00     0.013 C 
ATOM      2  C2  <0> d   1      17.950  -2.598   7.948  0.00  0.00     0.025 C 
ATOM      3  C4  <0> d   1      18.387  -2.840   9.419  0.00  0.00     0.013 C 
ATOM      4  C5  <0> d   1      18.041  -1.512  10.102  0.00  0.00     0.005 C 
ATOM      5  C7  <0> d   1      18.788  -1.219  11.391  0.00  0.00     0.035 C 
ATOM      6  C9  <0> d   1      18.435  -2.269  12.446  0.00  0.00     0.013 C 
ATOM      7  C10 <0> d   1      19.221  -1.993  13.732  0.00  0.00     0.036 C 
ATOM      8  C11 <0> d   1      18.935  -0.566  14.162  0.00  0.00    -0.061 A 
ATOM      9  C12 <0> d   1      18.541  -0.337  15.407  0.00  0.00     0.058 A 
ATOM     10  C13 <0> d   1      18.235   1.032  15.855  0.00  0.00     0.172 A 
ATOM     11  O14 <0> d   1      17.911   1.250  17.006  0.00  0.00    -0.289 OA
ATOM     12  C15 <0> d   1      18.331   2.128  14.878  0.00  0.00     0.052 A 
ATOM     13  C16 <0> d   1      18.733   1.877  13.641  0.00  0.00    -0.006 A 
ATOM     14  C17 <0> d   1      19.118   0.525  13.148  0.00  0.00     0.036 A 
ATOM     15  C18 <0> d   1      20.599   0.568  12.769  0.00  0.00     0.028 C 
ATOM     16  C19 <0> d   1      18.359   0.180  11.864  0.00  0.00     0.147 C 
ATOM     17  F20 <0> d   1      16.986   0.154  12.133  0.00  0.00    -0.238 F 
ATOM     18  C21 <0> d   1      18.624   1.255  10.816  0.00  0.00     0.160 C 
ATOM     19  C24 <0> d   1      17.992   0.897   9.461  0.00  0.00     0.048 C 
ATOM     20  C25 <0> d   1      18.505  -0.481   9.039  0.00  0.00     0.001 C 
ATOM     21  C26 <0> d   1      20.034  -0.489   9.041  0.00  0.00     0.019 C 
ATOM     22  C27 <0> d   1      17.975  -1.065   7.731  0.00  0.00     0.131 C 
ENDROOT
BRANCH  22  23
ATOM     23  O28 <0> d   1      16.672  -0.547   7.450  0.00  0.00    -0.381 OA
ATOM     24  H54 <0> d   1      16.518   0.340   7.801  0.00  0.00     0.211 HD
ENDBRANCH  22  23
BRANCH  22  25
ATOM     25  C29 <0> d   1      18.919  -0.749   6.599  0.00  0.00     0.185 C 
ATOM     26  O30 <0> d   1      19.741  -1.564   6.253  0.00  0.00    -0.292 OA
BRANCH  25  27
ATOM     27  C31 <0> d   1      18.836   0.582   5.898  0.00  0.00     0.245 C 
BRANCH  27  28
ATOM     28  O32 <0> d   1      19.644   0.551   4.720  0.00  0.00    -0.393 OA
ATOM     29  H57 <0> d   1      19.225   0.109   3.969  0.00  0.00     0.209 HD
ENDBRANCH  27  28
ENDBRANCH  25  27
ENDBRANCH  22  25
BRANCH  18  30
ATOM     30  O23 <0> d   1      20.036   1.401  10.645  0.00  0.00    -0.392 OA
ATOM     31  H48 <0> d   1      20.468   1.905  11.349  0.00  0.00     0.210 HD
ENDBRANCH  18  30
TORSDOF 5
ENDMDL
MODEL 6
REMARK VINA RESULT:      -8.3      1.839      3.515
REMARK  5 active torsions:
REMARK  status: ('A' for Active; 'I' for Inactive)
REMARK    1  A    between atoms: C21_18  and  O23_19 
REMARK    2  A    between atoms: C27_23  and  O28_24 
REMARK    3  A    between atoms: C27_23  and  C29_25 
REMARK    4  A    between atoms: C29_25  and  C31_27 
REMARK    5  A    between atoms: C31_27  and  O32_28 
ROOT
ATOM      1  C1  <0> d   1      19.016   3.368  15.713  0.00  0.00     0.013 C 
ATOM      2  C2  <0> d   1      17.999   2.724  14.769  0.00  0.00     0.025 C 
ATOM      3  C4  <0> d   1      18.411   2.976  13.292  0.00  0.00     0.013 C 
ATOM      4  C5  <0> d   1      18.015   1.667  12.598  0.00  0.00     0.005 C 
ATOM      5  C7  <0> d   1      18.725   1.373  11.290  0.00  0.00     0.035 C 
ATOM      6  C9  <0> d   1      18.379   2.447  10.257  0.00  0.00     0.013 C 
ATOM      7  C10 <0> d   1      19.129   2.168   8.950  0.00  0.00     0.036 C 
ATOM      8  C11 <0> d   1      18.796   0.756   8.507  0.00  0.00    -0.061 A 
ATOM      9  C12 <0> d   1      18.369   0.554   7.268  0.00  0.00     0.058 A 
ATOM     10  C13 <0> d   1      18.017  -0.799   6.809  0.00  0.00     0.172 A 
ATOM     11  O14 <0> d   1      17.663  -0.993   5.662  0.00  0.00    -0.289 OA
ATOM     12  C15 <0> d   1      18.105  -1.912   7.769  0.00  0.00     0.052 A 
ATOM     13  C16 <0> d   1      18.540  -1.688   8.999  0.00  0.00    -0.006 A 
ATOM     14  C17 <0> d   1      18.971  -0.354   9.502  0.00  0.00     0.036 A 
ATOM     15  C18 <0> d   1      20.458  -0.442   9.849  0.00  0.00     0.028 C 
ATOM     16  C19 <0> d   1      18.249  -0.007  10.808  0.00  0.00     0.147 C 
ATOM     17  F20 <0> d   1      16.872   0.059  10.568  0.00  0.00    -0.238 F 
ATOM     18  C21 <0> d   1      18.508  -1.104  11.835  0.00  0.00     0.160 C 
ATOM     19  C24 <0> d   1      17.915  -0.748  13.208  0.00  0.00     0.048 C 
ATOM     20  C25 <0> d   1      18.473   0.610  13.637  0.00  0.00     0.001 C 
ATOM     21  C26 <0> d   1      20.002   0.577  13.602  0.00  0.00     0.019 C 
ATOM     22  C27 <0> d   1      17.987   1.188  14.964  0.00  0.00     0.131 C 
ENDROOT
BRANCH  22  23
ATOM     23  O28 <0> d   1      16.678   0.702  15.266  0.00  0.00    -0.381 OA
ATOM     24  H54 <0> d   1      16.124   1.334  15.744  0.00  0.00     0.211 HD
ENDBRANCH  22  23
BRANCH  22  25
ATOM     25  C29 <0> d   1      18.946   0.832  16.071  0.00  0.00     0.185 C 
ATOM     26  O30 <0> d   1      19.684   1.673  16.525  0.00  0.00    -0.292 OA
BRANCH  25  27
ATOM     27  C31 <0> d   1      18.984  -0.574  16.611  0.00  0.00     0.245 C 
BRANCH  27  28
ATOM     28  O32 <0> d   1      17.719  -0.896  17.192  0.00  0.00    -0.393 OA
ATOM     29  H57 <0> d   1      17.510  -0.385  17.986  0.00  0.00     0.209 HD
ENDBRANCH  27  28
ENDBRANCH  25  27
ENDBRANCH  22  25
BRANCH  18  30
ATOM     30  O23 <0> d   1      19.919  -1.290  11.973  0.00  0.00    -0.392 OA
ATOM     31  H48 <0> d   1      20.379  -1.450  11.137  0.00  0.00     0.210 HD
ENDBRANCH  18  30
TORSDOF 5
ENDMDL
MODEL 7
REMARK VINA RESULT:      -7.9      2.447      4.118
REMARK  5 active torsions:
REMARK  status: ('A' for Active; 'I' for Inactive)
REMARK    1  A    between atoms: C21_18  and  O23_19 
REMARK    2  A    between atoms: C27_23  and  O28_24 
REMARK    3  A    between atoms: C27_23  and  C29_25 
REMARK    4  A    between atoms: C29_25  and  C31_27 
REMARK    5  A    between atoms: C31_27  and  O32_28 
ROOT
ATOM      1  C1  <0> d   1      18.742   3.685  15.062  0.00  0.00     0.013 C 
ATOM      2  C2  <0> d   1      17.780   2.578  14.628  0.00  0.00     0.025 C 
ATOM      3  C4  <0> d   1      18.016   2.224  13.133  0.00  0.00     0.013 C 
ATOM      4  C5  <0> d   1      17.803   0.706  13.103  0.00  0.00     0.005 C 
ATOM      5  C7  <0> d   1      18.443  -0.027  11.938  0.00  0.00     0.035 C 
ATOM      6  C9  <0> d   1      17.825   0.450  10.622  0.00  0.00     0.013 C 
ATOM      7  C10 <0> d   1      18.502  -0.263   9.446  0.00  0.00     0.036 C 
ATOM      8  C11 <0> d   1      18.389  -1.759   9.674  0.00  0.00    -0.061 A 
ATOM      9  C12 <0> d   1      17.903  -2.522   8.705  0.00  0.00     0.058 A 
ATOM     10  C13 <0> d   1      17.761  -3.974   8.897  0.00  0.00     0.172 A 
ATOM     11  O14 <0> d   1      17.352  -4.682   7.996  0.00  0.00    -0.289 OA
ATOM     12  C15 <0> d   1      18.125  -4.549  10.202  0.00  0.00     0.052 A 
ATOM     13  C16 <0> d   1      18.615  -3.769  11.153  0.00  0.00    -0.006 A 
ATOM     14  C17 <0> d   1      18.841  -2.305  10.996  0.00  0.00     0.036 A 
ATOM     15  C18 <0> d   1      20.345  -2.048  11.120  0.00  0.00     0.028 C 
ATOM     16  C19 <0> d   1      18.181  -1.528  12.139  0.00  0.00     0.147 C 
ATOM     17  F20 <0> d   1      16.799  -1.745  12.104  0.00  0.00    -0.238 F 
ATOM     18  C21 <0> d   1      18.716  -2.038  13.472  0.00  0.00     0.160 C 
ATOM     19  C24 <0> d   1      18.186  -1.209  14.653  0.00  0.00     0.048 C 
ATOM     20  C25 <0> d   1      18.527   0.261  14.401  0.00  0.00     0.001 C 
ATOM     21  C26 <0> d   1      20.030   0.409  14.152  0.00  0.00     0.019 C 
ATOM     22  C27 <0> d   1      18.059   1.284  15.433  0.00  0.00     0.131 C 
ENDROOT
BRANCH  22  23
ATOM     23  O28 <0> d   1      16.887   0.813  16.101  0.00  0.00    -0.381 OA
ATOM     24  H54 <0> d   1      16.190   0.509  15.504  0.00  0.00     0.211 HD
ENDBRANCH  22  23
BRANCH  22  25
ATOM     25  C29 <0> d   1      19.155   1.559  16.430  0.00  0.00     0.185 C 
ATOM     26  O30 <0> d   1      19.958   2.437  16.219  0.00  0.00    -0.292 OA
BRANCH  25  27
ATOM     27  C31 <0> d   1      19.250   0.738  17.690  0.00  0.00     0.245 C 
BRANCH  27  28
ATOM     28  O32 <0> d   1      19.643   1.579  18.777  0.00  0.00    -0.393 OA
ATOM     29  H57 <0> d   1      20.590   1.772  18.801  0.00  0.00     0.209 HD
ENDBRANCH  27  28
ENDBRANCH  25  27
ENDBRANCH  22  25
BRANCH  18  30
ATOM     30  O23 <0> d   1      20.144  -1.968  13.459  0.00  0.00    -0.392 OA
ATOM     31  H48 <0> d   1      20.569  -2.454  14.180  0.00  0.00     0.210 HD
ENDBRANCH  18  30
TORSDOF 5
ENDMDL
MODEL 8
REMARK VINA RESULT:      -7.8      2.284      3.313
REMARK  5 active torsions:
REMARK  status: ('A' for Active; 'I' for Inactive)
REMARK    1  A    between atoms: C21_18  and  O23_19 
REMARK    2  A    between atoms: C27_23  and  O28_24 
REMARK    3  A    between atoms: C27_23  and  C29_25 
REMARK    4  A    between atoms: C29_25  and  C31_27 
REMARK    5  A    between atoms: C31_27  and  O32_28 
ROOT
ATOM      1  C1  <0> d   1      18.005   1.237  14.830  0.00  0.00     0.013 C 
ATOM      2  C2  <0> d   1      18.958   0.168  14.292  0.00  0.00     0.025 C 
ATOM      3  C4  <0> d   1      18.153  -1.069  13.809  0.00  0.00     0.013 C 
ATOM      4  C5  <0> d   1      18.935  -1.526  12.572  0.00  0.00     0.005 C 
ATOM      5  C7  <0> d   1      18.162  -2.372  11.577  0.00  0.00     0.035 C 
ATOM      6  C9  <0> d   1      17.731  -3.684  12.235  0.00  0.00     0.013 C 
ATOM      7  C10 <0> d   1      16.917  -4.517  11.239  0.00  0.00     0.036 C 
ATOM      8  C11 <0> d   1      17.750  -4.701   9.985  0.00  0.00    -0.061 A 
ATOM      9  C12 <0> d   1      17.927  -5.924   9.503  0.00  0.00     0.058 A 
ATOM     10  C13 <0> d   1      18.746  -6.143   8.300  0.00  0.00     0.172 A 
ATOM     11  O14 <0> d   1      18.877  -7.258   7.833  0.00  0.00    -0.289 OA
ATOM     12  C15 <0> d   1      19.400  -4.982   7.675  0.00  0.00     0.052 A 
ATOM     13  C16 <0> d   1      19.204  -3.769   8.169  0.00  0.00    -0.006 A 
ATOM     14  C17 <0> d   1      18.337  -3.477   9.344  0.00  0.00     0.036 A 
ATOM     15  C18 <0> d   1      17.179  -2.600   8.865  0.00  0.00     0.028 C 
ATOM     16  C19 <0> d   1      19.094  -2.651  10.387  0.00  0.00     0.147 C 
ATOM     17  F20 <0> d   1      20.192  -3.386  10.848  0.00  0.00    -0.238 F 
ATOM     18  C21 <0> d   1      19.610  -1.370   9.739  0.00  0.00     0.160 C 
ATOM     19  C24 <0> d   1      20.269  -0.438  10.768  0.00  0.00     0.048 C 
ATOM     20  C25 <0> d   1      19.264  -0.171  11.890  0.00  0.00     0.001 C 
ATOM     21  C26 <0> d   1      17.958   0.365  11.301  0.00  0.00     0.019 C 
ATOM     22  C27 <0> d   1      19.718   0.706  13.055  0.00  0.00     0.131 C 
ENDROOT
BRANCH  22  23
ATOM     23  O28 <0> d   1      21.135   0.614  13.221  0.00  0.00    -0.381 OA
ATOM     24  H54 <0> d   1      21.522   1.353  13.709  0.00  0.00     0.211 HD
ENDBRANCH  22  23
BRANCH  22  25
ATOM     25  C29 <0> d   1      19.311   2.138  12.819  0.00  0.00     0.185 C 
ATOM     26  O30 <0> d   1      18.627   2.713  13.631  0.00  0.00    -0.292 OA
BRANCH  25  27
ATOM     27  C31 <0> d   1      19.758   2.852  11.569  0.00  0.00     0.245 C 
BRANCH  27  28
ATOM     28  O32 <0> d   1      21.126   3.240  11.706  0.00  0.00    -0.393 OA
ATOM     29  H57 <0> d   1      21.517   3.008  12.559  0.00  0.00     0.209 HD
ENDBRANCH  27  28
ENDBRANCH  25  27
ENDBRANCH  22  25
BRANCH  18  30
ATOM     30  O23 <0> d   1      18.516  -0.685   9.126  0.00  0.00    -0.392 OA
ATOM     31  H48 <0> d   1      18.500  -0.753   8.161  0.00  0.00     0.210 HD
ENDBRANCH  18  30
TORSDOF 5
ENDMDL
MODEL 9
REMARK VINA RESULT:      -7.5      2.493      6.377
REMARK  5 active torsions:
REMARK  status: ('A' for Active; 'I' for Inactive)
REMARK    1  A    between atoms: C21_18  and  O23_19 
REMARK    2  A    between atoms: C27_23  and  O28_24 
REMARK    3  A    between atoms: C27_23  and  C29_25 
REMARK    4  A    between atoms: C29_25  and  C31_27 
REMARK    5  A    between atoms: C31_27  and  O32_28 
ROOT
ATOM      1  C1  <0> d   1      19.992  -5.378   9.176  0.00  0.00     0.013 C 
ATOM      2  C2  <0> d   1      18.927  -4.480   9.807  0.00  0.00     0.025 C 
ATOM      3  C4  <0> d   1      19.603  -3.338  10.614  0.00  0.00     0.013 C 
ATOM      4  C5  <0> d   1      18.676  -2.143  10.358  0.00  0.00     0.005 C 
ATOM      5  C7  <0> d   1      19.295  -0.772  10.565  0.00  0.00     0.035 C 
ATOM      6  C9  <0> d   1      19.706  -0.603  12.029  0.00  0.00     0.013 C 
ATOM      7  C10 <0> d   1      20.366   0.767  12.224  0.00  0.00     0.036 C 
ATOM      8  C11 <0> d   1      19.404   1.829  11.726  0.00  0.00    -0.061 A 
ATOM      9  C12 <0> d   1      19.105   2.849  12.520  0.00  0.00     0.058 A 
ATOM     10  C13 <0> d   1      18.161   3.888  12.079  0.00  0.00     0.172 A 
ATOM     11  O14 <0> d   1      17.916   4.845  12.788  0.00  0.00    -0.289 OA
ATOM     12  C15 <0> d   1      17.521   3.743  10.761  0.00  0.00     0.052 A 
ATOM     13  C16 <0> d   1      17.839   2.719   9.983  0.00  0.00    -0.006 A 
ATOM     14  C17 <0> d   1      18.834   1.672  10.347  0.00  0.00     0.036 A 
ATOM     15  C18 <0> d   1      19.992   1.760   9.350  0.00  0.00     0.028 C 
ATOM     16  C19 <0> d   1      18.235   0.273  10.182  0.00  0.00     0.147 C 
ATOM     17  F20 <0> d   1      17.144   0.135  11.048  0.00  0.00    -0.238 F 
ATOM     18  C21 <0> d   1      17.739   0.101   8.750  0.00  0.00     0.160 C 
ATOM     19  C24 <0> d   1      17.242  -1.330   8.488  0.00  0.00     0.048 C 
ATOM     20  C25 <0> d   1      18.367  -2.303   8.846  0.00  0.00     0.001 C 
ATOM     21  C26 <0> d   1      19.639  -1.929   8.084  0.00  0.00     0.019 C 
ATOM     22  C27 <0> d   1      18.084  -3.797   8.702  0.00  0.00     0.131 C 
ENDROOT
BRANCH  22  23
ATOM     23  O28 <0> d   1      16.688  -4.054   8.864  0.00  0.00    -0.381 OA
ATOM     24  H54 <0> d   1      16.202  -3.333   9.288  0.00  0.00     0.211 HD
ENDBRANCH  22  23
BRANCH  22  25
ATOM     25  C29 <0> d   1      18.554  -4.289   7.358  0.00  0.00     0.185 C 
ATOM     26  O30 <0> d   1      19.489  -3.753   6.811  0.00  0.00    -0.292 OA
BRANCH  25  27
ATOM     27  C31 <0> d   1      17.860  -5.451   6.696  0.00  0.00     0.245 C 
BRANCH  27  28
ATOM     28  O32 <0> d   1      16.620  -5.010   6.138  0.00  0.00    -0.393 OA
ATOM     29  H57 <0> d   1      16.527  -5.195   5.193  0.00  0.00     0.209 HD
ENDBRANCH  27  28
ENDBRANCH  25  27
ENDBRANCH  22  25
BRANCH  18  30
ATOM     30  O23 <0> d   1      18.808   0.395   7.848  0.00  0.00    -0.392 OA
ATOM     31  H48 <0> d   1      18.679   1.205   7.335  0.00  0.00     0.210 HD
ENDBRANCH  18  30
TORSDOF 5
ENDMDL
