MODEL 1
REMARK VINA RESULT:      -9.4      0.000      0.000
REMARK  14 active torsions:
REMARK  status: ('A' for Active; 'I' for Inactive)
REMARK    1  A    between atoms: C2_2  and  C4_4 
REMARK    2  A    between atoms: C4_4  and  N5_5 
REMARK    3  A    between atoms: N5_5  and  C6_6 
REMARK    4  A    between atoms: N5_5  and  S34_29 
REMARK    5  A    between atoms: C6_6  and  C7_7 
REMARK    6  A    between atoms: C7_7  and  O9_8 
REMARK    7  A    between atoms: C7_7  and  C10_9 
REMARK    8  A    between atoms: C10_9  and  C12_10 
REMARK    9  A    between atoms: C10_9  and  N19_17 
REMARK   10  A    between atoms: C12_10  and  C13_11 
REMARK       I    between atoms: N19_17  and  C20_18 
REMARK   11  A    between atoms: C20_18  and  O22_20 
REMARK   12  A    between atoms: O22_20  and  C23_21 
REMARK   13  A    between atoms: S34_29  and  C37_32 
REMARK   14  A    between atoms: C40_35  and  N41_36 
ROOT
ATOM      1  C7  ZIN A   1      20.349   0.108  11.092  0.00  0.00     0.160 C 
ENDROOT
BRANCH   1   2
ATOM      2  C6  ZIN A   1      20.295   0.906  12.397  0.00  0.00     0.169 C 
BRANCH   2   3
ATOM      3  N5  ZIN A   1      19.305   1.980  12.272  0.00  0.00    -0.304 N 
BRANCH   3   4
ATOM      4  C4  ZIN A   1      19.523   3.069  11.317  0.00  0.00     0.139 C 
BRANCH   4   5
ATOM      5  C2  ZIN A   1      18.398   3.070  10.279  0.00  0.00    -0.004 C 
ATOM      6  C1  ZIN A   1      17.756   4.457  10.223  0.00  0.00     0.011 C 
ATOM      7  C3  ZIN A   1      18.973   2.719   8.905  0.00  0.00     0.011 C 
ENDBRANCH   4   5
ENDBRANCH   3   4
BRANCH   3   8
ATOM      8  S34 ZIN A   1      17.940   1.960  13.208  0.00  0.00     0.260 S 
ATOM      9  O35 ZIN A   1      17.637   3.316  13.506  0.00  0.00    -0.200 OA
ATOM     10  O36 ZIN A   1      17.025   1.082  12.566  0.00  0.00    -0.200 OA
BRANCH   8  11
ATOM     11  C37 ZIN A   1      18.367   1.198  14.738  0.00  0.00     0.079 A 
ATOM     12  C43 ZIN A   1      18.935   1.952  15.749  0.00  0.00     0.027 A 
ATOM     13  C42 ZIN A   1      19.268   1.360  16.952  0.00  0.00     0.030 A 
ATOM     14  C40 ZIN A   1      19.041   0.003  17.142  0.00  0.00     0.025 A 
ATOM     15  C39 ZIN A   1      18.475  -0.752  16.122  0.00  0.00     0.030 A 
ATOM     16  C38 ZIN A   1      18.140  -0.153  14.925  0.00  0.00     0.027 A 
BRANCH  14  17
ATOM     17  N41 ZIN A   1      19.380  -0.601  18.355  0.00  0.00    -0.399 N 
ATOM     18  H72 ZIN A   1      20.313  -0.721  18.592  0.00  0.00     0.156 HD
ATOM     19  H73 ZIN A   1      18.683  -0.897  18.960  0.00  0.00     0.156 HD
ENDBRANCH  14  17
ENDBRANCH   8  11
ENDBRANCH   3   8
ENDBRANCH   2   3
ENDBRANCH   1   2
BRANCH   1  20
ATOM     20  O9  ZIN A   1      21.605  -0.567  10.999  0.00  0.00    -0.392 OA
ATOM     21  H55 ZIN A   1      21.540  -1.530  11.063  0.00  0.00     0.210 HD
ENDBRANCH   1  20
BRANCH   1  22
ATOM     22  C10 ZIN A   1      19.215  -0.919  11.077  0.00  0.00     0.121 C 
BRANCH  22  23
ATOM     23  C12 ZIN A   1      19.563  -2.077  12.015  0.00  0.00     0.066 C 
BRANCH  23  24
ATOM     24  C13 ZIN A   1      18.845  -3.322  11.561  0.00  0.00    -0.056 A 
ATOM     25  C18 ZIN A   1      17.500  -3.483  11.837  0.00  0.00     0.007 A 
ATOM     26  C17 ZIN A   1      16.840  -4.624  11.415  0.00  0.00     0.001 A 
ATOM     27  C16 ZIN A   1      17.528  -5.605  10.728  0.00  0.00     0.000 A 
ATOM     28  C15 ZIN A   1      18.874  -5.446  10.456  0.00  0.00     0.001 A 
ATOM     29  C14 ZIN A   1      19.533  -4.305  10.874  0.00  0.00     0.007 A 
ENDBRANCH  23  24
ENDBRANCH  22  23
BRANCH  22  30
ATOM     30  N19 ZIN A   1      19.038  -1.430   9.715  0.00  0.00    -0.329 N 
ATOM     31  C20 ZIN A   1      17.983  -1.031   8.977  0.00  0.00     0.361 C 
ATOM     32  O21 ZIN A   1      17.178  -0.249   9.441  0.00  0.00    -0.238 OA
ATOM     33  H63 ZIN A   1      19.681  -2.055   9.344  0.00  0.00     0.165 HD
BRANCH  31  34
ATOM     34  O22 ZIN A   1      17.821  -1.501   7.726  0.00  0.00    -0.296 OA
BRANCH  34  35
ATOM     35  C23 ZIN A   1      17.637  -0.519   6.672  0.00  0.00     0.166 C 
ATOM     36  C32 ZIN A   1      17.648  -1.201   5.289  0.00  0.00     0.075 C 
ATOM     37  C27 ZIN A   1      18.940  -0.662   4.606  0.00  0.00     0.266 C 
ATOM     38  C31 ZIN A   1      18.008  -2.723   5.456  0.00  0.00     0.038 C 
ATOM     39  O26 ZIN A   1      19.756  -0.164   5.689  0.00  0.00    -0.358 OA
ATOM     40  O29 ZIN A   1      19.620  -1.773   4.007  0.00  0.00    -0.361 OA
ATOM     41  C25 ZIN A   1      18.840   0.451   6.620  0.00  0.00     0.204 C 
ATOM     42  C30 ZIN A   1      18.845  -2.970   4.174  0.00  0.00     0.171 C 
ENDBRANCH  34  35
ENDBRANCH  31  34
ENDBRANCH  22  30
ENDBRANCH   1  22
TORSDOF 14
ENDMDL
MODEL 2
REMARK VINA RESULT:      -9.3      1.901      3.521
REMARK  14 active torsions:
REMARK  status: ('A' for Active; 'I' for Inactive)
REMARK    1  A    between atoms: C2_2  and  C4_4 
REMARK    2  A    between atoms: C4_4  and  N5_5 
REMARK    3  A    between atoms: N5_5  and  C6_6 
REMARK    4  A    between atoms: N5_5  and  S34_29 
REMARK    5  A    between atoms: C6_6  and  C7_7 
REMARK    6  A    between atoms: C7_7  and  O9_8 
REMARK    7  A    between atoms: C7_7  and  C10_9 
REMARK    8  A    between atoms: C10_9  and  C12_10 
REMARK    9  A    between atoms: C10_9  and  N19_17 
REMARK   10  A    between atoms: C12_10  and  C13_11 
REMARK       I    between atoms: N19_17  and  C20_18 
REMARK   11  A    between atoms: C20_18  and  O22_20 
REMARK   12  A    between atoms: O22_20  and  C23_21 
REMARK   13  A    between atoms: S34_29  and  C37_32 
REMARK   14  A    between atoms: C40_35  and  N41_36 
ROOT
ATOM      1  C7  ZIN A   1      20.518  -0.057  11.032  0.00  0.00     0.160 C 
ENDROOT
BRANCH   1   2
ATOM      2  C6  ZIN A   1      20.501   0.669  12.380  0.00  0.00     0.169 C 
BRANCH   2   3
ATOM      3  N5  ZIN A   1      19.358   1.586  12.425  0.00  0.00    -0.304 N 
BRANCH   3   4
ATOM      4  C4  ZIN A   1      18.206   1.278  13.275  0.00  0.00     0.139 C 
BRANCH   4   5
ATOM      5  C2  ZIN A   1      18.694   0.744  14.624  0.00  0.00    -0.004 C 
ATOM      6  C1  ZIN A   1      18.756   1.890  15.635  0.00  0.00     0.011 C 
ATOM      7  C3  ZIN A   1      17.727  -0.329  15.127  0.00  0.00     0.011 C 
ENDBRANCH   4   5
ENDBRANCH   3   4
BRANCH   3   8
ATOM      8  S34 ZIN A   1      19.371   2.969  11.517  0.00  0.00     0.260 S 
ATOM      9  O35 ZIN A   1      20.716   3.429  11.504  0.00  0.00    -0.200 OA
ATOM     10  O36 ZIN A   1      18.638   2.679  10.334  0.00  0.00    -0.200 OA
BRANCH   8  11
ATOM     11  C37 ZIN A   1      18.439   4.180  12.394  0.00  0.00     0.079 A 
ATOM     12  C43 ZIN A   1      17.143   4.467  12.006  0.00  0.00     0.027 A 
ATOM     13  C42 ZIN A   1      16.408   5.413  12.694  0.00  0.00     0.030 A 
ATOM     14  C40 ZIN A   1      16.975   6.082  13.771  0.00  0.00     0.025 A 
ATOM     15  C39 ZIN A   1      18.278   5.794  14.155  0.00  0.00     0.030 A 
ATOM     16  C38 ZIN A   1      19.006   4.845  13.466  0.00  0.00     0.027 A 
BRANCH  14  17
ATOM     17  N41 ZIN A   1      16.236   7.042  14.466  0.00  0.00    -0.399 N 
ATOM     18  H72 ZIN A   1      16.414   7.985  14.327  0.00  0.00     0.156 HD
ATOM     19  H73 ZIN A   1      15.544   6.765  15.086  0.00  0.00     0.156 HD
ENDBRANCH  14  17
ENDBRANCH   8  11
ENDBRANCH   3   8
ENDBRANCH   2   3
ENDBRANCH   1   2
BRANCH   1  20
ATOM     20  O9  ZIN A   1      21.793  -0.674  10.840  0.00  0.00    -0.392 OA
ATOM     21  H55 ZIN A   1      22.376  -0.620  11.610  0.00  0.00     0.210 HD
ENDBRANCH   1  20
BRANCH   1  22
ATOM     22  C10 ZIN A   1      19.425  -1.127  11.017  0.00  0.00     0.121 C 
BRANCH  22  23
ATOM     23  C12 ZIN A   1      19.960  -2.411  11.657  0.00  0.00     0.066 C 
BRANCH  23  24
ATOM     24  C13 ZIN A   1      19.032  -3.555  11.337  0.00  0.00    -0.056 A 
ATOM     25  C18 ZIN A   1      19.448  -4.568  10.494  0.00  0.00     0.007 A 
ATOM     26  C17 ZIN A   1      18.598  -5.620  10.205  0.00  0.00     0.001 A 
ATOM     27  C16 ZIN A   1      17.329  -5.653  10.752  0.00  0.00     0.000 A 
ATOM     28  C15 ZIN A   1      16.911  -4.636  11.591  0.00  0.00     0.001 A 
ATOM     29  C14 ZIN A   1      17.761  -3.587  11.883  0.00  0.00     0.007 A 
ENDBRANCH  23  24
ENDBRANCH  22  23
BRANCH  22  30
ATOM     30  N19 ZIN A   1      19.028  -1.400   9.634  0.00  0.00    -0.329 N 
ATOM     31  C20 ZIN A   1      17.867  -0.909   9.156  0.00  0.00     0.361 C 
ATOM     32  O21 ZIN A   1      17.150  -0.242   9.873  0.00  0.00    -0.238 OA
ATOM     33  H63 ZIN A   1      19.602  -1.934   9.060  0.00  0.00     0.165 HD
BRANCH  31  34
ATOM     34  O22 ZIN A   1      17.504  -1.160   7.884  0.00  0.00    -0.296 OA
BRANCH  34  35
ATOM     35  C23 ZIN A   1      17.455  -0.028   6.977  0.00  0.00     0.166 C 
ATOM     36  C32 ZIN A   1      17.699  -0.486   5.525  0.00  0.00     0.075 C 
ATOM     37  C27 ZIN A   1      19.064   0.160   5.144  0.00  0.00     0.266 C 
ATOM     38  C31 ZIN A   1      18.074  -2.013   5.512  0.00  0.00     0.038 C 
ATOM     39  O26 ZIN A   1      19.688   0.488   6.404  0.00  0.00    -0.358 OA
ATOM     40  O29 ZIN A   1      19.861  -0.841   4.496  0.00  0.00    -0.361 OA
ATOM     41  C25 ZIN A   1      18.622   0.946   7.263  0.00  0.00     0.204 C 
ATOM     42  C30 ZIN A   1      19.105  -2.054   4.355  0.00  0.00     0.171 C 
ENDBRANCH  34  35
ENDBRANCH  31  34
ENDBRANCH  22  30
ENDBRANCH   1  22
TORSDOF 14
ENDMDL
MODEL 3
REMARK VINA RESULT:      -9.2      2.787      8.429
REMARK  14 active torsions:
REMARK  status: ('A' for Active; 'I' for Inactive)
REMARK    1  A    between atoms: C2_2  and  C4_4 
REMARK    2  A    between atoms: C4_4  and  N5_5 
REMARK    3  A    between atoms: N5_5  and  C6_6 
REMARK    4  A    between atoms: N5_5  and  S34_29 
REMARK    5  A    between atoms: C6_6  and  C7_7 
REMARK    6  A    between atoms: C7_7  and  O9_8 
REMARK    7  A    between atoms: C7_7  and  C10_9 
REMARK    8  A    between atoms: C10_9  and  C12_10 
REMARK    9  A    between atoms: C10_9  and  N19_17 
REMARK   10  A    between atoms: C12_10  and  C13_11 
REMARK       I    between atoms: N19_17  and  C20_18 
REMARK   11  A    between atoms: C20_18  and  O22_20 
REMARK   12  A    between atoms: O22_20  and  C23_21 
REMARK   13  A    between atoms: S34_29  and  C37_32 
REMARK   14  A    between atoms: C40_35  and  N41_36 
ROOT
ATOM      1  C7  ZIN A   1      20.488   0.001  12.035  0.00  0.00     0.160 C 
ENDROOT
BRANCH   1   2
ATOM      2  C6  ZIN A   1      20.432  -0.739  10.696  0.00  0.00     0.169 C 
BRANCH   2   3
ATOM      3  N5  ZIN A   1      19.274  -1.638  10.684  0.00  0.00    -0.304 N 
BRANCH   3   4
ATOM      4  C4  ZIN A   1      18.115  -1.329   9.844  0.00  0.00     0.139 C 
BRANCH   4   5
ATOM      5  C2  ZIN A   1      18.593  -0.791   8.494  0.00  0.00    -0.004 C 
ATOM      6  C1  ZIN A   1      18.835  -1.958   7.535  0.00  0.00     0.011 C 
ATOM      7  C3  ZIN A   1      17.526   0.136   7.909  0.00  0.00     0.011 C 
ENDBRANCH   4   5
ENDBRANCH   3   4
BRANCH   3   8
ATOM      8  S34 ZIN A   1      19.279  -3.004  11.620  0.00  0.00     0.260 S 
ATOM      9  O35 ZIN A   1      20.642  -3.367  11.795  0.00  0.00    -0.200 OA
ATOM     10  O36 ZIN A   1      18.397  -2.749  12.705  0.00  0.00    -0.200 OA
BRANCH   8  11
ATOM     11  C37 ZIN A   1      18.539  -4.291  10.671  0.00  0.00     0.079 A 
ATOM     12  C43 ZIN A   1      17.222  -4.647  10.900  0.00  0.00     0.027 A 
ATOM     13  C42 ZIN A   1      16.637  -5.652  10.154  0.00  0.00     0.030 A 
ATOM     14  C40 ZIN A   1      17.376  -6.312   9.181  0.00  0.00     0.025 A 
ATOM     15  C39 ZIN A   1      18.699  -5.955   8.958  0.00  0.00     0.030 A 
ATOM     16  C38 ZIN A   1      19.277  -4.946   9.703  0.00  0.00     0.027 A 
BRANCH  14  17
ATOM     17  N41 ZIN A   1      16.789  -7.332   8.429  0.00  0.00    -0.399 N 
ATOM     18  H72 ZIN A   1      15.874  -7.241   8.119  0.00  0.00     0.156 HD
ATOM     19  H73 ZIN A   1      17.296  -8.130   8.216  0.00  0.00     0.156 HD
ENDBRANCH  14  17
ENDBRANCH   8  11
ENDBRANCH   3   8
ENDBRANCH   2   3
ENDBRANCH   1   2
BRANCH   1  20
ATOM     20  O9  ZIN A   1      21.767   0.621  12.183  0.00  0.00    -0.392 OA
ATOM     21  H55 ZIN A   1      21.880   1.096  13.018  0.00  0.00     0.210 HD
ENDBRANCH   1  20
BRANCH   1  22
ATOM     22  C10 ZIN A   1      19.394   1.069  12.072  0.00  0.00     0.121 C 
BRANCH  22  23
ATOM     23  C12 ZIN A   1      19.945   2.382  11.509  0.00  0.00     0.066 C 
BRANCH  23  24
ATOM     24  C13 ZIN A   1      18.869   3.436  11.553  0.00  0.00    -0.056 A 
ATOM     25  C18 ZIN A   1      18.779   4.288  12.638  0.00  0.00     0.007 A 
ATOM     26  C17 ZIN A   1      17.795   5.258  12.675  0.00  0.00     0.001 A 
ATOM     27  C16 ZIN A   1      16.896   5.371  11.632  0.00  0.00     0.000 A 
ATOM     28  C15 ZIN A   1      16.982   4.516  10.548  0.00  0.00     0.001 A 
ATOM     29  C14 ZIN A   1      17.968   3.549  10.509  0.00  0.00     0.007 A 
ENDBRANCH  23  24
ENDBRANCH  22  23
BRANCH  22  30
ATOM     30  N19 ZIN A   1      18.961   1.276  13.456  0.00  0.00    -0.329 N 
ATOM     31  C20 ZIN A   1      17.760   0.818  13.862  0.00  0.00     0.361 C 
ATOM     32  O21 ZIN A   1      17.037   0.234  13.081  0.00  0.00    -0.238 OA
ATOM     33  H63 ZIN A   1      19.539   1.743  14.082  0.00  0.00     0.165 HD
BRANCH  31  34
ATOM     34  O22 ZIN A   1      17.362   1.008  15.134  0.00  0.00    -0.296 OA
BRANCH  34  35
ATOM     35  C23 ZIN A   1      17.364  -0.153  16.006  0.00  0.00     0.166 C 
ATOM     36  C32 ZIN A   1      17.674   0.260  17.458  0.00  0.00     0.075 C 
ATOM     37  C27 ZIN A   1      19.059  -0.387  17.754  0.00  0.00     0.266 C 
ATOM     38  C31 ZIN A   1      18.040   1.789  17.503  0.00  0.00     0.038 C 
ATOM     39  O26 ZIN A   1      19.625  -0.670  16.455  0.00  0.00    -0.358 OA
ATOM     40  O29 ZIN A   1      19.881   0.598  18.395  0.00  0.00    -0.361 OA
ATOM     41  C25 ZIN A   1      18.521  -1.108  15.634  0.00  0.00     0.204 C 
ATOM     42  C30 ZIN A   1      19.125   1.801  18.611  0.00  0.00     0.171 C 
ENDBRANCH  34  35
ENDBRANCH  31  34
ENDBRANCH  22  30
ENDBRANCH   1  22
TORSDOF 14
ENDMDL
MODEL 4
REMARK VINA RESULT:      -9.2      2.251      8.843
REMARK  14 active torsions:
REMARK  status: ('A' for Active; 'I' for Inactive)
REMARK    1  A    between atoms: C2_2  and  C4_4 
REMARK    2  A    between atoms: C4_4  and  N5_5 
REMARK    3  A    between atoms: N5_5  and  C6_6 
REMARK    4  A    between atoms: N5_5  and  S34_29 
REMARK    5  A    between atoms: C6_6  and  C7_7 
REMARK    6  A    between atoms: C7_7  and  O9_8 
REMARK    7  A    between atoms: C7_7  and  C10_9 
REMARK    8  A    between atoms: C10_9  and  C12_10 
REMARK    9  A    between atoms: C10_9  and  N19_17 
REMARK   10  A    between atoms: C12_10  and  C13_11 
REMARK       I    between atoms: N19_17  and  C20_18 
REMARK   11  A    between atoms: C20_18  and  O22_20 
REMARK   12  A    between atoms: O22_20  and  C23_21 
REMARK   13  A    between atoms: S34_29  and  C37_32 
REMARK   14  A    between atoms: C40_35  and  N41_36 
ROOT
ATOM      1  C7  ZIN A   1      20.484   0.120  11.806  0.00  0.00     0.160 C 
ENDROOT
BRANCH   1   2
ATOM      2  C6  ZIN A   1      20.543  -0.344  10.348  0.00  0.00     0.169 C 
BRANCH   2   3
ATOM      3  N5  ZIN A   1      19.189  -0.649   9.878  0.00  0.00    -0.304 N 
BRANCH   3   4
ATOM      4  C4  ZIN A   1      18.438  -1.755  10.476  0.00  0.00     0.139 C 
BRANCH   4   5
ATOM      5  C2  ZIN A   1      19.278  -3.033  10.418  0.00  0.00    -0.004 C 
ATOM      6  C1  ZIN A   1      19.608  -3.492  11.839  0.00  0.00     0.011 C 
ATOM      7  C3  ZIN A   1      18.489  -4.128   9.698  0.00  0.00     0.011 C 
ENDBRANCH   4   5
ENDBRANCH   3   4
BRANCH   3   8
ATOM      8  S34 ZIN A   1      18.509   0.258   8.671  0.00  0.00     0.260 S 
ATOM      9  O35 ZIN A   1      17.148   0.450   9.032  0.00  0.00    -0.200 OA
ATOM     10  O36 ZIN A   1      19.406   1.331   8.422  0.00  0.00    -0.200 OA
BRANCH   8  11
ATOM     11  C37 ZIN A   1      18.502  -0.733   7.214  0.00  0.00     0.079 A 
ATOM     12  C43 ZIN A   1      19.393  -1.785   7.091  0.00  0.00     0.027 A 
ATOM     13  C42 ZIN A   1      19.387  -2.566   5.952  0.00  0.00     0.030 A 
ATOM     14  C40 ZIN A   1      18.494  -2.288   4.926  0.00  0.00     0.025 A 
ATOM     15  C39 ZIN A   1      17.605  -1.229   5.051  0.00  0.00     0.030 A 
ATOM     16  C38 ZIN A   1      17.612  -0.454   6.194  0.00  0.00     0.027 A 
BRANCH  14  17
ATOM     17  N41 ZIN A   1      18.490  -3.074   3.770  0.00  0.00    -0.399 N 
ATOM     18  H72 ZIN A   1      17.745  -3.020   3.151  0.00  0.00     0.156 HD
ATOM     19  H73 ZIN A   1      19.231  -3.671   3.588  0.00  0.00     0.156 HD
ENDBRANCH  14  17
ENDBRANCH   8  11
ENDBRANCH   3   8
ENDBRANCH   2   3
ENDBRANCH   1   2
BRANCH   1  20
ATOM     20  O9  ZIN A   1      21.748   0.669  12.183  0.00  0.00    -0.392 OA
ATOM     21  H55 ZIN A   1      22.338   0.037  12.617  0.00  0.00     0.210 HD
ENDBRANCH   1  20
BRANCH   1  22
ATOM     22  C10 ZIN A   1      19.397   1.186  11.957  0.00  0.00     0.121 C 
BRANCH  22  23
ATOM     23  C12 ZIN A   1      19.957   2.547  11.538  0.00  0.00     0.066 C 
BRANCH  23  24
ATOM     24  C13 ZIN A   1      18.870   3.587  11.633  0.00  0.00    -0.056 A 
ATOM     25  C18 ZIN A   1      17.918   3.684  10.636  0.00  0.00     0.007 A 
ATOM     26  C17 ZIN A   1      16.917   4.635  10.726  0.00  0.00     0.001 A 
ATOM     27  C16 ZIN A   1      16.876   5.493  11.808  0.00  0.00     0.000 A 
ATOM     28  C15 ZIN A   1      17.831   5.399  12.803  0.00  0.00     0.001 A 
ATOM     29  C14 ZIN A   1      18.829   4.447  12.715  0.00  0.00     0.007 A 
ENDBRANCH  23  24
ENDBRANCH  22  23
BRANCH  22  30
ATOM     30  N19 ZIN A   1      18.964   1.246  13.355  0.00  0.00    -0.329 N 
ATOM     31  C20 ZIN A   1      17.735   0.813  13.699  0.00  0.00     0.361 C 
ATOM     32  O21 ZIN A   1      16.986   0.372  12.850  0.00  0.00    -0.238 OA
ATOM     33  H63 ZIN A   1      19.562   1.598  14.034  0.00  0.00     0.165 HD
BRANCH  31  34
ATOM     34  O22 ZIN A   1      17.337   0.869  14.984  0.00  0.00    -0.296 OA
BRANCH  34  35
ATOM     35  C23 ZIN A   1      17.345  -0.377  15.731  0.00  0.00     0.166 C 
ATOM     36  C32 ZIN A   1      17.612  -0.110  17.226  0.00  0.00     0.075 C 
ATOM     37  C27 ZIN A   1      19.004  -0.757  17.488  0.00  0.00     0.266 C 
ATOM     38  C31 ZIN A   1      17.943   1.413  17.437  0.00  0.00     0.038 C 
ATOM     39  O26 ZIN A   1      19.606  -0.893  16.181  0.00  0.00    -0.358 OA
ATOM     40  O29 ZIN A   1      19.789   0.173  18.247  0.00  0.00    -0.361 OA
ATOM     41  C25 ZIN A   1      18.532  -1.265  15.292  0.00  0.00     0.204 C 
ATOM     42  C30 ZIN A   1      19.002   1.331  18.567  0.00  0.00     0.171 C 
ENDBRANCH  34  35
ENDBRANCH  31  34
ENDBRANCH  22  30
ENDBRANCH   1  22
TORSDOF 14
ENDMDL
MODEL 5
REMARK VINA RESULT:      -9.0      2.866      5.098
REMARK  14 active torsions:
REMARK  status: ('A' for Active; 'I' for Inactive)
REMARK    1  A    between atoms: C2_2  and  C4_4 
REMARK    2  A    between atoms: C4_4  and  N5_5 
REMARK    3  A    between atoms: N5_5  and  C6_6 
REMARK    4  A    between atoms: N5_5  and  S34_29 
REMARK    5  A    between atoms: C6_6  and  C7_7 
REMARK    6  A    between atoms: C7_7  and  O9_8 
REMARK    7  A    between atoms: C7_7  and  C10_9 
REMARK    8  A    between atoms: C10_9  and  C12_10 
REMARK    9  A    between atoms: C10_9  and  N19_17 
REMARK   10  A    between atoms: C12_10  and  C13_11 
REMARK       I    between atoms: N19_17  and  C20_18 
REMARK   11  A    between atoms: C20_18  and  O22_20 
REMARK   12  A    between atoms: O22_20  and  C23_21 
REMARK   13  A    between atoms: S34_29  and  C37_32 
REMARK   14  A    between atoms: C40_35  and  N41_36 
ROOT
ATOM      1  C7  ZIN A   1      19.273  -0.143  12.098  0.00  0.00     0.160 C 
ENDROOT
BRANCH   1   2
ATOM      2  C6  ZIN A   1      18.102   0.837  11.994  0.00  0.00     0.169 C 
BRANCH   2   3
ATOM      3  N5  ZIN A   1      18.230   1.620  10.761  0.00  0.00    -0.304 N 
BRANCH   3   4
ATOM      4  C4  ZIN A   1      17.891   1.016   9.471  0.00  0.00     0.139 C 
BRANCH   4   5
ATOM      5  C2  ZIN A   1      19.170   0.779   8.667  0.00  0.00    -0.004 C 
ATOM      6  C1  ZIN A   1      19.441  -0.724   8.569  0.00  0.00     0.011 C 
ATOM      7  C3  ZIN A   1      19.004   1.359   7.261  0.00  0.00     0.011 C 
ENDBRANCH   4   5
ENDBRANCH   3   4
BRANCH   3   8
ATOM      8  S34 ZIN A   1      18.757   3.188  10.829  0.00  0.00     0.260 S 
ATOM      9  O35 ZIN A   1      20.147   3.133  11.119  0.00  0.00    -0.200 OA
ATOM     10  O36 ZIN A   1      18.227   3.839   9.682  0.00  0.00    -0.200 OA
BRANCH   8  11
ATOM     11  C37 ZIN A   1      17.987   3.938  12.225  0.00  0.00     0.079 A 
ATOM     12  C43 ZIN A   1      16.899   4.775  12.046  0.00  0.00     0.027 A 
ATOM     13  C42 ZIN A   1      16.290   5.361  13.139  0.00  0.00     0.030 A 
ATOM     14  C40 ZIN A   1      16.777   5.119  14.417  0.00  0.00     0.025 A 
ATOM     15  C39 ZIN A   1      17.872   4.282  14.591  0.00  0.00     0.030 A 
ATOM     16  C38 ZIN A   1      18.474   3.695  13.496  0.00  0.00     0.027 A 
BRANCH  14  17
ATOM     17  N41 ZIN A   1      16.167   5.714  15.523  0.00  0.00    -0.399 N 
ATOM     18  H72 ZIN A   1      16.111   6.681  15.584  0.00  0.00     0.156 HD
ATOM     19  H73 ZIN A   1      15.798   5.161  16.228  0.00  0.00     0.156 HD
ENDBRANCH  14  17
ENDBRANCH   8  11
ENDBRANCH   3   8
ENDBRANCH   2   3
ENDBRANCH   1   2
BRANCH   1  20
ATOM     20  O9  ZIN A   1      20.408   0.527  12.650  0.00  0.00    -0.392 OA
ATOM     21  H55 ZIN A   1      20.845   0.039  13.361  0.00  0.00     0.210 HD
ENDBRANCH   1  20
BRANCH   1  22
ATOM     22  C10 ZIN A   1      18.879  -1.312  13.003  0.00  0.00     0.121 C 
BRANCH  22  23
ATOM     23  C12 ZIN A   1      19.710  -1.264  14.287  0.00  0.00     0.066 C 
BRANCH  23  24
ATOM     24  C13 ZIN A   1      18.876  -0.690  15.403  0.00  0.00    -0.056 A 
ATOM     25  C18 ZIN A   1      19.076   0.614  15.815  0.00  0.00     0.007 A 
ATOM     26  C17 ZIN A   1      18.306   1.142  16.836  0.00  0.00     0.001 A 
ATOM     27  C16 ZIN A   1      17.343   0.363  17.449  0.00  0.00     0.000 A 
ATOM     28  C15 ZIN A   1      17.146  -0.943  17.040  0.00  0.00     0.001 A 
ATOM     29  C14 ZIN A   1      17.913  -1.470  16.018  0.00  0.00     0.007 A 
ENDBRANCH  23  24
ENDBRANCH  22  23
BRANCH  22  30
ATOM     30  N19 ZIN A   1      19.131  -2.575  12.306  0.00  0.00    -0.329 N 
ATOM     31  C20 ZIN A   1      18.148  -3.158  11.590  0.00  0.00     0.361 C 
ATOM     32  O21 ZIN A   1      17.054  -2.636  11.523  0.00  0.00    -0.238 OA
ATOM     33  H63 ZIN A   1      20.006  -2.993  12.358  0.00  0.00     0.165 HD
BRANCH  31  34
ATOM     34  O22 ZIN A   1      18.380  -4.319  10.949  0.00  0.00    -0.296 OA
BRANCH  34  35
ATOM     35  C23 ZIN A   1      18.830  -4.233   9.571  0.00  0.00     0.166 C 
ATOM     36  C32 ZIN A   1      17.757  -4.792   8.615  0.00  0.00     0.075 C 
ATOM     37  C27 ZIN A   1      18.409  -6.072   8.014  0.00  0.00     0.266 C 
ATOM     38  C31 ZIN A   1      16.582  -5.417   9.453  0.00  0.00     0.038 C 
ATOM     39  O26 ZIN A   1      19.479  -6.410   8.924  0.00  0.00    -0.358 OA
ATOM     40  O29 ZIN A   1      17.437  -7.125   8.055  0.00  0.00    -0.361 OA
ATOM     41  C25 ZIN A   1      20.052  -5.152   9.342  0.00  0.00     0.204 C 
ATOM     42  C30 ZIN A   1      16.190  -6.621   8.557  0.00  0.00     0.171 C 
ENDBRANCH  34  35
ENDBRANCH  31  34
ENDBRANCH  22  30
ENDBRANCH   1  22
TORSDOF 14
ENDMDL
MODEL 6
REMARK VINA RESULT:      -9.0      2.667      7.189
REMARK  14 active torsions:
REMARK  status: ('A' for Active; 'I' for Inactive)
REMARK    1  A    between atoms: C2_2  and  C4_4 
REMARK    2  A    between atoms: C4_4  and  N5_5 
REMARK    3  A    between atoms: N5_5  and  C6_6 
REMARK    4  A    between atoms: N5_5  and  S34_29 
REMARK    5  A    between atoms: C6_6  and  C7_7 
REMARK    6  A    between atoms: C7_7  and  O9_8 
REMARK    7  A    between atoms: C7_7  and  C10_9 
REMARK    8  A    between atoms: C10_9  and  C12_10 
REMARK    9  A    between atoms: C10_9  and  N19_17 
REMARK   10  A    between atoms: C12_10  and  C13_11 
REMARK       I    between atoms: N19_17  and  C20_18 
REMARK   11  A    between atoms: C20_18  and  O22_20 
REMARK   12  A    between atoms: O22_20  and  C23_21 
REMARK   13  A    between atoms: S34_29  and  C37_32 
REMARK   14  A    between atoms: C40_35  and  N41_36 
ROOT
ATOM      1  C7  ZIN A   1      17.272   0.289  11.429  0.00  0.00     0.160 C 
ENDROOT
BRANCH   1   2
ATOM      2  C6  ZIN A   1      17.242   0.201  12.957  0.00  0.00     0.169 C 
BRANCH   2   3
ATOM      3  N5  ZIN A   1      18.166  -0.845  13.403  0.00  0.00    -0.304 N 
BRANCH   3   4
ATOM      4  C4  ZIN A   1      17.954  -2.234  12.990  0.00  0.00     0.139 C 
BRANCH   4   5
ATOM      5  C2  ZIN A   1      18.609  -2.466  11.626  0.00  0.00    -0.004 C 
ATOM      6  C1  ZIN A   1      19.859  -3.331  11.801  0.00  0.00     0.011 C 
ATOM      7  C3  ZIN A   1      17.621  -3.180  10.701  0.00  0.00     0.011 C 
ENDBRANCH   4   5
ENDBRANCH   3   4
BRANCH   3   8
ATOM      8  S34 ZIN A   1      19.450  -0.457  14.374  0.00  0.00     0.260 S 
ATOM      9  O35 ZIN A   1      20.063  -1.686  14.740  0.00  0.00    -0.200 OA
ATOM     10  O36 ZIN A   1      20.145   0.594  13.716  0.00  0.00    -0.200 OA
BRANCH   8  11
ATOM     11  C37 ZIN A   1      18.794   0.233  15.856  0.00  0.00     0.079 A 
ATOM     12  C43 ZIN A   1      17.773  -0.417  16.527  0.00  0.00     0.027 A 
ATOM     13  C42 ZIN A   1      17.260   0.119  17.692  0.00  0.00     0.030 A 
ATOM     14  C40 ZIN A   1      17.762   1.316  18.184  0.00  0.00     0.025 A 
ATOM     15  C39 ZIN A   1      18.784   1.968  17.505  0.00  0.00     0.030 A 
ATOM     16  C38 ZIN A   1      19.296   1.425  16.344  0.00  0.00     0.027 A 
BRANCH  14  17
ATOM     17  N41 ZIN A   1      17.241   1.863  19.359  0.00  0.00    -0.399 N 
ATOM     18  H72 ZIN A   1      17.825   2.333  19.975  0.00  0.00     0.156 HD
ATOM     19  H73 ZIN A   1      16.297   1.774  19.558  0.00  0.00     0.156 HD
ENDBRANCH  14  17
ENDBRANCH   8  11
ENDBRANCH   3   8
ENDBRANCH   2   3
ENDBRANCH   1   2
BRANCH   1  20
ATOM     20  O9  ZIN A   1      15.937   0.216  10.922  0.00  0.00    -0.392 OA
ATOM     21  H55 ZIN A   1      15.857   0.457   9.989  0.00  0.00     0.210 HD
ENDBRANCH   1  20
BRANCH   1  22
ATOM     22  C10 ZIN A   1      17.906   1.616  11.008  0.00  0.00     0.121 C 
BRANCH  22  23
ATOM     23  C12 ZIN A   1      19.299   1.355  10.431  0.00  0.00     0.066 C 
BRANCH  23  24
ATOM     24  C13 ZIN A   1      19.172   0.892   9.003  0.00  0.00    -0.056 A 
ATOM     25  C18 ZIN A   1      18.964   1.813   7.994  0.00  0.00     0.007 A 
ATOM     26  C17 ZIN A   1      18.852   1.389   6.682  0.00  0.00     0.001 A 
ATOM     27  C16 ZIN A   1      18.941   0.043   6.382  0.00  0.00     0.000 A 
ATOM     28  C15 ZIN A   1      19.144  -0.880   7.392  0.00  0.00     0.001 A 
ATOM     29  C14 ZIN A   1      19.259  -0.455   8.702  0.00  0.00     0.007 A 
ENDBRANCH  23  24
ENDBRANCH  22  23
BRANCH  22  30
ATOM     30  N19 ZIN A   1      18.017   2.496  12.174  0.00  0.00    -0.329 N 
ATOM     31  C20 ZIN A   1      17.454   3.720  12.151  0.00  0.00     0.361 C 
ATOM     32  O21 ZIN A   1      16.854   4.094  11.164  0.00  0.00    -0.238 OA
ATOM     33  H63 ZIN A   1      18.496   2.197  12.964  0.00  0.00     0.165 HD
BRANCH  31  34
ATOM     34  O22 ZIN A   1      17.557   4.528  13.223  0.00  0.00    -0.296 OA
BRANCH  34  35
ATOM     35  C23 ZIN A   1      18.728   4.360  14.065  0.00  0.00     0.166 C 
ATOM     36  C32 ZIN A   1      18.476   4.950  15.467  0.00  0.00     0.075 C 
ATOM     37  C27 ZIN A   1      19.451   6.160  15.554  0.00  0.00     0.266 C 
ATOM     38  C31 ZIN A   1      17.084   5.682  15.487  0.00  0.00     0.038 C 
ATOM     39  O26 ZIN A   1      19.795   6.463  14.184  0.00  0.00    -0.358 OA
ATOM     40  O29 ZIN A   1      18.727   7.275  16.091  0.00  0.00    -0.361 OA
ATOM     41  C25 ZIN A   1      19.912   5.188  13.518  0.00  0.00     0.204 C 
ATOM     42  C30 ZIN A   1      17.391   6.873  16.432  0.00  0.00     0.171 C 
ENDBRANCH  34  35
ENDBRANCH  31  34
ENDBRANCH  22  30
ENDBRANCH   1  22
TORSDOF 14
ENDMDL
MODEL 7
REMARK VINA RESULT:      -8.9      2.646      3.240
REMARK  14 active torsions:
REMARK  status: ('A' for Active; 'I' for Inactive)
REMARK    1  A    between atoms: C2_2  and  C4_4 
REMARK    2  A    between atoms: C4_4  and  N5_5 
REMARK    3  A    between atoms: N5_5  and  C6_6 
REMARK    4  A    between atoms: N5_5  and  S34_29 
REMARK    5  A    between atoms: C6_6  and  C7_7 
REMARK    6  A    between atoms: C7_7  and  O9_8 
REMARK    7  A    between atoms: C7_7  and  C10_9 
REMARK    8  A    between atoms: C10_9  and  C12_10 
REMARK    9  A    between atoms: C10_9  and  N19_17 
REMARK   10  A    between atoms: C12_10  and  C13_11 
REMARK       I    between atoms: N19_17  and  C20_18 
REMARK   11  A    between atoms: C20_18  and  O22_20 
REMARK   12  A    between atoms: O22_20  and  C23_21 
REMARK   13  A    between atoms: S34_29  and  C37_32 
REMARK   14  A    between atoms: C40_35  and  N41_36 
ROOT
ATOM      1  C7  ZIN A   1      19.447   1.224  12.599  0.00  0.00     0.160 C 
ENDROOT
BRANCH   1   2
ATOM      2  C6  ZIN A   1      18.280   2.102  13.059  0.00  0.00     0.169 C 
BRANCH   2   3
ATOM      3  N5  ZIN A   1      18.713   3.502  13.106  0.00  0.00    -0.304 N 
BRANCH   3   4
ATOM      4  C4  ZIN A   1      18.898   4.253  11.862  0.00  0.00     0.139 C 
BRANCH   4   5
ATOM      5  C2  ZIN A   1      17.778   3.900  10.881  0.00  0.00    -0.004 C 
ATOM      6  C1  ZIN A   1      16.991   5.163  10.529  0.00  0.00     0.011 C 
ATOM      7  C3  ZIN A   1      18.385   3.307   9.608  0.00  0.00     0.011 C 
ENDBRANCH   4   5
ENDBRANCH   3   4
BRANCH   3   8
ATOM      8  S34 ZIN A   1      18.989   4.234  14.565  0.00  0.00     0.260 S 
ATOM      9  O35 ZIN A   1      19.193   3.189  15.506  0.00  0.00    -0.200 OA
ATOM     10  O36 ZIN A   1      19.943   5.260  14.324  0.00  0.00    -0.200 OA
BRANCH   8  11
ATOM     11  C37 ZIN A   1      17.497   5.044  15.034  0.00  0.00     0.079 A 
ATOM     12  C43 ZIN A   1      17.312   5.443  16.346  0.00  0.00     0.027 A 
ATOM     13  C42 ZIN A   1      16.146   6.082  16.717  0.00  0.00     0.030 A 
ATOM     14  C40 ZIN A   1      15.153   6.315  15.775  0.00  0.00     0.025 A 
ATOM     15  C39 ZIN A   1      15.340   5.908  14.460  0.00  0.00     0.030 A 
ATOM     16  C38 ZIN A   1      16.511   5.274  14.094  0.00  0.00     0.027 A 
BRANCH  14  17
ATOM     17  N41 ZIN A   1      13.970   6.957  16.148  0.00  0.00    -0.399 N 
ATOM     18  H72 ZIN A   1      13.714   7.789  15.720  0.00  0.00     0.156 HD
ATOM     19  H73 ZIN A   1      13.404   6.569  16.833  0.00  0.00     0.156 HD
ENDBRANCH  14  17
ENDBRANCH   8  11
ENDBRANCH   3   8
ENDBRANCH   2   3
ENDBRANCH   1   2
BRANCH   1  20
ATOM     20  O9  ZIN A   1      20.283   0.919  13.718  0.00  0.00    -0.392 OA
ATOM     21  H55 ZIN A   1      20.033   0.110  14.186  0.00  0.00     0.210 HD
ENDBRANCH   1  20
BRANCH   1  22
ATOM     22  C10 ZIN A   1      18.902  -0.073  12.000  0.00  0.00     0.121 C 
BRANCH  22  23
ATOM     23  C12 ZIN A   1      19.354  -1.259  12.854  0.00  0.00     0.066 C 
BRANCH  23  24
ATOM     24  C13 ZIN A   1      18.989  -2.546  12.159  0.00  0.00    -0.056 A 
ATOM     25  C18 ZIN A   1      17.661  -2.893  12.001  0.00  0.00     0.007 A 
ATOM     26  C17 ZIN A   1      17.326  -4.070  11.358  0.00  0.00     0.001 A 
ATOM     27  C16 ZIN A   1      18.320  -4.905  10.883  0.00  0.00     0.000 A 
ATOM     28  C15 ZIN A   1      19.649  -4.560  11.046  0.00  0.00     0.001 A 
ATOM     29  C14 ZIN A   1      19.984  -3.381  11.684  0.00  0.00     0.007 A 
ENDBRANCH  23  24
ENDBRANCH  22  23
BRANCH  22  30
ATOM     30  N19 ZIN A   1      19.411  -0.232  10.635  0.00  0.00    -0.329 N 
ATOM     31  C20 ZIN A   1      18.555  -0.257   9.594  0.00  0.00     0.361 C 
ATOM     32  O21 ZIN A   1      17.361  -0.148   9.788  0.00  0.00    -0.238 OA
ATOM     33  H63 ZIN A   1      20.365  -0.318  10.480  0.00  0.00     0.165 HD
BRANCH  31  34
ATOM     34  O22 ZIN A   1      19.023  -0.403   8.341  0.00  0.00    -0.296 OA
BRANCH  34  35
ATOM     35  C23 ZIN A   1      18.212   0.141   7.266  0.00  0.00     0.166 C 
ATOM     36  C32 ZIN A   1      18.003  -0.911   6.160  0.00  0.00     0.075 C 
ATOM     37  C27 ZIN A   1      18.768  -0.334   4.932  0.00  0.00     0.266 C 
ATOM     38  C31 ZIN A   1      18.864  -2.188   6.479  0.00  0.00     0.038 C 
ATOM     39  O26 ZIN A   1      19.679   0.642   5.484  0.00  0.00    -0.358 OA
ATOM     40  O29 ZIN A   1      19.543  -1.394   4.355  0.00  0.00    -0.361 OA
ATOM     41  C25 ZIN A   1      18.958   1.292   6.553  0.00  0.00     0.204 C 
ATOM     42  C30 ZIN A   1      19.286  -2.624   5.052  0.00  0.00     0.171 C 
ENDBRANCH  34  35
ENDBRANCH  31  34
ENDBRANCH  22  30
ENDBRANCH   1  22
TORSDOF 14
ENDMDL
MODEL 8
REMARK VINA RESULT:      -8.8      2.727      4.818
REMARK  14 active torsions:
REMARK  status: ('A' for Active; 'I' for Inactive)
REMARK    1  A    between atoms: C2_2  and  C4_4 
REMARK    2  A    between atoms: C4_4  and  N5_5 
REMARK    3  A    between atoms: N5_5  and  C6_6 
REMARK    4  A    between atoms: N5_5  and  S34_29 
REMARK    5  A    between atoms: C6_6  and  C7_7 
REMARK    6  A    between atoms: C7_7  and  O9_8 
REMARK    7  A    between atoms: C7_7  and  C10_9 
REMARK    8  A    between atoms: C10_9  and  C12_10 
REMARK    9  A    between atoms: C10_9  and  N19_17 
REMARK   10  A    between atoms: C12_10  and  C13_11 
REMARK       I    between atoms: N19_17  and  C20_18 
REMARK   11  A    between atoms: C20_18  and  O22_20 
REMARK   12  A    between atoms: O22_20  and  C23_21 
REMARK   13  A    between atoms: S34_29  and  C37_32 
REMARK   14  A    between atoms: C40_35  and  N41_36 
ROOT
ATOM      1  C7  ZIN A   1      19.150   0.591  13.142  0.00  0.00     0.160 C 
ENDROOT
BRANCH   1   2
ATOM      2  C6  ZIN A   1      18.267   1.808  13.429  0.00  0.00     0.169 C 
BRANCH   2   3
ATOM      3  N5  ZIN A   1      18.815   2.981  12.741  0.00  0.00    -0.304 N 
BRANCH   3   4
ATOM      4  C4  ZIN A   1      19.444   2.831  11.427  0.00  0.00     0.139 C 
BRANCH   4   5
ATOM      5  C2  ZIN A   1      18.361   2.742  10.350  0.00  0.00    -0.004 C 
ATOM      6  C1  ZIN A   1      18.028   4.146   9.843  0.00  0.00     0.011 C 
ATOM      7  C3  ZIN A   1      18.870   1.888   9.187  0.00  0.00     0.011 C 
ENDBRANCH   4   5
ENDBRANCH   3   4
BRANCH   3   8
ATOM      8  S34 ZIN A   1      18.720   4.474  13.449  0.00  0.00     0.260 S 
ATOM      9  O35 ZIN A   1      19.942   5.137  13.153  0.00  0.00    -0.200 OA
ATOM     10  O36 ZIN A   1      17.446   5.001  13.104  0.00  0.00    -0.200 OA
BRANCH   8  11
ATOM     11  C37 ZIN A   1      18.698   4.225  15.193  0.00  0.00     0.079 A 
ATOM     12  C43 ZIN A   1      17.753   4.870  15.971  0.00  0.00     0.027 A 
ATOM     13  C42 ZIN A   1      17.730   4.674  17.337  0.00  0.00     0.030 A 
ATOM     14  C40 ZIN A   1      18.664   3.836  17.933  0.00  0.00     0.025 A 
ATOM     15  C39 ZIN A   1      19.614   3.194  17.150  0.00  0.00     0.030 A 
ATOM     16  C38 ZIN A   1      19.629   3.390  15.783  0.00  0.00     0.027 A 
BRANCH  14  17
ATOM     17  N41 ZIN A   1      18.646   3.639  19.316  0.00  0.00    -0.399 N 
ATOM     18  H72 ZIN A   1      19.425   3.272  19.763  0.00  0.00     0.156 HD
ATOM     19  H73 ZIN A   1      17.857   3.871  19.828  0.00  0.00     0.156 HD
ENDBRANCH  14  17
ENDBRANCH   8  11
ENDBRANCH   3   8
ENDBRANCH   2   3
ENDBRANCH   1   2
BRANCH   1  20
ATOM     20  O9  ZIN A   1      20.438   0.788  13.728  0.00  0.00    -0.392 OA
ATOM     21  H55 ZIN A   1      21.173   0.495  13.171  0.00  0.00     0.210 HD
ENDBRANCH   1  20
BRANCH   1  22
ATOM     22  C10 ZIN A   1      18.503  -0.659  13.739  0.00  0.00     0.121 C 
BRANCH  22  23
ATOM     23  C12 ZIN A   1      19.322  -1.133  14.942  0.00  0.00     0.066 C 
BRANCH  23  24
ATOM     24  C13 ZIN A   1      18.703  -0.605  16.210  0.00  0.00    -0.056 A 
ATOM     25  C18 ZIN A   1      17.395  -0.158  16.207  0.00  0.00     0.007 A 
ATOM     26  C17 ZIN A   1      16.826   0.322  17.372  0.00  0.00     0.001 A 
ATOM     27  C16 ZIN A   1      17.567   0.363  18.537  0.00  0.00     0.000 A 
ATOM     28  C15 ZIN A   1      18.877  -0.079  18.540  0.00  0.00     0.001 A 
ATOM     29  C14 ZIN A   1      19.445  -0.562  17.377  0.00  0.00     0.007 A 
ENDBRANCH  23  24
ENDBRANCH  22  23
BRANCH  22  30
ATOM     30  N19 ZIN A   1      18.463  -1.719  12.729  0.00  0.00    -0.329 N 
ATOM     31  C20 ZIN A   1      17.449  -1.767  11.841  0.00  0.00     0.361 C 
ATOM     32  O21 ZIN A   1      16.568  -0.932  11.881  0.00  0.00    -0.238 OA
ATOM     33  H63 ZIN A   1      19.167  -2.387  12.697  0.00  0.00     0.165 HD
BRANCH  31  34
ATOM     34  O22 ZIN A   1      17.413  -2.741  10.913  0.00  0.00    -0.296 OA
BRANCH  34  35
ATOM     35  C23 ZIN A   1      18.104  -3.979  11.229  0.00  0.00     0.166 C 
ATOM     36  C32 ZIN A   1      18.853  -4.512   9.992  0.00  0.00     0.075 C 
ATOM     37  C27 ZIN A   1      18.112  -5.834   9.635  0.00  0.00     0.266 C 
ATOM     38  C31 ZIN A   1      18.503  -3.623   8.742  0.00  0.00     0.038 C 
ATOM     39  O26 ZIN A   1      16.830  -5.733  10.293  0.00  0.00    -0.358 OA
ATOM     40  O29 ZIN A   1      17.889  -5.848   8.218  0.00  0.00    -0.361 OA
ATOM     41  C25 ZIN A   1      17.089  -5.096  11.562  0.00  0.00     0.204 C 
ATOM     42  C30 ZIN A   1      18.488  -4.690   7.617  0.00  0.00     0.171 C 
ENDBRANCH  34  35
ENDBRANCH  31  34
ENDBRANCH  22  30
ENDBRANCH   1  22
TORSDOF 14
ENDMDL
MODEL 9
REMARK VINA RESULT:      -8.8      2.696      6.472
REMARK  14 active torsions:
REMARK  status: ('A' for Active; 'I' for Inactive)
REMARK    1  A    between atoms: C2_2  and  C4_4 
REMARK    2  A    between atoms: C4_4  and  N5_5 
REMARK    3  A    between atoms: N5_5  and  C6_6 
REMARK    4  A    between atoms: N5_5  and  S34_29 
REMARK    5  A    between atoms: C6_6  and  C7_7 
REMARK    6  A    between atoms: C7_7  and  O9_8 
REMARK    7  A    between atoms: C7_7  and  C10_9 
REMARK    8  A    between atoms: C10_9  and  C12_10 
REMARK    9  A    between atoms: C10_9  and  N19_17 
REMARK   10  A    between atoms: C12_10  and  C13_11 
REMARK       I    between atoms: N19_17  and  C20_18 
REMARK   11  A    between atoms: C20_18  and  O22_20 
REMARK   12  A    between atoms: O22_20  and  C23_21 
REMARK   13  A    between atoms: S34_29  and  C37_32 
REMARK   14  A    between atoms: C40_35  and  N41_36 
ROOT
ATOM      1  C7  ZIN A   1      17.140  -0.234  11.505  0.00  0.00     0.160 C 
ENDROOT
BRANCH   1   2
ATOM      2  C6  ZIN A   1      17.271  -0.232   9.980  0.00  0.00     0.169 C 
BRANCH   2   3
ATOM      3  N5  ZIN A   1      18.147   0.869   9.568  0.00  0.00    -0.304 N 
BRANCH   3   4
ATOM      4  C4  ZIN A   1      17.867   2.235  10.016  0.00  0.00     0.139 C 
BRANCH   4   5
ATOM      5  C2  ZIN A   1      18.472   2.450  11.405  0.00  0.00    -0.004 C 
ATOM      6  C1  ZIN A   1      19.855   3.088  11.267  0.00  0.00     0.011 C 
ATOM      7  C3  ZIN A   1      17.563   3.373  12.219  0.00  0.00     0.011 C 
ENDBRANCH   4   5
ENDBRANCH   3   4
BRANCH   3   8
ATOM      8  S34 ZIN A   1      19.453   0.567   8.596  0.00  0.00     0.260 S 
ATOM      9  O35 ZIN A   1      19.885   1.827   8.101  0.00  0.00    -0.200 OA
ATOM     10  O36 ZIN A   1      20.298  -0.314   9.324  0.00  0.00    -0.200 OA
BRANCH   8  11
ATOM     11  C37 ZIN A   1      18.870  -0.341   7.204  0.00  0.00     0.079 A 
ATOM     12  C43 ZIN A   1      19.384  -1.597   6.935  0.00  0.00     0.027 A 
ATOM     13  C42 ZIN A   1      18.926  -2.314   5.847  0.00  0.00     0.030 A 
ATOM     14  C40 ZIN A   1      17.956  -1.769   5.016  0.00  0.00     0.025 A 
ATOM     15  C39 ZIN A   1      17.446  -0.505   5.287  0.00  0.00     0.030 A 
ATOM     16  C38 ZIN A   1      17.904   0.204   6.379  0.00  0.00     0.027 A 
BRANCH  14  17
ATOM     17  N41 ZIN A   1      17.494  -2.489   3.912  0.00  0.00    -0.399 N 
ATOM     18  H72 ZIN A   1      17.156  -2.019   3.134  0.00  0.00     0.156 HD
ATOM     19  H73 ZIN A   1      17.514  -3.458   3.924  0.00  0.00     0.156 HD
ENDBRANCH  14  17
ENDBRANCH   8  11
ENDBRANCH   3   8
ENDBRANCH   2   3
ENDBRANCH   1   2
BRANCH   1  20
ATOM     20  O9  ZIN A   1      15.770  -0.045  11.865  0.00  0.00    -0.392 OA
ATOM     21  H55 ZIN A   1      15.618   0.009  12.819  0.00  0.00     0.210 HD
ENDBRANCH   1  20
BRANCH   1  22
ATOM     22  C10 ZIN A   1      17.633  -1.573  12.055  0.00  0.00     0.121 C 
BRANCH  22  23
ATOM     23  C12 ZIN A   1      19.032  -1.396  12.651  0.00  0.00     0.066 C 
BRANCH  23  24
ATOM     24  C13 ZIN A   1      18.919  -0.781  14.022  0.00  0.00    -0.056 A 
ATOM     25  C18 ZIN A   1      18.366  -1.505  15.061  0.00  0.00     0.007 A 
ATOM     26  C17 ZIN A   1      18.268  -0.942  16.320  0.00  0.00     0.001 A 
ATOM     27  C16 ZIN A   1      18.715   0.347  16.537  0.00  0.00     0.000 A 
ATOM     28  C15 ZIN A   1      19.264   1.074  15.496  0.00  0.00     0.001 A 
ATOM     29  C14 ZIN A   1      19.366   0.510  14.239  0.00  0.00     0.007 A 
ENDBRANCH  23  24
ENDBRANCH  22  23
BRANCH  22  30
ATOM     30  N19 ZIN A   1      17.685  -2.558  10.972  0.00  0.00    -0.329 N 
ATOM     31  C20 ZIN A   1      17.436  -3.857  11.229  0.00  0.00     0.361 C 
ATOM     32  O21 ZIN A   1      17.170  -4.213  12.359  0.00  0.00    -0.238 OA
ATOM     33  H63 ZIN A   1      17.897  -2.274  10.068  0.00  0.00     0.165 HD
BRANCH  31  34
ATOM     34  O22 ZIN A   1      17.483  -4.761  10.232  0.00  0.00    -0.296 OA
BRANCH  34  35
ATOM     35  C23 ZIN A   1      18.250  -4.402   9.052  0.00  0.00     0.166 C 
ATOM     36  C32 ZIN A   1      17.673  -5.091   7.800  0.00  0.00     0.075 C 
ATOM     37  C27 ZIN A   1      18.787  -6.087   7.363  0.00  0.00     0.266 C 
ATOM     38  C31 ZIN A   1      16.531  -6.084   8.227  0.00  0.00     0.038 C 
ATOM     39  O26 ZIN A   1      19.619  -6.255   8.533  0.00  0.00    -0.358 OA
ATOM     40  O29 ZIN A   1      18.166  -7.346   7.071  0.00  0.00    -0.361 OA
ATOM     41  C25 ZIN A   1      19.691  -4.954   9.153  0.00  0.00     0.204 C 
ATOM     42  C30 ZIN A   1      16.740  -7.231   7.205  0.00  0.00     0.171 C 
ENDBRANCH  34  35
ENDBRANCH  31  34
ENDBRANCH  22  30
ENDBRANCH   1  22
TORSDOF 14
ENDMDL
