MODEL 1
REMARK VINA RESULT:      -5.6      0.000      0.000
REMARK  5 active torsions:
REMARK  status: ('A' for Active; 'I' for Inactive)
REMARK       I    between atoms: N1_1  and  C2_2 
REMARK       I    between atoms: C2_2  and  N4_4 
REMARK    1  A    between atoms: N4_4  and  C5_5 
REMARK    2  A    between atoms: C5_5  and  C7_6 
REMARK    3  A    between atoms: C5_5  and  C12_11 
REMARK    4  A    between atoms: C7_6  and  C8_7 
REMARK    5  A    between atoms: C8_7  and  C9_8 
ROOT
ATOM      1  C5  RES d   1      18.222   0.865  11.357  0.00  0.00     0.187 C 
ENDROOT
BRANCH   1   2
ATOM      2  N4  RES d   1      19.341   0.097  10.805  0.00  0.00    -0.329 N 
ATOM      3  C2  RES d   1      20.526   0.076  11.448  0.00  0.00     0.314 C 
ATOM      4  N1  RES d   1      21.556  -0.631  10.941  0.00  0.00    -0.352 N 
ATOM      5  O3  RES d   1      20.666   0.694  12.486  0.00  0.00    -0.248 OA
ATOM      6  H15 RES d   1      22.408  -0.647  11.403  0.00  0.00     0.160 HD
ATOM      7  H16 RES d   1      21.443  -1.127  10.115  0.00  0.00     0.160 HD
ATOM      8  H17 RES d   1      19.231  -0.396   9.977  0.00  0.00     0.165 HD
ENDBRANCH   1   2
BRANCH   1   9
ATOM      9  C7  RES d   1      17.679   1.814  10.287  0.00  0.00     0.046 C 
BRANCH   9  10
ATOM     10  C8  RES d   1      18.446   3.136  10.339  0.00  0.00     0.116 C 
BRANCH  10  11
ATOM     11  C9  RES d   1      17.471   4.280  10.438  0.00  0.00     0.172 C 
ATOM     12  O10 RES d   1      16.593   4.263  11.285  0.00  0.00    -0.648 OA
ATOM     13  O11 RES d   1      17.558   5.224   9.670  0.00  0.00    -0.648 OA
ENDBRANCH  10  11
ENDBRANCH   9  10
ENDBRANCH   1   9
BRANCH   1  14
ATOM     14  C12 RES d   1      17.132  -0.079  11.793  0.00  0.00     0.196 C 
ATOM     15  O13 RES d   1      15.976   0.134  11.467  0.00  0.00    -0.646 OA
ATOM     16  O14 RES d   1      17.405  -1.055  12.471  0.00  0.00    -0.646 OA
ENDBRANCH   1  14
TORSDOF 5
ENDMDL
MODEL 2
REMARK VINA RESULT:      -5.5      2.152      2.454
REMARK  5 active torsions:
REMARK  status: ('A' for Active; 'I' for Inactive)
REMARK       I    between atoms: N1_1  and  C2_2 
REMARK       I    between atoms: C2_2  and  N4_4 
REMARK    1  A    between atoms: N4_4  and  C5_5 
REMARK    2  A    between atoms: C5_5  and  C7_6 
REMARK    3  A    between atoms: C5_5  and  C12_11 
REMARK    4  A    between atoms: C7_6  and  C8_7 
REMARK    5  A    between atoms: C8_7  and  C9_8 
ROOT
ATOM      1  C5  RES d   1      18.736   1.039   9.283  0.00  0.00     0.187 C 
ENDROOT
BRANCH   1   2
ATOM      2  N4  RES d   1      20.075   0.502   9.538  0.00  0.00    -0.329 N 
ATOM      3  C2  RES d   1      20.332  -0.147  10.691  0.00  0.00     0.314 C 
ATOM      4  N1  RES d   1      21.564  -0.642  10.925  0.00  0.00    -0.352 N 
ATOM      5  O3  RES d   1      19.452  -0.287  11.518  0.00  0.00    -0.248 OA
ATOM      6  H15 RES d   1      21.749  -1.109  11.755  0.00  0.00     0.160 HD
ATOM      7  H16 RES d   1      22.264  -0.533  10.263  0.00  0.00     0.160 HD
ATOM      8  H17 RES d   1      20.776   0.614   8.878  0.00  0.00     0.165 HD
ENDBRANCH   1   2
BRANCH   1   9
ATOM      9  C7  RES d   1      18.814   2.562   9.150  0.00  0.00     0.046 C 
BRANCH   9  10
ATOM     10  C8  RES d   1      18.586   3.206  10.518  0.00  0.00     0.116 C 
BRANCH  10  11
ATOM     11  C9  RES d   1      17.538   4.282  10.398  0.00  0.00     0.172 C 
ATOM     12  O10 RES d   1      16.571   4.278  11.143  0.00  0.00    -0.648 OA
ATOM     13  O11 RES d   1      17.655   5.157   9.557  0.00  0.00    -0.648 OA
ENDBRANCH  10  11
ENDBRANCH   9  10
ENDBRANCH   1   9
BRANCH   1  14
ATOM     14  C12 RES d   1      18.193   0.451   8.006  0.00  0.00     0.196 C 
ATOM     15  O13 RES d   1      17.143  -0.170   8.020  0.00  0.00    -0.646 OA
ATOM     16  O14 RES d   1      18.803   0.595   6.960  0.00  0.00    -0.646 OA
ENDBRANCH   1  14
TORSDOF 5
ENDMDL
MODEL 3
REMARK VINA RESULT:      -5.2      2.459      4.941
REMARK  5 active torsions:
REMARK  status: ('A' for Active; 'I' for Inactive)
REMARK       I    between atoms: N1_1  and  C2_2 
REMARK       I    between atoms: C2_2  and  N4_4 
REMARK    1  A    between atoms: N4_4  and  C5_5 
REMARK    2  A    between atoms: C5_5  and  C7_6 
REMARK    3  A    between atoms: C5_5  and  C12_11 
REMARK    4  A    between atoms: C7_6  and  C8_7 
REMARK    5  A    between atoms: C8_7  and  C9_8 
ROOT
ATOM      1  C5  RES d   1      18.129  -0.541  11.219  0.00  0.00     0.187 C 
ENDROOT
BRANCH   1   2
ATOM      2  N4  RES d   1      19.259  -0.002  11.981  0.00  0.00    -0.329 N 
ATOM      3  C2  RES d   1      20.491   0.021  11.433  0.00  0.00     0.314 C 
ATOM      4  N1  RES d   1      21.531   0.517  12.134  0.00  0.00    -0.352 N 
ATOM      5  O3  RES d   1      20.664  -0.405  10.307  0.00  0.00    -0.248 OA
ATOM      6  H15 RES d   1      22.417   0.533  11.740  0.00  0.00     0.160 HD
ATOM      7  H16 RES d   1      21.392   0.859  13.031  0.00  0.00     0.160 HD
ATOM      8  H17 RES d   1      19.122   0.337  12.879  0.00  0.00     0.165 HD
ENDBRANCH   1   2
BRANCH   1   9
ATOM      9  C7  RES d   1      17.697  -1.877  11.825  0.00  0.00     0.046 C 
BRANCH   9  10
ATOM     10  C8  RES d   1      18.004  -3.007  10.841  0.00  0.00     0.116 C 
BRANCH  10  11
ATOM     11  C9  RES d   1      19.279  -3.699  11.253  0.00  0.00     0.172 C 
ATOM     12  O10 RES d   1      19.612  -4.738  10.709  0.00  0.00    -0.648 OA
ATOM     13  O11 RES d   1      19.977  -3.218  12.130  0.00  0.00    -0.648 OA
ENDBRANCH  10  11
ENDBRANCH   9  10
ENDBRANCH   1   9
BRANCH   1  14
ATOM     14  C12 RES d   1      16.979   0.431  11.272  0.00  0.00     0.196 C 
ATOM     15  O13 RES d   1      15.866   0.041  11.583  0.00  0.00    -0.646 OA
ATOM     16  O14 RES d   1      17.161   1.607  11.006  0.00  0.00    -0.646 OA
ENDBRANCH   1  14
TORSDOF 5
ENDMDL
MODEL 4
REMARK VINA RESULT:      -5.1      2.473      2.944
REMARK  5 active torsions:
REMARK  status: ('A' for Active; 'I' for Inactive)
REMARK       I    between atoms: N1_1  and  C2_2 
REMARK       I    between atoms: C2_2  and  N4_4 
REMARK    1  A    between atoms: N4_4  and  C5_5 
REMARK    2  A    between atoms: C5_5  and  C7_6 
REMARK    3  A    between atoms: C5_5  and  C12_11 
REMARK    4  A    between atoms: C7_6  and  C8_7 
REMARK    5  A    between atoms: C8_7  and  C9_8 
ROOT
ATOM      1  C5  RES d   1      18.196   1.159  10.818  0.00  0.00     0.187 C 
ENDROOT
BRANCH   1   2
ATOM      2  N4  RES d   1      19.584   0.706  10.943  0.00  0.00    -0.329 N 
ATOM      3  C2  RES d   1      20.263   0.921  12.087  0.00  0.00     0.314 C 
ATOM      4  N1  RES d   1      21.540   0.503  12.203  0.00  0.00    -0.352 N 
ATOM      5  O3  RES d   1      19.723   1.490  13.016  0.00  0.00    -0.248 OA
ATOM      6  H15 RES d   1      22.028   0.658  13.026  0.00  0.00     0.160 HD
ATOM      7  H16 RES d   1      21.969   0.046  11.462  0.00  0.00     0.160 HD
ATOM      8  H17 RES d   1      20.015   0.252  10.202  0.00  0.00     0.165 HD
ENDBRANCH   1   2
BRANCH   1   9
ATOM      9  C7  RES d   1      18.006   1.851   9.467  0.00  0.00     0.046 C 
BRANCH   9  10
ATOM     10  C8  RES d   1      19.199   1.542   8.562  0.00  0.00     0.116 C 
BRANCH  10  11
ATOM     11  C9  RES d   1      18.715   0.868   7.304  0.00  0.00     0.172 C 
ATOM     12  O10 RES d   1      17.887  -0.025   7.371  0.00  0.00    -0.648 OA
ATOM     13  O11 RES d   1      19.153   1.214   6.220  0.00  0.00    -0.648 OA
ENDBRANCH  10  11
ENDBRANCH   9  10
ENDBRANCH   1   9
BRANCH   1  14
ATOM     14  C12 RES d   1      17.271  -0.026  10.912  0.00  0.00     0.196 C 
ATOM     15  O13 RES d   1      17.627  -1.112  10.487  0.00  0.00    -0.646 OA
ATOM     16  O14 RES d   1      16.166   0.101  11.412  0.00  0.00    -0.646 OA
ENDBRANCH   1  14
TORSDOF 5
ENDMDL
MODEL 5
REMARK VINA RESULT:      -5.0      3.274      3.991
REMARK  5 active torsions:
REMARK  status: ('A' for Active; 'I' for Inactive)
REMARK       I    between atoms: N1_1  and  C2_2 
REMARK       I    between atoms: C2_2  and  N4_4 
REMARK    1  A    between atoms: N4_4  and  C5_5 
REMARK    2  A    between atoms: C5_5  and  C7_6 
REMARK    3  A    between atoms: C5_5  and  C12_11 
REMARK    4  A    between atoms: C7_6  and  C8_7 
REMARK    5  A    between atoms: C8_7  and  C9_8 
ROOT
ATOM      1  C5  RES d   1      19.159   3.248  12.221  0.00  0.00     0.187 C 
ENDROOT
BRANCH   1   2
ATOM      2  N4  RES d   1      20.329   2.445  11.855  0.00  0.00    -0.329 N 
ATOM      3  C2  RES d   1      20.402   1.151  12.225  0.00  0.00     0.314 C 
ATOM      4  N1  RES d   1      21.478   0.412  11.888  0.00  0.00    -0.352 N 
ATOM      5  O3  RES d   1      19.496   0.650  12.864  0.00  0.00    -0.248 OA
ATOM      6  H15 RES d   1      21.530  -0.519  12.155  0.00  0.00     0.160 HD
ATOM      7  H16 RES d   1      22.198   0.811  11.376  0.00  0.00     0.160 HD
ATOM      8  H17 RES d   1      21.052   2.844  11.346  0.00  0.00     0.165 HD
ENDBRANCH   1   2
BRANCH   1   9
ATOM      9  C7  RES d   1      19.614   4.641  12.659  0.00  0.00     0.046 C 
BRANCH   9  10
ATOM     10  C8  RES d   1      19.267   4.851  14.134  0.00  0.00     0.116 C 
BRANCH  10  11
ATOM     11  C9  RES d   1      20.010   6.053  14.658  0.00  0.00     0.172 C 
ATOM     12  O10 RES d   1      19.451   7.134  14.727  0.00  0.00    -0.648 OA
ATOM     13  O11 RES d   1      21.172   5.944  15.015  0.00  0.00    -0.648 OA
ENDBRANCH  10  11
ENDBRANCH   9  10
ENDBRANCH   1   9
BRANCH   1  14
ATOM     14  C12 RES d   1      18.241   3.369  11.032  0.00  0.00     0.196 C 
ATOM     15  O13 RES d   1      17.042   3.509  11.201  0.00  0.00    -0.646 OA
ATOM     16  O14 RES d   1      18.697   3.327   9.903  0.00  0.00    -0.646 OA
ENDBRANCH   1  14
TORSDOF 5
ENDMDL
MODEL 6
REMARK VINA RESULT:      -5.0      3.102      3.640
REMARK  5 active torsions:
REMARK  status: ('A' for Active; 'I' for Inactive)
REMARK       I    between atoms: N1_1  and  C2_2 
REMARK       I    between atoms: C2_2  and  N4_4 
REMARK    1  A    between atoms: N4_4  and  C5_5 
REMARK    2  A    between atoms: C5_5  and  C7_6 
REMARK    3  A    between atoms: C5_5  and  C12_11 
REMARK    4  A    between atoms: C7_6  and  C8_7 
REMARK    5  A    between atoms: C8_7  and  C9_8 
ROOT
ATOM      1  C5  RES d   1      19.327  -1.390  10.005  0.00  0.00     0.187 C 
ENDROOT
BRANCH   1   2
ATOM      2  N4  RES d   1      20.546  -0.890  10.646  0.00  0.00    -0.329 N 
ATOM      3  C2  RES d   1      20.476   0.126  11.528  0.00  0.00     0.314 C 
ATOM      4  N1  RES d   1      21.597   0.586  12.118  0.00  0.00    -0.352 N 
ATOM      5  O3  RES d   1      19.400   0.627  11.793  0.00  0.00    -0.248 OA
ATOM      6  H15 RES d   1      21.546   1.317  12.753  0.00  0.00     0.160 HD
ATOM      7  H16 RES d   1      22.455   0.184  11.909  0.00  0.00     0.160 HD
ATOM      8  H17 RES d   1      21.405  -1.289  10.434  0.00  0.00     0.165 HD
ENDBRANCH   1   2
BRANCH   1   9
ATOM      9  C7  RES d   1      19.402  -1.136   8.498  0.00  0.00     0.046 C 
BRANCH   9  10
ATOM     10  C8  RES d   1      18.327  -0.124   8.097  0.00  0.00     0.116 C 
BRANCH  10  11
ATOM     11  C9  RES d   1      18.985   1.153   7.641  0.00  0.00     0.172 C 
ATOM     12  O10 RES d   1      19.572   1.858   8.444  0.00  0.00    -0.648 OA
ATOM     13  O11 RES d   1      18.929   1.481   6.467  0.00  0.00    -0.648 OA
ENDBRANCH  10  11
ENDBRANCH   9  10
ENDBRANCH   1   9
BRANCH   1  14
ATOM     14  C12 RES d   1      19.197  -2.870  10.259  0.00  0.00     0.196 C 
ATOM     15  O13 RES d   1      19.768  -3.376  11.210  0.00  0.00    -0.646 OA
ATOM     16  O14 RES d   1      18.520  -3.559   9.516  0.00  0.00    -0.646 OA
ENDBRANCH   1  14
TORSDOF 5
ENDMDL
MODEL 7
REMARK VINA RESULT:      -4.9      2.250      2.928
REMARK  5 active torsions:
REMARK  status: ('A' for Active; 'I' for Inactive)
REMARK       I    between atoms: N1_1  and  C2_2 
REMARK       I    between atoms: C2_2  and  N4_4 
REMARK    1  A    between atoms: N4_4  and  C5_5 
REMARK    2  A    between atoms: C5_5  and  C7_6 
REMARK    3  A    between atoms: C5_5  and  C12_11 
REMARK    4  A    between atoms: C7_6  and  C8_7 
REMARK    5  A    between atoms: C8_7  and  C9_8 
ROOT
ATOM      1  C5  RES d   1      18.674   2.200  10.745  0.00  0.00     0.187 C 
ENDROOT
BRANCH   1   2
ATOM      2  N4  RES d   1      20.057   1.930  11.148  0.00  0.00    -0.329 N 
ATOM      3  C2  RES d   1      20.347   0.824  11.863  0.00  0.00     0.314 C 
ATOM      4  N1  RES d   1      21.619   0.576  12.234  0.00  0.00    -0.352 N 
ATOM      5  O3  RES d   1      19.461   0.051  12.173  0.00  0.00    -0.248 OA
ATOM      6  H15 RES d   1      21.828  -0.219  12.748  0.00  0.00     0.160 HD
ATOM      7  H16 RES d   1      22.326   1.191  11.984  0.00  0.00     0.160 HD
ATOM      8  H17 RES d   1      20.764   2.547  10.902  0.00  0.00     0.165 HD
ENDBRANCH   1   2
BRANCH   1   9
ATOM      9  C7  RES d   1      18.402   3.703  10.831  0.00  0.00     0.046 C 
BRANCH   9  10
ATOM     10  C8  RES d   1      19.140   4.287  12.036  0.00  0.00     0.116 C 
BRANCH  10  11
ATOM     11  C9  RES d   1      18.412   3.912  13.301  0.00  0.00     0.172 C 
ATOM     12  O10 RES d   1      17.331   4.415  13.555  0.00  0.00    -0.648 OA
ATOM     13  O11 RES d   1      18.904   3.104  14.071  0.00  0.00    -0.648 OA
ENDBRANCH  10  11
ENDBRANCH   9  10
ENDBRANCH   1   9
BRANCH   1  14
ATOM     14  C12 RES d   1      18.463   1.730   9.329  0.00  0.00     0.196 C 
ATOM     15  O13 RES d   1      19.078   2.254   8.416  0.00  0.00    -0.646 OA
ATOM     16  O14 RES d   1      17.679   0.826   9.097  0.00  0.00    -0.646 OA
ENDBRANCH   1  14
TORSDOF 5
ENDMDL
MODEL 8
REMARK VINA RESULT:      -4.8      4.783      5.320
REMARK  5 active torsions:
REMARK  status: ('A' for Active; 'I' for Inactive)
REMARK       I    between atoms: N1_1  and  C2_2 
REMARK       I    between atoms: C2_2  and  N4_4 
REMARK    1  A    between atoms: N4_4  and  C5_5 
REMARK    2  A    between atoms: C5_5  and  C7_6 
REMARK    3  A    between atoms: C5_5  and  C12_11 
REMARK    4  A    between atoms: C7_6  and  C8_7 
REMARK    5  A    between atoms: C8_7  and  C9_8 
ROOT
ATOM      1  C5  RES d   1      18.781  -1.476   6.789  0.00  0.00     0.187 C 
ENDROOT
BRANCH   1   2
ATOM      2  N4  RES d   1      19.542  -2.105   7.872  0.00  0.00    -0.329 N 
ATOM      3  C2  RES d   1      18.940  -2.988   8.694  0.00  0.00     0.314 C 
ATOM      4  N1  RES d   1      19.639  -3.567   9.690  0.00  0.00    -0.352 N 
ATOM      5  O3  RES d   1      17.766  -3.263   8.535  0.00  0.00    -0.248 OA
ATOM      6  H15 RES d   1      19.206  -4.202  10.281  0.00  0.00     0.160 HD
ATOM      7  H16 RES d   1      20.576  -3.350   9.814  0.00  0.00     0.160 HD
ATOM      8  H17 RES d   1      20.478  -1.886   7.999  0.00  0.00     0.165 HD
ENDBRANCH   1   2
BRANCH   1   9
ATOM      9  C7  RES d   1      18.768   0.041   6.989  0.00  0.00     0.046 C 
BRANCH   9  10
ATOM     10  C8  RES d   1      17.697   0.411   8.016  0.00  0.00     0.116 C 
BRANCH  10  11
ATOM     11  C9  RES d   1      18.356   0.964   9.253  0.00  0.00     0.172 C 
ATOM     12  O10 RES d   1      19.458   0.562   9.589  0.00  0.00    -0.648 OA
ATOM     13  O11 RES d   1      17.788   1.813   9.919  0.00  0.00    -0.648 OA
ENDBRANCH  10  11
ENDBRANCH   9  10
ENDBRANCH   1   9
BRANCH   1  14
ATOM     14  C12 RES d   1      19.426  -1.803   5.467  0.00  0.00     0.196 C 
ATOM     15  O13 RES d   1      19.525  -2.965   5.109  0.00  0.00    -0.646 OA
ATOM     16  O14 RES d   1      19.848  -0.908   4.756  0.00  0.00    -0.646 OA
ENDBRANCH   1  14
TORSDOF 5
ENDMDL
MODEL 9
REMARK VINA RESULT:      -4.8      2.663      4.528
REMARK  5 active torsions:
REMARK  status: ('A' for Active; 'I' for Inactive)
REMARK       I    between atoms: N1_1  and  C2_2 
REMARK       I    between atoms: C2_2  and  N4_4 
REMARK    1  A    between atoms: N4_4  and  C5_5 
REMARK    2  A    between atoms: C5_5  and  C7_6 
REMARK    3  A    between atoms: C5_5  and  C12_11 
REMARK    4  A    between atoms: C7_6  and  C8_7 
REMARK    5  A    between atoms: C8_7  and  C9_8 
ROOT
ATOM      1  C5  RES d   1      18.340   0.163  12.749  0.00  0.00     0.187 C 
ENDROOT
BRANCH   1   2
ATOM      2  N4  RES d   1      19.585   0.344  11.999  0.00  0.00    -0.329 N 
ATOM      3  C2  RES d   1      20.191  -0.718  11.431  0.00  0.00     0.314 C 
ATOM      4  N1  RES d   1      21.337  -0.551  10.741  0.00  0.00    -0.352 N 
ATOM      5  O3  RES d   1      19.703  -1.826  11.542  0.00  0.00    -0.248 OA
ATOM      6  H15 RES d   1      21.773  -1.315  10.333  0.00  0.00     0.160 HD
ATOM      7  H16 RES d   1      21.724   0.334  10.651  0.00  0.00     0.160 HD
ATOM      8  H17 RES d   1      19.975   1.228  11.911  0.00  0.00     0.165 HD
ENDBRANCH   1   2
BRANCH   1   9
ATOM      9  C7  RES d   1      18.432   0.913  14.079  0.00  0.00     0.046 C 
BRANCH   9  10
ATOM     10  C8  RES d   1      17.301   0.455  15.002  0.00  0.00     0.116 C 
BRANCH  10  11
ATOM     11  C9  RES d   1      17.878  -0.331  16.151  0.00  0.00     0.172 C 
ATOM     12  O10 RES d   1      19.035  -0.152  16.493  0.00  0.00    -0.648 OA
ATOM     13  O11 RES d   1      17.188  -1.147  16.740  0.00  0.00    -0.648 OA
ENDBRANCH  10  11
ENDBRANCH   9  10
ENDBRANCH   1   9
BRANCH   1  14
ATOM     14  C12 RES d   1      17.186   0.705  11.945  0.00  0.00     0.196 C 
ATOM     15  O13 RES d   1      16.234  -0.011  11.687  0.00  0.00    -0.646 OA
ATOM     16  O14 RES d   1      17.205   1.859  11.552  0.00  0.00    -0.646 OA
ENDBRANCH   1  14
TORSDOF 5
ENDMDL
