MODEL 1
REMARK VINA RESULT:      -5.5      0.000      0.000
REMARK  1 active torsions:
REMARK  status: ('A' for Active; 'I' for Inactive)
REMARK    1  A    between atoms: C4_4  and  C6_5 
ROOT
ATOM      1  C1  <0> d   1      19.162   1.213   7.234  0.00  0.00     0.034 C 
ATOM      2  C2  <0> d   1      18.372  -0.097   7.196  0.00  0.00     0.084 C 
ATOM      3  C3  <0> d   1      16.987   0.113   6.581  0.00  0.00     0.034 C 
ATOM      4  C4  <0> d   1      19.158  -1.207   6.449  0.00  0.00     0.191 C 
ATOM      5  N9  <0> d   1      18.675  -2.524   6.873  0.00  0.00    -0.218 NA
ATOM      6  C10 <0> d   1      19.589  -3.458   7.221  0.00  0.00     0.204 C 
ATOM      7  O11 <0> d   1      20.412  -4.066   6.570  0.00  0.00    -0.280 OA
ATOM      8  C12 <0> d   1      19.245  -3.492   8.686  0.00  0.00     0.132 C 
ATOM      9  C13 <0> d   1      18.121  -2.567   8.232  0.00  0.00     0.198 C 
ATOM     10  S15 <0> d   1      18.252  -0.855   8.869  0.00  0.00     0.172 S 
ATOM     11  O16 <0> d   1      19.482  -0.690   9.562  0.00  0.00    -0.225 OA
ATOM     12  O17 <0> d   1      17.028  -0.474   9.484  0.00  0.00    -0.225 OA
ENDROOT
BRANCH   4  13
ATOM     13  C6  <0> d   1      18.953  -1.054   4.964  0.00  0.00     0.193 C 
ATOM     14  O7  <0> d   1      18.181  -1.793   4.375  0.00  0.00    -0.647 OA
ATOM     15  O8  <0> d   1      19.560  -0.194   4.350  0.00  0.00    -0.647 OA
ENDBRANCH   4  13
TORSDOF 1
ENDMDL
MODEL 2
REMARK VINA RESULT:      -5.5      3.711      5.227
REMARK  1 active torsions:
REMARK  status: ('A' for Active; 'I' for Inactive)
REMARK    1  A    between atoms: C4_4  and  C6_5 
ROOT
ATOM      1  C1  <0> d   1      19.923   0.293  12.682  0.00  0.00     0.034 C 
ATOM      2  C2  <0> d   1      18.711   0.652  11.819  0.00  0.00     0.084 C 
ATOM      3  C3  <0> d   1      17.674   1.437  12.624  0.00  0.00     0.034 C 
ATOM      4  C4  <0> d   1      19.138   1.426  10.543  0.00  0.00     0.191 C 
ATOM      5  N9  <0> d   1      18.106   1.287   9.512  0.00  0.00    -0.218 NA
ATOM      6  C10 <0> d   1      18.494   0.946   8.262  0.00  0.00     0.204 C 
ATOM      7  O11 <0> d   1      19.130   1.545   7.421  0.00  0.00    -0.280 OA
ATOM      8  C12 <0> d   1      17.873  -0.426   8.263  0.00  0.00     0.132 C 
ATOM      9  C13 <0> d   1      17.316   0.053   9.598  0.00  0.00     0.198 C 
ATOM     10  S15 <0> d   1      17.968  -0.848  11.053  0.00  0.00     0.172 S 
ATOM     11  O16 <0> d   1      18.997  -1.741  10.645  0.00  0.00    -0.225 OA
ATOM     12  O17 <0> d   1      16.891  -1.314  11.854  0.00  0.00    -0.225 OA
ENDROOT
BRANCH   4  13
ATOM     13  C6  <0> d   1      19.317   2.885  10.878  0.00  0.00     0.193 C 
ATOM     14  O7  <0> d   1      18.490   3.701  10.507  0.00  0.00    -0.647 OA
ATOM     15  O8  <0> d   1      20.288   3.249  11.518  0.00  0.00    -0.647 OA
ENDBRANCH   4  13
TORSDOF 1
ENDMDL
MODEL 3
REMARK VINA RESULT:      -5.4      2.249      2.629
REMARK  1 active torsions:
REMARK  status: ('A' for Active; 'I' for Inactive)
REMARK    1  A    between atoms: C4_4  and  C6_5 
ROOT
ATOM      1  C1  <0> d   1      19.612   0.195  10.956  0.00  0.00     0.034 C 
ATOM      2  C2  <0> d   1      18.604  -0.506  10.043  0.00  0.00     0.084 C 
ATOM      3  C3  <0> d   1      17.279   0.258   9.996  0.00  0.00     0.034 C 
ATOM      4  C4  <0> d   1      19.185  -0.715   8.619  0.00  0.00     0.191 C 
ATOM      5  N9  <0> d   1      18.476  -1.811   7.953  0.00  0.00    -0.218 NA
ATOM      6  C10 <0> d   1      19.211  -2.769   7.343  0.00  0.00     0.204 C 
ATOM      7  O11 <0> d   1      19.916  -2.742   6.357  0.00  0.00    -0.280 OA
ATOM      8  C12 <0> d   1      18.863  -3.881   8.296  0.00  0.00     0.132 C 
ATOM      9  C13 <0> d   1      17.921  -2.823   8.860  0.00  0.00     0.198 C 
ATOM     10  S15 <0> d   1      18.348  -2.257  10.548  0.00  0.00     0.172 S 
ATOM     11  O16 <0> d   1      19.587  -2.829  10.949  0.00  0.00    -0.225 OA
ATOM     12  O17 <0> d   1      17.209  -2.353  11.392  0.00  0.00    -0.225 OA
ENDROOT
BRANCH   4  13
ATOM     13  C6  <0> d   1      19.014   0.550   7.817  0.00  0.00     0.193 C 
ATOM     14  O7  <0> d   1      18.209   0.587   6.901  0.00  0.00    -0.647 OA
ATOM     15  O8  <0> d   1      19.680   1.535   8.083  0.00  0.00    -0.647 OA
ENDBRANCH   4  13
TORSDOF 1
ENDMDL
MODEL 4
REMARK VINA RESULT:      -5.4      4.429      6.764
REMARK  1 active torsions:
REMARK  status: ('A' for Active; 'I' for Inactive)
REMARK    1  A    between atoms: C4_4  and  C6_5 
ROOT
ATOM      1  C1  <0> d   1      20.297  -0.605  10.636  0.00  0.00     0.034 C 
ATOM      2  C2  <0> d   1      19.046   0.215  10.960  0.00  0.00     0.084 C 
ATOM      3  C3  <0> d   1      17.962  -0.661  11.592  0.00  0.00     0.034 C 
ATOM      4  C4  <0> d   1      19.388   1.429  11.865  0.00  0.00     0.191 C 
ATOM      5  N9  <0> d   1      18.354   2.457  11.723  0.00  0.00    -0.218 NA
ATOM      6  C10 <0> d   1      18.747   3.734  11.514  0.00  0.00     0.204 C 
ATOM      7  O11 <0> d   1      19.318   4.531  12.227  0.00  0.00    -0.280 OA
ATOM      8  C12 <0> d   1      18.239   3.837  10.100  0.00  0.00     0.132 C 
ATOM      9  C13 <0> d   1      17.667   2.461  10.425  0.00  0.00     0.198 C 
ATOM     10  S15 <0> d   1      18.414   1.090   9.469  0.00  0.00     0.172 S 
ATOM     11  O16 <0> d   1      19.505   1.578   8.698  0.00  0.00    -0.225 OA
ATOM     12  O17 <0> d   1      17.392   0.317   8.855  0.00  0.00    -0.225 OA
ENDROOT
BRANCH   4  13
ATOM     13  C6  <0> d   1      19.453   0.981  13.302  0.00  0.00     0.193 C 
ATOM     14  O7  <0> d   1      20.392   0.304  13.688  0.00  0.00    -0.647 OA
ATOM     15  O8  <0> d   1      18.568   1.293  14.079  0.00  0.00    -0.647 OA
ENDBRANCH   4  13
TORSDOF 1
ENDMDL
MODEL 5
REMARK VINA RESULT:      -5.4      2.830      3.466
REMARK  1 active torsions:
REMARK  status: ('A' for Active; 'I' for Inactive)
REMARK    1  A    between atoms: C4_4  and  C6_5 
ROOT
ATOM      1  C1  <0> d   1      19.570   0.677   8.766  0.00  0.00     0.034 C 
ATOM      2  C2  <0> d   1      18.464  -0.182   9.382  0.00  0.00     0.084 C 
ATOM      3  C3  <0> d   1      17.199  -0.152   8.522  0.00  0.00     0.034 C 
ATOM      4  C4  <0> d   1      18.949  -1.636   9.623  0.00  0.00     0.191 C 
ATOM      5  N9  <0> d   1      18.125  -2.267  10.658  0.00  0.00    -0.218 NA
ATOM      6  C10 <0> d   1      18.751  -2.920  11.663  0.00  0.00     0.204 C 
ATOM      7  O11 <0> d   1      19.402  -3.943  11.681  0.00  0.00    -0.280 OA
ATOM      8  C12 <0> d   1      18.374  -1.953  12.753  0.00  0.00     0.132 C 
ATOM      9  C13 <0> d   1      17.545  -1.334  11.633  0.00  0.00     0.198 C 
ATOM     10  S15 <0> d   1      18.106   0.330  11.114  0.00  0.00     0.172 S 
ATOM     11  O16 <0> d   1      19.318   0.660  11.779  0.00  0.00    -0.225 OA
ATOM     12  O17 <0> d   1      17.010   1.235  11.132  0.00  0.00    -0.225 OA
ENDROOT
BRANCH   4  13
ATOM     13  C6  <0> d   1      18.830  -2.423   8.343  0.00  0.00     0.193 C 
ATOM     14  O7  <0> d   1      17.984  -3.296   8.240  0.00  0.00    -0.647 OA
ATOM     15  O8  <0> d   1      19.579  -2.187   7.410  0.00  0.00    -0.647 OA
ENDBRANCH   4  13
TORSDOF 1
ENDMDL
MODEL 6
REMARK VINA RESULT:      -5.3      2.604      4.503
REMARK  1 active torsions:
REMARK  status: ('A' for Active; 'I' for Inactive)
REMARK    1  A    between atoms: C4_4  and  C6_5 
ROOT
ATOM      1  C1  <0> d   1      17.101  -4.151  11.230  0.00  0.00     0.034 C 
ATOM      2  C2  <0> d   1      18.129  -3.151  10.694  0.00  0.00     0.084 C 
ATOM      3  C3  <0> d   1      19.537  -3.748  10.708  0.00  0.00     0.034 C 
ATOM      4  C4  <0> d   1      17.742  -2.651   9.277  0.00  0.00     0.191 C 
ATOM      5  N9  <0> d   1      18.385  -1.360   9.016  0.00  0.00    -0.218 NA
ATOM      6  C10 <0> d   1      17.626  -0.356   8.523  0.00  0.00     0.204 C 
ATOM      7  O11 <0> d   1      17.085  -0.204   7.448  0.00  0.00    -0.280 OA
ATOM      8  C12 <0> d   1      17.674   0.512   9.752  0.00  0.00     0.132 C 
ATOM      9  C13 <0> d   1      18.658  -0.557  10.215  0.00  0.00     0.198 C 
ATOM     10  S15 <0> d   1      18.066  -1.564  11.626  0.00  0.00     0.172 S 
ATOM     11  O16 <0> d   1      16.716  -1.232  11.922  0.00  0.00    -0.225 OA
ATOM     12  O17 <0> d   1      19.044  -1.572  12.657  0.00  0.00    -0.225 OA
ENDROOT
BRANCH   4  13
ATOM     13  C6  <0> d   1      18.200  -3.653   8.249  0.00  0.00     0.193 C 
ATOM     14  O7  <0> d   1      19.205  -3.438   7.592  0.00  0.00    -0.647 OA
ATOM     15  O8  <0> d   1      17.566  -4.679   8.073  0.00  0.00    -0.647 OA
ENDBRANCH   4  13
TORSDOF 1
ENDMDL
MODEL 7
REMARK VINA RESULT:      -5.3      6.547      8.398
REMARK  1 active torsions:
REMARK  status: ('A' for Active; 'I' for Inactive)
REMARK    1  A    between atoms: C4_4  and  C6_5 
ROOT
ATOM      1  C1  <0> d   1      19.693   0.076  11.883  0.00  0.00     0.034 C 
ATOM      2  C2  <0> d   1      18.639   0.691  12.805  0.00  0.00     0.084 C 
ATOM      3  C3  <0> d   1      17.321  -0.083  12.730  0.00  0.00     0.034 C 
ATOM      4  C4  <0> d   1      19.154   0.787  14.266  0.00  0.00     0.191 C 
ATOM      5  N9  <0> d   1      18.406   1.819  14.987  0.00  0.00    -0.218 NA
ATOM      6  C10 <0> d   1      19.103   2.729  15.706  0.00  0.00     0.204 C 
ATOM      7  O11 <0> d   1      19.764   2.625  16.717  0.00  0.00    -0.280 OA
ATOM      8  C12 <0> d   1      18.784   3.913  14.833  0.00  0.00     0.132 C 
ATOM      9  C13 <0> d   1      17.879   2.899  14.142  0.00  0.00     0.198 C 
ATOM     10  S15 <0> d   1      18.386   2.477  12.434  0.00  0.00     0.172 S 
ATOM     11  O16 <0> d   1      19.635   3.088  12.137  0.00  0.00    -0.225 OA
ATOM     12  O17 <0> d   1      17.283   2.634  11.551  0.00  0.00    -0.225 OA
ENDROOT
BRANCH   4  13
ATOM     13  C6  <0> d   1      18.963  -0.541  14.953  0.00  0.00     0.193 C 
ATOM     14  O7  <0> d   1      18.044  -0.693  15.741  0.00  0.00    -0.647 OA
ATOM     15  O8  <0> d   1      19.726  -1.463  14.722  0.00  0.00    -0.647 OA
ENDBRANCH   4  13
TORSDOF 1
ENDMDL
MODEL 8
REMARK VINA RESULT:      -5.3      3.227      4.957
REMARK  1 active torsions:
REMARK  status: ('A' for Active; 'I' for Inactive)
REMARK    1  A    between atoms: C4_4  and  C6_5 
ROOT
ATOM      1  C1  <0> d   1      17.178   0.529  12.496  0.00  0.00     0.034 C 
ATOM      2  C2  <0> d   1      18.372   0.278  11.572  0.00  0.00     0.084 C 
ATOM      3  C3  <0> d   1      19.555  -0.306  12.346  0.00  0.00     0.034 C 
ATOM      4  C4  <0> d   1      17.977  -0.629  10.376  0.00  0.00     0.191 C 
ATOM      5  N9  <0> d   1      18.915  -0.423   9.269  0.00  0.00    -0.218 NA
ATOM      6  C10 <0> d   1      18.408  -0.221   8.032  0.00  0.00     0.204 C 
ATOM      7  O11 <0> d   1      17.810  -0.954   7.273  0.00  0.00    -0.280 OA
ATOM      8  C12 <0> d   1      18.834   1.218   7.909  0.00  0.00     0.132 C 
ATOM      9  C13 <0> d   1      19.533   0.908   9.228  0.00  0.00     0.198 C 
ATOM     10  S15 <0> d   1      18.854   1.809  10.670  0.00  0.00     0.172 S 
ATOM     11  O16 <0> d   1      17.689   2.528  10.285  0.00  0.00    -0.225 OA
ATOM     12  O17 <0> d   1      19.904   2.467  11.366  0.00  0.00    -0.225 OA
ENDROOT
BRANCH   4  13
ATOM     13  C6  <0> d   1      18.021  -2.073  10.806  0.00  0.00     0.193 C 
ATOM     14  O7  <0> d   1      18.954  -2.782  10.467  0.00  0.00    -0.647 OA
ATOM     15  O8  <0> d   1      17.125  -2.533  11.492  0.00  0.00    -0.647 OA
ENDBRANCH   4  13
TORSDOF 1
ENDMDL
MODEL 9
REMARK VINA RESULT:      -5.2      4.364      5.965
REMARK  1 active torsions:
REMARK  status: ('A' for Active; 'I' for Inactive)
REMARK    1  A    between atoms: C4_4  and  C6_5 
ROOT
ATOM      1  C1  <0> d   1      17.410  -0.037   9.236  0.00  0.00     0.034 C 
ATOM      2  C2  <0> d   1      18.485  -0.010  10.324  0.00  0.00     0.084 C 
ATOM      3  C3  <0> d   1      19.888  -0.007   9.713  0.00  0.00     0.034 C 
ATOM      4  C4  <0> d   1      18.286   1.194  11.283  0.00  0.00     0.191 C 
ATOM      5  N9  <0> d   1      18.939   0.918  12.565  0.00  0.00    -0.218 NA
ATOM      6  C10 <0> d   1      18.239   1.139  13.700  0.00  0.00     0.204 C 
ATOM      7  O11 <0> d   1      17.845   2.162  14.221  0.00  0.00    -0.280 OA
ATOM      8  C12 <0> d   1      18.109  -0.305  14.103  0.00  0.00     0.132 C 
ATOM      9  C13 <0> d   1      19.036  -0.507  12.910  0.00  0.00     0.198 C 
ATOM     10  S15 <0> d   1      18.275  -1.405  11.507  0.00  0.00     0.172 S 
ATOM     11  O16 <0> d   1      16.893  -1.615  11.763  0.00  0.00    -0.225 OA
ATOM     12  O17 <0> d   1      19.106  -2.492  11.123  0.00  0.00    -0.225 OA
ENDROOT
BRANCH   4  13
ATOM     13  C6  <0> d   1      18.892   2.430  10.669  0.00  0.00     0.193 C 
ATOM     14  O7  <0> d   1      19.921   2.897  11.129  0.00  0.00    -0.647 OA
ATOM     15  O8  <0> d   1      18.355   2.963   9.714  0.00  0.00    -0.647 OA
ENDBRANCH   4  13
TORSDOF 1
ENDMDL
