MODEL 1
REMARK VINA RESULT:      -6.9      0.000      0.000
REMARK  6 active torsions:
REMARK  status: ('A' for Active; 'I' for Inactive)
REMARK    1  A    between atoms: N2_2  and  C5_5 
REMARK    2  A    between atoms: C5_5  and  C6_6 
REMARK    3  A    between atoms: C6_6  and  C7_7 
REMARK    4  A    between atoms: C7_7  and  O9_8 
REMARK    5  A    between atoms: C7_7  and  C17_16 
REMARK    6  A    between atoms: O9_8  and  C10_9 
ROOT
ATOM      1  C7  <0> d   1      18.863   0.672  13.391  0.00  0.00     0.163 C 
ENDROOT
BRANCH   1   2
ATOM      2  C6  <0> d   1      19.627  -0.339  12.533  0.00  0.00     0.065 C 
BRANCH   2   3
ATOM      3  C5  <0> d   1      20.859   0.336  11.925  0.00  0.00     0.234 C 
BRANCH   3   4
ATOM      4  N2  <0> d   1      21.404  -0.513  10.857  0.00  0.00    -0.079 N 
ATOM      5  C1  <0> d   1      20.429  -0.609   9.763  0.00  0.00     0.266 C 
ATOM      6  H3  <0> d   1      21.591  -1.435  11.223  0.00  0.00     0.276 HD
ATOM      7  H4  <0> d   1      22.261  -0.109  10.510  0.00  0.00     0.276 HD
ENDBRANCH   3   4
ENDBRANCH   2   3
ENDBRANCH   1   2
BRANCH   1   8
ATOM      8  O9  <0> d   1      17.708   1.124  12.679  0.00  0.00    -0.341 OA
BRANCH   8   9
ATOM      9  C10 <0> d   1      17.747   2.386  12.178  0.00  0.00     0.075 A 
ATOM     10  C15 <0> d   1      17.725   2.590  10.805  0.00  0.00    -0.029 A 
ATOM     11  C14 <0> d   1      17.759   3.874  10.298  0.00  0.00     0.009 A 
ATOM     12  C16 <0> d   1      17.651   1.411   9.869  0.00  0.00     0.051 C 
ATOM     13  C13 <0> d   1      17.828   4.956  11.157  0.00  0.00     0.001 A 
ATOM     14  C12 <0> d   1      17.857   4.755  12.525  0.00  0.00     0.003 A 
ATOM     15  C11 <0> d   1      17.817   3.473  13.037  0.00  0.00     0.037 A 
ENDBRANCH   8   9
ENDBRANCH   1   8
BRANCH   1  16
ATOM     16  C17 <0> d   1      18.434   0.017  14.678  0.00  0.00    -0.029 A 
ATOM     17  C22 <0> d   1      19.043  -1.153  15.094  0.00  0.00     0.010 A 
ATOM     18  C21 <0> d   1      18.653  -1.751  16.277  0.00  0.00     0.001 A 
ATOM     19  C20 <0> d   1      17.647  -1.187  17.039  0.00  0.00     0.000 A 
ATOM     20  C19 <0> d   1      17.034  -0.021  16.620  0.00  0.00     0.001 A 
ATOM     21  C18 <0> d   1      17.428   0.582  15.439  0.00  0.00     0.010 A 
ENDBRANCH   1  16
TORSDOF 6
ENDMDL
MODEL 2
REMARK VINA RESULT:      -6.9      2.697      5.831
REMARK  6 active torsions:
REMARK  status: ('A' for Active; 'I' for Inactive)
REMARK    1  A    between atoms: N2_2  and  C5_5 
REMARK    2  A    between atoms: C5_5  and  C6_6 
REMARK    3  A    between atoms: C6_6  and  C7_7 
REMARK    4  A    between atoms: C7_7  and  O9_8 
REMARK    5  A    between atoms: C7_7  and  C17_16 
REMARK    6  A    between atoms: O9_8  and  C10_9 
ROOT
ATOM      1  C7  <0> d   1      18.891   1.188   9.662  0.00  0.00     0.163 C 
ENDROOT
BRANCH   1   2
ATOM      2  C6  <0> d   1      19.175   0.234  10.823  0.00  0.00     0.065 C 
BRANCH   2   3
ATOM      3  C5  <0> d   1      20.589  -0.333  10.684  0.00  0.00     0.234 C 
BRANCH   3   4
ATOM      4  N2  <0> d   1      21.420   0.143  11.799  0.00  0.00    -0.079 N 
ATOM      5  C1  <0> d   1      20.560   0.472  12.943  0.00  0.00     0.266 C 
ATOM      6  H3  <0> d   1      21.926   0.968  11.511  0.00  0.00     0.276 HD
ATOM      7  H4  <0> d   1      22.073  -0.578  12.064  0.00  0.00     0.276 HD
ENDBRANCH   3   4
ENDBRANCH   2   3
ENDBRANCH   1   2
BRANCH   1   8
ATOM      8  O9  <0> d   1      17.949   0.587   8.770  0.00  0.00    -0.341 OA
BRANCH   8   9
ATOM      9  C10 <0> d   1      18.420   0.166   7.568  0.00  0.00     0.075 A 
ATOM     10  C15 <0> d   1      18.539  -1.191   7.303  0.00  0.00    -0.029 A 
ATOM     11  C14 <0> d   1      19.013  -1.616   6.078  0.00  0.00     0.009 A 
ATOM     12  C16 <0> d   1      18.141  -2.201   8.350  0.00  0.00     0.051 C 
ATOM     13  C13 <0> d   1      19.380  -0.691   5.119  0.00  0.00     0.001 A 
ATOM     14  C12 <0> d   1      19.267   0.662   5.381  0.00  0.00     0.003 A 
ATOM     15  C11 <0> d   1      18.789   1.092   6.603  0.00  0.00     0.037 A 
ENDBRANCH   8   9
ENDBRANCH   1   8
BRANCH   1  16
ATOM     16  C17 <0> d   1      18.323   2.478  10.197  0.00  0.00    -0.029 A 
ATOM     17  C22 <0> d   1      17.828   2.532  11.486  0.00  0.00     0.010 A 
ATOM     18  C21 <0> d   1      17.311   3.715  11.979  0.00  0.00     0.001 A 
ATOM     19  C20 <0> d   1      17.279   4.841  11.178  0.00  0.00     0.000 A 
ATOM     20  C19 <0> d   1      17.767   4.786   9.886  0.00  0.00     0.001 A 
ATOM     21  C18 <0> d   1      18.290   3.603   9.395  0.00  0.00     0.010 A 
ENDBRANCH   1  16
TORSDOF 6
ENDMDL
MODEL 3
REMARK VINA RESULT:      -6.9      2.387      6.269
REMARK  6 active torsions:
REMARK  status: ('A' for Active; 'I' for Inactive)
REMARK    1  A    between atoms: N2_2  and  C5_5 
REMARK    2  A    between atoms: C5_5  and  C6_6 
REMARK    3  A    between atoms: C6_6  and  C7_7 
REMARK    4  A    between atoms: C7_7  and  O9_8 
REMARK    5  A    between atoms: C7_7  and  C17_16 
REMARK    6  A    between atoms: O9_8  and  C10_9 
ROOT
ATOM      1  C7  <0> d   1      18.916   1.478  10.354  0.00  0.00     0.163 C 
ENDROOT
BRANCH   1   2
ATOM      2  C6  <0> d   1      18.943   3.004  10.453  0.00  0.00     0.065 C 
BRANCH   2   3
ATOM      3  C5  <0> d   1      17.514   3.530  10.614  0.00  0.00     0.234 C 
BRANCH   3   4
ATOM      4  N2  <0> d   1      17.292   3.921  12.014  0.00  0.00    -0.079 N 
ATOM      5  C1  <0> d   1      16.563   5.196  12.054  0.00  0.00     0.266 C 
ATOM      6  H3  <0> d   1      18.182   4.028  12.478  0.00  0.00     0.276 HD
ATOM      7  H4  <0> d   1      16.751   3.209  12.480  0.00  0.00     0.276 HD
ENDBRANCH   3   4
ENDBRANCH   2   3
ENDBRANCH   1   2
BRANCH   1   8
ATOM      8  O9  <0> d   1      17.938   0.958  11.258  0.00  0.00    -0.341 OA
BRANCH   8   9
ATOM      9  C10 <0> d   1      18.399   0.342  12.377  0.00  0.00     0.075 A 
ATOM     10  C15 <0> d   1      18.179  -1.016  12.565  0.00  0.00    -0.029 A 
ATOM     11  C14 <0> d   1      18.653  -1.642  13.700  0.00  0.00     0.009 A 
ATOM     12  C16 <0> d   1      17.432  -1.809  11.522  0.00  0.00     0.051 C 
ATOM     13  C13 <0> d   1      19.337  -0.914  14.657  0.00  0.00     0.001 A 
ATOM     14  C12 <0> d   1      19.553   0.440  14.476  0.00  0.00     0.003 A 
ATOM     15  C11 <0> d   1      19.086   1.069  13.339  0.00  0.00     0.037 A 
ENDBRANCH   8   9
ENDBRANCH   1   8
BRANCH   1  16
ATOM     16  C17 <0> d   1      18.562   1.072   8.946  0.00  0.00    -0.029 A 
ATOM     17  C22 <0> d   1      17.534   0.175   8.723  0.00  0.00     0.010 A 
ATOM     18  C21 <0> d   1      17.207  -0.194   7.432  0.00  0.00     0.001 A 
ATOM     19  C20 <0> d   1      17.913   0.327   6.364  0.00  0.00     0.000 A 
ATOM     20  C19 <0> d   1      18.945   1.219   6.587  0.00  0.00     0.001 A 
ATOM     21  C18 <0> d   1      19.269   1.593   7.879  0.00  0.00     0.010 A 
ENDBRANCH   1  16
TORSDOF 6
ENDMDL
MODEL 4
REMARK VINA RESULT:      -6.9      2.267      3.697
REMARK  6 active torsions:
REMARK  status: ('A' for Active; 'I' for Inactive)
REMARK    1  A    between atoms: N2_2  and  C5_5 
REMARK    2  A    between atoms: C5_5  and  C6_6 
REMARK    3  A    between atoms: C6_6  and  C7_7 
REMARK    4  A    between atoms: C7_7  and  O9_8 
REMARK    5  A    between atoms: C7_7  and  C17_16 
REMARK    6  A    between atoms: O9_8  and  C10_9 
ROOT
ATOM      1  C7  <0> d   1      18.133  -1.032  11.396  0.00  0.00     0.163 C 
ENDROOT
BRANCH   1   2
ATOM      2  C6  <0> d   1      17.451  -2.385  11.190  0.00  0.00     0.065 C 
BRANCH   2   3
ATOM      3  C5  <0> d   1      18.279  -3.231  10.219  0.00  0.00     0.234 C 
BRANCH   3   4
ATOM      4  N2  <0> d   1      19.709  -3.041  10.502  0.00  0.00    -0.079 N 
ATOM      5  C1  <0> d   1      20.183  -4.125  11.372  0.00  0.00     0.266 C 
ATOM      6  H3  <0> d   1      19.844  -2.154  10.964  0.00  0.00     0.276 HD
ATOM      7  H4  <0> d   1      20.227  -3.052   9.636  0.00  0.00     0.276 HD
ENDBRANCH   3   4
ENDBRANCH   2   3
ENDBRANCH   1   2
BRANCH   1   8
ATOM      8  O9  <0> d   1      17.387  -0.015  10.723  0.00  0.00    -0.341 OA
BRANCH   8   9
ATOM      9  C10 <0> d   1      17.850   0.389   9.511  0.00  0.00     0.075 A 
ATOM     10  C15 <0> d   1      18.720   1.467   9.423  0.00  0.00    -0.029 A 
ATOM     11  C14 <0> d   1      19.193   1.872   8.190  0.00  0.00     0.009 A 
ATOM     12  C16 <0> d   1      19.158   2.186  10.673  0.00  0.00     0.051 C 
ATOM     13  C13 <0> d   1      18.791   1.212   7.044  0.00  0.00     0.001 A 
ATOM     14  C12 <0> d   1      17.919   0.142   7.128  0.00  0.00     0.003 A 
ATOM     15  C11 <0> d   1      17.448  -0.270   8.359  0.00  0.00     0.037 A 
ENDBRANCH   8   9
ENDBRANCH   1   8
BRANCH   1  16
ATOM     16  C17 <0> d   1      18.192  -0.718  12.869  0.00  0.00    -0.029 A 
ATOM     17  C22 <0> d   1      17.478   0.351  13.377  0.00  0.00     0.010 A 
ATOM     18  C21 <0> d   1      17.529   0.636  14.728  0.00  0.00     0.001 A 
ATOM     19  C20 <0> d   1      18.301  -0.142  15.571  0.00  0.00     0.000 A 
ATOM     20  C19 <0> d   1      19.020  -1.207  15.062  0.00  0.00     0.001 A 
ATOM     21  C18 <0> d   1      18.965  -1.496  13.710  0.00  0.00     0.010 A 
ENDBRANCH   1  16
TORSDOF 6
ENDMDL
MODEL 5
REMARK VINA RESULT:      -6.9      2.530      5.353
REMARK  6 active torsions:
REMARK  status: ('A' for Active; 'I' for Inactive)
REMARK    1  A    between atoms: N2_2  and  C5_5 
REMARK    2  A    between atoms: C5_5  and  C6_6 
REMARK    3  A    between atoms: C6_6  and  C7_7 
REMARK    4  A    between atoms: C7_7  and  O9_8 
REMARK    5  A    between atoms: C7_7  and  C17_16 
REMARK    6  A    between atoms: O9_8  and  C10_9 
ROOT
ATOM      1  C7  <0> d   1      18.161   0.912  10.258  0.00  0.00     0.163 C 
ENDROOT
BRANCH   1   2
ATOM      2  C6  <0> d   1      18.754  -0.350  10.886  0.00  0.00     0.065 C 
BRANCH   2   3
ATOM      3  C5  <0> d   1      20.274  -0.203  10.990  0.00  0.00     0.234 C 
BRANCH   3   4
ATOM      4  N2  <0> d   1      20.887  -1.532  11.124  0.00  0.00    -0.079 N 
ATOM      5  C1  <0> d   1      19.837  -2.533  11.353  0.00  0.00     0.266 C 
ATOM      6  H3  <0> d   1      21.525  -1.529  11.906  0.00  0.00     0.276 HD
ATOM      7  H4  <0> d   1      21.390  -1.758  10.280  0.00  0.00     0.276 HD
ENDBRANCH   3   4
ENDBRANCH   2   3
ENDBRANCH   1   2
BRANCH   1   8
ATOM      8  O9  <0> d   1      18.945   2.046  10.636  0.00  0.00    -0.341 OA
BRANCH   8   9
ATOM      9  C10 <0> d   1      18.278   3.120  11.132  0.00  0.00     0.075 A 
ATOM     10  C15 <0> d   1      18.181   3.307  12.504  0.00  0.00    -0.029 A 
ATOM     11  C14 <0> d   1      17.508   4.403  13.006  0.00  0.00     0.009 A 
ATOM     12  C16 <0> d   1      18.822   2.319  13.446  0.00  0.00     0.051 C 
ATOM     13  C13 <0> d   1      16.919   5.308  12.142  0.00  0.00     0.001 A 
ATOM     14  C12 <0> d   1      17.008   5.122  10.775  0.00  0.00     0.003 A 
ATOM     15  C11 <0> d   1      17.686   4.030  10.268  0.00  0.00     0.037 A 
ENDBRANCH   8   9
ENDBRANCH   1   8
BRANCH   1  16
ATOM     16  C17 <0> d   1      18.165   0.777   8.757  0.00  0.00    -0.029 A 
ATOM     17  C22 <0> d   1      19.053   1.517   7.999  0.00  0.00     0.010 A 
ATOM     18  C21 <0> d   1      19.060   1.390   6.623  0.00  0.00     0.001 A 
ATOM     19  C20 <0> d   1      18.171   0.531   6.004  0.00  0.00     0.000 A 
ATOM     20  C19 <0> d   1      17.279  -0.205   6.761  0.00  0.00     0.001 A 
ATOM     21  C18 <0> d   1      17.276  -0.082   8.139  0.00  0.00     0.010 A 
ENDBRANCH   1  16
TORSDOF 6
ENDMDL
MODEL 6
REMARK VINA RESULT:      -6.9      2.088      5.030
REMARK  6 active torsions:
REMARK  status: ('A' for Active; 'I' for Inactive)
REMARK    1  A    between atoms: N2_2  and  C5_5 
REMARK    2  A    between atoms: C5_5  and  C6_6 
REMARK    3  A    between atoms: C6_6  and  C7_7 
REMARK    4  A    between atoms: C7_7  and  O9_8 
REMARK    5  A    between atoms: C7_7  and  C17_16 
REMARK    6  A    between atoms: O9_8  and  C10_9 
ROOT
ATOM      1  C7  <0> d   1      18.104   1.287  10.909  0.00  0.00     0.163 C 
ENDROOT
BRANCH   1   2
ATOM      2  C6  <0> d   1      18.727   0.113  11.665  0.00  0.00     0.065 C 
BRANCH   2   3
ATOM      3  C5  <0> d   1      20.252   0.188  11.556  0.00  0.00     0.234 C 
BRANCH   3   4
ATOM      4  N2  <0> d   1      20.821   0.525  12.869  0.00  0.00    -0.079 N 
ATOM      5  C1  <0> d   1      19.945   0.005  13.928  0.00  0.00     0.266 C 
ATOM      6  H3  <0> d   1      20.895   1.527  12.956  0.00  0.00     0.276 HD
ATOM      7  H4  <0> d   1      21.736   0.110  12.956  0.00  0.00     0.276 HD
ENDBRANCH   3   4
ENDBRANCH   2   3
ENDBRANCH   1   2
BRANCH   1   8
ATOM      8  O9  <0> d   1      18.821   2.486  11.214  0.00  0.00    -0.341 OA
BRANCH   8   9
ATOM      9  C10 <0> d   1      18.208   3.379  12.033  0.00  0.00     0.075 A 
ATOM     10  C15 <0> d   1      17.590   4.501  11.500  0.00  0.00    -0.029 A 
ATOM     11  C14 <0> d   1      16.963   5.406  12.334  0.00  0.00     0.009 A 
ATOM     12  C16 <0> d   1      17.591   4.726  10.009  0.00  0.00     0.051 C 
ATOM     13  C13 <0> d   1      16.962   5.200  13.701  0.00  0.00     0.001 A 
ATOM     14  C12 <0> d   1      17.583   4.087  14.236  0.00  0.00     0.003 A 
ATOM     15  C11 <0> d   1      18.206   3.176  13.405  0.00  0.00     0.037 A 
ENDBRANCH   8   9
ENDBRANCH   1   8
BRANCH   1  16
ATOM     16  C17 <0> d   1      18.174   1.024   9.426  0.00  0.00    -0.029 A 
ATOM     17  C22 <0> d   1      19.035   1.760   8.634  0.00  0.00     0.010 A 
ATOM     18  C21 <0> d   1      19.103   1.516   7.276  0.00  0.00     0.001 A 
ATOM     19  C20 <0> d   1      18.302   0.544   6.707  0.00  0.00     0.000 A 
ATOM     20  C19 <0> d   1      17.436  -0.188   7.498  0.00  0.00     0.001 A 
ATOM     21  C18 <0> d   1      17.372   0.052   8.859  0.00  0.00     0.010 A 
ENDBRANCH   1  16
TORSDOF 6
ENDMDL
MODEL 7
REMARK VINA RESULT:      -6.8      1.245      5.331
REMARK  6 active torsions:
REMARK  status: ('A' for Active; 'I' for Inactive)
REMARK    1  A    between atoms: N2_2  and  C5_5 
REMARK    2  A    between atoms: C5_5  and  C6_6 
REMARK    3  A    between atoms: C6_6  and  C7_7 
REMARK    4  A    between atoms: C7_7  and  O9_8 
REMARK    5  A    between atoms: C7_7  and  C17_16 
REMARK    6  A    between atoms: O9_8  and  C10_9 
ROOT
ATOM      1  C7  <0> d   1      19.462   0.954  12.794  0.00  0.00     0.163 C 
ENDROOT
BRANCH   1   2
ATOM      2  C6  <0> d   1      20.722   0.510  12.048  0.00  0.00     0.065 C 
BRANCH   2   3
ATOM      3  C5  <0> d   1      20.386  -0.676  11.141  0.00  0.00     0.234 C 
BRANCH   3   4
ATOM      4  N2  <0> d   1      20.798  -0.370   9.763  0.00  0.00    -0.079 N 
ATOM      5  C1  <0> d   1      19.633  -0.461   8.873  0.00  0.00     0.266 C 
ATOM      6  H3  <0> d   1      21.499  -1.033   9.468  0.00  0.00     0.276 HD
ATOM      7  H4  <0> d   1      21.179   0.563   9.725  0.00  0.00     0.276 HD
ENDBRANCH   3   4
ENDBRANCH   2   3
ENDBRANCH   1   2
BRANCH   1   8
ATOM      8  O9  <0> d   1      19.780   1.188  14.168  0.00  0.00    -0.341 OA
BRANCH   8   9
ATOM      9  C10 <0> d   1      19.054   0.511  15.094  0.00  0.00     0.075 A 
ATOM     10  C15 <0> d   1      18.506   1.184  16.177  0.00  0.00    -0.029 A 
ATOM     11  C14 <0> d   1      17.762   0.494  17.114  0.00  0.00     0.009 A 
ATOM     12  C16 <0> d   1      18.712   2.670  16.324  0.00  0.00     0.051 C 
ATOM     13  C13 <0> d   1      17.574  -0.869  16.981  0.00  0.00     0.001 A 
ATOM     14  C12 <0> d   1      18.123  -1.544  15.906  0.00  0.00     0.003 A 
ATOM     15  C11 <0> d   1      18.862  -0.857  14.963  0.00  0.00     0.037 A 
ENDBRANCH   8   9
ENDBRANCH   1   8
BRANCH   1  16
ATOM     16  C17 <0> d   1      18.934   2.224  12.178  0.00  0.00    -0.029 A 
ATOM     17  C22 <0> d   1      19.293   3.450  12.707  0.00  0.00     0.010 A 
ATOM     18  C21 <0> d   1      18.812   4.614  12.139  0.00  0.00     0.001 A 
ATOM     19  C20 <0> d   1      17.963   4.553  11.049  0.00  0.00     0.000 A 
ATOM     20  C19 <0> d   1      17.599   3.327  10.524  0.00  0.00     0.001 A 
ATOM     21  C18 <0> d   1      18.085   2.162  11.089  0.00  0.00     0.010 A 
ENDBRANCH   1  16
TORSDOF 6
ENDMDL
MODEL 8
REMARK VINA RESULT:      -6.8      2.521      5.034
REMARK  6 active torsions:
REMARK  status: ('A' for Active; 'I' for Inactive)
REMARK    1  A    between atoms: N2_2  and  C5_5 
REMARK    2  A    between atoms: C5_5  and  C6_6 
REMARK    3  A    between atoms: C6_6  and  C7_7 
REMARK    4  A    between atoms: C7_7  and  O9_8 
REMARK    5  A    between atoms: C7_7  and  C17_16 
REMARK    6  A    between atoms: O9_8  and  C10_9 
ROOT
ATOM      1  C7  <0> d   1      19.303  -1.218  12.808  0.00  0.00     0.163 C 
ENDROOT
BRANCH   1   2
ATOM      2  C6  <0> d   1      19.613  -0.165  11.742  0.00  0.00     0.065 C 
BRANCH   2   3
ATOM      3  C5  <0> d   1      20.815   0.672  12.186  0.00  0.00     0.234 C 
BRANCH   3   4
ATOM      4  N2  <0> d   1      20.596   2.078  11.818  0.00  0.00    -0.079 N 
ATOM      5  C1  <0> d   1      19.409   2.179  10.959  0.00  0.00     0.266 C 
ATOM      6  H3  <0> d   1      21.402   2.424  11.320  0.00  0.00     0.276 HD
ATOM      7  H4  <0> d   1      20.455   2.626  12.653  0.00  0.00     0.276 HD
ENDBRANCH   3   4
ENDBRANCH   2   3
ENDBRANCH   1   2
BRANCH   1   8
ATOM      8  O9  <0> d   1      18.208  -0.773  13.612  0.00  0.00    -0.341 OA
BRANCH   8   9
ATOM      9  C10 <0> d   1      18.476  -0.480  14.911  0.00  0.00     0.075 A 
ATOM     10  C15 <0> d   1      18.389   0.830  15.361  0.00  0.00    -0.029 A 
ATOM     11  C14 <0> d   1      18.656   1.125  16.683  0.00  0.00     0.009 A 
ATOM     12  C16 <0> d   1      17.990   1.929  14.409  0.00  0.00     0.051 C 
ATOM     13  C13 <0> d   1      19.023   0.118  17.556  0.00  0.00     0.001 A 
ATOM     14  C12 <0> d   1      19.117  -1.187  17.110  0.00  0.00     0.003 A 
ATOM     15  C11 <0> d   1      18.844  -1.488  15.790  0.00  0.00     0.037 A 
ENDBRANCH   8   9
ENDBRANCH   1   8
BRANCH   1  16
ATOM     16  C17 <0> d   1      18.938  -2.518  12.139  0.00  0.00    -0.029 A 
ATOM     17  C22 <0> d   1      19.931  -3.404  11.765  0.00  0.00     0.010 A 
ATOM     18  C21 <0> d   1      19.597  -4.599  11.155  0.00  0.00     0.001 A 
ATOM     19  C20 <0> d   1      18.270  -4.903  10.910  0.00  0.00     0.000 A 
ATOM     20  C19 <0> d   1      17.278  -4.013  11.279  0.00  0.00     0.001 A 
ATOM     21  C18 <0> d   1      17.612  -2.820  11.894  0.00  0.00     0.010 A 
ENDBRANCH   1  16
TORSDOF 6
ENDMDL
MODEL 9
REMARK VINA RESULT:      -6.6      3.780      5.812
REMARK  6 active torsions:
REMARK  status: ('A' for Active; 'I' for Inactive)
REMARK    1  A    between atoms: N2_2  and  C5_5 
REMARK    2  A    between atoms: C5_5  and  C6_6 
REMARK    3  A    between atoms: C6_6  and  C7_7 
REMARK    4  A    between atoms: C7_7  and  O9_8 
REMARK    5  A    between atoms: C7_7  and  C17_16 
REMARK    6  A    between atoms: O9_8  and  C10_9 
ROOT
ATOM      1  C7  <0> d   1      18.528  -1.392   9.774  0.00  0.00     0.163 C 
ENDROOT
BRANCH   1   2
ATOM      2  C6  <0> d   1      19.200  -0.705  10.964  0.00  0.00     0.065 C 
BRANCH   2   3
ATOM      3  C5  <0> d   1      20.716  -0.689  10.756  0.00  0.00     0.234 C 
BRANCH   3   4
ATOM      4  N2  <0> d   1      21.337   0.204  11.744  0.00  0.00    -0.079 N 
ATOM      5  C1  <0> d   1      20.386   0.464  12.833  0.00  0.00     0.266 C 
ATOM      6  H3  <0> d   1      21.586   1.075  11.300  0.00  0.00     0.276 HD
ATOM      7  H4  <0> d   1      22.166  -0.233  12.118  0.00  0.00     0.276 HD
ENDBRANCH   3   4
ENDBRANCH   2   3
ENDBRANCH   1   2
BRANCH   1   8
ATOM      8  O9  <0> d   1      19.489  -1.590   8.734  0.00  0.00    -0.341 OA
BRANCH   8   9
ATOM      9  C10 <0> d   1      19.210  -1.043   7.523  0.00  0.00     0.075 A 
ATOM     10  C15 <0> d   1      19.310  -1.812   6.372  0.00  0.00    -0.029 A 
ATOM     11  C14 <0> d   1      19.020  -1.255   5.142  0.00  0.00     0.009 A 
ATOM     12  C16 <0> d   1      19.723  -3.259   6.466  0.00  0.00     0.051 C 
ATOM     13  C13 <0> d   1      18.642   0.072   5.055  0.00  0.00     0.001 A 
ATOM     14  C12 <0> d   1      18.547   0.843   6.199  0.00  0.00     0.003 A 
ATOM     15  C11 <0> d   1      18.830   0.288   7.432  0.00  0.00     0.037 A 
ENDBRANCH   8   9
ENDBRANCH   1   8
BRANCH   1  16
ATOM     16  C17 <0> d   1      17.977  -2.725  10.208  0.00  0.00    -0.029 A 
ATOM     17  C22 <0> d   1      17.966  -3.065  11.548  0.00  0.00     0.010 A 
ATOM     18  C21 <0> d   1      17.456  -4.286  11.946  0.00  0.00     0.001 A 
ATOM     19  C20 <0> d   1      16.966  -5.172  11.005  0.00  0.00     0.000 A 
ATOM     20  C19 <0> d   1      16.982  -4.834   9.664  0.00  0.00     0.001 A 
ATOM     21  C18 <0> d   1      17.488  -3.610   9.265  0.00  0.00     0.010 A 
ENDBRANCH   1  16
TORSDOF 6
ENDMDL
