MODEL 1
REMARK VINA RESULT:      -9.1      0.000      0.000
REMARK  10 active torsions:
REMARK  status: ('A' for Active; 'I' for Inactive)
REMARK    1  A    between atoms: C2_2  and  C4_4 
REMARK    2  A    between atoms: C4_4  and  C5_5 
REMARK    3  A    between atoms: C5_5  and  O7_6 
REMARK    4  A    between atoms: C5_5  and  C8_7 
REMARK    5  A    between atoms: C8_7  and  C9_8 
REMARK    6  A    between atoms: C9_8  and  O11_9 
REMARK    7  A    between atoms: C9_8  and  C12_10 
REMARK    8  A    between atoms: C13_11  and  C14_12 
REMARK    9  A    between atoms: C15_13  and  C16_14 
REMARK   10  A    between atoms: C26_24  and  C27_25 
ROOT
ATOM      1  C14 ZIN A   1      19.091   0.500  11.929  0.00  0.00     0.001 A 
ATOM      2  C15 ZIN A   1      19.242   1.762  12.525  0.00  0.00     0.050 A 
ATOM      3  N19 ZIN A   1      19.210   1.918  13.823  0.00  0.00    -0.251 NA
ATOM      4  C20 ZIN A   1      19.030   0.887  14.658  0.00  0.00     0.068 A 
ATOM      5  C21 ZIN A   1      18.998   1.085  16.049  0.00  0.00     0.032 A 
ATOM      6  C22 ZIN A   1      18.813   0.022  16.880  0.00  0.00     0.002 A 
ATOM      7  C23 ZIN A   1      18.655  -1.266  16.373  0.00  0.00     0.001 A 
ATOM      8  C24 ZIN A   1      18.680  -1.496  15.030  0.00  0.00     0.014 A 
ATOM      9  C25 ZIN A   1      18.868  -0.423  14.147  0.00  0.00     0.005 A 
ATOM     10  C26 ZIN A   1      18.893  -0.623  12.745  0.00  0.00    -0.001 A 
ENDROOT
BRANCH   1  11
ATOM     11  C13 ZIN A   1      19.132   0.358  10.462  0.00  0.00     0.013 C 
ATOM     12  C12 ZIN A   1      18.027   0.533   9.746  0.00  0.00     0.006 C 
BRANCH  12  13
ATOM     13  C9  ZIN A   1      18.090   0.490   8.241  0.00  0.00     0.143 C 
BRANCH  13  14
ATOM     14  C8  ZIN A   1      17.859  -0.944   7.761  0.00  0.00     0.068 C 
BRANCH  14  15
ATOM     15  C5  ZIN A   1      19.191  -1.557   7.324  0.00  0.00     0.130 C 
BRANCH  15  16
ATOM     16  C4  ZIN A   1      18.998  -2.310   6.007  0.00  0.00     0.144 C 
BRANCH  16  17
ATOM     17  C2  ZIN A   1      18.990  -1.330   4.864  0.00  0.00     0.175 C 
ATOM     18  O1  ZIN A   1      17.974  -1.162   4.211  0.00  0.00    -0.648 OA
ATOM     19  O3  ZIN A   1      19.999  -0.699   4.594  0.00  0.00    -0.648 OA
ENDBRANCH  16  17
ENDBRANCH  15  16
BRANCH  15  20
ATOM     20  O7  ZIN A   1      19.652  -2.462   8.329  0.00  0.00    -0.395 OA
ATOM     21  H36 ZIN A   1      20.059  -3.265   7.977  0.00  0.00     0.210 HD
ENDBRANCH  15  20
ENDBRANCH  14  15
ENDBRANCH  13  14
BRANCH  13  22
ATOM     22  O11 ZIN A   1      19.374   0.938   7.804  0.00  0.00    -0.392 OA
ATOM     23  H39 ZIN A   1      20.071   0.838   8.467  0.00  0.00     0.210 HD
ENDBRANCH  13  22
ENDBRANCH  12  13
ENDBRANCH   1  11
BRANCH  10  24
ATOM     24  C27 ZIN A   1      18.723  -1.971  12.161  0.00  0.00    -0.024 A 
ATOM     25  C33 ZIN A   1      19.829  -2.808  11.997  0.00  0.00     0.015 A 
ATOM     26  C32 ZIN A   1      19.663  -4.066  11.458  0.00  0.00     0.043 A 
ATOM     27  C30 ZIN A   1      18.405  -4.497  11.068  0.00  0.00     0.116 A 
ATOM     28  C29 ZIN A   1      17.304  -3.668  11.225  0.00  0.00     0.043 A 
ATOM     29  F31 ZIN A   1      18.250  -5.727  10.535  0.00  0.00    -0.206 F 
ATOM     30  C28 ZIN A   1      17.458  -2.410  11.768  0.00  0.00     0.015 A 
ENDBRANCH  10  24
BRANCH   2  31
ATOM     31  C16 ZIN A   1      19.449   2.968  11.645  0.00  0.00     0.038 A 
ATOM     32  C18 ZIN A   1      19.448   4.342  12.318  0.00  0.00     0.011 A 
ATOM     33  C17 ZIN A   1      18.262   3.913  11.452  0.00  0.00     0.011 A 
ENDBRANCH   2  31
TORSDOF 10
ENDMDL
MODEL 2
REMARK VINA RESULT:      -9.0      1.137      1.498
REMARK  10 active torsions:
REMARK  status: ('A' for Active; 'I' for Inactive)
REMARK    1  A    between atoms: C2_2  and  C4_4 
REMARK    2  A    between atoms: C4_4  and  C5_5 
REMARK    3  A    between atoms: C5_5  and  O7_6 
REMARK    4  A    between atoms: C5_5  and  C8_7 
REMARK    5  A    between atoms: C8_7  and  C9_8 
REMARK    6  A    between atoms: C9_8  and  O11_9 
REMARK    7  A    between atoms: C9_8  and  C12_10 
REMARK    8  A    between atoms: C13_11  and  C14_12 
REMARK    9  A    between atoms: C15_13  and  C16_14 
REMARK   10  A    between atoms: C26_24  and  C27_25 
ROOT
ATOM      1  C14 ZIN A   1      19.055   0.779  12.241  0.00  0.00     0.001 A 
ATOM      2  C15 ZIN A   1      19.152   2.002  12.922  0.00  0.00     0.050 A 
ATOM      3  N19 ZIN A   1      19.068   2.073  14.226  0.00  0.00    -0.251 NA
ATOM      4  C20 ZIN A   1      18.883   0.985  14.985  0.00  0.00     0.068 A 
ATOM      5  C21 ZIN A   1      18.794   1.091  16.383  0.00  0.00     0.032 A 
ATOM      6  C22 ZIN A   1      18.606  -0.028  17.136  0.00  0.00     0.002 A 
ATOM      7  C23 ZIN A   1      18.499  -1.284  16.542  0.00  0.00     0.001 A 
ATOM      8  C24 ZIN A   1      18.580  -1.424  15.189  0.00  0.00     0.014 A 
ATOM      9  C25 ZIN A   1      18.774  -0.292  14.384  0.00  0.00     0.005 A 
ATOM     10  C26 ZIN A   1      18.856  -0.399  12.974  0.00  0.00    -0.001 A 
ENDROOT
BRANCH   1  11
ATOM     11  C13 ZIN A   1      19.154   0.734  10.770  0.00  0.00     0.013 C 
ATOM     12  C12 ZIN A   1      18.068   0.904  10.025  0.00  0.00     0.006 C 
BRANCH  12  13
ATOM     13  C9  ZIN A   1      18.185   0.962   8.524  0.00  0.00     0.143 C 
BRANCH  13  14
ATOM     14  C8  ZIN A   1      17.894  -0.421   7.936  0.00  0.00     0.068 C 
BRANCH  14  15
ATOM     15  C5  ZIN A   1      19.200  -1.053   7.450  0.00  0.00     0.130 C 
BRANCH  15  16
ATOM     16  C4  ZIN A   1      18.899  -2.040   6.321  0.00  0.00     0.144 C 
BRANCH  16  17
ATOM     17  C2  ZIN A   1      19.316  -3.425   6.740  0.00  0.00     0.175 C 
ATOM     18  O1  ZIN A   1      18.543  -4.133   7.364  0.00  0.00    -0.648 OA
ATOM     19  O3  ZIN A   1      20.426  -3.842   6.451  0.00  0.00    -0.648 OA
ENDBRANCH  16  17
ENDBRANCH  15  16
BRANCH  15  20
ATOM     20  O7  ZIN A   1      19.828  -1.742   8.532  0.00  0.00    -0.395 OA
ATOM     21  H36 ZIN A   1      19.492  -2.637   8.675  0.00  0.00     0.210 HD
ENDBRANCH  15  20
ENDBRANCH  14  15
ENDBRANCH  13  14
BRANCH  13  22
ATOM     22  O11 ZIN A   1      19.507   1.365   8.164  0.00  0.00    -0.392 OA
ATOM     23  H39 ZIN A   1      19.580   2.297   7.916  0.00  0.00     0.210 HD
ENDBRANCH  13  22
ENDBRANCH  12  13
ENDBRANCH   1  11
BRANCH  10  24
ATOM     24  C27 ZIN A   1      18.741  -1.710  12.299  0.00  0.00    -0.024 A 
ATOM     25  C33 ZIN A   1      17.501  -2.152  11.834  0.00  0.00     0.015 A 
ATOM     26  C32 ZIN A   1      17.402  -3.372  11.199  0.00  0.00     0.043 A 
ATOM     27  C30 ZIN A   1      18.526  -4.165  11.033  0.00  0.00     0.116 A 
ATOM     28  C29 ZIN A   1      19.759  -3.732  11.497  0.00  0.00     0.043 A 
ATOM     29  F31 ZIN A   1      18.422  -5.361  10.416  0.00  0.00    -0.206 F 
ATOM     30  C28 ZIN A   1      19.871  -2.511  12.129  0.00  0.00     0.015 A 
ENDBRANCH  10  24
BRANCH   2  31
ATOM     31  C16 ZIN A   1      19.361   3.268  12.131  0.00  0.00     0.038 A 
ATOM     32  C18 ZIN A   1      19.385   4.589  12.903  0.00  0.00     0.011 A 
ATOM     33  C17 ZIN A   1      18.182   4.238  12.025  0.00  0.00     0.011 A 
ENDBRANCH   2  31
TORSDOF 10
ENDMDL
MODEL 3
REMARK VINA RESULT:      -9.0      4.146      8.261
REMARK  10 active torsions:
REMARK  status: ('A' for Active; 'I' for Inactive)
REMARK    1  A    between atoms: C2_2  and  C4_4 
REMARK    2  A    between atoms: C4_4  and  C5_5 
REMARK    3  A    between atoms: C5_5  and  O7_6 
REMARK    4  A    between atoms: C5_5  and  C8_7 
REMARK    5  A    between atoms: C8_7  and  C9_8 
REMARK    6  A    between atoms: C9_8  and  O11_9 
REMARK    7  A    between atoms: C9_8  and  C12_10 
REMARK    8  A    between atoms: C13_11  and  C14_12 
REMARK    9  A    between atoms: C15_13  and  C16_14 
REMARK   10  A    between atoms: C26_24  and  C27_25 
ROOT
ATOM      1  C14 ZIN A   1      18.719  -0.976  10.490  0.00  0.00     0.001 A 
ATOM      2  C15 ZIN A   1      18.777  -2.226   9.855  0.00  0.00     0.050 A 
ATOM      3  N19 ZIN A   1      18.902  -2.333   8.557  0.00  0.00    -0.251 NA
ATOM      4  C20 ZIN A   1      18.981  -1.260   7.760  0.00  0.00     0.068 A 
ATOM      5  C21 ZIN A   1      19.112  -1.405   6.369  0.00  0.00     0.032 A 
ATOM      6  C22 ZIN A   1      19.189  -0.300   5.577  0.00  0.00     0.002 A 
ATOM      7  C23 ZIN A   1      19.140   0.980   6.125  0.00  0.00     0.001 A 
ATOM      8  C24 ZIN A   1      19.012   1.159   7.470  0.00  0.00     0.014 A 
ATOM      9  C25 ZIN A   1      18.930   0.042   8.313  0.00  0.00     0.005 A 
ATOM     10  C26 ZIN A   1      18.789   0.190   9.715  0.00  0.00    -0.001 A 
ENDROOT
BRANCH   1  11
ATOM     11  C13 ZIN A   1      18.578  -0.890  11.956  0.00  0.00     0.013 C 
ATOM     12  C12 ZIN A   1      19.650  -0.698  12.716  0.00  0.00     0.006 C 
BRANCH  12  13
ATOM     13  C9  ZIN A   1      19.494  -0.507  14.203  0.00  0.00     0.143 C 
BRANCH  13  14
ATOM     14  C8  ZIN A   1      18.041  -0.768  14.602  0.00  0.00     0.068 C 
BRANCH  14  15
ATOM     15  C5  ZIN A   1      17.990  -1.269  16.046  0.00  0.00     0.130 C 
BRANCH  15  16
ATOM     16  C4  ZIN A   1      17.399  -0.180  16.943  0.00  0.00     0.144 C 
BRANCH  16  17
ATOM     17  C2  ZIN A   1      18.476   0.371  17.841  0.00  0.00     0.175 C 
ATOM     18  O1  ZIN A   1      19.241   1.223  17.423  0.00  0.00    -0.648 OA
ATOM     19  O3  ZIN A   1      18.580  -0.031  18.987  0.00  0.00    -0.648 OA
ENDBRANCH  16  17
ENDBRANCH  15  16
BRANCH  15  20
ATOM     20  O7  ZIN A   1      19.312  -1.585  16.487  0.00  0.00    -0.395 OA
ATOM     21  H36 ZIN A   1      19.748  -2.270  15.963  0.00  0.00     0.210 HD
ENDBRANCH  15  20
ENDBRANCH  14  15
ENDBRANCH  13  14
BRANCH  13  22
ATOM     22  O11 ZIN A   1      19.851   0.832  14.551  0.00  0.00    -0.392 OA
ATOM     23  H39 ZIN A   1      20.121   1.375  13.797  0.00  0.00     0.210 HD
ENDBRANCH  13  22
ENDBRANCH  12  13
ENDBRANCH   1  11
BRANCH  10  24
ATOM     24  C27 ZIN A   1      18.726   1.529  10.341  0.00  0.00    -0.024 A 
ATOM     25  C33 ZIN A   1      19.885   2.121  10.847  0.00  0.00     0.015 A 
ATOM     26  C32 ZIN A   1      19.821   3.371  11.423  0.00  0.00     0.043 A 
ATOM     27  C30 ZIN A   1      18.608   4.036  11.512  0.00  0.00     0.116 A 
ATOM     28  C29 ZIN A   1      17.454   3.450  11.016  0.00  0.00     0.043 A 
ATOM     29  F31 ZIN A   1      18.551   5.258  12.084  0.00  0.00    -0.206 F 
ATOM     30  C28 ZIN A   1      17.507   2.202  10.432  0.00  0.00     0.015 A 
ENDBRANCH  10  24
BRANCH   2  31
ATOM     31  C16 ZIN A   1      18.696  -3.478  10.690  0.00  0.00     0.038 A 
ATOM     32  C18 ZIN A   1      20.010  -4.085  11.185  0.00  0.00     0.011 A 
ATOM     33  C17 ZIN A   1      19.220  -4.776  10.071  0.00  0.00     0.011 A 
ENDBRANCH   2  31
TORSDOF 10
ENDMDL
MODEL 4
REMARK VINA RESULT:      -8.7      2.773      5.435
REMARK  10 active torsions:
REMARK  status: ('A' for Active; 'I' for Inactive)
REMARK    1  A    between atoms: C2_2  and  C4_4 
REMARK    2  A    between atoms: C4_4  and  C5_5 
REMARK    3  A    between atoms: C5_5  and  O7_6 
REMARK    4  A    between atoms: C5_5  and  C8_7 
REMARK    5  A    between atoms: C8_7  and  C9_8 
REMARK    6  A    between atoms: C9_8  and  O11_9 
REMARK    7  A    between atoms: C9_8  and  C12_10 
REMARK    8  A    between atoms: C13_11  and  C14_12 
REMARK    9  A    between atoms: C15_13  and  C16_14 
REMARK   10  A    between atoms: C26_24  and  C27_25 
ROOT
ATOM      1  C14 ZIN A   1      17.885  -0.033  11.044  0.00  0.00     0.001 A 
ATOM      2  C15 ZIN A   1      17.806   0.222  12.422  0.00  0.00     0.050 A 
ATOM      3  N19 ZIN A   1      17.765   1.442  12.894  0.00  0.00    -0.251 NA
ATOM      4  C20 ZIN A   1      17.796   2.515  12.093  0.00  0.00     0.068 A 
ATOM      5  C21 ZIN A   1      17.752   3.813  12.628  0.00  0.00     0.032 A 
ATOM      6  C22 ZIN A   1      17.786   4.890  11.796  0.00  0.00     0.002 A 
ATOM      7  C23 ZIN A   1      17.862   4.727  10.414  0.00  0.00     0.001 A 
ATOM      8  C24 ZIN A   1      17.908   3.483   9.860  0.00  0.00     0.014 A 
ATOM      9  C25 ZIN A   1      17.875   2.353  10.689  0.00  0.00     0.005 A 
ATOM     10  C26 ZIN A   1      17.927   1.045  10.148  0.00  0.00    -0.001 A 
ENDROOT
BRANCH   1  11
ATOM     11  C13 ZIN A   1      17.930  -1.420  10.544  0.00  0.00     0.013 C 
ATOM     12  C12 ZIN A   1      19.099  -2.029  10.379  0.00  0.00     0.006 C 
BRANCH  12  13
ATOM     13  C9  ZIN A   1      19.142  -3.479   9.968  0.00  0.00     0.143 C 
BRANCH  13  14
ATOM     14  C8  ZIN A   1      17.892  -4.193  10.486  0.00  0.00     0.068 C 
BRANCH  14  15
ATOM     15  C5  ZIN A   1      17.150  -4.837   9.313  0.00  0.00     0.130 C 
BRANCH  15  16
ATOM     16  C4  ZIN A   1      17.421  -6.342   9.303  0.00  0.00     0.144 C 
BRANCH  16  17
ATOM     17  C2  ZIN A   1      18.528  -6.647   8.328  0.00  0.00     0.175 C 
ATOM     18  O1  ZIN A   1      19.692  -6.505   8.662  0.00  0.00    -0.648 OA
ATOM     19  O3  ZIN A   1      18.260  -7.041   7.205  0.00  0.00    -0.648 OA
ENDBRANCH  16  17
ENDBRANCH  15  16
BRANCH  15  20
ATOM     20  O7  ZIN A   1      17.606  -4.262   8.087  0.00  0.00    -0.395 OA
ATOM     21  H36 ZIN A   1      17.652  -3.297   8.099  0.00  0.00     0.210 HD
ENDBRANCH  15  20
ENDBRANCH  14  15
ENDBRANCH  13  14
BRANCH  13  22
ATOM     22  O11 ZIN A   1      20.307  -4.096  10.518  0.00  0.00    -0.392 OA
ATOM     23  H39 ZIN A   1      20.721  -4.745   9.933  0.00  0.00     0.210 HD
ENDBRANCH  13  22
ENDBRANCH  12  13
ENDBRANCH   1  11
BRANCH  10  24
ATOM     24  C27 ZIN A   1      18.016   0.823   8.689  0.00  0.00    -0.024 A 
ATOM     25  C33 ZIN A   1      17.053   0.048   8.038  0.00  0.00     0.015 A 
ATOM     26  C32 ZIN A   1      17.138  -0.150   6.677  0.00  0.00     0.043 A 
ATOM     27  C30 ZIN A   1      18.181   0.407   5.955  0.00  0.00     0.116 A 
ATOM     28  C29 ZIN A   1      19.142   1.173   6.597  0.00  0.00     0.043 A 
ATOM     29  F31 ZIN A   1      18.262   0.204   4.623  0.00  0.00    -0.206 F 
ATOM     30  C28 ZIN A   1      19.064   1.382   7.958  0.00  0.00     0.015 A 
ENDBRANCH  10  24
BRANCH   2  31
ATOM     31  C16 ZIN A   1      17.767  -0.939  13.382  0.00  0.00     0.038 A 
ATOM     32  C18 ZIN A   1      17.979  -0.635  14.867  0.00  0.00     0.011 A 
ATOM     33  C17 ZIN A   1      19.078  -1.336  14.064  0.00  0.00     0.011 A 
ENDBRANCH   2  31
TORSDOF 10
ENDMDL
MODEL 5
REMARK VINA RESULT:      -8.6      2.233      4.814
REMARK  10 active torsions:
REMARK  status: ('A' for Active; 'I' for Inactive)
REMARK    1  A    between atoms: C2_2  and  C4_4 
REMARK    2  A    between atoms: C4_4  and  C5_5 
REMARK    3  A    between atoms: C5_5  and  O7_6 
REMARK    4  A    between atoms: C5_5  and  C8_7 
REMARK    5  A    between atoms: C8_7  and  C9_8 
REMARK    6  A    between atoms: C9_8  and  O11_9 
REMARK    7  A    between atoms: C9_8  and  C12_10 
REMARK    8  A    between atoms: C13_11  and  C14_12 
REMARK    9  A    between atoms: C15_13  and  C16_14 
REMARK   10  A    between atoms: C26_24  and  C27_25 
ROOT
ATOM      1  C14 ZIN A   1      18.576   0.697  12.106  0.00  0.00     0.001 A 
ATOM      2  C15 ZIN A   1      18.531   1.130  13.441  0.00  0.00     0.050 A 
ATOM      3  N19 ZIN A   1      18.148   2.340  13.758  0.00  0.00    -0.251 NA
ATOM      4  C20 ZIN A   1      17.780   3.234  12.832  0.00  0.00     0.068 A 
ATOM      5  C21 ZIN A   1      17.376   4.528  13.203  0.00  0.00     0.032 A 
ATOM      6  C22 ZIN A   1      17.005   5.422  12.245  0.00  0.00     0.002 A 
ATOM      7  C23 ZIN A   1      17.020   5.075  10.895  0.00  0.00     0.001 A 
ATOM      8  C24 ZIN A   1      17.407   3.830  10.499  0.00  0.00     0.014 A 
ATOM      9  C25 ZIN A   1      17.794   2.886  11.460  0.00  0.00     0.005 A 
ATOM     10  C26 ZIN A   1      18.209   1.584  11.085  0.00  0.00    -0.001 A 
ENDROOT
BRANCH   1  11
ATOM     11  C13 ZIN A   1      19.012  -0.674  11.781  0.00  0.00     0.013 C 
ATOM     12  C12 ZIN A   1      18.144  -1.678  11.836  0.00  0.00     0.006 C 
BRANCH  12  13
ATOM     13  C9  ZIN A   1      18.562  -3.060  11.405  0.00  0.00     0.143 C 
BRANCH  13  14
ATOM     14  C8  ZIN A   1      19.147  -2.999   9.993  0.00  0.00     0.068 C 
BRANCH  14  15
ATOM     15  C5  ZIN A   1      18.511  -4.090   9.130  0.00  0.00     0.130 C 
BRANCH  15  16
ATOM     16  C4  ZIN A   1      19.578  -4.712   8.227  0.00  0.00     0.144 C 
BRANCH  16  17
ATOM     17  C2  ZIN A   1      19.439  -4.159   6.832  0.00  0.00     0.175 C 
ATOM     18  O1  ZIN A   1      18.768  -4.752   6.005  0.00  0.00    -0.648 OA
ATOM     19  O3  ZIN A   1      19.994  -3.115   6.531  0.00  0.00    -0.648 OA
ENDBRANCH  16  17
ENDBRANCH  15  16
BRANCH  15  20
ATOM     20  O7  ZIN A   1      17.478  -3.520   8.325  0.00  0.00    -0.395 OA
ATOM     21  H36 ZIN A   1      17.748  -2.726   7.844  0.00  0.00     0.210 HD
ENDBRANCH  15  20
ENDBRANCH  14  15
ENDBRANCH  13  14
BRANCH  13  22
ATOM     22  O11 ZIN A   1      17.426  -3.926  11.414  0.00  0.00    -0.392 OA
ATOM     23  H39 ZIN A   1      16.838  -3.811  10.654  0.00  0.00     0.210 HD
ENDBRANCH  13  22
ENDBRANCH  12  13
ENDBRANCH   1  11
BRANCH  10  24
ATOM     24  C27 ZIN A   1      18.247   1.173   9.665  0.00  0.00    -0.024 A 
ATOM     25  C33 ZIN A   1      17.257   0.331   9.153  0.00  0.00     0.015 A 
ATOM     26  C32 ZIN A   1      17.294  -0.044   7.827  0.00  0.00     0.043 A 
ATOM     27  C30 ZIN A   1      18.316   0.403   7.005  0.00  0.00     0.116 A 
ATOM     28  C29 ZIN A   1      19.304   1.235   7.510  0.00  0.00     0.043 A 
ATOM     29  F31 ZIN A   1      18.351   0.027   5.709  0.00  0.00    -0.206 F 
ATOM     30  C28 ZIN A   1      19.274   1.621   8.833  0.00  0.00     0.015 A 
ENDBRANCH  10  24
BRANCH   2  31
ATOM     31  C16 ZIN A   1      18.932   0.175  14.536  0.00  0.00     0.038 A 
ATOM     32  C18 ZIN A   1      17.816  -0.422  15.397  0.00  0.00     0.011 A 
ATOM     33  C17 ZIN A   1      18.748   0.642  15.982  0.00  0.00     0.011 A 
ENDBRANCH   2  31
TORSDOF 10
ENDMDL
MODEL 6
REMARK VINA RESULT:      -8.6      3.798      7.276
REMARK  10 active torsions:
REMARK  status: ('A' for Active; 'I' for Inactive)
REMARK    1  A    between atoms: C2_2  and  C4_4 
REMARK    2  A    between atoms: C4_4  and  C5_5 
REMARK    3  A    between atoms: C5_5  and  O7_6 
REMARK    4  A    between atoms: C5_5  and  C8_7 
REMARK    5  A    between atoms: C8_7  and  C9_8 
REMARK    6  A    between atoms: C9_8  and  O11_9 
REMARK    7  A    between atoms: C9_8  and  C12_10 
REMARK    8  A    between atoms: C13_11  and  C14_12 
REMARK    9  A    between atoms: C15_13  and  C16_14 
REMARK   10  A    between atoms: C26_24  and  C27_25 
ROOT
ATOM      1  C14 ZIN A   1      19.052   0.636  11.861  0.00  0.00     0.001 A 
ATOM      2  C15 ZIN A   1      19.216   1.993  11.540  0.00  0.00     0.050 A 
ATOM      3  N19 ZIN A   1      19.229   2.409  10.300  0.00  0.00    -0.251 NA
ATOM      4  C20 ZIN A   1      19.089   1.569   9.267  0.00  0.00     0.068 A 
ATOM      5  C21 ZIN A   1      19.109   2.045   7.945  0.00  0.00     0.032 A 
ATOM      6  C22 ZIN A   1      18.966   1.173   6.909  0.00  0.00     0.002 A 
ATOM      7  C23 ZIN A   1      18.798  -0.191   7.137  0.00  0.00     0.001 A 
ATOM      8  C24 ZIN A   1      18.774  -0.689   8.406  0.00  0.00     0.014 A 
ATOM      9  C25 ZIN A   1      18.919   0.182   9.495  0.00  0.00     0.005 A 
ATOM     10  C26 ZIN A   1      18.906  -0.300  10.827  0.00  0.00    -0.001 A 
ENDROOT
BRANCH   1  11
ATOM     11  C13 ZIN A   1      19.042   0.198  13.269  0.00  0.00     0.013 C 
ATOM     12  C12 ZIN A   1      17.889   0.065  13.915  0.00  0.00     0.006 C 
BRANCH  12  13
ATOM     13  C9  ZIN A   1      17.871  -0.481  15.320  0.00  0.00     0.143 C 
BRANCH  13  14
ATOM     14  C8  ZIN A   1      18.230   0.634  16.304  0.00  0.00     0.068 C 
BRANCH  14  15
ATOM     15  C5  ZIN A   1      18.210   0.080  17.730  0.00  0.00     0.130 C 
BRANCH  15  16
ATOM     16  C4  ZIN A   1      17.699   1.157  18.689  0.00  0.00     0.144 C 
BRANCH  16  17
ATOM     17  C2  ZIN A   1      18.562   2.386  18.568  0.00  0.00     0.175 C 
ATOM     18  O1  ZIN A   1      19.759   2.315  18.789  0.00  0.00    -0.648 OA
ATOM     19  O3  ZIN A   1      18.065   3.452  18.244  0.00  0.00    -0.648 OA
ENDBRANCH  16  17
ENDBRANCH  15  16
BRANCH  15  20
ATOM     20  O7  ZIN A   1      19.531  -0.308  18.109  0.00  0.00    -0.395 OA
ATOM     21  H36 ZIN A   1      19.902  -1.020  17.570  0.00  0.00     0.210 HD
ENDBRANCH  15  20
ENDBRANCH  14  15
ENDBRANCH  13  14
BRANCH  13  22
ATOM     22  O11 ZIN A   1      18.821  -1.541  15.431  0.00  0.00    -0.392 OA
ATOM     23  H39 ZIN A   1      18.719  -2.233  14.763  0.00  0.00     0.210 HD
ENDBRANCH  13  22
ENDBRANCH  12  13
ENDBRANCH   1  11
BRANCH  10  24
ATOM     24  C27 ZIN A   1      18.737  -1.740  11.118  0.00  0.00    -0.024 A 
ATOM     25  C33 ZIN A   1      17.457  -2.291  11.205  0.00  0.00     0.015 A 
ATOM     26  C32 ZIN A   1      17.305  -3.635  11.470  0.00  0.00     0.043 A 
ATOM     27  C30 ZIN A   1      18.419  -4.437  11.662  0.00  0.00     0.116 A 
ATOM     28  C29 ZIN A   1      19.693  -3.894  11.581  0.00  0.00     0.043 A 
ATOM     29  F31 ZIN A   1      18.265  -5.752  11.927  0.00  0.00    -0.206 F 
ATOM     30  C28 ZIN A   1      19.855  -2.551  11.310  0.00  0.00     0.015 A 
ENDBRANCH  10  24
BRANCH   2  31
ATOM     31  C16 ZIN A   1      19.379   2.995  12.654  0.00  0.00     0.038 A 
ATOM     32  C18 ZIN A   1      18.167   3.859  13.010  0.00  0.00     0.011 A 
ATOM     33  C17 ZIN A   1      19.359   4.478  12.277  0.00  0.00     0.011 A 
ENDBRANCH   2  31
TORSDOF 10
ENDMDL
MODEL 7
REMARK VINA RESULT:      -8.3      3.539      6.786
REMARK  10 active torsions:
REMARK  status: ('A' for Active; 'I' for Inactive)
REMARK    1  A    between atoms: C2_2  and  C4_4 
REMARK    2  A    between atoms: C4_4  and  C5_5 
REMARK    3  A    between atoms: C5_5  and  O7_6 
REMARK    4  A    between atoms: C5_5  and  C8_7 
REMARK    5  A    between atoms: C8_7  and  C9_8 
REMARK    6  A    between atoms: C9_8  and  O11_9 
REMARK    7  A    between atoms: C9_8  and  C12_10 
REMARK    8  A    between atoms: C13_11  and  C14_12 
REMARK    9  A    between atoms: C15_13  and  C16_14 
REMARK   10  A    between atoms: C26_24  and  C27_25 
ROOT
ATOM      1  C14 ZIN A   1      18.201  -0.105   9.824  0.00  0.00     0.001 A 
ATOM      2  C15 ZIN A   1      18.074  -0.538   8.494  0.00  0.00     0.050 A 
ATOM      3  N19 ZIN A   1      18.309  -1.778   8.150  0.00  0.00    -0.251 NA
ATOM      4  C20 ZIN A   1      18.683  -2.704   9.042  0.00  0.00     0.068 A 
ATOM      5  C21 ZIN A   1      18.931  -4.028   8.642  0.00  0.00     0.032 A 
ATOM      6  C22 ZIN A   1      19.311  -4.954   9.565  0.00  0.00     0.002 A 
ATOM      7  C23 ZIN A   1      19.460  -4.610  10.907  0.00  0.00     0.001 A 
ATOM      8  C24 ZIN A   1      19.230  -3.336  11.331  0.00  0.00     0.014 A 
ATOM      9  C25 ZIN A   1      18.837  -2.358  10.405  0.00  0.00     0.005 A 
ATOM     10  C26 ZIN A   1      18.595  -1.022  10.808  0.00  0.00    -0.001 A 
ENDROOT
BRANCH   1  11
ATOM     11  C13 ZIN A   1      17.929   1.300  10.179  0.00  0.00     0.013 C 
ATOM     12  C12 ZIN A   1      18.930   2.168  10.269  0.00  0.00     0.006 C 
BRANCH  12  13
ATOM     13  C9  ZIN A   1      18.643   3.625  10.530  0.00  0.00     0.143 C 
BRANCH  13  14
ATOM     14  C8  ZIN A   1      17.817   3.760  11.811  0.00  0.00     0.068 C 
BRANCH  14  15
ATOM     15  C5  ZIN A   1      18.697   3.442  13.021  0.00  0.00     0.130 C 
BRANCH  15  16
ATOM     16  C4  ZIN A   1      17.892   3.649  14.305  0.00  0.00     0.144 C 
BRANCH  16  17
ATOM     17  C2  ZIN A   1      18.373   4.894  15.004  0.00  0.00     0.175 C 
ATOM     18  O1  ZIN A   1      19.177   4.809  15.917  0.00  0.00    -0.648 OA
ATOM     19  O3  ZIN A   1      17.963   5.988  14.653  0.00  0.00    -0.648 OA
ENDBRANCH  16  17
ENDBRANCH  15  16
BRANCH  15  20
ATOM     20  O7  ZIN A   1      19.833   4.308  13.025  0.00  0.00    -0.395 OA
ATOM     21  H36 ZIN A   1      20.675   3.851  13.156  0.00  0.00     0.210 HD
ENDBRANCH  15  20
ENDBRANCH  14  15
ENDBRANCH  13  14
BRANCH  13  22
ATOM     22  O11 ZIN A   1      17.912   4.171   9.431  0.00  0.00    -0.392 OA
ATOM     23  H39 ZIN A   1      16.957   4.216   9.578  0.00  0.00     0.210 HD
ENDBRANCH  13  22
ENDBRANCH  12  13
ENDBRANCH   1  11
BRANCH  10  24
ATOM     24  C27 ZIN A   1      18.746  -0.609  12.220  0.00  0.00    -0.024 A 
ATOM     25  C33 ZIN A   1      19.984  -0.164  12.690  0.00  0.00     0.015 A 
ATOM     26  C32 ZIN A   1      20.118   0.226  14.006  0.00  0.00     0.043 A 
ATOM     27  C30 ZIN A   1      19.032   0.165  14.865  0.00  0.00     0.116 A 
ATOM     28  C29 ZIN A   1      17.802  -0.281  14.404  0.00  0.00     0.043 A 
ATOM     29  F31 ZIN A   1      19.171   0.542  16.154  0.00  0.00    -0.206 F 
ATOM     30  C28 ZIN A   1      17.656  -0.668  13.088  0.00  0.00     0.015 A 
ENDBRANCH  10  24
BRANCH   2  31
ATOM     31  C16 ZIN A   1      17.656   0.451   7.437  0.00  0.00     0.038 A 
ATOM     32  C18 ZIN A   1      17.539  -0.058   5.999  0.00  0.00     0.011 A 
ATOM     33  C17 ZIN A   1      18.701   0.856   6.395  0.00  0.00     0.011 A 
ENDBRANCH   2  31
TORSDOF 10
ENDMDL
MODEL 8
REMARK VINA RESULT:      -8.0      2.378      4.612
REMARK  10 active torsions:
REMARK  status: ('A' for Active; 'I' for Inactive)
REMARK    1  A    between atoms: C2_2  and  C4_4 
REMARK    2  A    between atoms: C4_4  and  C5_5 
REMARK    3  A    between atoms: C5_5  and  O7_6 
REMARK    4  A    between atoms: C5_5  and  C8_7 
REMARK    5  A    between atoms: C8_7  and  C9_8 
REMARK    6  A    between atoms: C9_8  and  O11_9 
REMARK    7  A    between atoms: C9_8  and  C12_10 
REMARK    8  A    between atoms: C13_11  and  C14_12 
REMARK    9  A    between atoms: C15_13  and  C16_14 
REMARK   10  A    between atoms: C26_24  and  C27_25 
ROOT
ATOM      1  C14 ZIN A   1      18.593   0.133  10.497  0.00  0.00     0.001 A 
ATOM      2  C15 ZIN A   1      18.460   0.787   9.262  0.00  0.00     0.050 A 
ATOM      3  N19 ZIN A   1      18.218   2.071   9.187  0.00  0.00    -0.251 NA
ATOM      4  C20 ZIN A   1      18.083   2.833  10.279  0.00  0.00     0.068 A 
ATOM      5  C21 ZIN A   1      17.821   4.209  10.167  0.00  0.00     0.032 A 
ATOM      6  C22 ZIN A   1      17.686   4.966  11.291  0.00  0.00     0.002 A 
ATOM      7  C23 ZIN A   1      17.804   4.398  12.557  0.00  0.00     0.001 A 
ATOM      8  C24 ZIN A   1      18.056   3.067  12.704  0.00  0.00     0.014 A 
ATOM      9  C25 ZIN A   1      18.201   2.259  11.567  0.00  0.00     0.005 A 
ATOM     10  C26 ZIN A   1      18.457   0.870  11.682  0.00  0.00    -0.001 A 
ENDROOT
BRANCH   1  11
ATOM     11  C13 ZIN A   1      18.865  -1.316  10.548  0.00  0.00     0.013 C 
ATOM     12  C12 ZIN A   1      17.865  -2.175  10.708  0.00  0.00     0.006 C 
BRANCH  12  13
ATOM     13  C9  ZIN A   1      18.129  -3.658  10.656  0.00  0.00     0.143 C 
BRANCH  13  14
ATOM     14  C8  ZIN A   1      19.127  -3.959   9.536  0.00  0.00     0.068 C 
BRANCH  14  15
ATOM     15  C5  ZIN A   1      18.385  -4.563   8.341  0.00  0.00     0.130 C 
BRANCH  15  16
ATOM     16  C4  ZIN A   1      19.395  -4.974   7.269  0.00  0.00     0.144 C 
BRANCH  16  17
ATOM     17  C2  ZIN A   1      19.321  -4.011   6.113  0.00  0.00     0.175 C 
ATOM     18  O1  ZIN A   1      18.610  -4.262   5.154  0.00  0.00    -0.648 OA
ATOM     19  O3  ZIN A   1      19.968  -2.977   6.138  0.00  0.00    -0.648 OA
ENDBRANCH  16  17
ENDBRANCH  15  16
BRANCH  15  20
ATOM     20  O7  ZIN A   1      17.484  -3.595   7.801  0.00  0.00    -0.395 OA
ATOM     21  H36 ZIN A   1      16.551  -3.819   7.917  0.00  0.00     0.210 HD
ENDBRANCH  15  20
ENDBRANCH  14  15
ENDBRANCH  13  14
BRANCH  13  22
ATOM     22  O11 ZIN A   1      16.906  -4.352  10.406  0.00  0.00    -0.392 OA
ATOM     23  H39 ZIN A   1      16.874  -4.794   9.546  0.00  0.00     0.210 HD
ENDBRANCH  13  22
ENDBRANCH  12  13
ENDBRANCH   1  11
BRANCH  10  24
ATOM     24  C27 ZIN A   1      18.583   0.222  13.005  0.00  0.00    -0.024 A 
ATOM     25  C33 ZIN A   1      19.828  -0.230  13.447  0.00  0.00     0.015 A 
ATOM     26  C32 ZIN A   1      19.941  -0.828  14.684  0.00  0.00     0.043 A 
ATOM     27  C30 ZIN A   1      18.820  -0.993  15.483  0.00  0.00     0.116 A 
ATOM     28  C29 ZIN A   1      17.581  -0.551  15.046  0.00  0.00     0.043 A 
ATOM     29  F31 ZIN A   1      18.936  -1.585  16.691  0.00  0.00    -0.206 F 
ATOM     30  C28 ZIN A   1      17.458   0.054  13.813  0.00  0.00     0.015 A 
ENDBRANCH  10  24
BRANCH   2  31
ATOM     31  C16 ZIN A   1      18.601  -0.010   7.991  0.00  0.00     0.038 A 
ATOM     32  C18 ZIN A   1      18.582   0.760   6.668  0.00  0.00     0.011 A 
ATOM     33  C17 ZIN A   1      17.381  -0.097   7.073  0.00  0.00     0.011 A 
ENDBRANCH   2  31
TORSDOF 10
ENDMDL
MODEL 9
REMARK VINA RESULT:      -8.0      1.904      3.059
REMARK  10 active torsions:
REMARK  status: ('A' for Active; 'I' for Inactive)
REMARK    1  A    between atoms: C2_2  and  C4_4 
REMARK    2  A    between atoms: C4_4  and  C5_5 
REMARK    3  A    between atoms: C5_5  and  O7_6 
REMARK    4  A    between atoms: C5_5  and  C8_7 
REMARK    5  A    between atoms: C8_7  and  C9_8 
REMARK    6  A    between atoms: C9_8  and  O11_9 
REMARK    7  A    between atoms: C9_8  and  C12_10 
REMARK    8  A    between atoms: C13_11  and  C14_12 
REMARK    9  A    between atoms: C15_13  and  C16_14 
REMARK   10  A    between atoms: C26_24  and  C27_25 
ROOT
ATOM      1  C14 ZIN A   1      18.919   2.238  14.047  0.00  0.00     0.001 A 
ATOM      2  C15 ZIN A   1      18.996   3.199  15.067  0.00  0.00     0.050 A 
ATOM      3  N19 ZIN A   1      19.060   2.858  16.329  0.00  0.00    -0.251 NA
ATOM      4  C20 ZIN A   1      19.056   1.578  16.720  0.00  0.00     0.068 A 
ATOM      5  C21 ZIN A   1      19.124   1.242  18.082  0.00  0.00     0.032 A 
ATOM      6  C22 ZIN A   1      19.118  -0.067  18.458  0.00  0.00     0.002 A 
ATOM      7  C23 ZIN A   1      19.045  -1.085  17.510  0.00  0.00     0.001 A 
ATOM      8  C24 ZIN A   1      18.976  -0.797  16.180  0.00  0.00     0.014 A 
ATOM      9  C25 ZIN A   1      18.981   0.541  15.760  0.00  0.00     0.005 A 
ATOM     10  C26 ZIN A   1      18.904   0.878  14.386  0.00  0.00    -0.001 A 
ENDROOT
BRANCH   1  11
ATOM     11  C13 ZIN A   1      18.847   2.655  12.633  0.00  0.00     0.013 C 
ATOM     12  C12 ZIN A   1      17.690   2.602  11.983  0.00  0.00     0.006 C 
BRANCH  12  13
ATOM     13  C9  ZIN A   1      17.594   3.124  10.573  0.00  0.00     0.143 C 
BRANCH  13  14
ATOM     14  C8  ZIN A   1      17.759   1.966   9.588  0.00  0.00     0.068 C 
BRANCH  14  15
ATOM     15  C5  ZIN A   1      19.136   2.050   8.927  0.00  0.00     0.130 C 
BRANCH  15  16
ATOM     16  C4  ZIN A   1      19.070   1.433   7.529  0.00  0.00     0.144 C 
BRANCH  16  17
ATOM     17  C2  ZIN A   1      18.725  -0.029   7.642  0.00  0.00     0.175 C 
ATOM     18  O1  ZIN A   1      17.665  -0.442   7.204  0.00  0.00    -0.648 OA
ATOM     19  O3  ZIN A   1      19.509  -0.802   8.168  0.00  0.00    -0.648 OA
ENDBRANCH  16  17
ENDBRANCH  15  16
BRANCH  15  20
ATOM     20  O7  ZIN A   1      20.089   1.339   9.718  0.00  0.00    -0.395 OA
ATOM     21  H36 ZIN A   1      20.943   1.784   9.799  0.00  0.00     0.210 HD
ENDBRANCH  15  20
ENDBRANCH  14  15
ENDBRANCH  13  14
BRANCH  13  22
ATOM     22  O11 ZIN A   1      18.623   4.090  10.351  0.00  0.00    -0.392 OA
ATOM     23  H39 ZIN A   1      18.526   4.895  10.878  0.00  0.00     0.210 HD
ENDBRANCH  13  22
ENDBRANCH  12  13
ENDBRANCH   1  11
BRANCH  10  24
ATOM     24  C27 ZIN A   1      18.818  -0.169  13.345  0.00  0.00    -0.024 A 
ATOM     25  C33 ZIN A   1      17.580  -0.722  13.008  0.00  0.00     0.015 A 
ATOM     26  C32 ZIN A   1      17.505  -1.693  12.033  0.00  0.00     0.043 A 
ATOM     27  C30 ZIN A   1      18.655  -2.129  11.394  0.00  0.00     0.116 A 
ATOM     28  C29 ZIN A   1      19.887  -1.587  11.728  0.00  0.00     0.043 A 
ATOM     29  F31 ZIN A   1      18.577  -3.085  10.444  0.00  0.00    -0.206 F 
ATOM     30  C28 ZIN A   1      19.973  -0.611  12.699  0.00  0.00     0.015 A 
ENDBRANCH  10  24
BRANCH   2  31
ATOM     31  C16 ZIN A   1      19.006   4.661  14.699  0.00  0.00     0.038 A 
ATOM     32  C18 ZIN A   1      18.940   5.677  15.841  0.00  0.00     0.011 A 
ATOM     33  C17 ZIN A   1      17.722   5.458  14.940  0.00  0.00     0.011 A 
ENDBRANCH   2  31
TORSDOF 10
ENDMDL
