MODEL 1
REMARK VINA RESULT:      -6.1      0.000      0.000
REMARK  4 active torsions:
REMARK  status: ('A' for Active; 'I' for Inactive)
REMARK    1  A    between atoms: N1_1  and  C5_5 
REMARK    2  A    between atoms: C5_5  and  C7_6 
REMARK    3  A    between atoms: C5_5  and  C17_16 
REMARK    4  A    between atoms: C7_6  and  C8_7 
ROOT
ATOM      1  C8  <0> d   1      19.187   0.902  13.668  0.00  0.00    -0.028 A 
ATOM      2  C9  <0> d   1      20.092   0.011  13.233  0.00  0.00     0.096 A 
ATOM      3  N10 <0> d   1      20.044  -1.118  14.004  0.00  0.00    -0.365 N 
ATOM      4  C11 <0> d   1      19.082  -0.978  14.979  0.00  0.00     0.042 A 
ATOM      5  C12 <0> d   1      18.630  -1.803  16.004  0.00  0.00     0.030 A 
ATOM      6  C13 <0> d   1      17.624  -1.368  16.840  0.00  0.00     0.002 A 
ATOM      7  C14 <0> d   1      17.057  -0.112  16.670  0.00  0.00     0.001 A 
ATOM      8  C15 <0> d   1      17.486   0.714  15.670  0.00  0.00     0.014 A 
ATOM      9  C16 <0> d   1      18.507   0.296  14.816  0.00  0.00    -0.002 A 
ATOM     10  H23 <0> d   1      20.603  -1.901  13.882  0.00  0.00     0.165 HD
ENDROOT
BRANCH   1  11
ATOM     11  C7  <0> d   1      18.925   2.268  13.090  0.00  0.00     0.085 C 
BRANCH  11  12
ATOM     12  C5  <0> d   1      19.433   2.317  11.647  0.00  0.00     0.287 C 
BRANCH  12  13
ATOM     13  N1  <0> d   1      20.592   3.215  11.567  0.00  0.00    -0.065 N 
ATOM     14  H2  <0> d   1      20.331   4.060  11.081  0.00  0.00     0.275 HD
ATOM     15  H3  <0> d   1      21.340   2.757  11.067  0.00  0.00     0.275 HD
ATOM     16  H4  <0> d   1      20.904   3.446  12.499  0.00  0.00     0.275 HD
ENDBRANCH  12  13
BRANCH  12  17
ATOM     17  C17 <0> d   1      18.339   2.829  10.746  0.00  0.00     0.204 C 
ATOM     18  O18 <0> d   1      18.610   3.240   9.631  0.00  0.00    -0.646 OA
ATOM     19  O19 <0> d   1      17.183   2.833  11.132  0.00  0.00    -0.646 OA
ENDBRANCH  12  17
ENDBRANCH  11  12
ENDBRANCH   1  11
TORSDOF 4
ENDMDL
MODEL 2
REMARK VINA RESULT:      -6.1      6.707      8.701
REMARK  4 active torsions:
REMARK  status: ('A' for Active; 'I' for Inactive)
REMARK    1  A    between atoms: N1_1  and  C5_5 
REMARK    2  A    between atoms: C5_5  and  C7_6 
REMARK    3  A    between atoms: C5_5  and  C17_16 
REMARK    4  A    between atoms: C7_6  and  C8_7 
ROOT
ATOM      1  C8  <0> d   1      18.411  -0.697   5.294  0.00  0.00    -0.028 A 
ATOM      2  C9  <0> d   1      19.250   0.147   4.673  0.00  0.00     0.096 A 
ATOM      3  N10 <0> d   1      19.618   1.151   5.525  0.00  0.00    -0.365 N 
ATOM      4  C11 <0> d   1      19.009   0.974   6.747  0.00  0.00     0.042 A 
ATOM      5  C12 <0> d   1      19.036   1.686   7.943  0.00  0.00     0.030 A 
ATOM      6  C13 <0> d   1      18.299   1.242   9.020  0.00  0.00     0.002 A 
ATOM      7  C14 <0> d   1      17.528   0.092   8.924  0.00  0.00     0.001 A 
ATOM      8  C15 <0> d   1      17.488  -0.622   7.760  0.00  0.00     0.014 A 
ATOM      9  C16 <0> d   1      18.221  -0.188   6.655  0.00  0.00    -0.002 A 
ATOM     10  H23 <0> d   1      20.218   1.879   5.302  0.00  0.00     0.165 HD
ENDROOT
BRANCH   1  11
ATOM     11  C7  <0> d   1      17.779  -1.931   4.703  0.00  0.00     0.085 C 
BRANCH  11  12
ATOM     12  C5  <0> d   1      18.854  -2.998   4.481  0.00  0.00     0.287 C 
BRANCH  12  13
ATOM     13  N1  <0> d   1      18.379  -3.971   3.490  0.00  0.00    -0.065 N 
ATOM     14  H2  <0> d   1      19.170  -4.405   3.037  0.00  0.00     0.275 HD
ATOM     15  H3  <0> d   1      17.814  -3.501   2.799  0.00  0.00     0.275 HD
ATOM     16  H4  <0> d   1      17.827  -4.679   3.951  0.00  0.00     0.275 HD
ENDBRANCH  12  13
BRANCH  12  17
ATOM     17  C17 <0> d   1      19.138  -3.703   5.782  0.00  0.00     0.204 C 
ATOM     18  O18 <0> d   1      18.262  -4.357   6.324  0.00  0.00    -0.646 OA
ATOM     19  O19 <0> d   1      20.241  -3.621   6.293  0.00  0.00    -0.646 OA
ENDBRANCH  12  17
ENDBRANCH  11  12
ENDBRANCH   1  11
TORSDOF 4
ENDMDL
MODEL 3
REMARK VINA RESULT:      -6.1      3.724      6.541
REMARK  4 active torsions:
REMARK  status: ('A' for Active; 'I' for Inactive)
REMARK    1  A    between atoms: N1_1  and  C5_5 
REMARK    2  A    between atoms: C5_5  and  C7_6 
REMARK    3  A    between atoms: C5_5  and  C17_16 
REMARK    4  A    between atoms: C7_6  and  C8_7 
ROOT
ATOM      1  C8  <0> d   1      19.197   0.818  10.128  0.00  0.00    -0.028 A 
ATOM      2  C9  <0> d   1      19.096   2.154  10.033  0.00  0.00     0.096 A 
ATOM      3  N10 <0> d   1      18.987   2.522   8.721  0.00  0.00    -0.365 N 
ATOM      4  C11 <0> d   1      19.015   1.405   7.917  0.00  0.00     0.042 A 
ATOM      5  C12 <0> d   1      18.942   1.213   6.541  0.00  0.00     0.030 A 
ATOM      6  C13 <0> d   1      18.999  -0.063   6.024  0.00  0.00     0.002 A 
ATOM      7  C14 <0> d   1      19.130  -1.161   6.863  0.00  0.00     0.001 A 
ATOM      8  C15 <0> d   1      19.204  -0.996   8.217  0.00  0.00     0.014 A 
ATOM      9  C16 <0> d   1      19.154   0.288   8.762  0.00  0.00    -0.002 A 
ATOM     10  H23 <0> d   1      18.902   3.435   8.403  0.00  0.00     0.165 HD
ENDROOT
BRANCH   1  11
ATOM     11  C7  <0> d   1      19.333   0.016  11.396  0.00  0.00     0.085 C 
BRANCH  11  12
ATOM     12  C5  <0> d   1      20.164   0.805  12.411  0.00  0.00     0.287 C 
BRANCH  12  13
ATOM     13  N1  <0> d   1      21.592   0.576  12.158  0.00  0.00    -0.065 N 
ATOM     14  H2  <0> d   1      21.915  -0.193  12.725  0.00  0.00     0.275 HD
ATOM     15  H3  <0> d   1      22.113   1.408  12.392  0.00  0.00     0.275 HD
ATOM     16  H4  <0> d   1      21.730   0.357  11.183  0.00  0.00     0.275 HD
ENDBRANCH  12  13
BRANCH  12  17
ATOM     17  C17 <0> d   1      19.821   0.346  13.805  0.00  0.00     0.204 C 
ATOM     18  O18 <0> d   1      19.828  -0.843  14.073  0.00  0.00    -0.646 OA
ATOM     19  O19 <0> d   1      19.536   1.163  14.664  0.00  0.00    -0.646 OA
ENDBRANCH  12  17
ENDBRANCH  11  12
ENDBRANCH   1  11
TORSDOF 4
ENDMDL
MODEL 4
REMARK VINA RESULT:      -6.1      4.844      6.623
REMARK  4 active torsions:
REMARK  status: ('A' for Active; 'I' for Inactive)
REMARK    1  A    between atoms: N1_1  and  C5_5 
REMARK    2  A    between atoms: C5_5  and  C7_6 
REMARK    3  A    between atoms: C5_5  and  C17_16 
REMARK    4  A    between atoms: C7_6  and  C8_7 
ROOT
ATOM      1  C8  <0> d   1      18.625  -0.998   8.708  0.00  0.00    -0.028 A 
ATOM      2  C9  <0> d   1      17.953  -1.680   9.649  0.00  0.00     0.096 A 
ATOM      3  N10 <0> d   1      17.474  -0.819  10.597  0.00  0.00    -0.365 N 
ATOM      4  C11 <0> d   1      17.833   0.472  10.282  0.00  0.00     0.042 A 
ATOM      5  C12 <0> d   1      17.611   1.704  10.889  0.00  0.00     0.030 A 
ATOM      6  C13 <0> d   1      18.113   2.851  10.314  0.00  0.00     0.002 A 
ATOM      7  C14 <0> d   1      18.840   2.791   9.133  0.00  0.00     0.001 A 
ATOM      8  C15 <0> d   1      19.069   1.592   8.519  0.00  0.00     0.014 A 
ATOM      9  C16 <0> d   1      18.576   0.417   9.088  0.00  0.00    -0.002 A 
ATOM     10  H23 <0> d   1      16.957  -1.078  11.375  0.00  0.00     0.165 HD
ENDROOT
BRANCH   1  11
ATOM     11  C7  <0> d   1      19.305  -1.576   7.494  0.00  0.00     0.085 C 
BRANCH  11  12
ATOM     12  C5  <0> d   1      18.440  -1.325   6.257  0.00  0.00     0.287 C 
BRANCH  12  13
ATOM     13  N1  <0> d   1      17.863  -2.595   5.797  0.00  0.00    -0.065 N 
ATOM     14  H2  <0> d   1      16.960  -2.731   6.227  0.00  0.00     0.275 HD
ATOM     15  H3  <0> d   1      18.475  -3.356   6.055  0.00  0.00     0.275 HD
ATOM     16  H4  <0> d   1      17.758  -2.574   4.794  0.00  0.00     0.275 HD
ENDBRANCH  12  13
BRANCH  12  17
ATOM     17  C17 <0> d   1      19.290  -0.735   5.161  0.00  0.00     0.204 C 
ATOM     18  O18 <0> d   1      19.448   0.473   5.097  0.00  0.00    -0.646 OA
ATOM     19  O19 <0> d   1      19.818  -1.463   4.339  0.00  0.00    -0.646 OA
ENDBRANCH  12  17
ENDBRANCH  11  12
ENDBRANCH   1  11
TORSDOF 4
ENDMDL
MODEL 5
REMARK VINA RESULT:      -6.0      4.575      7.320
REMARK  4 active torsions:
REMARK  status: ('A' for Active; 'I' for Inactive)
REMARK    1  A    between atoms: N1_1  and  C5_5 
REMARK    2  A    between atoms: C5_5  and  C7_6 
REMARK    3  A    between atoms: C5_5  and  C17_16 
REMARK    4  A    between atoms: C7_6  and  C8_7 
ROOT
ATOM      1  C8  <0> d   1      18.429   1.007   8.228  0.00  0.00    -0.028 A 
ATOM      2  C9  <0> d   1      17.539   0.208   8.839  0.00  0.00     0.096 A 
ATOM      3  N10 <0> d   1      17.103  -0.755   7.971  0.00  0.00    -0.365 N 
ATOM      4  C11 <0> d   1      17.717  -0.597   6.749  0.00  0.00     0.042 A 
ATOM      5  C12 <0> d   1      17.640  -1.285   5.543  0.00  0.00     0.030 A 
ATOM      6  C13 <0> d   1      18.401  -0.872   4.470  0.00  0.00     0.002 A 
ATOM      7  C14 <0> d   1      19.245   0.224   4.581  0.00  0.00     0.001 A 
ATOM      8  C15 <0> d   1      19.336   0.914   5.757  0.00  0.00     0.014 A 
ATOM      9  C16 <0> d   1      18.570   0.518   6.854  0.00  0.00    -0.002 A 
ATOM     10  H23 <0> d   1      16.458  -1.447   8.185  0.00  0.00     0.165 HD
ENDROOT
BRANCH   1  11
ATOM     11  C7  <0> d   1      19.142   2.185   8.837  0.00  0.00     0.085 C 
BRANCH  11  12
ATOM     12  C5  <0> d   1      18.541   2.491  10.211  0.00  0.00     0.287 C 
BRANCH  12  13
ATOM     13  N1  <0> d   1      17.957   3.839  10.201  0.00  0.00    -0.065 N 
ATOM     14  H2  <0> d   1      17.867   4.174  11.148  0.00  0.00     0.275 HD
ATOM     15  H3  <0> d   1      17.047   3.808   9.767  0.00  0.00     0.275 HD
ATOM     16  H4  <0> d   1      18.557   4.461   9.680  0.00  0.00     0.275 HD
ENDBRANCH  12  13
BRANCH  12  17
ATOM     17  C17 <0> d   1      19.622   2.420  11.259  0.00  0.00     0.204 C 
ATOM     18  O18 <0> d   1      19.895   1.352  11.780  0.00  0.00    -0.646 OA
ATOM     19  O19 <0> d   1      20.222   3.429  11.587  0.00  0.00    -0.646 OA
ENDBRANCH  12  17
ENDBRANCH  11  12
ENDBRANCH   1  11
TORSDOF 4
ENDMDL
MODEL 6
REMARK VINA RESULT:      -5.9      4.929      7.535
REMARK  4 active torsions:
REMARK  status: ('A' for Active; 'I' for Inactive)
REMARK    1  A    between atoms: N1_1  and  C5_5 
REMARK    2  A    between atoms: C5_5  and  C7_6 
REMARK    3  A    between atoms: C5_5  and  C17_16 
REMARK    4  A    between atoms: C7_6  and  C8_7 
ROOT
ATOM      1  C8  <0> d   1      19.246  -0.251   8.583  0.00  0.00    -0.028 A 
ATOM      2  C9  <0> d   1      19.148   1.084   8.476  0.00  0.00     0.096 A 
ATOM      3  N10 <0> d   1      19.018   1.439   7.162  0.00  0.00    -0.365 N 
ATOM      4  C11 <0> d   1      19.030   0.313   6.370  0.00  0.00     0.042 A 
ATOM      5  C12 <0> d   1      18.932   0.107   4.997  0.00  0.00     0.030 A 
ATOM      6  C13 <0> d   1      18.977  -1.175   4.493  0.00  0.00     0.002 A 
ATOM      7  C14 <0> d   1      19.119  -2.264   5.341  0.00  0.00     0.001 A 
ATOM      8  C15 <0> d   1      19.216  -2.085   6.693  0.00  0.00     0.014 A 
ATOM      9  C16 <0> d   1      19.179  -0.795   7.224  0.00  0.00    -0.002 A 
ATOM     10  H23 <0> d   1      18.930   2.348   6.836  0.00  0.00     0.165 HD
ENDROOT
BRANCH   1  11
ATOM     11  C7  <0> d   1      19.401  -1.039   9.857  0.00  0.00     0.085 C 
BRANCH  11  12
ATOM     12  C5  <0> d   1      20.160  -0.199  10.888  0.00  0.00     0.287 C 
BRANCH  12  13
ATOM     13  N1  <0> d   1      21.560  -0.638  10.940  0.00  0.00    -0.065 N 
ATOM     14  H2  <0> d   1      22.164   0.169  10.996  0.00  0.00     0.275 HD
ATOM     15  H3  <0> d   1      21.780  -1.165  10.109  0.00  0.00     0.275 HD
ATOM     16  H4  <0> d   1      21.701  -1.219  11.754  0.00  0.00     0.275 HD
ENDBRANCH  12  13
BRANCH  12  17
ATOM     17  C17 <0> d   1      19.527  -0.377  12.244  0.00  0.00     0.204 C 
ATOM     18  O18 <0> d   1      19.634   0.499  13.085  0.00  0.00    -0.646 OA
ATOM     19  O19 <0> d   1      18.908  -1.395  12.500  0.00  0.00    -0.646 OA
ENDBRANCH  12  17
ENDBRANCH  11  12
ENDBRANCH   1  11
TORSDOF 4
ENDMDL
MODEL 7
REMARK VINA RESULT:      -5.9      1.924      2.805
REMARK  4 active torsions:
REMARK  status: ('A' for Active; 'I' for Inactive)
REMARK    1  A    between atoms: N1_1  and  C5_5 
REMARK    2  A    between atoms: C5_5  and  C7_6 
REMARK    3  A    between atoms: C5_5  and  C17_16 
REMARK    4  A    between atoms: C7_6  and  C8_7 
ROOT
ATOM      1  C8  <0> d   1      19.335   0.859  13.455  0.00  0.00    -0.028 A 
ATOM      2  C9  <0> d   1      18.634   2.002  13.529  0.00  0.00     0.096 A 
ATOM      3  N10 <0> d   1      17.760   1.946  14.580  0.00  0.00    -0.365 N 
ATOM      4  C11 <0> d   1      17.880   0.736  15.225  0.00  0.00     0.042 A 
ATOM      5  C12 <0> d   1      17.247   0.172  16.328  0.00  0.00     0.030 A 
ATOM      6  C13 <0> d   1      17.597  -1.095  16.744  0.00  0.00     0.002 A 
ATOM      7  C14 <0> d   1      18.575  -1.815  16.073  0.00  0.00     0.001 A 
ATOM      8  C15 <0> d   1      19.211  -1.280  14.988  0.00  0.00     0.014 A 
ATOM      9  C16 <0> d   1      18.867  -0.001  14.546  0.00  0.00    -0.002 A 
ATOM     10  H23 <0> d   1      17.148   2.654  14.833  0.00  0.00     0.165 HD
ENDROOT
BRANCH   1  11
ATOM     11  C7  <0> d   1      20.397   0.522  12.441  0.00  0.00     0.085 C 
BRANCH  11  12
ATOM     12  C5  <0> d   1      19.824  -0.451  11.407  0.00  0.00     0.287 C 
BRANCH  12  13
ATOM     13  N1  <0> d   1      20.698  -1.627  11.306  0.00  0.00    -0.065 N 
ATOM     14  H2  <0> d   1      20.201  -2.377  10.850  0.00  0.00     0.275 HD
ATOM     15  H3  <0> d   1      20.975  -1.921  12.231  0.00  0.00     0.275 HD
ATOM     16  H4  <0> d   1      21.518  -1.391  10.768  0.00  0.00     0.275 HD
ENDBRANCH  12  13
BRANCH  12  17
ATOM     17  C17 <0> d   1      19.743   0.232  10.066  0.00  0.00     0.204 C 
ATOM     18  O18 <0> d   1      19.389   1.396   9.996  0.00  0.00    -0.646 OA
ATOM     19  O19 <0> d   1      20.032  -0.380   9.052  0.00  0.00    -0.646 OA
ENDBRANCH  12  17
ENDBRANCH  11  12
ENDBRANCH   1  11
TORSDOF 4
ENDMDL
MODEL 8
REMARK VINA RESULT:      -5.9      2.306      2.759
REMARK  4 active torsions:
REMARK  status: ('A' for Active; 'I' for Inactive)
REMARK    1  A    between atoms: N1_1  and  C5_5 
REMARK    2  A    between atoms: C5_5  and  C7_6 
REMARK    3  A    between atoms: C5_5  and  C17_16 
REMARK    4  A    between atoms: C7_6  and  C8_7 
ROOT
ATOM      1  C8  <0> d   1      19.149   0.111  14.476  0.00  0.00    -0.028 A 
ATOM      2  C9  <0> d   1      19.005  -1.209  14.677  0.00  0.00     0.096 A 
ATOM      3  N10 <0> d   1      18.865  -1.465  16.014  0.00  0.00    -0.365 N 
ATOM      4  C11 <0> d   1      18.917  -0.286  16.724  0.00  0.00     0.042 A 
ATOM      5  C12 <0> d   1      18.829   0.021  18.078  0.00  0.00     0.030 A 
ATOM      6  C13 <0> d   1      18.919   1.333  18.489  0.00  0.00     0.002 A 
ATOM      7  C14 <0> d   1      19.097   2.354  17.566  0.00  0.00     0.001 A 
ATOM      8  C15 <0> d   1      19.186   2.075  16.231  0.00  0.00     0.014 A 
ATOM      9  C16 <0> d   1      19.103   0.752  15.793  0.00  0.00    -0.002 A 
ATOM     10  H23 <0> d   1      18.746  -2.345  16.403  0.00  0.00     0.165 HD
ENDROOT
BRANCH   1  11
ATOM     11  C7  <0> d   1      19.329   0.801  13.149  0.00  0.00     0.085 C 
BRANCH  11  12
ATOM     12  C5  <0> d   1      20.251  -0.038  12.259  0.00  0.00     0.287 C 
BRANCH  12  13
ATOM     13  N1  <0> d   1      21.552   0.632  12.135  0.00  0.00    -0.065 N 
ATOM     14  H2  <0> d   1      21.919   0.484  11.207  0.00  0.00     0.275 HD
ATOM     15  H3  <0> d   1      22.193   0.251  12.815  0.00  0.00     0.275 HD
ATOM     16  H4  <0> d   1      21.438   1.621  12.297  0.00  0.00     0.275 HD
ENDBRANCH  12  13
BRANCH  12  17
ATOM     17  C17 <0> d   1      19.630  -0.188  10.894  0.00  0.00     0.204 C 
ATOM     18  O18 <0> d   1      18.417  -0.175  10.772  0.00  0.00    -0.646 OA
ATOM     19  O19 <0> d   1      20.340  -0.323   9.913  0.00  0.00    -0.646 OA
ENDBRANCH  12  17
ENDBRANCH  11  12
ENDBRANCH   1  11
TORSDOF 4
ENDMDL
MODEL 9
REMARK VINA RESULT:      -5.8      2.305      3.256
REMARK  4 active torsions:
REMARK  status: ('A' for Active; 'I' for Inactive)
REMARK    1  A    between atoms: N1_1  and  C5_5 
REMARK    2  A    between atoms: C5_5  and  C7_6 
REMARK    3  A    between atoms: C5_5  and  C17_16 
REMARK    4  A    between atoms: C7_6  and  C8_7 
ROOT
ATOM      1  C8  <0> d   1      19.172  -0.380  13.459  0.00  0.00    -0.028 A 
ATOM      2  C9  <0> d   1      19.755   0.808  13.239  0.00  0.00     0.096 A 
ATOM      3  N10 <0> d   1      19.690   1.577  14.369  0.00  0.00    -0.365 N 
ATOM      4  C11 <0> d   1      19.046   0.884  15.370  0.00  0.00     0.042 A 
ATOM      5  C12 <0> d   1      18.718   1.188  16.687  0.00  0.00     0.030 A 
ATOM      6  C13 <0> d   1      18.054   0.260  17.459  0.00  0.00     0.002 A 
ATOM      7  C14 <0> d   1      17.707  -0.978  16.935  0.00  0.00     0.001 A 
ATOM      8  C15 <0> d   1      18.020  -1.298  15.643  0.00  0.00     0.014 A 
ATOM      9  C16 <0> d   1      18.687  -0.370  14.842  0.00  0.00    -0.002 A 
ATOM     10  H23 <0> d   1      20.045   2.475  14.453  0.00  0.00     0.165 HD
ENDROOT
BRANCH   1  11
ATOM     11  C7  <0> d   1      19.035  -1.509  12.470  0.00  0.00     0.085 C 
BRANCH  11  12
ATOM     12  C5  <0> d   1      17.558  -1.699  12.116  0.00  0.00     0.287 C 
BRANCH  12  13
ATOM     13  N1  <0> d   1      17.391  -2.957  11.377  0.00  0.00    -0.065 N 
ATOM     14  H2  <0> d   1      18.297  -3.337  11.149  0.00  0.00     0.275 HD
ATOM     15  H3  <0> d   1      16.877  -2.782  10.526  0.00  0.00     0.275 HD
ATOM     16  H4  <0> d   1      16.883  -3.618  11.946  0.00  0.00     0.275 HD
ENDBRANCH  12  13
BRANCH  12  17
ATOM     17  C17 <0> d   1      17.094  -0.548  11.260  0.00  0.00     0.204 C 
ATOM     18  O18 <0> d   1      16.095   0.078  11.571  0.00  0.00    -0.646 OA
ATOM     19  O19 <0> d   1      17.717  -0.244  10.257  0.00  0.00    -0.646 OA
ENDBRANCH  12  17
ENDBRANCH  11  12
ENDBRANCH   1  11
TORSDOF 4
ENDMDL
