MODEL 1
REMARK VINA RESULT:      -4.3      0.000      0.000
REMARK  2 active torsions:
REMARK  status: ('A' for Active; 'I' for Inactive)
REMARK    1  A    between atoms: C2_2  and  C4_4 
REMARK    2  A    between atoms: C7_6  and  O9_7 
ROOT
ATOM      1  C4  <0> d   1      18.447  -0.033  11.403  0.00  0.00     0.288 C 
ATOM      2  C6  <0> d   1      19.415  -0.518  12.511  0.00  0.00     0.077 C 
ATOM      3  C7  <0> d   1      20.468   0.612  12.567  0.00  0.00     0.146 C 
ATOM      4  C10 <0> d   1      19.770   1.844  11.963  0.00  0.00     0.265 C 
ATOM      5  N11 <0> d   1      18.391   1.436  11.613  0.00  0.00    -0.059 N 
ATOM      6  H12 <0> d   1      18.094   1.902  10.769  0.00  0.00     0.278 HD
ATOM      7  H13 <0> d   1      17.761   1.654  12.371  0.00  0.00     0.278 HD
ENDROOT
BRANCH   1   8
ATOM      8  C2  <0> d   1      17.082  -0.647  11.582  0.00  0.00     0.204 C 
ATOM      9  O1  <0> d   1      16.088   0.057  11.556  0.00  0.00    -0.646 OA
ATOM     10  O3  <0> d   1      16.973  -1.851  11.748  0.00  0.00    -0.646 OA
ENDBRANCH   1   8
BRANCH   3  11
ATOM     11  O9  <0> d   1      21.615   0.259  11.791  0.00  0.00    -0.394 OA
ATOM     12  H16 <0> d   1      22.090  -0.516  12.121  0.00  0.00     0.210 HD
ENDBRANCH   3  11
TORSDOF 2
ENDMDL
MODEL 2
REMARK VINA RESULT:      -4.2      5.688      6.346
REMARK  2 active torsions:
REMARK  status: ('A' for Active; 'I' for Inactive)
REMARK    1  A    between atoms: C2_2  and  C4_4 
REMARK    2  A    between atoms: C7_6  and  O9_7 
ROOT
ATOM      1  C4  <0> d   1      18.611  -0.246   6.846  0.00  0.00     0.288 C 
ATOM      2  C6  <0> d   1      19.246   0.357   5.568  0.00  0.00     0.077 C 
ATOM      3  C7  <0> d   1      18.702  -0.559   4.447  0.00  0.00     0.146 C 
ATOM      4  C10 <0> d   1      17.431  -1.199   5.033  0.00  0.00     0.265 C 
ATOM      5  N11 <0> d   1      17.254  -0.652   6.397  0.00  0.00    -0.059 N 
ATOM      6  H12 <0> d   1      16.877  -1.359   7.010  0.00  0.00     0.278 HD
ATOM      7  H13 <0> d   1      16.643   0.151   6.373  0.00  0.00     0.278 HD
ENDROOT
BRANCH   1   8
ATOM      8  C2  <0> d   1      18.521   0.792   7.935  0.00  0.00     0.204 C 
ATOM      9  O1  <0> d   1      17.675   0.690   8.806  0.00  0.00    -0.646 OA
ATOM     10  O3  <0> d   1      19.300   1.731   7.948  0.00  0.00    -0.646 OA
ENDBRANCH   1   8
BRANCH   3  11
ATOM     11  O9  <0> d   1      19.662  -1.567   4.121  0.00  0.00    -0.394 OA
ATOM     12  H16 <0> d   1      19.289  -2.455   4.049  0.00  0.00     0.210 HD
ENDBRANCH   3  11
TORSDOF 2
ENDMDL
MODEL 3
REMARK VINA RESULT:      -4.2      1.763      2.300
REMARK  2 active torsions:
REMARK  status: ('A' for Active; 'I' for Inactive)
REMARK    1  A    between atoms: C2_2  and  C4_4 
REMARK    2  A    between atoms: C7_6  and  O9_7 
ROOT
ATOM      1  C4  <0> d   1      18.527  -0.010  11.694  0.00  0.00     0.288 C 
ATOM      2  C6  <0> d   1      19.421   0.426  10.506  0.00  0.00     0.077 C 
ATOM      3  C7  <0> d   1      20.388  -0.770  10.345  0.00  0.00     0.146 C 
ATOM      4  C10 <0> d   1      19.665  -1.961  10.998  0.00  0.00     0.265 C 
ATOM      5  N11 <0> d   1      18.354  -1.469  11.476  0.00  0.00    -0.059 N 
ATOM      6  H12 <0> d   1      18.103  -1.927  12.339  0.00  0.00     0.278 HD
ATOM      7  H13 <0> d   1      17.645  -1.633  10.776  0.00  0.00     0.278 HD
ENDROOT
BRANCH   1   8
ATOM      8  C2  <0> d   1      17.196   0.696  11.644  0.00  0.00     0.204 C 
ATOM      9  O1  <0> d   1      17.153   1.914  11.604  0.00  0.00    -0.646 OA
ATOM     10  O3  <0> d   1      16.162   0.049  11.639  0.00  0.00    -0.646 OA
ENDBRANCH   1   8
BRANCH   3  11
ATOM     11  O9  <0> d   1      21.621  -0.505  11.017  0.00  0.00    -0.394 OA
ATOM     12  H16 <0> d   1      22.183   0.138  10.566  0.00  0.00     0.210 HD
ENDBRANCH   3  11
TORSDOF 2
ENDMDL
MODEL 4
REMARK VINA RESULT:      -4.2      2.165      2.883
REMARK  2 active torsions:
REMARK  status: ('A' for Active; 'I' for Inactive)
REMARK    1  A    between atoms: C2_2  and  C4_4 
REMARK    2  A    between atoms: C7_6  and  O9_7 
ROOT
ATOM      1  C4  <0> d   1      19.498   1.897  10.918  0.00  0.00     0.288 C 
ATOM      2  C6  <0> d   1      19.316   0.412  10.518  0.00  0.00     0.077 C 
ATOM      3  C7  <0> d   1      20.314  -0.321  11.443  0.00  0.00     0.146 C 
ATOM      4  C10 <0> d   1      20.548   0.640  12.623  0.00  0.00     0.265 C 
ATOM      5  N11 <0> d   1      19.706   1.834  12.388  0.00  0.00    -0.059 N 
ATOM      6  H12 <0> d   1      20.179   2.664  12.712  0.00  0.00     0.278 HD
ATOM      7  H13 <0> d   1      18.819   1.732  12.858  0.00  0.00     0.278 HD
ENDROOT
BRANCH   1   8
ATOM      8  C2  <0> d   1      18.261   2.693  10.590  0.00  0.00     0.204 C 
ATOM      9  O1  <0> d   1      17.204   2.429  11.135  0.00  0.00    -0.646 OA
ATOM     10  O3  <0> d   1      18.319   3.604   9.782  0.00  0.00    -0.646 OA
ENDBRANCH   1   8
BRANCH   3  11
ATOM     11  O9  <0> d   1      21.540  -0.568  10.752  0.00  0.00    -0.394 OA
ATOM     12  H16 <0> d   1      21.651  -1.484  10.464  0.00  0.00     0.210 HD
ENDBRANCH   3  11
TORSDOF 2
ENDMDL
MODEL 5
REMARK VINA RESULT:      -4.2      2.738      3.219
REMARK  2 active torsions:
REMARK  status: ('A' for Active; 'I' for Inactive)
REMARK    1  A    between atoms: C2_2  and  C4_4 
REMARK    2  A    between atoms: C7_6  and  O9_7 
ROOT
ATOM      1  C4  <0> d   1      19.698  -0.921  14.196  0.00  0.00     0.288 C 
ATOM      2  C6  <0> d   1      19.873   0.572  13.818  0.00  0.00     0.077 C 
ATOM      3  C7  <0> d   1      20.256   0.506  12.322  0.00  0.00     0.146 C 
ATOM      4  C10 <0> d   1      19.738  -0.859  11.834  0.00  0.00     0.265 C 
ATOM      5  N11 <0> d   1      19.075  -1.512  12.985  0.00  0.00    -0.059 N 
ATOM      6  H12 <0> d   1      19.232  -2.508  12.958  0.00  0.00     0.278 HD
ATOM      7  H13 <0> d   1      18.085  -1.315  12.973  0.00  0.00     0.278 HD
ENDROOT
BRANCH   1   8
ATOM      8  C2  <0> d   1      18.785  -1.064  15.387  0.00  0.00     0.204 C 
ATOM      9  O1  <0> d   1      17.651  -0.620  15.343  0.00  0.00    -0.646 OA
ATOM     10  O3  <0> d   1      19.180  -1.630  16.393  0.00  0.00    -0.646 OA
ENDBRANCH   1   8
BRANCH   3  11
ATOM     11  O9  <0> d   1      21.675   0.583  12.170  0.00  0.00    -0.394 OA
ATOM     12  H16 <0> d   1      22.160  -0.095  12.660  0.00  0.00     0.210 HD
ENDBRANCH   3  11
TORSDOF 2
ENDMDL
MODEL 6
REMARK VINA RESULT:      -4.0      2.221      2.892
REMARK  2 active torsions:
REMARK  status: ('A' for Active; 'I' for Inactive)
REMARK    1  A    between atoms: C2_2  and  C4_4 
REMARK    2  A    between atoms: C7_6  and  O9_7 
ROOT
ATOM      1  C4  <0> d   1      18.201   0.097  10.761  0.00  0.00     0.288 C 
ATOM      2  C6  <0> d   1      17.855   0.653   9.356  0.00  0.00     0.077 C 
ATOM      3  C7  <0> d   1      19.220   0.625   8.629  0.00  0.00     0.146 C 
ATOM      4  C10 <0> d   1      20.062  -0.410   9.395  0.00  0.00     0.265 C 
ATOM      5  N11 <0> d   1      19.210  -0.955  10.476  0.00  0.00    -0.059 N 
ATOM      6  H12 <0> d   1      19.765  -1.142  11.297  0.00  0.00     0.278 HD
ATOM      7  H13 <0> d   1      18.752  -1.799  10.166  0.00  0.00     0.278 HD
ENDROOT
BRANCH   1   8
ATOM      8  C2  <0> d   1      16.980  -0.500  11.411  0.00  0.00     0.204 C 
ATOM      9  O1  <0> d   1      17.005  -1.650  11.817  0.00  0.00    -0.646 OA
ATOM     10  O3  <0> d   1      15.967   0.168  11.537  0.00  0.00    -0.646 OA
ENDBRANCH   1   8
BRANCH   3  11
ATOM     11  O9  <0> d   1      19.838   1.912   8.687  0.00  0.00    -0.394 OA
ATOM     12  H16 <0> d   1      20.173   2.148   9.563  0.00  0.00     0.210 HD
ENDBRANCH   3  11
TORSDOF 2
ENDMDL
MODEL 7
REMARK VINA RESULT:      -4.0      1.443      1.942
REMARK  2 active torsions:
REMARK  status: ('A' for Active; 'I' for Inactive)
REMARK    1  A    between atoms: C2_2  and  C4_4 
REMARK    2  A    between atoms: C7_6  and  O9_7 
ROOT
ATOM      1  C4  <0> d   1      18.250   0.374  11.187  0.00  0.00     0.288 C 
ATOM      2  C6  <0> d   1      18.462   1.531  12.196  0.00  0.00     0.077 C 
ATOM      3  C7  <0> d   1      19.335   2.528  11.400  0.00  0.00     0.146 C 
ATOM      4  C10 <0> d   1      19.088   2.185   9.920  0.00  0.00     0.265 C 
ATOM      5  N11 <0> d   1      18.109   1.075   9.885  0.00  0.00    -0.059 N 
ATOM      6  H12 <0> d   1      18.320   0.449   9.124  0.00  0.00     0.278 HD
ATOM      7  H13 <0> d   1      17.174   1.440   9.788  0.00  0.00     0.278 HD
ENDROOT
BRANCH   1   8
ATOM      8  C2  <0> d   1      16.996  -0.394  11.515  0.00  0.00     0.204 C 
ATOM      9  O1  <0> d   1      17.061  -1.580  11.788  0.00  0.00    -0.646 OA
ATOM     10  O3  <0> d   1      15.916   0.173  11.513  0.00  0.00    -0.646 OA
ENDBRANCH   1   8
BRANCH   3  11
ATOM     11  O9  <0> d   1      20.714   2.351  11.729  0.00  0.00    -0.394 OA
ATOM     12  H16 <0> d   1      21.286   3.068  11.423  0.00  0.00     0.210 HD
ENDBRANCH   3  11
TORSDOF 2
ENDMDL
MODEL 8
REMARK VINA RESULT:      -4.0      2.875      3.710
REMARK  2 active torsions:
REMARK  status: ('A' for Active; 'I' for Inactive)
REMARK    1  A    between atoms: C2_2  and  C4_4 
REMARK    2  A    between atoms: C7_6  and  O9_7 
ROOT
ATOM      1  C4  <0> d   1      18.518   1.865  10.440  0.00  0.00     0.288 C 
ATOM      2  C6  <0> d   1      19.383   1.729   9.162  0.00  0.00     0.077 C 
ATOM      3  C7  <0> d   1      19.497   0.197   8.984  0.00  0.00     0.146 C 
ATOM      4  C10 <0> d   1      18.301  -0.387   9.757  0.00  0.00     0.265 C 
ATOM      5  N11 <0> d   1      17.541   0.753  10.315  0.00  0.00    -0.059 N 
ATOM      6  H12 <0> d   1      17.164   0.512  11.219  0.00  0.00     0.278 HD
ATOM      7  H13 <0> d   1      16.797   1.016   9.686  0.00  0.00     0.278 HD
ENDROOT
BRANCH   1   8
ATOM      8  C2  <0> d   1      17.810   3.195  10.464  0.00  0.00     0.204 C 
ATOM      9  O1  <0> d   1      18.101   4.056   9.652  0.00  0.00    -0.646 OA
ATOM     10  O3  <0> d   1      16.941   3.408  11.293  0.00  0.00    -0.646 OA
ENDBRANCH   1   8
BRANCH   3  11
ATOM     11  O9  <0> d   1      20.727  -0.275   9.537  0.00  0.00    -0.394 OA
ATOM     12  H16 <0> d   1      21.051  -1.092   9.134  0.00  0.00     0.210 HD
ENDBRANCH   3  11
TORSDOF 2
ENDMDL
MODEL 9
REMARK VINA RESULT:      -3.9      3.320      4.174
REMARK  2 active torsions:
REMARK  status: ('A' for Active; 'I' for Inactive)
REMARK    1  A    between atoms: C2_2  and  C4_4 
REMARK    2  A    between atoms: C7_6  and  O9_7 
ROOT
ATOM      1  C4  <0> d   1      18.197   3.558  10.919  0.00  0.00     0.288 C 
ATOM      2  C6  <0> d   1      18.344   2.505   9.791  0.00  0.00     0.077 C 
ATOM      3  C7  <0> d   1      18.764   1.231  10.561  0.00  0.00     0.146 C 
ATOM      4  C10 <0> d   1      18.290   1.461  12.007  0.00  0.00     0.265 C 
ATOM      5  N11 <0> d   1      17.616   2.779  12.042  0.00  0.00    -0.059 N 
ATOM      6  H12 <0> d   1      17.798   3.239  12.921  0.00  0.00     0.278 HD
ATOM      7  H13 <0> d   1      16.623   2.665  11.908  0.00  0.00     0.278 HD
ENDROOT
BRANCH   1   8
ATOM      8  C2  <0> d   1      17.260   4.661  10.497  0.00  0.00     0.204 C 
ATOM      9  O1  <0> d   1      17.594   5.444   9.625  0.00  0.00    -0.646 OA
ATOM     10  O3  <0> d   1      16.166   4.766  11.025  0.00  0.00    -0.646 OA
ENDBRANCH   1   8
BRANCH   3  11
ATOM     11  O9  <0> d   1      20.183   1.074  10.521  0.00  0.00    -0.394 OA
ATOM     12  H16 <0> d   1      20.493   0.476   9.828  0.00  0.00     0.210 HD
ENDBRANCH   3  11
TORSDOF 2
ENDMDL
