MODEL 1
REMARK VINA RESULT:      -5.1      0.000      0.000
REMARK  3 active torsions:
REMARK  status: ('A' for Active; 'I' for Inactive)
REMARK    1  A    between atoms: N1_1  and  C2_2 
REMARK    2  A    between atoms: C5_5  and  C6_6 
REMARK    3  A    between atoms: C9_9  and  O10_10 
ROOT
ATOM      1  C2  <0> d   1      18.188   0.871   8.885  0.00  0.00     0.028 A 
ATOM      2  C3  <0> d   1      18.878   1.742   8.041  0.00  0.00     0.030 A 
ATOM      3  C4  <0> d   1      19.189   1.365   6.768  0.00  0.00     0.023 A 
ATOM      4  C5  <0> d   1      18.815   0.100   6.299  0.00  0.00     0.073 A 
ATOM      5  C9  <0> d   1      18.120  -0.781   7.145  0.00  0.00     0.084 A 
ATOM      6  C11 <0> d   1      17.815  -0.391   8.437  0.00  0.00     0.066 A 
ENDROOT
BRANCH   1   7
ATOM      7  N1  <0> d   1      17.876   1.265  10.180  0.00  0.00    -0.399 N 
ATOM      8  H12 <0> d   1      18.254   2.083  10.542  0.00  0.00     0.156 HD
ATOM      9  H13 <0> d   1      17.278   0.727  10.721  0.00  0.00     0.156 HD
ENDBRANCH   1   7
BRANCH   5  10
ATOM     10  O10 <0> d   1      17.754  -2.009   6.700  0.00  0.00    -0.360 OA
ATOM     11  H16 <0> d   1      18.025  -2.734   7.279  0.00  0.00     0.217 HD
ENDBRANCH   5  10
BRANCH   4  12
ATOM     12  C6  <0> d   1      19.149  -0.306   4.928  0.00  0.00     0.212 C 
ATOM     13  O7  <0> d   1      18.575   0.211   3.979  0.00  0.00    -0.644 OA
ATOM     14  O8  <0> d   1      20.002  -1.162   4.734  0.00  0.00    -0.644 OA
ENDBRANCH   4  12
TORSDOF 3
ENDMDL
MODEL 2
REMARK VINA RESULT:      -4.9      8.683     10.317
REMARK  3 active torsions:
REMARK  status: ('A' for Active; 'I' for Inactive)
REMARK    1  A    between atoms: N1_1  and  C2_2 
REMARK    2  A    between atoms: C5_5  and  C6_6 
REMARK    3  A    between atoms: C9_9  and  O10_10 
ROOT
ATOM      1  C2  <0> d   1      19.319  -0.899  14.551  0.00  0.00     0.028 A 
ATOM      2  C3  <0> d   1      18.966  -1.543  15.737  0.00  0.00     0.030 A 
ATOM      3  C4  <0> d   1      18.786  -0.826  16.884  0.00  0.00     0.023 A 
ATOM      4  C5  <0> d   1      18.954   0.564  16.876  0.00  0.00     0.073 A 
ATOM      5  C9  <0> d   1      19.309   1.218  15.683  0.00  0.00     0.084 A 
ATOM      6  C11 <0> d   1      19.495   0.480  14.528  0.00  0.00     0.066 A 
ENDROOT
BRANCH   1   7
ATOM      7  N1  <0> d   1      19.500  -1.639  13.390  0.00  0.00    -0.399 N 
ATOM      8  H12 <0> d   1      20.290  -1.499  12.844  0.00  0.00     0.156 HD
ATOM      9  H13 <0> d   1      18.840  -2.299  13.127  0.00  0.00     0.156 HD
ENDBRANCH   1   7
BRANCH   5  10
ATOM     10  O10 <0> d   1      19.474   2.564  15.666  0.00  0.00    -0.360 OA
ATOM     11  H16 <0> d   1      20.342   2.858  15.971  0.00  0.00     0.217 HD
ENDBRANCH   5  10
BRANCH   4  12
ATOM     12  C6  <0> d   1      18.760   1.336  18.110  0.00  0.00     0.212 C 
ATOM     13  O7  <0> d   1      19.707   1.916  18.625  0.00  0.00    -0.644 OA
ATOM     14  O8  <0> d   1      17.651   1.400  18.623  0.00  0.00    -0.644 OA
ENDBRANCH   4  12
TORSDOF 3
ENDMDL
MODEL 3
REMARK VINA RESULT:      -4.9      3.905      5.113
REMARK  3 active torsions:
REMARK  status: ('A' for Active; 'I' for Inactive)
REMARK    1  A    between atoms: N1_1  and  C2_2 
REMARK    2  A    between atoms: C5_5  and  C6_6 
REMARK    3  A    between atoms: C9_9  and  O10_10 
ROOT
ATOM      1  C2  <0> d   1      18.626   0.435   8.033  0.00  0.00     0.028 A 
ATOM      2  C3  <0> d   1      19.183   1.705   8.189  0.00  0.00     0.030 A 
ATOM      3  C4  <0> d   1      18.836   2.484   9.254  0.00  0.00     0.023 A 
ATOM      4  C5  <0> d   1      17.917   2.012  10.199  0.00  0.00     0.073 A 
ATOM      5  C9  <0> d   1      17.352   0.734  10.046  0.00  0.00     0.084 A 
ATOM      6  C11 <0> d   1      17.707  -0.045   8.960  0.00  0.00     0.066 A 
ENDROOT
BRANCH   1   7
ATOM      7  N1  <0> d   1      18.987  -0.349   6.945  0.00  0.00    -0.399 N 
ATOM      8  H12 <0> d   1      18.306  -0.825   6.444  0.00  0.00     0.156 HD
ATOM      9  H13 <0> d   1      19.918  -0.417   6.683  0.00  0.00     0.156 HD
ENDBRANCH   1   7
BRANCH   5  10
ATOM     10  O10 <0> d   1      16.461   0.268  10.956  0.00  0.00    -0.360 OA
ATOM     11  H16 <0> d   1      16.063  -0.580  10.719  0.00  0.00     0.217 HD
ENDBRANCH   5  10
BRANCH   4  12
ATOM     12  C6  <0> d   1      17.543   2.850  11.345  0.00  0.00     0.212 C 
ATOM     13  O7  <0> d   1      17.883   2.528  12.475  0.00  0.00    -0.644 OA
ATOM     14  O8  <0> d   1      16.891   3.871  11.170  0.00  0.00    -0.644 OA
ENDBRANCH   4  12
TORSDOF 3
ENDMDL
MODEL 4
REMARK VINA RESULT:      -4.7      4.912      5.849
REMARK  3 active torsions:
REMARK  status: ('A' for Active; 'I' for Inactive)
REMARK    1  A    between atoms: N1_1  and  C2_2 
REMARK    2  A    between atoms: C5_5  and  C6_6 
REMARK    3  A    between atoms: C9_9  and  O10_10 
ROOT
ATOM      1  C2  <0> d   1      19.728   1.003  10.577  0.00  0.00     0.028 A 
ATOM      2  C3  <0> d   1      19.240   1.454   9.351  0.00  0.00     0.030 A 
ATOM      3  C4  <0> d   1      18.483   2.587   9.284  0.00  0.00     0.023 A 
ATOM      4  C5  <0> d   1      18.192   3.306  10.450  0.00  0.00     0.073 A 
ATOM      5  C9  <0> d   1      18.681   2.856  11.688  0.00  0.00     0.084 A 
ATOM      6  C11 <0> d   1      19.442   1.703  11.745  0.00  0.00     0.066 A 
ENDROOT
BRANCH   1   7
ATOM      7  N1  <0> d   1      20.497  -0.152  10.633  0.00  0.00    -0.399 N 
ATOM      8  H12 <0> d   1      21.147  -0.267  11.345  0.00  0.00     0.156 HD
ATOM      9  H13 <0> d   1      20.382  -0.845   9.965  0.00  0.00     0.156 HD
ENDBRANCH   1   7
BRANCH   5  10
ATOM     10  O10 <0> d   1      18.404   3.546  12.823  0.00  0.00    -0.360 OA
ATOM     11  H16 <0> d   1      19.031   4.255  13.015  0.00  0.00     0.217 HD
ENDBRANCH   5  10
BRANCH   4  12
ATOM     12  C6  <0> d   1      17.377   4.525  10.378  0.00  0.00     0.212 C 
ATOM     13  O7  <0> d   1      17.665   5.408   9.582  0.00  0.00    -0.644 OA
ATOM     14  O8  <0> d   1      16.411   4.660  11.117  0.00  0.00    -0.644 OA
ENDBRANCH   4  12
TORSDOF 3
ENDMDL
MODEL 5
REMARK VINA RESULT:      -4.7      2.221      2.729
REMARK  3 active torsions:
REMARK  status: ('A' for Active; 'I' for Inactive)
REMARK    1  A    between atoms: N1_1  and  C2_2 
REMARK    2  A    between atoms: C5_5  and  C6_6 
REMARK    3  A    between atoms: C9_9  and  O10_10 
ROOT
ATOM      1  C2  <0> d   1      19.705   1.510  11.112  0.00  0.00     0.028 A 
ATOM      2  C3  <0> d   1      19.169   2.484  10.269  0.00  0.00     0.030 A 
ATOM      3  C4  <0> d   1      18.865   2.184   8.974  0.00  0.00     0.023 A 
ATOM      4  C5  <0> d   1      19.089   0.892   8.482  0.00  0.00     0.073 A 
ATOM      5  C9  <0> d   1      19.628  -0.093   9.327  0.00  0.00     0.084 A 
ATOM      6  C11 <0> d   1      19.939   0.224  10.637  0.00  0.00     0.066 A 
ENDROOT
BRANCH   1   7
ATOM      7  N1  <0> d   1      20.011   1.828  12.429  0.00  0.00    -0.399 N 
ATOM      8  H12 <0> d   1      20.690   2.494  12.622  0.00  0.00     0.156 HD
ATOM      9  H13 <0> d   1      19.543   1.388  13.156  0.00  0.00     0.156 HD
ENDBRANCH   1   7
BRANCH   5  10
ATOM     10  O10 <0> d   1      19.849  -1.347   8.860  0.00  0.00    -0.360 OA
ATOM     11  H16 <0> d   1      20.525  -1.397   8.172  0.00  0.00     0.217 HD
ENDBRANCH   5  10
BRANCH   4  12
ATOM     12  C6  <0> d   1      18.761   0.568   7.088  0.00  0.00     0.212 C 
ATOM     13  O7  <0> d   1      19.231   1.236   6.177  0.00  0.00    -0.644 OA
ATOM     14  O8  <0> d   1      18.017  -0.371   6.837  0.00  0.00    -0.644 OA
ENDBRANCH   4  12
TORSDOF 3
ENDMDL
MODEL 6
REMARK VINA RESULT:      -4.6      3.772      4.865
REMARK  3 active torsions:
REMARK  status: ('A' for Active; 'I' for Inactive)
REMARK    1  A    between atoms: N1_1  and  C2_2 
REMARK    2  A    between atoms: C5_5  and  C6_6 
REMARK    3  A    between atoms: C9_9  and  O10_10 
ROOT
ATOM      1  C2  <0> d   1      18.240  -1.041   8.168  0.00  0.00     0.028 A 
ATOM      2  C3  <0> d   1      17.398  -0.014   8.594  0.00  0.00     0.030 A 
ATOM      3  C4  <0> d   1      17.822   0.881   9.532  0.00  0.00     0.023 A 
ATOM      4  C5  <0> d   1      19.109   0.775  10.073  0.00  0.00     0.073 A 
ATOM      5  C9  <0> d   1      19.962  -0.258   9.647  0.00  0.00     0.084 A 
ATOM      6  C11 <0> d   1      19.519  -1.164   8.700  0.00  0.00     0.066 A 
ENDROOT
BRANCH   1   7
ATOM      7  N1  <0> d   1      17.798  -1.947   7.213  0.00  0.00    -0.399 N 
ATOM      8  H12 <0> d   1      18.417  -2.294   6.550  0.00  0.00     0.156 HD
ATOM      9  H13 <0> d   1      16.873  -2.238   7.211  0.00  0.00     0.156 HD
ENDBRANCH   1   7
BRANCH   5  10
ATOM     10  O10 <0> d   1      21.211  -0.369  10.164  0.00  0.00    -0.360 OA
ATOM     11  H16 <0> d   1      21.710   0.457  10.168  0.00  0.00     0.217 HD
ENDBRANCH   5  10
BRANCH   4  12
ATOM     12  C6  <0> d   1      19.566   1.738  11.082  0.00  0.00     0.212 C 
ATOM     13  O7  <0> d   1      19.974   1.343  12.165  0.00  0.00    -0.644 OA
ATOM     14  O8  <0> d   1      19.539   2.938  10.839  0.00  0.00    -0.644 OA
ENDBRANCH   4  12
TORSDOF 3
ENDMDL
MODEL 7
REMARK VINA RESULT:      -4.6      5.048      5.971
REMARK  3 active torsions:
REMARK  status: ('A' for Active; 'I' for Inactive)
REMARK    1  A    between atoms: N1_1  and  C2_2 
REMARK    2  A    between atoms: C5_5  and  C6_6 
REMARK    3  A    between atoms: C9_9  and  O10_10 
ROOT
ATOM      1  C2  <0> d   1      19.729   0.442  13.539  0.00  0.00     0.028 A 
ATOM      2  C3  <0> d   1      19.076  -0.725  13.935  0.00  0.00     0.030 A 
ATOM      3  C4  <0> d   1      19.056  -1.816  13.117  0.00  0.00     0.023 A 
ATOM      4  C5  <0> d   1      19.695  -1.771  11.871  0.00  0.00     0.073 A 
ATOM      5  C9  <0> d   1      20.355  -0.597  11.468  0.00  0.00     0.084 A 
ATOM      6  C11 <0> d   1      20.363   0.505  12.304  0.00  0.00     0.066 A 
ENDROOT
BRANCH   1   7
ATOM      7  N1  <0> d   1      19.743   1.547  14.381  0.00  0.00    -0.399 N 
ATOM      8  H12 <0> d   1      20.329   2.295  14.189  0.00  0.00     0.156 HD
ATOM      9  H13 <0> d   1      19.162   1.573  15.157  0.00  0.00     0.156 HD
ENDBRANCH   1   7
BRANCH   5  10
ATOM     10  O10 <0> d   1      20.977  -0.544  10.264  0.00  0.00    -0.360 OA
ATOM     11  H16 <0> d   1      21.461  -1.348  10.035  0.00  0.00     0.217 HD
ENDBRANCH   5  10
BRANCH   4  12
ATOM     12  C6  <0> d   1      19.675  -2.945  10.990  0.00  0.00     0.212 C 
ATOM     13  O7  <0> d   1      20.182  -3.996  11.359  0.00  0.00    -0.644 OA
ATOM     14  O8  <0> d   1      19.152  -2.873   9.887  0.00  0.00    -0.644 OA
ENDBRANCH   4  12
TORSDOF 3
ENDMDL
MODEL 8
REMARK VINA RESULT:      -4.6      5.221      6.732
REMARK  3 active torsions:
REMARK  status: ('A' for Active; 'I' for Inactive)
REMARK    1  A    between atoms: N1_1  and  C2_2 
REMARK    2  A    between atoms: C5_5  and  C6_6 
REMARK    3  A    between atoms: C9_9  and  O10_10 
ROOT
ATOM      1  C2  <0> d   1      19.533  -1.250   9.799  0.00  0.00     0.028 A 
ATOM      2  C3  <0> d   1      18.516  -1.690  10.645  0.00  0.00     0.030 A 
ATOM      3  C4  <0> d   1      18.535  -1.371  11.971  0.00  0.00     0.023 A 
ATOM      4  C5  <0> d   1      19.579  -0.596  12.492  0.00  0.00     0.073 A 
ATOM      5  C9  <0> d   1      20.607  -0.150  11.643  0.00  0.00     0.084 A 
ATOM      6  C11 <0> d   1      20.580  -0.485  10.301  0.00  0.00     0.066 A 
ENDROOT
BRANCH   1   7
ATOM      7  N1  <0> d   1      19.503  -1.581   8.450  0.00  0.00    -0.399 N 
ATOM      8  H12 <0> d   1      19.876  -2.425   8.150  0.00  0.00     0.156 HD
ATOM      9  H13 <0> d   1      19.105  -0.972   7.809  0.00  0.00     0.156 HD
ENDBRANCH   1   7
BRANCH   5  10
ATOM     10  O10 <0> d   1      21.623   0.600  12.138  0.00  0.00    -0.360 OA
ATOM     11  H16 <0> d   1      22.172   0.141  12.786  0.00  0.00     0.217 HD
ENDBRANCH   5  10
BRANCH   4  12
ATOM     12  C6  <0> d   1      19.601  -0.252  13.918  0.00  0.00     0.212 C 
ATOM     13  O7  <0> d   1      19.544  -1.136  14.762  0.00  0.00    -0.644 OA
ATOM     14  O8  <0> d   1      19.675   0.919  14.264  0.00  0.00    -0.644 OA
ENDBRANCH   4  12
TORSDOF 3
ENDMDL
MODEL 9
REMARK VINA RESULT:      -4.5      3.447      4.698
REMARK  3 active torsions:
REMARK  status: ('A' for Active; 'I' for Inactive)
REMARK    1  A    between atoms: N1_1  and  C2_2 
REMARK    2  A    between atoms: C5_5  and  C6_6 
REMARK    3  A    between atoms: C9_9  and  O10_10 
ROOT
ATOM      1  C2  <0> d   1      18.934   0.526   6.615  0.00  0.00     0.028 A 
ATOM      2  C3  <0> d   1      18.146  -0.541   7.048  0.00  0.00     0.030 A 
ATOM      3  C4  <0> d   1      17.633  -0.550   8.312  0.00  0.00     0.023 A 
ATOM      4  C5  <0> d   1      17.895   0.514   9.184  0.00  0.00     0.073 A 
ATOM      5  C9  <0> d   1      18.688   1.591   8.752  0.00  0.00     0.084 A 
ATOM      6  C11 <0> d   1      19.208   1.587   7.470  0.00  0.00     0.066 A 
ENDROOT
BRANCH   1   7
ATOM      7  N1  <0> d   1      19.451   0.525   5.326  0.00  0.00    -0.399 N 
ATOM      8  H12 <0> d   1      18.961   0.954   4.607  0.00  0.00     0.156 HD
ATOM      9  H13 <0> d   1      20.304   0.100   5.145  0.00  0.00     0.156 HD
ENDBRANCH   1   7
BRANCH   5  10
ATOM     10  O10 <0> d   1      18.947   2.626   9.589  0.00  0.00    -0.360 OA
ATOM     11  H16 <0> d   1      19.793   3.063   9.424  0.00  0.00     0.217 HD
ENDBRANCH   5  10
BRANCH   4  12
ATOM     12  C6  <0> d   1      17.343   0.505  10.544  0.00  0.00     0.212 C 
ATOM     13  O7  <0> d   1      16.970   1.549  11.061  0.00  0.00    -0.644 OA
ATOM     14  O8  <0> d   1      17.256  -0.548  11.162  0.00  0.00    -0.644 OA
ENDBRANCH   4  12
TORSDOF 3
ENDMDL
