MODEL 1
REMARK VINA RESULT:      -7.8      0.000      0.000
REMARK  5 active torsions:
REMARK  status: ('A' for Active; 'I' for Inactive)
REMARK    1  A    between atoms: C3_3  and  C4_4 
REMARK    2  A    between atoms: C10_10  and  N12_11 
REMARK       I    between atoms: N12_11  and  C13_12 
REMARK    3  A    between atoms: C13_12  and  C15_14 
REMARK    4  A    between atoms: C15_14  and  N17_15 
REMARK    5  A    between atoms: C15_14  and  C21_19 
ROOT
ATOM      1  N12 <0> d   1      18.678  -0.580  11.075  0.00  0.00    -0.343 N 
ATOM      2  C13 <0> d   1      18.426   0.128  12.192  0.00  0.00     0.253 C 
ATOM      3  O14 <0> d   1      17.281   0.371  12.512  0.00  0.00    -0.271 OA
ATOM      4  H34 <0> d   1      19.594  -0.773  10.818  0.00  0.00     0.163 HD
ENDROOT
BRANCH   1   5
ATOM      5  C10 <0> d   1      17.570  -1.058  10.244  0.00  0.00     0.210 C 
ATOM      6  C8  <0> d   1      17.934  -2.183   9.304  0.00  0.00     0.251 C 
ATOM      7  N7  <0> d   1      18.081  -1.417   8.231  0.00  0.00    -0.293 N 
ATOM      8  O9  <0> d   1      18.051  -3.379   9.473  0.00  0.00    -0.271 OA
ATOM      9  C3  <0> d   1      18.675  -1.377   6.962  0.00  0.00     0.118 C 
ATOM     10  C27 <0> d   1      17.392  -0.303   8.938  0.00  0.00     0.187 C 
ATOM     11  C2  <0> d   1      18.963  -0.211   6.398  0.00  0.00    -0.041 C 
ATOM     12  C1  <0> d   1      19.650  -0.277   5.058  0.00  0.00     0.047 C 
ATOM     13  C30 <0> d   1      18.696   1.159   6.930  0.00  0.00     0.112 C 
ATOM     14  S29 <0> d   1      18.439   1.177   8.741  0.00  0.00    -0.136 SA
BRANCH   9  15
ATOM     15  C4  <0> d   1      18.981  -2.630   6.254  0.00  0.00     0.227 C 
ATOM     16  O5  <0> d   1      20.063  -3.176   6.416  0.00  0.00    -0.643 OA
ATOM     17  O6  <0> d   1      18.151  -3.127   5.504  0.00  0.00    -0.643 OA
ENDBRANCH   9  15
ENDBRANCH   1   5
BRANCH   2  18
ATOM     18  C15 <0> d   1      19.566   0.619  13.047  0.00  0.00     0.307 C 
BRANCH  18  19
ATOM     19  N17 <0> d   1      20.825   0.034  12.568  0.00  0.00    -0.062 N 
ATOM     20  H18 <0> d   1      20.659  -0.908  12.249  0.00  0.00     0.275 HD
ATOM     21  H19 <0> d   1      21.186   0.589  11.806  0.00  0.00     0.275 HD
ATOM     22  H20 <0> d   1      21.497   0.020  13.321  0.00  0.00     0.275 HD
ENDBRANCH  18  19
BRANCH  18  23
ATOM     23  C21 <0> d   1      19.333   0.209  14.478  0.00  0.00    -0.019 A 
ATOM     24  C26 <0> d   1      19.147   1.172  15.452  0.00  0.00     0.010 A 
ATOM     25  C25 <0> d   1      18.929   0.796  16.764  0.00  0.00     0.001 A 
ATOM     26  C24 <0> d   1      18.907  -0.544  17.104  0.00  0.00     0.000 A 
ATOM     27  C23 <0> d   1      19.098  -1.508  16.132  0.00  0.00     0.001 A 
ATOM     28  C22 <0> d   1      19.311  -1.131  14.818  0.00  0.00     0.010 A 
ENDBRANCH  18  23
ENDBRANCH   2  18
TORSDOF 5
ENDMDL
MODEL 2
REMARK VINA RESULT:      -7.7      2.748      8.318
REMARK  5 active torsions:
REMARK  status: ('A' for Active; 'I' for Inactive)
REMARK    1  A    between atoms: C3_3  and  C4_4 
REMARK    2  A    between atoms: C10_10  and  N12_11 
REMARK       I    between atoms: N12_11  and  C13_12 
REMARK    3  A    between atoms: C13_12  and  C15_14 
REMARK    4  A    between atoms: C15_14  and  N17_15 
REMARK    5  A    between atoms: C15_14  and  C21_19 
ROOT
ATOM      1  N12 <0> d   1      18.707   0.691  12.162  0.00  0.00    -0.343 N 
ATOM      2  C13 <0> d   1      18.448  -0.049  11.067  0.00  0.00     0.253 C 
ATOM      3  O14 <0> d   1      17.301  -0.287  10.751  0.00  0.00    -0.271 OA
ATOM      4  H34 <0> d   1      19.624   0.881  12.415  0.00  0.00     0.163 HD
ENDROOT
BRANCH   1   5
ATOM      5  C10 <0> d   1      17.603   1.210  12.973  0.00  0.00     0.210 C 
ATOM      6  C8  <0> d   1      17.990   2.329  13.912  0.00  0.00     0.251 C 
ATOM      7  N7  <0> d   1      18.096   1.565  14.992  0.00  0.00    -0.293 N 
ATOM      8  O9  <0> d   1      18.148   3.519  13.738  0.00  0.00    -0.271 OA
ATOM      9  C3  <0> d   1      18.670   1.514  16.269  0.00  0.00     0.118 C 
ATOM     10  C27 <0> d   1      17.382   0.469  14.281  0.00  0.00     0.187 C 
ATOM     11  C2  <0> d   1      18.912   0.343  16.845  0.00  0.00    -0.041 C 
ATOM     12  C1  <0> d   1      19.582   0.395  18.194  0.00  0.00     0.047 C 
ATOM     13  C30 <0> d   1      18.608  -1.021  16.317  0.00  0.00     0.112 C 
ATOM     14  S29 <0> d   1      18.378  -1.043  14.503  0.00  0.00    -0.136 SA
BRANCH   9  15
ATOM     15  C4  <0> d   1      19.006   2.762  16.974  0.00  0.00     0.227 C 
ATOM     16  O5  <0> d   1      18.199   3.266  17.742  0.00  0.00    -0.643 OA
ATOM     17  O6  <0> d   1      20.093   3.293  16.793  0.00  0.00    -0.643 OA
ENDBRANCH   9  15
ENDBRANCH   1   5
BRANCH   2  18
ATOM     18  C15 <0> d   1      19.584  -0.582  10.232  0.00  0.00     0.307 C 
BRANCH  18  19
ATOM     19  N17 <0> d   1      20.854  -0.034  10.724  0.00  0.00    -0.062 N 
ATOM     20  H18 <0> d   1      21.523  -0.005   9.970  0.00  0.00     0.275 HD
ATOM     21  H19 <0> d   1      20.704   0.899  11.077  0.00  0.00     0.275 HD
ATOM     22  H20 <0> d   1      21.209  -0.620  11.465  0.00  0.00     0.275 HD
ENDBRANCH  18  19
BRANCH  18  23
ATOM     23  C21 <0> d   1      19.385  -0.175   8.794  0.00  0.00    -0.019 A 
ATOM     24  C26 <0> d   1      19.319   1.163   8.458  0.00  0.00     0.010 A 
ATOM     25  C25 <0> d   1      19.141   1.537   7.139  0.00  0.00     0.001 A 
ATOM     26  C24 <0> d   1      19.020   0.570   6.158  0.00  0.00     0.000 A 
ATOM     27  C23 <0> d   1      19.080  -0.769   6.494  0.00  0.00     0.001 A 
ATOM     28  C22 <0> d   1      19.263  -1.142   7.813  0.00  0.00     0.010 A 
ENDBRANCH  18  23
ENDBRANCH   2  18
TORSDOF 5
ENDMDL
MODEL 3
REMARK VINA RESULT:      -7.5      3.524      4.578
REMARK  5 active torsions:
REMARK  status: ('A' for Active; 'I' for Inactive)
REMARK    1  A    between atoms: C3_3  and  C4_4 
REMARK    2  A    between atoms: C10_10  and  N12_11 
REMARK       I    between atoms: N12_11  and  C13_12 
REMARK    3  A    between atoms: C13_12  and  C15_14 
REMARK    4  A    between atoms: C15_14  and  N17_15 
REMARK    5  A    between atoms: C15_14  and  C21_19 
ROOT
ATOM      1  N12 <0> d   1      19.742  -3.451  10.097  0.00  0.00    -0.343 N 
ATOM      2  C13 <0> d   1      20.036  -2.637  11.129  0.00  0.00     0.253 C 
ATOM      3  O14 <0> d   1      20.314  -3.107  12.213  0.00  0.00    -0.271 OA
ATOM      4  H34 <0> d   1      19.520  -3.075   9.230  0.00  0.00     0.163 HD
ENDROOT
BRANCH   1   5
ATOM      5  C10 <0> d   1      19.758  -4.904  10.282  0.00  0.00     0.210 C 
ATOM      6  C8  <0> d   1      19.932  -5.694   9.005  0.00  0.00     0.251 C 
ATOM      7  N7  <0> d   1      18.645  -5.977   8.848  0.00  0.00    -0.293 N 
ATOM      8  O9  <0> d   1      20.913  -5.975   8.350  0.00  0.00    -0.271 OA
ATOM      9  C3  <0> d   1      17.698  -6.367   7.892  0.00  0.00     0.118 C 
ATOM     10  C27 <0> d   1      18.386  -5.556  10.253  0.00  0.00     0.187 C 
ATOM     11  C2  <0> d   1      16.415  -6.078   8.068  0.00  0.00    -0.041 C 
ATOM     12  C1  <0> d   1      15.485  -6.492   6.957  0.00  0.00     0.047 C 
ATOM     13  C30 <0> d   1      15.779  -5.386   9.230  0.00  0.00     0.112 C 
ATOM     14  S29 <0> d   1      16.973  -4.404  10.208  0.00  0.00    -0.136 SA
BRANCH   9  15
ATOM     15  C4  <0> d   1      18.126  -7.100   6.690  0.00  0.00     0.227 C 
ATOM     16  O5  <0> d   1      18.115  -8.323   6.682  0.00  0.00    -0.643 OA
ATOM     17  O6  <0> d   1      18.493  -6.485   5.697  0.00  0.00    -0.643 OA
ENDBRANCH   9  15
ENDBRANCH   1   5
BRANCH   2  18
ATOM     18  C15 <0> d   1      20.021  -1.143  10.939  0.00  0.00     0.307 C 
BRANCH  18  19
ATOM     19  N17 <0> d   1      21.399  -0.650  10.815  0.00  0.00    -0.062 N 
ATOM     20  H18 <0> d   1      22.033  -1.433  10.765  0.00  0.00     0.275 HD
ATOM     21  H19 <0> d   1      21.483  -0.094   9.977  0.00  0.00     0.275 HD
ATOM     22  H20 <0> d   1      21.628  -0.084  11.619  0.00  0.00     0.275 HD
ENDBRANCH  18  19
BRANCH  18  23
ATOM     23  C21 <0> d   1      19.360  -0.492  12.128  0.00  0.00    -0.019 A 
ATOM     24  C26 <0> d   1      17.987  -0.549  12.272  0.00  0.00     0.010 A 
ATOM     25  C25 <0> d   1      17.381   0.044  13.364  0.00  0.00     0.001 A 
ATOM     26  C24 <0> d   1      18.149   0.702  14.307  0.00  0.00     0.000 A 
ATOM     27  C23 <0> d   1      19.521   0.764  14.161  0.00  0.00     0.001 A 
ATOM     28  C22 <0> d   1      20.128   0.166  13.071  0.00  0.00     0.010 A 
ENDBRANCH  18  23
ENDBRANCH   2  18
TORSDOF 5
ENDMDL
MODEL 4
REMARK VINA RESULT:      -7.5      3.442      8.013
REMARK  5 active torsions:
REMARK  status: ('A' for Active; 'I' for Inactive)
REMARK    1  A    between atoms: C3_3  and  C4_4 
REMARK    2  A    between atoms: C10_10  and  N12_11 
REMARK       I    between atoms: N12_11  and  C13_12 
REMARK    3  A    between atoms: C13_12  and  C15_14 
REMARK    4  A    between atoms: C15_14  and  N17_15 
REMARK    5  A    between atoms: C15_14  and  C21_19 
ROOT
ATOM      1  N12 <0> d   1      18.880   0.116  12.723  0.00  0.00    -0.343 N 
ATOM      2  C13 <0> d   1      19.172   0.061  11.409  0.00  0.00     0.253 C 
ATOM      3  O14 <0> d   1      18.560   0.753  10.622  0.00  0.00    -0.271 OA
ATOM      4  H34 <0> d   1      19.369  -0.438  13.352  0.00  0.00     0.163 HD
ENDROOT
BRANCH   1   5
ATOM      5  C10 <0> d   1      17.824   1.010  13.203  0.00  0.00     0.210 C 
ATOM      6  C8  <0> d   1      18.326   2.296  13.818  0.00  0.00     0.251 C 
ATOM      7  N7  <0> d   1      18.214   1.893  15.077  0.00  0.00    -0.293 N 
ATOM      8  O9  <0> d   1      18.702   3.340  13.327  0.00  0.00    -0.271 OA
ATOM      9  C3  <0> d   1      18.670   2.154  16.376  0.00  0.00     0.118 C 
ATOM     10  C27 <0> d   1      17.376   0.745  14.630  0.00  0.00     0.187 C 
ATOM     11  C2  <0> d   1      18.659   1.194  17.292  0.00  0.00    -0.041 C 
ATOM     12  C1  <0> d   1      19.220   1.561  18.642  0.00  0.00     0.047 C 
ATOM     13  C30 <0> d   1      18.163  -0.208  17.148  0.00  0.00     0.112 C 
ATOM     14  S29 <0> d   1      18.074  -0.751  15.404  0.00  0.00    -0.136 SA
BRANCH   9  15
ATOM     15  C4  <0> d   1      19.162   3.496  16.726  0.00  0.00     0.227 C 
ATOM     16  O5  <0> d   1      20.358   3.745  16.664  0.00  0.00    -0.643 OA
ATOM     17  O6  <0> d   1      18.374   4.364  17.078  0.00  0.00    -0.643 OA
ENDBRANCH   9  15
ENDBRANCH   1   5
BRANCH   2  18
ATOM     18  C15 <0> d   1      20.258  -0.859  10.915  0.00  0.00     0.307 C 
BRANCH  18  19
ATOM     19  N17 <0> d   1      20.783  -0.356   9.639  0.00  0.00    -0.062 N 
ATOM     20  H18 <0> d   1      20.026   0.014   9.085  0.00  0.00     0.275 HD
ATOM     21  H19 <0> d   1      21.457   0.374   9.816  0.00  0.00     0.275 HD
ATOM     22  H20 <0> d   1      21.229  -1.110   9.138  0.00  0.00     0.275 HD
ENDBRANCH  18  19
BRANCH  18  23
ATOM     23  C21 <0> d   1      19.693  -2.242  10.716  0.00  0.00    -0.019 A 
ATOM     24  C26 <0> d   1      19.941  -3.231  11.648  0.00  0.00     0.010 A 
ATOM     25  C25 <0> d   1      19.419  -4.498  11.468  0.00  0.00     0.001 A 
ATOM     26  C24 <0> d   1      18.657  -4.778  10.349  0.00  0.00     0.000 A 
ATOM     27  C23 <0> d   1      18.412  -3.791   9.413  0.00  0.00     0.001 A 
ATOM     28  C22 <0> d   1      18.931  -2.522   9.596  0.00  0.00     0.010 A 
ENDBRANCH  18  23
ENDBRANCH   2  18
TORSDOF 5
ENDMDL
MODEL 5
REMARK VINA RESULT:      -7.4      2.001      7.639
REMARK  5 active torsions:
REMARK  status: ('A' for Active; 'I' for Inactive)
REMARK    1  A    between atoms: C3_3  and  C4_4 
REMARK    2  A    between atoms: C10_10  and  N12_11 
REMARK       I    between atoms: N12_11  and  C13_12 
REMARK    3  A    between atoms: C13_12  and  C15_14 
REMARK    4  A    between atoms: C15_14  and  N17_15 
REMARK    5  A    between atoms: C15_14  and  C21_19 
ROOT
ATOM      1  N12 <0> d   1      19.074  -0.468  10.435  0.00  0.00    -0.343 N 
ATOM      2  C13 <0> d   1      18.909  -1.589   9.706  0.00  0.00     0.253 C 
ATOM      3  O14 <0> d   1      19.608  -2.557   9.915  0.00  0.00    -0.271 OA
ATOM      4  H34 <0> d   1      18.515   0.307  10.267  0.00  0.00     0.163 HD
ENDROOT
BRANCH   1   5
ATOM      5  C10 <0> d   1      20.099  -0.418  11.480  0.00  0.00     0.210 C 
ATOM      6  C8  <0> d   1      19.578  -0.666  12.877  0.00  0.00     0.251 C 
ATOM      7  N7  <0> d   1      19.516   0.613  13.224  0.00  0.00    -0.293 N 
ATOM      8  O9  <0> d   1      19.310  -1.686  13.477  0.00  0.00    -0.271 OA
ATOM      9  C3  <0> d   1      18.913   1.494  14.132  0.00  0.00     0.118 C 
ATOM     10  C27 <0> d   1      20.354   0.969  12.045  0.00  0.00     0.187 C 
ATOM     11  C2  <0> d   1      18.770   2.777  13.822  0.00  0.00    -0.041 C 
ATOM     12  C1  <0> d   1      18.061   3.629  14.842  0.00  0.00     0.047 C 
ATOM     13  C30 <0> d   1      19.220   3.478  12.582  0.00  0.00     0.112 C 
ATOM     14  S29 <0> d   1      19.503   2.333  11.184  0.00  0.00    -0.136 SA
BRANCH   9  15
ATOM     15  C4  <0> d   1      18.438   0.997  15.433  0.00  0.00     0.227 C 
ATOM     16  O5  <0> d   1      19.158   1.076  16.419  0.00  0.00    -0.643 OA
ATOM     17  O6  <0> d   1      17.321   0.505  15.529  0.00  0.00    -0.643 OA
ENDBRANCH   9  15
ENDBRANCH   1   5
BRANCH   2  18
ATOM     18  C15 <0> d   1      17.855  -1.640   8.630  0.00  0.00     0.307 C 
BRANCH  18  19
ATOM     19  N17 <0> d   1      17.536  -3.040   8.323  0.00  0.00    -0.062 N 
ATOM     20  H18 <0> d   1      18.385  -3.538   8.099  0.00  0.00     0.275 HD
ATOM     21  H19 <0> d   1      17.097  -3.469   9.124  0.00  0.00     0.275 HD
ATOM     22  H20 <0> d   1      16.907  -3.078   7.535  0.00  0.00     0.275 HD
ENDBRANCH  18  19
BRANCH  18  23
ATOM     23  C21 <0> d   1      18.371  -0.959   7.389  0.00  0.00    -0.019 A 
ATOM     24  C26 <0> d   1      18.876  -1.711   6.346  0.00  0.00     0.010 A 
ATOM     25  C25 <0> d   1      19.344  -1.087   5.205  0.00  0.00     0.001 A 
ATOM     26  C24 <0> d   1      19.316   0.293   5.112  0.00  0.00     0.000 A 
ATOM     27  C23 <0> d   1      18.816   1.046   6.157  0.00  0.00     0.001 A 
ATOM     28  C22 <0> d   1      18.342   0.421   7.296  0.00  0.00     0.010 A 
ENDBRANCH  18  23
ENDBRANCH   2  18
TORSDOF 5
ENDMDL
MODEL 6
REMARK VINA RESULT:      -7.4      3.946      7.544
REMARK  5 active torsions:
REMARK  status: ('A' for Active; 'I' for Inactive)
REMARK    1  A    between atoms: C3_3  and  C4_4 
REMARK    2  A    between atoms: C10_10  and  N12_11 
REMARK       I    between atoms: N12_11  and  C13_12 
REMARK    3  A    between atoms: C13_12  and  C15_14 
REMARK    4  A    between atoms: C15_14  and  N17_15 
REMARK    5  A    between atoms: C15_14  and  C21_19 
ROOT
ATOM      1  N12 <0> d   1      18.354  -0.974  13.312  0.00  0.00    -0.343 N 
ATOM      2  C13 <0> d   1      18.229  -1.876  12.320  0.00  0.00     0.253 C 
ATOM      3  O14 <0> d   1      17.218  -1.904  11.649  0.00  0.00    -0.271 OA
ATOM      4  H34 <0> d   1      19.162  -0.951  13.849  0.00  0.00     0.163 HD
ENDROOT
BRANCH   1   5
ATOM      5  C10 <0> d   1      17.271  -0.026  13.583  0.00  0.00     0.210 C 
ATOM      6  C8  <0> d   1      17.503   1.363  13.035  0.00  0.00     0.251 C 
ATOM      7  N7  <0> d   1      17.916   1.890  14.180  0.00  0.00    -0.293 N 
ATOM      8  O9  <0> d   1      17.360   1.834  11.927  0.00  0.00    -0.271 OA
ATOM      9  C3  <0> d   1      18.640   2.962  14.718  0.00  0.00     0.118 C 
ATOM     10  C27 <0> d   1      17.389   0.703  14.910  0.00  0.00     0.187 C 
ATOM     11  C2  <0> d   1      19.215   2.849  15.909  0.00  0.00    -0.041 C 
ATOM     12  C1  <0> d   1      20.016   4.038  16.372  0.00  0.00     0.047 C 
ATOM     13  C30 <0> d   1      19.169   1.685  16.844  0.00  0.00     0.112 C 
ATOM     14  S29 <0> d   1      18.726   0.120  16.006  0.00  0.00    -0.136 SA
BRANCH   9  15
ATOM     15  C4  <0> d   1      18.765   4.217  13.960  0.00  0.00     0.227 C 
ATOM     16  O5  <0> d   1      18.001   5.146  14.184  0.00  0.00    -0.643 OA
ATOM     17  O6  <0> d   1      19.634   4.332  13.106  0.00  0.00    -0.643 OA
ENDBRANCH   9  15
ENDBRANCH   1   5
BRANCH   2  18
ATOM     18  C15 <0> d   1      19.343  -2.850  12.041  0.00  0.00     0.307 C 
BRANCH  18  19
ATOM     19  N17 <0> d   1      20.396  -2.182  11.265  0.00  0.00    -0.062 N 
ATOM     20  H18 <0> d   1      20.295  -1.182  11.351  0.00  0.00     0.275 HD
ATOM     21  H19 <0> d   1      21.301  -2.460  11.616  0.00  0.00     0.275 HD
ATOM     22  H20 <0> d   1      20.317  -2.445  10.294  0.00  0.00     0.275 HD
ENDBRANCH  18  19
BRANCH  18  23
ATOM     23  C21 <0> d   1      18.805  -4.018  11.255  0.00  0.00    -0.019 A 
ATOM     24  C26 <0> d   1      19.267  -4.263   9.976  0.00  0.00     0.010 A 
ATOM     25  C25 <0> d   1      18.776  -5.337   9.257  0.00  0.00     0.001 A 
ATOM     26  C24 <0> d   1      17.816  -6.161   9.815  0.00  0.00     0.000 A 
ATOM     27  C23 <0> d   1      17.350  -5.914  11.092  0.00  0.00     0.001 A 
ATOM     28  C22 <0> d   1      17.845  -4.842  11.813  0.00  0.00     0.010 A 
ENDBRANCH  18  23
ENDBRANCH   2  18
TORSDOF 5
ENDMDL
MODEL 7
REMARK VINA RESULT:      -7.3      2.507      3.247
REMARK  5 active torsions:
REMARK  status: ('A' for Active; 'I' for Inactive)
REMARK    1  A    between atoms: C3_3  and  C4_4 
REMARK    2  A    between atoms: C10_10  and  N12_11 
REMARK       I    between atoms: N12_11  and  C13_12 
REMARK    3  A    between atoms: C13_12  and  C15_14 
REMARK    4  A    between atoms: C15_14  and  N17_15 
REMARK    5  A    between atoms: C15_14  and  C21_19 
ROOT
ATOM      1  N12 <0> d   1      18.432   1.077  10.790  0.00  0.00    -0.343 N 
ATOM      2  C13 <0> d   1      18.295   2.381  11.100  0.00  0.00     0.253 C 
ATOM      3  O14 <0> d   1      17.215   2.922  10.986  0.00  0.00    -0.271 OA
ATOM      4  H34 <0> d   1      19.295   0.644  10.881  0.00  0.00     0.163 HD
ENDROOT
BRANCH   1   5
ATOM      5  C10 <0> d   1      17.277   0.312  10.314  0.00  0.00     0.210 C 
ATOM      6  C8  <0> d   1      17.375  -1.178  10.549  0.00  0.00     0.251 C 
ATOM      7  N7  <0> d   1      17.769  -1.480   9.319  0.00  0.00    -0.293 N 
ATOM      8  O9  <0> d   1      17.163  -1.862  11.528  0.00  0.00    -0.271 OA
ATOM      9  C3  <0> d   1      18.411  -2.473   8.566  0.00  0.00     0.118 C 
ATOM     10  C27 <0> d   1      17.366  -0.122   8.861  0.00  0.00     0.187 C 
ATOM     11  C2  <0> d   1      19.023  -2.157   7.432  0.00  0.00    -0.041 C 
ATOM     12  C1  <0> d   1      19.730  -3.286   6.726  0.00  0.00     0.047 C 
ATOM     13  C30 <0> d   1      19.102  -0.820   6.771  0.00  0.00     0.112 C 
ATOM     14  S29 <0> d   1      18.775   0.560   7.925  0.00  0.00    -0.136 SA
BRANCH   9  15
ATOM     15  C4  <0> d   1      18.407  -3.868   9.035  0.00  0.00     0.227 C 
ATOM     16  O5  <0> d   1      17.508  -4.625   8.696  0.00  0.00    -0.643 OA
ATOM     17  O6  <0> d   1      19.305  -4.271   9.762  0.00  0.00    -0.643 OA
ENDBRANCH   9  15
ENDBRANCH   1   5
BRANCH   2  18
ATOM     18  C15 <0> d   1      19.482   3.168  11.591  0.00  0.00     0.307 C 
BRANCH  18  19
ATOM     19  N17 <0> d   1      20.656   2.288  11.669  0.00  0.00    -0.062 N 
ATOM     20  H18 <0> d   1      21.200   2.376  10.824  0.00  0.00     0.275 HD
ATOM     21  H19 <0> d   1      21.221   2.551  12.462  0.00  0.00     0.275 HD
ATOM     22  H20 <0> d   1      20.353   1.331  11.775  0.00  0.00     0.275 HD
ENDBRANCH  18  19
BRANCH  18  23
ATOM     23  C21 <0> d   1      19.184   3.729  12.957  0.00  0.00    -0.019 A 
ATOM     24  C26 <0> d   1      19.327   5.083  13.195  0.00  0.00     0.010 A 
ATOM     25  C25 <0> d   1      19.049   5.599  14.447  0.00  0.00     0.001 A 
ATOM     26  C24 <0> d   1      18.635   4.758  15.464  0.00  0.00     0.000 A 
ATOM     27  C23 <0> d   1      18.496   3.403  15.228  0.00  0.00     0.001 A 
ATOM     28  C22 <0> d   1      18.770   2.888  13.974  0.00  0.00     0.010 A 
ENDBRANCH  18  23
ENDBRANCH   2  18
TORSDOF 5
ENDMDL
MODEL 8
REMARK VINA RESULT:      -7.3      2.610      8.008
REMARK  5 active torsions:
REMARK  status: ('A' for Active; 'I' for Inactive)
REMARK    1  A    between atoms: C3_3  and  C4_4 
REMARK    2  A    between atoms: C10_10  and  N12_11 
REMARK       I    between atoms: N12_11  and  C13_12 
REMARK    3  A    between atoms: C13_12  and  C15_14 
REMARK    4  A    between atoms: C15_14  and  N17_15 
REMARK    5  A    between atoms: C15_14  and  C21_19 
ROOT
ATOM      1  N12 <0> d   1      18.489   0.509  10.823  0.00  0.00    -0.343 N 
ATOM      2  C13 <0> d   1      18.344  -0.384   9.826  0.00  0.00     0.253 C 
ATOM      3  O14 <0> d   1      17.239  -0.788   9.528  0.00  0.00    -0.271 OA
ATOM      4  H34 <0> d   1      19.372   0.831  11.062  0.00  0.00     0.163 HD
ENDROOT
BRANCH   1   5
ATOM      5  C10 <0> d   1      17.313   0.994  11.549  0.00  0.00     0.210 C 
ATOM      6  C8  <0> d   1      17.383   2.449  11.952  0.00  0.00     0.251 C 
ATOM      7  N7  <0> d   1      17.754   2.222  13.204  0.00  0.00    -0.293 N 
ATOM      8  O9  <0> d   1      17.171   3.474  11.338  0.00  0.00    -0.271 OA
ATOM      9  C3  <0> d   1      18.366   2.824  14.313  0.00  0.00     0.118 C 
ATOM     10  C27 <0> d   1      17.373   0.791  13.053  0.00  0.00     0.187 C 
ATOM     11  C2  <0> d   1      18.969   2.076  15.229  0.00  0.00    -0.041 C 
ATOM     12  C1  <0> d   1      19.644   2.822  16.351  0.00  0.00     0.047 C 
ATOM     13  C30 <0> d   1      19.067   0.587  15.280  0.00  0.00     0.112 C 
ATOM     14  S29 <0> d   1      18.784  -0.198  13.653  0.00  0.00    -0.136 SA
BRANCH   9  15
ATOM     15  C4  <0> d   1      18.340   4.288  14.461  0.00  0.00     0.227 C 
ATOM     16  O5  <0> d   1      19.217   4.970  13.950  0.00  0.00    -0.643 OA
ATOM     17  O6  <0> d   1      17.441   4.822  15.095  0.00  0.00    -0.643 OA
ENDBRANCH   9  15
ENDBRANCH   1   5
BRANCH   2  18
ATOM     18  C15 <0> d   1      19.554  -0.884   9.079  0.00  0.00     0.307 C 
BRANCH  18  19
ATOM     19  N17 <0> d   1      20.751  -0.181   9.559  0.00  0.00    -0.062 N 
ATOM     20  H18 <0> d   1      21.242  -0.764  10.219  0.00  0.00     0.275 HD
ATOM     21  H19 <0> d   1      21.355   0.026   8.778  0.00  0.00     0.275 HD
ATOM     22  H20 <0> d   1      20.478   0.680  10.010  0.00  0.00     0.275 HD
ENDBRANCH  18  19
BRANCH  18  23
ATOM     23  C21 <0> d   1      19.376  -0.625   7.605  0.00  0.00    -0.019 A 
ATOM     24  C26 <0> d   1      19.264   0.671   7.140  0.00  0.00     0.010 A 
ATOM     25  C25 <0> d   1      19.106   0.910   5.787  0.00  0.00     0.001 A 
ATOM     26  C24 <0> d   1      19.051  -0.151   4.901  0.00  0.00     0.000 A 
ATOM     27  C23 <0> d   1      19.158  -1.448   5.366  0.00  0.00     0.001 A 
ATOM     28  C22 <0> d   1      19.321  -1.685   6.719  0.00  0.00     0.010 A 
ENDBRANCH  18  23
ENDBRANCH   2  18
TORSDOF 5
ENDMDL
MODEL 9
REMARK VINA RESULT:      -7.3      2.360      3.224
REMARK  5 active torsions:
REMARK  status: ('A' for Active; 'I' for Inactive)
REMARK    1  A    between atoms: C3_3  and  C4_4 
REMARK    2  A    between atoms: C10_10  and  N12_11 
REMARK       I    between atoms: N12_11  and  C13_12 
REMARK    3  A    between atoms: C13_12  and  C15_14 
REMARK    4  A    between atoms: C15_14  and  N17_15 
REMARK    5  A    between atoms: C15_14  and  C21_19 
ROOT
ATOM      1  N12 <0> d   1      19.040   0.597  12.586  0.00  0.00    -0.343 N 
ATOM      2  C13 <0> d   1      18.844   1.740  13.271  0.00  0.00     0.253 C 
ATOM      3  O14 <0> d   1      19.521   2.717  13.027  0.00  0.00    -0.271 OA
ATOM      4  H34 <0> d   1      18.499  -0.185  12.781  0.00  0.00     0.163 HD
ENDROOT
BRANCH   1   5
ATOM      5  C10 <0> d   1      20.070   0.532  11.547  0.00  0.00     0.210 C 
ATOM      6  C8  <0> d   1      19.555   0.746  10.142  0.00  0.00     0.251 C 
ATOM      7  N7  <0> d   1      19.504  -0.541   9.823  0.00  0.00    -0.293 N 
ATOM      8  O9  <0> d   1      19.283   1.750   9.520  0.00  0.00    -0.271 OA
ATOM      9  C3  <0> d   1      18.912  -1.446   8.931  0.00  0.00     0.118 C 
ATOM     10  C27 <0> d   1      20.338  -0.864  11.013  0.00  0.00     0.187 C 
ATOM     11  C2  <0> d   1      18.777  -2.723   9.269  0.00  0.00    -0.041 C 
ATOM     12  C1  <0> d   1      18.079  -3.602   8.263  0.00  0.00     0.047 C 
ATOM     13  C30 <0> d   1      19.226  -3.394  10.525  0.00  0.00     0.112 C 
ATOM     14  S29 <0> d   1      19.494  -2.216  11.899  0.00  0.00    -0.136 SA
BRANCH   9  15
ATOM     15  C4  <0> d   1      18.440  -0.980   7.617  0.00  0.00     0.227 C 
ATOM     16  O5  <0> d   1      19.163  -1.080   6.636  0.00  0.00    -0.643 OA
ATOM     17  O6  <0> d   1      17.322  -0.495   7.507  0.00  0.00    -0.643 OA
ENDBRANCH   9  15
ENDBRANCH   1   5
BRANCH   2  18
ATOM     18  C15 <0> d   1      17.785   1.807  14.340  0.00  0.00     0.307 C 
BRANCH  18  19
ATOM     19  N17 <0> d   1      17.592   3.203  14.752  0.00  0.00    -0.062 N 
ATOM     20  H18 <0> d   1      17.764   3.289  15.743  0.00  0.00     0.275 HD
ATOM     21  H19 <0> d   1      18.235   3.796  14.247  0.00  0.00     0.275 HD
ATOM     22  H20 <0> d   1      16.645   3.487  14.550  0.00  0.00     0.275 HD
ENDBRANCH  18  19
BRANCH  18  23
ATOM     23  C21 <0> d   1      18.218   0.988  15.528  0.00  0.00    -0.019 A 
ATOM     24  C26 <0> d   1      18.943   1.577  16.547  0.00  0.00     0.010 A 
ATOM     25  C25 <0> d   1      19.336   0.827  17.640  0.00  0.00     0.001 A 
ATOM     26  C24 <0> d   1      19.012  -0.516  17.708  0.00  0.00     0.000 A 
ATOM     27  C23 <0> d   1      18.292  -1.107  16.687  0.00  0.00     0.001 A 
ATOM     28  C22 <0> d   1      17.894  -0.355  15.597  0.00  0.00     0.010 A 
ENDBRANCH  18  23
ENDBRANCH   2  18
TORSDOF 5
ENDMDL
