MODEL 1
REMARK VINA RESULT:      -8.6      0.000      0.000
REMARK  6 active torsions:
REMARK  status: ('A' for Active; 'I' for Inactive)
REMARK    1  A    between atoms: C8_7  and  O9_8 
REMARK    2  A    between atoms: C11_10  and  O12_11 
REMARK    3  A    between atoms: C16_15  and  O17_16 
REMARK    4  A    between atoms: C20_19  and  C21_20 
REMARK       I    between atoms: C21_20  and  N22_21 
REMARK    5  A    between atoms: C26_25  and  N28_26 
REMARK    6  A    between atoms: C34_31  and  O36_32 
ROOT
ATOM      1  C1  ZIN A   1      18.032   0.202   7.576  0.00  0.00     0.016 C 
ATOM      2  C2  ZIN A   1      18.474  -0.236   8.973  0.00  0.00     0.027 C 
ATOM      3  C4  ZIN A   1      18.154   0.852   9.965  0.00  0.00    -0.038 A 
ATOM      4  C5  ZIN A   1      18.048   2.161   9.555  0.00  0.00     0.009 A 
ATOM      5  C6  ZIN A   1      17.767   3.159  10.475  0.00  0.00     0.003 A 
ATOM      6  C7  ZIN A   1      17.590   2.852  11.810  0.00  0.00     0.037 A 
ATOM      7  C8  ZIN A   1      17.691   1.537  12.241  0.00  0.00     0.079 A 
ATOM      8  C10 ZIN A   1      17.969   0.525  11.313  0.00  0.00     0.037 A 
ATOM      9  C11 ZIN A   1      18.098  -0.877  11.739  0.00  0.00     0.089 C 
ATOM     10  C13 ZIN A   1      18.029  -1.883  10.790  0.00  0.00     0.033 C 
ATOM     11  C14 ZIN A   1      18.242  -3.196  11.192  0.00  0.00     0.201 C 
ATOM     12  O15 ZIN A   1      18.481  -3.409  12.365  0.00  0.00    -0.289 OA
ATOM     13  C16 ZIN A   1      18.193  -4.369  10.249  0.00  0.00     0.196 C 
ATOM     14  C18 ZIN A   1      19.624  -4.762   9.930  0.00  0.00     0.210 C 
ATOM     15  O19 ZIN A   1      20.529  -4.462  10.682  0.00  0.00    -0.288 OA
ATOM     16  C20 ZIN A   1      19.892  -5.508   8.702  0.00  0.00     0.115 C 
ATOM     17  C24 ZIN A   1      18.919  -5.634   7.742  0.00  0.00     0.135 C 
ATOM     18  O25 ZIN A   1      19.206  -6.300   6.613  0.00  0.00    -0.193 OA
ATOM     19  C26 ZIN A   1      17.548  -5.053   7.911  0.00  0.00     0.258 C 
ATOM     20  C32 ZIN A   1      17.517  -3.946   8.946  0.00  0.00     0.103 C 
ATOM     21  C34 ZIN A   1      18.173  -2.666   8.436  0.00  0.00     0.137 C 
ATOM     22  C37 ZIN A   1      17.738  -1.517   9.360  0.00  0.00     0.063 C 
ENDROOT
BRANCH  16  23
ATOM     23  C21 ZIN A   1      21.211  -6.127   8.495  0.00  0.00     0.255 C 
ATOM     24  N22 ZIN A   1      22.082  -5.581   7.623  0.00  0.00    -0.366 N 
ATOM     25  H48 ZIN A   1      21.816  -4.820   7.083  0.00  0.00     0.159 HD
ATOM     26  H49 ZIN A   1      22.976  -5.949   7.536  0.00  0.00     0.159 HD
ATOM     27  O23 ZIN A   1      21.515  -7.131   9.110  0.00  0.00    -0.268 OA
ENDBRANCH  16  23
BRANCH  13  28
ATOM     28  O17 ZIN A   1      17.482  -5.455  10.846  0.00  0.00    -0.373 OA
ATOM     29  H47 ZIN A   1      16.559  -5.523  10.566  0.00  0.00     0.211 HD
ENDBRANCH  13  28
BRANCH  19  30
ATOM     30  N28 ZIN A   1      16.627  -6.118   8.327  0.00  0.00    -0.068 N 
ATOM     31  H29 ZIN A   1      16.892  -6.453   9.241  0.00  0.00     0.279 HD
ATOM     32  C30 ZIN A   1      15.256  -5.590   8.377  0.00  0.00     0.270 C 
ATOM     33  C31 ZIN A   1      16.691  -7.225   7.363  0.00  0.00     0.270 C 
ENDBRANCH  19  30
BRANCH  21  34
ATOM     34  O36 ZIN A   1      17.732  -2.395   7.104  0.00  0.00    -0.394 OA
ATOM     35  H56 ZIN A   1      18.379  -2.624   6.422  0.00  0.00     0.210 HD
ENDBRANCH  21  34
BRANCH   9  36
ATOM     36  O12 ZIN A   1      18.281  -1.180  13.042  0.00  0.00    -0.359 OA
ATOM     37  H46 ZIN A   1      18.154  -2.115  13.250  0.00  0.00     0.217 HD
ENDBRANCH   9  36
BRANCH   7  38
ATOM     38  O9  ZIN A   1      17.520   1.233  13.551  0.00  0.00    -0.360 OA
ATOM     39  H45 ZIN A   1      16.757   1.664  13.958  0.00  0.00     0.217 HD
ENDBRANCH   7  38
TORSDOF 6
ENDMDL
MODEL 2
REMARK VINA RESULT:      -7.4      3.924      6.810
REMARK  6 active torsions:
REMARK  status: ('A' for Active; 'I' for Inactive)
REMARK    1  A    between atoms: C8_7  and  O9_8 
REMARK    2  A    between atoms: C11_10  and  O12_11 
REMARK    3  A    between atoms: C16_15  and  O17_16 
REMARK    4  A    between atoms: C20_19  and  C21_20 
REMARK       I    between atoms: C21_20  and  N22_21 
REMARK    5  A    between atoms: C26_25  and  N28_26 
REMARK    6  A    between atoms: C34_31  and  O36_32 
ROOT
ATOM      1  C1  ZIN A   1      16.833  -7.267   8.569  0.00  0.00     0.016 C 
ATOM      2  C2  ZIN A   1      16.984  -5.807   8.140  0.00  0.00     0.027 C 
ATOM      3  C4  ZIN A   1      17.682  -5.034   9.229  0.00  0.00    -0.038 A 
ATOM      4  C5  ZIN A   1      17.624  -5.460  10.536  0.00  0.00     0.009 A 
ATOM      5  C6  ZIN A   1      18.257  -4.737  11.534  0.00  0.00     0.003 A 
ATOM      6  C7  ZIN A   1      18.952  -3.583  11.230  0.00  0.00     0.037 A 
ATOM      7  C8  ZIN A   1      19.023  -3.139   9.918  0.00  0.00     0.079 A 
ATOM      8  C10 ZIN A   1      18.390  -3.870   8.905  0.00  0.00     0.037 A 
ATOM      9  C11 ZIN A   1      18.433  -3.419   7.506  0.00  0.00     0.089 C 
ATOM     10  C13 ZIN A   1      18.109  -4.308   6.496  0.00  0.00     0.033 C 
ATOM     11  C14 ZIN A   1      18.066  -3.846   5.186  0.00  0.00     0.201 C 
ATOM     12  O15 ZIN A   1      18.315  -2.674   4.980  0.00  0.00    -0.289 OA
ATOM     13  C16 ZIN A   1      17.726  -4.721   4.010  0.00  0.00     0.196 C 
ATOM     14  C18 ZIN A   1      16.284  -4.438   3.628  0.00  0.00     0.210 C 
ATOM     15  O19 ZIN A   1      15.758  -3.389   3.939  0.00  0.00    -0.288 OA
ATOM     16  C20 ZIN A   1      15.541  -5.451   2.880  0.00  0.00     0.115 C 
ATOM     17  C24 ZIN A   1      16.047  -6.719   2.742  0.00  0.00     0.135 C 
ATOM     18  O25 ZIN A   1      15.327  -7.634   2.074  0.00  0.00    -0.193 OA
ATOM     19  C26 ZIN A   1      17.375  -7.117   3.311  0.00  0.00     0.258 C 
ATOM     20  C32 ZIN A   1      17.826  -6.189   4.422  0.00  0.00     0.103 C 
ATOM     21  C34 ZIN A   1      17.029  -6.402   5.706  0.00  0.00     0.137 C 
ATOM     22  C37 ZIN A   1      17.805  -5.738   6.854  0.00  0.00     0.063 C 
ENDROOT
BRANCH  16  23
ATOM     23  C21 ZIN A   1      14.246  -5.108   2.273  0.00  0.00     0.255 C 
ATOM     24  N22 ZIN A   1      14.187  -4.722   0.983  0.00  0.00    -0.366 N 
ATOM     25  H48 ZIN A   1      15.005  -4.604   0.474  0.00  0.00     0.159 HD
ATOM     26  H49 ZIN A   1      13.327  -4.561   0.563  0.00  0.00     0.159 HD
ATOM     27  O23 ZIN A   1      13.227  -5.174   2.934  0.00  0.00    -0.268 OA
ENDBRANCH  16  23
BRANCH  13  28
ATOM     28  O17 ZIN A   1      18.609  -4.452   2.919  0.00  0.00    -0.373 OA
ATOM     29  H47 ZIN A   1      18.267  -3.806   2.287  0.00  0.00     0.211 HD
ENDBRANCH  13  28
BRANCH  19  30
ATOM     30  N28 ZIN A   1      18.378  -7.098   2.239  0.00  0.00    -0.068 N 
ATOM     31  H29 ZIN A   1      19.115  -6.452   2.479  0.00  0.00     0.279 HD
ATOM     32  C30 ZIN A   1      18.943  -8.444   2.071  0.00  0.00     0.270 C 
ATOM     33  C31 ZIN A   1      17.745  -6.672   0.984  0.00  0.00     0.270 C 
ENDBRANCH  19  30
BRANCH  21  34
ATOM     34  O36 ZIN A   1      16.901  -7.801   5.968  0.00  0.00    -0.394 OA
ATOM     35  H56 ZIN A   1      17.036  -8.361   5.191  0.00  0.00     0.210 HD
ENDBRANCH  21  34
BRANCH   9  36
ATOM     36  O12 ZIN A   1      18.785  -2.149   7.209  0.00  0.00    -0.359 OA
ATOM     37  H46 ZIN A   1      18.055  -1.518   7.258  0.00  0.00     0.217 HD
ENDBRANCH   9  36
BRANCH   7  38
ATOM     38  O9  ZIN A   1      19.702  -2.004   9.617  0.00  0.00    -0.360 OA
ATOM     39  H45 ZIN A   1      20.567  -1.939  10.044  0.00  0.00     0.217 HD
ENDBRANCH   7  38
TORSDOF 6
ENDMDL
MODEL 3
REMARK VINA RESULT:      -6.4      4.445      6.726
REMARK  6 active torsions:
REMARK  status: ('A' for Active; 'I' for Inactive)
REMARK    1  A    between atoms: C8_7  and  O9_8 
REMARK    2  A    between atoms: C11_10  and  O12_11 
REMARK    3  A    between atoms: C16_15  and  O17_16 
REMARK    4  A    between atoms: C20_19  and  C21_20 
REMARK       I    between atoms: C21_20  and  N22_21 
REMARK    5  A    between atoms: C26_25  and  N28_26 
REMARK    6  A    between atoms: C34_31  and  O36_32 
ROOT
ATOM      1  C1  ZIN A   1      19.836  -5.570   6.954  0.00  0.00     0.016 C 
ATOM      2  C2  ZIN A   1      18.517  -6.012   7.591  0.00  0.00     0.027 C 
ATOM      3  C4  ZIN A   1      18.425  -5.457   8.989  0.00  0.00    -0.038 A 
ATOM      4  C5  ZIN A   1      19.565  -5.145   9.693  0.00  0.00     0.009 A 
ATOM      5  C6  ZIN A   1      19.473  -4.648  10.984  0.00  0.00     0.003 A 
ATOM      6  C7  ZIN A   1      18.240  -4.461  11.577  0.00  0.00     0.037 A 
ATOM      7  C8  ZIN A   1      17.079  -4.769  10.881  0.00  0.00     0.079 A 
ATOM      8  C10 ZIN A   1      17.168  -5.265   9.574  0.00  0.00     0.037 A 
ATOM      9  C11 ZIN A   1      15.958  -5.615   8.814  0.00  0.00     0.089 C 
ATOM     10  C13 ZIN A   1      16.041  -5.771   7.441  0.00  0.00     0.033 C 
ATOM     11  C14 ZIN A   1      14.912  -6.190   6.747  0.00  0.00     0.201 C 
ATOM     12  O15 ZIN A   1      13.894  -6.403   7.376  0.00  0.00    -0.289 OA
ATOM     13  C16 ZIN A   1      14.886  -6.393   5.255  0.00  0.00     0.196 C 
ATOM     14  C18 ZIN A   1      14.987  -7.885   4.993  0.00  0.00     0.210 C 
ATOM     15  O19 ZIN A   1      14.667  -8.685   5.849  0.00  0.00    -0.288 OA
ATOM     16  C20 ZIN A   1      15.475  -8.340   3.693  0.00  0.00     0.115 C 
ATOM     17  C24 ZIN A   1      16.059  -7.453   2.823  0.00  0.00     0.135 C 
ATOM     18  O25 ZIN A   1      16.523  -7.908   1.649  0.00  0.00    -0.193 OA
ATOM     19  C26 ZIN A   1      16.198  -5.994   3.141  0.00  0.00     0.258 C 
ATOM     20  C32 ZIN A   1      16.105  -5.719   4.629  0.00  0.00     0.103 C 
ATOM     21  C34 ZIN A   1      17.360  -6.166   5.373  0.00  0.00     0.137 C 
ATOM     22  C37 ZIN A   1      17.350  -5.492   6.754  0.00  0.00     0.063 C 
ENDROOT
BRANCH  16  23
ATOM     23  C21 ZIN A   1      15.338  -9.755   3.314  0.00  0.00     0.255 C 
ATOM     24  N22 ZIN A   1      16.307 -10.635   3.632  0.00  0.00    -0.366 N 
ATOM     25  H48 ZIN A   1      17.126 -10.325   4.050  0.00  0.00     0.159 HD
ATOM     26  H49 ZIN A   1      16.187 -11.579   3.442  0.00  0.00     0.159 HD
ATOM     27  O23 ZIN A   1      14.348 -10.131   2.714  0.00  0.00    -0.268 OA
ENDBRANCH  16  23
BRANCH  13  28
ATOM     28  O17 ZIN A   1      13.683  -5.854   4.703  0.00  0.00    -0.373 OA
ATOM     29  H47 ZIN A   1      13.673  -5.825   3.737  0.00  0.00     0.211 HD
ENDBRANCH  13  28
BRANCH  19  30
ATOM     30  N28 ZIN A   1      15.132  -5.255   2.454  0.00  0.00    -0.068 N 
ATOM     31  H29 ZIN A   1      14.483  -4.888   3.134  0.00  0.00     0.279 HD
ATOM     32  C30 ZIN A   1      15.719  -4.145   1.690  0.00  0.00     0.270 C 
ATOM     33  C31 ZIN A   1      14.421  -6.157   1.537  0.00  0.00     0.270 C 
ENDBRANCH  19  30
BRANCH  21  34
ATOM     34  O36 ZIN A   1      18.522  -5.752   4.652  0.00  0.00    -0.394 OA
ATOM     35  H56 ZIN A   1      19.334  -5.755   5.178  0.00  0.00     0.210 HD
ENDBRANCH  21  34
BRANCH   9  36
ATOM     36  O12 ZIN A   1      14.778  -5.784   9.450  0.00  0.00    -0.359 OA
ATOM     37  H46 ZIN A   1      14.643  -5.180  10.193  0.00  0.00     0.217 HD
ENDBRANCH   9  36
BRANCH   7  38
ATOM     38  O9  ZIN A   1      15.867  -4.589  11.462  0.00  0.00    -0.360 OA
ATOM     39  H45 ZIN A   1      15.190  -4.249  10.861  0.00  0.00     0.217 HD
ENDBRANCH   7  38
TORSDOF 6
ENDMDL
MODEL 4
REMARK VINA RESULT:      -6.0      3.125      5.586
REMARK  6 active torsions:
REMARK  status: ('A' for Active; 'I' for Inactive)
REMARK    1  A    between atoms: C8_7  and  O9_8 
REMARK    2  A    between atoms: C11_10  and  O12_11 
REMARK    3  A    between atoms: C16_15  and  O17_16 
REMARK    4  A    between atoms: C20_19  and  C21_20 
REMARK       I    between atoms: C21_20  and  N22_21 
REMARK    5  A    between atoms: C26_25  and  N28_26 
REMARK    6  A    between atoms: C34_31  and  O36_32 
ROOT
ATOM      1  C1  ZIN A   1      16.251  -5.057  10.785  0.00  0.00     0.016 C 
ATOM      2  C2  ZIN A   1      16.769  -4.232   9.606  0.00  0.00     0.027 C 
ATOM      3  C4  ZIN A   1      17.668  -3.136  10.116  0.00  0.00    -0.038 A 
ATOM      4  C5  ZIN A   1      17.529  -2.660  11.400  0.00  0.00     0.009 A 
ATOM      5  C6  ZIN A   1      18.350  -1.642  11.859  0.00  0.00     0.003 A 
ATOM      6  C7  ZIN A   1      19.315  -1.096  11.036  0.00  0.00     0.037 A 
ATOM      7  C8  ZIN A   1      19.471  -1.565   9.739  0.00  0.00     0.079 A 
ATOM      8  C10 ZIN A   1      18.647  -2.597   9.274  0.00  0.00     0.037 A 
ATOM      9  C11 ZIN A   1      18.776  -3.107   7.901  0.00  0.00     0.089 C 
ATOM     10  C13 ZIN A   1      18.209  -4.327   7.574  0.00  0.00     0.033 C 
ATOM     11  C14 ZIN A   1      18.259  -4.756   6.253  0.00  0.00     0.201 C 
ATOM     12  O15 ZIN A   1      18.801  -4.039   5.434  0.00  0.00    -0.289 OA
ATOM     13  C16 ZIN A   1      17.677  -6.062   5.783  0.00  0.00     0.196 C 
ATOM     14  C18 ZIN A   1      16.351  -5.758   5.109  0.00  0.00     0.210 C 
ATOM     15  O19 ZIN A   1      16.124  -4.651   4.665  0.00  0.00    -0.288 OA
ATOM     16  C20 ZIN A   1      15.354  -6.821   5.005  0.00  0.00     0.115 C 
ATOM     17  C24 ZIN A   1      15.508  -7.987   5.712  0.00  0.00     0.135 C 
ATOM     18  O25 ZIN A   1      14.560  -8.932   5.617  0.00  0.00    -0.193 OA
ATOM     19  C26 ZIN A   1      16.699  -8.241   6.587  0.00  0.00     0.258 C 
ATOM     20  C32 ZIN A   1      17.400  -6.958   6.989  0.00  0.00     0.103 C 
ATOM     21  C34 ZIN A   1      16.604  -6.170   8.024  0.00  0.00     0.137 C 
ATOM     22  C37 ZIN A   1      17.551  -5.138   8.657  0.00  0.00     0.063 C 
ENDROOT
BRANCH  16  23
ATOM     23  C21 ZIN A   1      14.179  -6.641   4.137  0.00  0.00     0.255 C 
ATOM     24  N22 ZIN A   1      14.049  -7.378   3.017  0.00  0.00    -0.366 N 
ATOM     25  H48 ZIN A   1      14.761  -7.980   2.746  0.00  0.00     0.159 HD
ATOM     26  H49 ZIN A   1      13.244  -7.307   2.480  0.00  0.00     0.159 HD
ATOM     27  O23 ZIN A   1      13.325  -5.825   4.430  0.00  0.00    -0.268 OA
ENDBRANCH  16  23
BRANCH  13  28
ATOM     28  O17 ZIN A   1      18.576  -6.710   4.881  0.00  0.00    -0.373 OA
ATOM     29  H47 ZIN A   1      18.935  -7.543   5.214  0.00  0.00     0.211 HD
ENDBRANCH  13  28
BRANCH  19  30
ATOM     30  N28 ZIN A   1      17.648  -9.095   5.863  0.00  0.00    -0.068 N 
ATOM     31  H29 ZIN A   1      18.511  -8.592   5.719  0.00  0.00     0.279 HD
ATOM     32  C30 ZIN A   1      17.914 -10.308   6.649  0.00  0.00     0.270 C 
ATOM     33  C31 ZIN A   1      17.077  -9.470   4.563  0.00  0.00     0.270 C 
ENDBRANCH  19  30
BRANCH  21  34
ATOM     34  O36 ZIN A   1      16.120  -7.054   9.038  0.00  0.00    -0.394 OA
ATOM     35  H56 ZIN A   1      15.804  -6.605   9.834  0.00  0.00     0.210 HD
ENDBRANCH  21  34
BRANCH   9  36
ATOM     36  O12 ZIN A   1      19.440  -2.392   6.967  0.00  0.00    -0.359 OA
ATOM     37  H46 ZIN A   1      20.231  -1.949   7.302  0.00  0.00     0.217 HD
ENDBRANCH   9  36
BRANCH   7  38
ATOM     38  O9  ZIN A   1      20.416  -1.028   8.928  0.00  0.00    -0.360 OA
ATOM     39  H45 ZIN A   1      20.896  -0.287   9.321  0.00  0.00     0.217 HD
ENDBRANCH   7  38
TORSDOF 6
ENDMDL
MODEL 5
REMARK VINA RESULT:      -5.9      4.479      7.475
REMARK  6 active torsions:
REMARK  status: ('A' for Active; 'I' for Inactive)
REMARK    1  A    between atoms: C8_7  and  O9_8 
REMARK    2  A    between atoms: C11_10  and  O12_11 
REMARK    3  A    between atoms: C16_15  and  O17_16 
REMARK    4  A    between atoms: C20_19  and  C21_20 
REMARK       I    between atoms: C21_20  and  N22_21 
REMARK    5  A    between atoms: C26_25  and  N28_26 
REMARK    6  A    between atoms: C34_31  and  O36_32 
ROOT
ATOM      1  C1  ZIN A   1      18.638  -5.451   7.543  0.00  0.00     0.016 C 
ATOM      2  C2  ZIN A   1      17.880  -4.519   6.596  0.00  0.00     0.027 C 
ATOM      3  C4  ZIN A   1      18.403  -3.115   6.748  0.00  0.00    -0.038 A 
ATOM      4  C5  ZIN A   1      19.000  -2.715   7.922  0.00  0.00     0.009 A 
ATOM      5  C6  ZIN A   1      19.467  -1.418   8.060  0.00  0.00     0.003 A 
ATOM      6  C7  ZIN A   1      19.339  -0.513   7.025  0.00  0.00     0.037 A 
ATOM      7  C8  ZIN A   1      18.741  -0.898   5.834  0.00  0.00     0.079 A 
ATOM      8  C10 ZIN A   1      18.274  -2.210   5.688  0.00  0.00     0.037 A 
ATOM      9  C11 ZIN A   1      17.621  -2.647   4.444  0.00  0.00     0.089 C 
ATOM     10  C13 ZIN A   1      17.481  -4.001   4.191  0.00  0.00     0.033 C 
ATOM     11  C14 ZIN A   1      16.784  -4.400   3.057  0.00  0.00     0.201 C 
ATOM     12  O15 ZIN A   1      16.324  -3.542   2.331  0.00  0.00    -0.289 OA
ATOM     13  C16 ZIN A   1      16.570  -5.843   2.681  0.00  0.00     0.196 C 
ATOM     14  C18 ZIN A   1      15.151  -6.213   3.074  0.00  0.00     0.210 C 
ATOM     15  O19 ZIN A   1      14.303  -5.355   3.204  0.00  0.00    -0.288 OA
ATOM     16  C20 ZIN A   1      14.825  -7.622   3.291  0.00  0.00     0.115 C 
ATOM     17  C24 ZIN A   1      15.825  -8.557   3.383  0.00  0.00     0.135 C 
ATOM     18  O25 ZIN A   1      15.494  -9.837   3.611  0.00  0.00    -0.193 OA
ATOM     19  C26 ZIN A   1      17.273  -8.198   3.237  0.00  0.00     0.258 C 
ATOM     20  C32 ZIN A   1      17.527  -6.724   3.482  0.00  0.00     0.103 C 
ATOM     21  C34 ZIN A   1      17.420  -6.363   4.961  0.00  0.00     0.137 C 
ATOM     22  C37 ZIN A   1      18.079  -4.988   5.156  0.00  0.00     0.063 C 
ENDROOT
BRANCH  16  23
ATOM     23  C21 ZIN A   1      13.419  -8.037   3.411  0.00  0.00     0.255 C 
ATOM     24  N22 ZIN A   1      12.907  -8.343   4.620  0.00  0.00    -0.366 N 
ATOM     25  H48 ZIN A   1      13.482  -8.354   5.401  0.00  0.00     0.159 HD
ATOM     26  H49 ZIN A   1      11.963  -8.551   4.708  0.00  0.00     0.159 HD
ATOM     27  O23 ZIN A   1      12.717  -8.105   2.419  0.00  0.00    -0.268 OA
ENDBRANCH  16  23
BRANCH  13  28
ATOM     28  O17 ZIN A   1      16.781  -6.027   1.280  0.00  0.00    -0.373 OA
ATOM     29  H47 ZIN A   1      16.251  -6.736   0.893  0.00  0.00     0.211 HD
ENDBRANCH  13  28
BRANCH  19  30
ATOM     30  N28 ZIN A   1      17.712  -8.536   1.877  0.00  0.00    -0.068 N 
ATOM     31  H29 ZIN A   1      17.245  -7.936   1.214  0.00  0.00     0.279 HD
ATOM     32  C30 ZIN A   1      19.166  -8.347   1.770  0.00  0.00     0.270 C 
ATOM     33  C31 ZIN A   1      17.379  -9.937   1.588  0.00  0.00     0.270 C 
ENDBRANCH  19  30
BRANCH  21  34
ATOM     34  O36 ZIN A   1      18.110  -7.336   5.747  0.00  0.00    -0.394 OA
ATOM     35  H56 ZIN A   1      18.579  -8.002   5.226  0.00  0.00     0.210 HD
ENDBRANCH  21  34
BRANCH   9  36
ATOM     36  O12 ZIN A   1      17.163  -1.737   3.558  0.00  0.00    -0.359 OA
ATOM     37  H46 ZIN A   1      17.741  -1.607   2.794  0.00  0.00     0.217 HD
ENDBRANCH   9  36
BRANCH   7  38
ATOM     38  O9  ZIN A   1      18.611  -0.011   4.817  0.00  0.00    -0.360 OA
ATOM     39  H45 ZIN A   1      18.342  -0.411   3.978  0.00  0.00     0.217 HD
ENDBRANCH   7  38
TORSDOF 6
ENDMDL
MODEL 6
REMARK VINA RESULT:      -5.6      8.870     12.761
REMARK  6 active torsions:
REMARK  status: ('A' for Active; 'I' for Inactive)
REMARK    1  A    between atoms: C8_7  and  O9_8 
REMARK    2  A    between atoms: C11_10  and  O12_11 
REMARK    3  A    between atoms: C16_15  and  O17_16 
REMARK    4  A    between atoms: C20_19  and  C21_20 
REMARK       I    between atoms: C21_20  and  N22_21 
REMARK    5  A    between atoms: C26_25  and  N28_26 
REMARK    6  A    between atoms: C34_31  and  O36_32 
ROOT
ATOM      1  C1  ZIN A   1      14.662   6.053  13.699  0.00  0.00     0.016 C 
ATOM      2  C2  ZIN A   1      15.918   5.318  14.170  0.00  0.00     0.027 C 
ATOM      3  C4  ZIN A   1      16.802   5.025  12.985  0.00  0.00    -0.038 A 
ATOM      4  C5  ZIN A   1      16.265   4.921  11.722  0.00  0.00     0.009 A 
ATOM      5  C6  ZIN A   1      17.082   4.639  10.639  0.00  0.00     0.003 A 
ATOM      6  C7  ZIN A   1      18.440   4.458  10.813  0.00  0.00     0.037 A 
ATOM      7  C8  ZIN A   1      18.999   4.560  12.079  0.00  0.00     0.079 A 
ATOM      8  C10 ZIN A   1      18.177   4.852  13.175  0.00  0.00     0.037 A 
ATOM      9  C11 ZIN A   1      18.736   4.953  14.532  0.00  0.00     0.089 C 
ATOM     10  C13 ZIN A   1      17.994   5.567  15.527  0.00  0.00     0.033 C 
ATOM     11  C14 ZIN A   1      18.493   5.576  16.824  0.00  0.00     0.201 C 
ATOM     12  O15 ZIN A   1      19.565   5.041  17.033  0.00  0.00    -0.289 OA
ATOM     13  C16 ZIN A   1      17.775   6.213  17.983  0.00  0.00     0.196 C 
ATOM     14  C18 ZIN A   1      17.113   5.102  18.779  0.00  0.00     0.210 C 
ATOM     15  O19 ZIN A   1      17.524   3.962  18.707  0.00  0.00    -0.288 OA
ATOM     16  C20 ZIN A   1      15.974   5.431  19.634  0.00  0.00     0.115 C 
ATOM     17  C24 ZIN A   1      15.362   6.655  19.532  0.00  0.00     0.135 C 
ATOM     18  O25 ZIN A   1      14.301   6.916  20.311  0.00  0.00    -0.193 OA
ATOM     19  C26 ZIN A   1      15.839   7.711  18.580  0.00  0.00     0.258 C 
ATOM     20  C32 ZIN A   1      16.677   7.135  17.456  0.00  0.00     0.103 C 
ATOM     21  C34 ZIN A   1      15.830   6.374  16.441  0.00  0.00     0.137 C 
ATOM     22  C37 ZIN A   1      16.673   6.192  15.169  0.00  0.00     0.063 C 
ENDROOT
BRANCH  16  23
ATOM     23  C21 ZIN A   1      15.482   4.445  20.609  0.00  0.00     0.255 C 
ATOM     24  N22 ZIN A   1      16.348   3.618  21.227  0.00  0.00    -0.366 N 
ATOM     25  H48 ZIN A   1      17.286   3.626  20.981  0.00  0.00     0.159 HD
ATOM     26  H49 ZIN A   1      16.033   3.014  21.919  0.00  0.00     0.159 HD
ATOM     27  O23 ZIN A   1      14.293   4.376  20.858  0.00  0.00    -0.268 OA
ENDBRANCH  16  23
BRANCH  13  28
ATOM     28  O17 ZIN A   1      18.694   6.949  18.793  0.00  0.00    -0.373 OA
ATOM     29  H47 ZIN A   1      19.112   6.424  19.489  0.00  0.00     0.211 HD
ENDBRANCH  13  28
BRANCH  19  30
ATOM     30  N28 ZIN A   1      16.644   8.691  19.320  0.00  0.00    -0.068 N 
ATOM     31  H29 ZIN A   1      17.354   8.210  19.852  0.00  0.00     0.279 HD
ATOM     32  C30 ZIN A   1      17.284   9.615  18.373  0.00  0.00     0.270 C 
ATOM     33  C31 ZIN A   1      15.778   9.448  20.234  0.00  0.00     0.270 C 
ENDBRANCH  19  30
BRANCH  21  34
ATOM     34  O36 ZIN A   1      14.657   7.128  16.129  0.00  0.00    -0.394 OA
ATOM     35  H56 ZIN A   1      14.558   7.329  15.188  0.00  0.00     0.210 HD
ENDBRANCH  21  34
BRANCH   9  36
ATOM     36  O12 ZIN A   1      19.960   4.450  14.805  0.00  0.00    -0.359 OA
ATOM     37  H46 ZIN A   1      20.625   5.123  15.002  0.00  0.00     0.217 HD
ENDBRANCH   9  36
BRANCH   7  38
ATOM     38  O9  ZIN A   1      20.331   4.380  12.253  0.00  0.00    -0.360 OA
ATOM     39  H45 ZIN A   1      20.791   4.061  11.464  0.00  0.00     0.217 HD
ENDBRANCH   7  38
TORSDOF 6
ENDMDL
