MODEL 1
REMARK VINA RESULT:      -7.7      0.000      0.000
REMARK  12 active torsions:
REMARK  status: ('A' for Active; 'I' for Inactive)
REMARK    1  A    between atoms: C2_2  and  C5_5 
REMARK    2  A    between atoms: C5_5  and  C6_6 
REMARK    3  A    between atoms: C6_6  and  C9_9 
REMARK    4  A    between atoms: C12_12  and  O13_13 
REMARK    5  A    between atoms: O13_13  and  C14_14 
REMARK    6  A    between atoms: C14_14  and  C15_15 
REMARK    7  A    between atoms: C15_15  and  O16_16 
REMARK    8  A    between atoms: O16_16  and  C17_17 
REMARK    9  A    between atoms: C17_17  and  C18_18 
REMARK   10  A    between atoms: C18_18  and  N19_19 
REMARK   11  A    between atoms: N19_19  and  C22_22 
REMARK   12  A    between atoms: C22_22  and  C23_23 
ROOT
ATOM      1  O13 ZIN A   1      18.229   0.081  17.654  0.00  0.00    -0.349 OA
ENDROOT
BRANCH   1   2
ATOM      2  C12 ZIN A   1      18.234  -0.239  16.334  0.00  0.00     0.068 A 
ATOM      3  C11 ZIN A   1      18.998  -1.306  15.882  0.00  0.00     0.037 A 
ATOM      4  C10 ZIN A   1      19.002  -1.630  14.538  0.00  0.00     0.011 A 
ATOM      5  C9  ZIN A   1      18.246  -0.893  13.645  0.00  0.00    -0.050 A 
ATOM      6  C30 ZIN A   1      17.489   0.174  14.093  0.00  0.00     0.011 A 
ATOM      7  C29 ZIN A   1      17.478   0.499  15.436  0.00  0.00     0.037 A 
BRANCH   5   8
ATOM      8  C6  ZIN A   1      18.253  -1.249  12.182  0.00  0.00    -0.020 C 
ATOM      9  C7  ZIN A   1      19.646  -0.994  11.601  0.00  0.00     0.020 C 
ATOM     10  C8  ZIN A   1      17.227  -0.386  11.442  0.00  0.00     0.020 C 
BRANCH   8  11
ATOM     11  C5  ZIN A   1      17.893  -2.726  12.013  0.00  0.00     0.022 C 
BRANCH  11  12
ATOM     12  C2  ZIN A   1      18.831  -3.367  10.989  0.00  0.00    -0.050 C 
ATOM     13  C1  ZIN A   1      18.905  -2.484   9.742  0.00  0.00     0.014 C 
ATOM     14  C3  ZIN A   1      18.298  -4.749  10.604  0.00  0.00     0.014 C 
ATOM     15  C4  ZIN A   1      20.228  -3.512  11.597  0.00  0.00     0.014 C 
ENDBRANCH  11  12
ENDBRANCH   8  11
ENDBRANCH   5   8
ENDBRANCH   1   2
BRANCH   1  16
ATOM     16  C14 ZIN A   1      19.407   0.702  18.175  0.00  0.00     0.201 C 
BRANCH  16  17
ATOM     17  C15 ZIN A   1      19.128   2.182  18.442  0.00  0.00     0.194 C 
BRANCH  17  18
ATOM     18  O16 ZIN A   1      19.756   2.976  17.433  0.00  0.00    -0.387 OA
BRANCH  18  19
ATOM     19  C17 ZIN A   1      18.886   3.929  16.818  0.00  0.00     0.195 C 
BRANCH  19  20
ATOM     20  C18 ZIN A   1      19.704   4.858  15.917  0.00  0.00     0.263 C 
BRANCH  20  21
ATOM     21  N19 ZIN A   1      19.009   5.032  14.635  0.00  0.00    -0.069 N 
ATOM     22  C20 ZIN A   1      18.036   6.126  14.750  0.00  0.00     0.272 C 
ATOM     23  C21 ZIN A   1      19.987   5.355  13.588  0.00  0.00     0.272 C 
BRANCH  21  24
ATOM     24  C22 ZIN A   1      18.309   3.789  14.285  0.00  0.00     0.275 C 
BRANCH  24  25
ATOM     25  C23 ZIN A   1      18.337   3.600  12.790  0.00  0.00    -0.032 A 
ATOM     26  C28 ZIN A   1      19.335   2.840  12.209  0.00  0.00     0.009 A 
ATOM     27  C27 ZIN A   1      19.359   2.663  10.838  0.00  0.00     0.001 A 
ATOM     28  C26 ZIN A   1      18.390   3.252  10.049  0.00  0.00     0.000 A 
ATOM     29  C25 ZIN A   1      17.394   4.016  10.629  0.00  0.00     0.001 A 
ATOM     30  C24 ZIN A   1      17.368   4.189  12.000  0.00  0.00     0.009 A 
ENDBRANCH  24  25
ENDBRANCH  21  24
ENDBRANCH  20  21
ENDBRANCH  19  20
ENDBRANCH  18  19
ENDBRANCH  17  18
ENDBRANCH  16  17
ENDBRANCH   1  16
TORSDOF 12
ENDMDL
MODEL 2
REMARK VINA RESULT:      -7.7      2.591      5.320
REMARK  12 active torsions:
REMARK  status: ('A' for Active; 'I' for Inactive)
REMARK    1  A    between atoms: C2_2  and  C5_5 
REMARK    2  A    between atoms: C5_5  and  C6_6 
REMARK    3  A    between atoms: C6_6  and  C9_9 
REMARK    4  A    between atoms: C12_12  and  O13_13 
REMARK    5  A    between atoms: O13_13  and  C14_14 
REMARK    6  A    between atoms: C14_14  and  C15_15 
REMARK    7  A    between atoms: C15_15  and  O16_16 
REMARK    8  A    between atoms: O16_16  and  C17_17 
REMARK    9  A    between atoms: C17_17  and  C18_18 
REMARK   10  A    between atoms: C18_18  and  N19_19 
REMARK   11  A    between atoms: N19_19  and  C22_22 
REMARK   12  A    between atoms: C22_22  and  C23_23 
ROOT
ATOM      1  O13 ZIN A   1      19.190   4.687  12.421  0.00  0.00    -0.349 OA
ENDROOT
BRANCH   1   2
ATOM      2  C12 ZIN A   1      19.085   3.661  11.537  0.00  0.00     0.068 A 
ATOM      3  C11 ZIN A   1      18.132   3.708  10.530  0.00  0.00     0.037 A 
ATOM      4  C10 ZIN A   1      18.027   2.662   9.631  0.00  0.00     0.011 A 
ATOM      5  C9  ZIN A   1      18.869   1.571   9.736  0.00  0.00    -0.050 A 
ATOM      6  C30 ZIN A   1      19.817   1.520  10.743  0.00  0.00     0.011 A 
ATOM      7  C29 ZIN A   1      19.929   2.565  11.640  0.00  0.00     0.037 A 
BRANCH   5   8
ATOM      8  C6  ZIN A   1      18.752   0.433   8.757  0.00  0.00    -0.020 C 
ATOM      9  C7  ZIN A   1      17.298  -0.041   8.698  0.00  0.00     0.020 C 
ATOM     10  C8  ZIN A   1      19.648  -0.723   9.207  0.00  0.00     0.020 C 
BRANCH   8  11
ATOM     11  C5  ZIN A   1      19.190   0.907   7.369  0.00  0.00     0.022 C 
BRANCH  11  12
ATOM     12  C2  ZIN A   1      18.680  -0.073   6.310  0.00  0.00    -0.050 C 
ATOM     13  C1  ZIN A   1      19.102  -1.495   6.686  0.00  0.00     0.014 C 
ATOM     14  C3  ZIN A   1      19.276   0.292   4.949  0.00  0.00     0.014 C 
ATOM     15  C4  ZIN A   1      17.154   0.005   6.235  0.00  0.00     0.014 C 
ENDBRANCH  11  12
ENDBRANCH   8  11
ENDBRANCH   5   8
ENDBRANCH   1   2
BRANCH   1  16
ATOM     16  C14 ZIN A   1      18.022   5.013  13.178  0.00  0.00     0.201 C 
BRANCH  16  17
ATOM     17  C15 ZIN A   1      18.366   5.022  14.669  0.00  0.00     0.194 C 
BRANCH  17  18
ATOM     18  O16 ZIN A   1      17.976   3.779  15.256  0.00  0.00    -0.387 OA
BRANCH  18  19
ATOM     19  C17 ZIN A   1      19.073   2.966  15.679  0.00  0.00     0.195 C 
BRANCH  19  20
ATOM     20  C18 ZIN A   1      18.585   1.951  16.715  0.00  0.00     0.263 C 
BRANCH  20  21
ATOM     21  N19 ZIN A   1      18.625   0.602  16.136  0.00  0.00    -0.069 N 
ATOM     22  C20 ZIN A   1      19.257  -0.321  17.088  0.00  0.00     0.272 C 
ATOM     23  C21 ZIN A   1      17.257   0.151  15.850  0.00  0.00     0.272 C 
BRANCH  21  24
ATOM     24  C22 ZIN A   1      19.403   0.628  14.890  0.00  0.00     0.275 C 
BRANCH  24  25
ATOM     25  C23 ZIN A   1      18.720  -0.227  13.853  0.00  0.00    -0.032 A 
ATOM     26  C28 ZIN A   1      17.616   0.258  13.176  0.00  0.00     0.009 A 
ATOM     27  C27 ZIN A   1      16.992  -0.525  12.222  0.00  0.00     0.001 A 
ATOM     28  C26 ZIN A   1      17.466  -1.794  11.952  0.00  0.00     0.000 A 
ATOM     29  C25 ZIN A   1      18.567  -2.281  12.632  0.00  0.00     0.001 A 
ATOM     30  C24 ZIN A   1      19.194  -1.497  13.583  0.00  0.00     0.009 A 
ENDBRANCH  24  25
ENDBRANCH  21  24
ENDBRANCH  20  21
ENDBRANCH  19  20
ENDBRANCH  18  19
ENDBRANCH  17  18
ENDBRANCH  16  17
ENDBRANCH   1  16
TORSDOF 12
ENDMDL
MODEL 3
REMARK VINA RESULT:      -7.7      4.185      7.807
REMARK  12 active torsions:
REMARK  status: ('A' for Active; 'I' for Inactive)
REMARK    1  A    between atoms: C2_2  and  C5_5 
REMARK    2  A    between atoms: C5_5  and  C6_6 
REMARK    3  A    between atoms: C6_6  and  C9_9 
REMARK    4  A    between atoms: C12_12  and  O13_13 
REMARK    5  A    between atoms: O13_13  and  C14_14 
REMARK    6  A    between atoms: C14_14  and  C15_15 
REMARK    7  A    between atoms: C15_15  and  O16_16 
REMARK    8  A    between atoms: O16_16  and  C17_17 
REMARK    9  A    between atoms: C17_17  and  C18_18 
REMARK   10  A    between atoms: C18_18  and  N19_19 
REMARK   11  A    between atoms: N19_19  and  C22_22 
REMARK   12  A    between atoms: C22_22  and  C23_23 
ROOT
ATOM      1  O13 ZIN A   1      18.714  -5.084   9.760  0.00  0.00    -0.349 OA
ENDROOT
BRANCH   1   2
ATOM      2  C12 ZIN A   1      18.735  -4.061  10.654  0.00  0.00     0.068 A 
ATOM      3  C11 ZIN A   1      17.576  -3.343  10.914  0.00  0.00     0.037 A 
ATOM      4  C10 ZIN A   1      17.600  -2.302  11.823  0.00  0.00     0.011 A 
ATOM      5  C9  ZIN A   1      18.776  -1.976  12.473  0.00  0.00    -0.050 A 
ATOM      6  C30 ZIN A   1      19.933  -2.687  12.211  0.00  0.00     0.011 A 
ATOM      7  C29 ZIN A   1      19.913  -3.731  11.307  0.00  0.00     0.037 A 
BRANCH   5   8
ATOM      8  C6  ZIN A   1      18.798  -0.841  13.463  0.00  0.00    -0.020 C 
ATOM      9  C7  ZIN A   1      17.479  -0.070  13.384  0.00  0.00     0.020 C 
ATOM     10  C8  ZIN A   1      19.959   0.100  13.134  0.00  0.00     0.020 C 
BRANCH   8  11
ATOM     11  C5  ZIN A   1      18.979  -1.400  14.876  0.00  0.00     0.022 C 
BRANCH  11  12
ATOM     12  C2  ZIN A   1      18.614  -0.324  15.901  0.00  0.00    -0.050 C 
ATOM     13  C1  ZIN A   1      17.092  -0.237  16.028  0.00  0.00     0.014 C 
ATOM     14  C3  ZIN A   1      19.164   1.027  15.440  0.00  0.00     0.014 C 
ATOM     15  C4  ZIN A   1      19.221  -0.685  17.258  0.00  0.00     0.014 C 
ENDBRANCH  11  12
ENDBRANCH   8  11
ENDBRANCH   5   8
ENDBRANCH   1   2
BRANCH   1  16
ATOM     16  C14 ZIN A   1      19.950  -5.409   9.118  0.00  0.00     0.201 C 
BRANCH  16  17
ATOM     17  C15 ZIN A   1      19.749  -5.418   7.601  0.00  0.00     0.194 C 
BRANCH  17  18
ATOM     18  O16 ZIN A   1      20.030  -4.120   7.075  0.00  0.00    -0.387 OA
BRANCH  18  19
ATOM     19  C17 ZIN A   1      18.939  -3.532   6.363  0.00  0.00     0.195 C 
BRANCH  19  20
ATOM     20  C18 ZIN A   1      18.853  -2.042   6.702  0.00  0.00     0.263 C 
BRANCH  20  21
ATOM     21  N19 ZIN A   1      18.358  -1.302   5.534  0.00  0.00    -0.069 N 
ATOM     22  C20 ZIN A   1      19.491  -0.687   4.829  0.00  0.00     0.272 C 
ATOM     23  C21 ZIN A   1      17.662  -2.225   4.628  0.00  0.00     0.272 C 
BRANCH  21  24
ATOM     24  C22 ZIN A   1      17.429  -0.254   5.976  0.00  0.00     0.275 C 
BRANCH  24  25
ATOM     25  C23 ZIN A   1      17.905   0.318   7.286  0.00  0.00    -0.032 A 
ATOM     26  C28 ZIN A   1      17.332  -0.102   8.472  0.00  0.00     0.009 A 
ATOM     27  C27 ZIN A   1      17.771   0.419   9.675  0.00  0.00     0.001 A 
ATOM     28  C26 ZIN A   1      18.777   1.367   9.691  0.00  0.00     0.000 A 
ATOM     29  C25 ZIN A   1      19.346   1.792   8.505  0.00  0.00     0.001 A 
ATOM     30  C24 ZIN A   1      18.911   1.266   7.303  0.00  0.00     0.009 A 
ENDBRANCH  24  25
ENDBRANCH  21  24
ENDBRANCH  20  21
ENDBRANCH  19  20
ENDBRANCH  18  19
ENDBRANCH  17  18
ENDBRANCH  16  17
ENDBRANCH   1  16
TORSDOF 12
ENDMDL
MODEL 4
REMARK VINA RESULT:      -7.6      4.503      9.079
REMARK  12 active torsions:
REMARK  status: ('A' for Active; 'I' for Inactive)
REMARK    1  A    between atoms: C2_2  and  C5_5 
REMARK    2  A    between atoms: C5_5  and  C6_6 
REMARK    3  A    between atoms: C6_6  and  C9_9 
REMARK    4  A    between atoms: C12_12  and  O13_13 
REMARK    5  A    between atoms: O13_13  and  C14_14 
REMARK    6  A    between atoms: C14_14  and  C15_15 
REMARK    7  A    between atoms: C15_15  and  O16_16 
REMARK    8  A    between atoms: O16_16  and  C17_17 
REMARK    9  A    between atoms: C17_17  and  C18_18 
REMARK   10  A    between atoms: C18_18  and  N19_19 
REMARK   11  A    between atoms: N19_19  and  C22_22 
REMARK   12  A    between atoms: C22_22  and  C23_23 
ROOT
ATOM      1  O13 ZIN A   1      18.110  -0.054   5.531  0.00  0.00    -0.349 OA
ENDROOT
BRANCH   1   2
ATOM      2  C12 ZIN A   1      18.141   0.388   6.815  0.00  0.00     0.068 A 
ATOM      3  C11 ZIN A   1      19.047   1.369   7.190  0.00  0.00     0.037 A 
ATOM      4  C10 ZIN A   1      19.078   1.817   8.498  0.00  0.00     0.011 A 
ATOM      5  C9  ZIN A   1      18.206   1.288   9.431  0.00  0.00    -0.050 A 
ATOM      6  C30 ZIN A   1      17.305   0.306   9.061  0.00  0.00     0.011 A 
ATOM      7  C29 ZIN A   1      17.268  -0.142   7.755  0.00  0.00     0.037 A 
BRANCH   5   8
ATOM      8  C6  ZIN A   1      18.242   1.778  10.855  0.00  0.00    -0.020 C 
ATOM      9  C7  ZIN A   1      19.685   1.765  11.363  0.00  0.00     0.020 C 
ATOM     10  C8  ZIN A   1      17.384   0.863  11.731  0.00  0.00     0.020 C 
BRANCH   8  11
ATOM     11  C5  ZIN A   1      17.693   3.205  10.918  0.00  0.00     0.022 C 
BRANCH  11  12
ATOM     12  C2  ZIN A   1      18.070   3.839  12.258  0.00  0.00    -0.050 C 
ATOM     13  C1  ZIN A   1      17.136   5.016  12.547  0.00  0.00     0.014 C 
ATOM     14  C3  ZIN A   1      19.515   4.338  12.197  0.00  0.00     0.014 C 
ATOM     15  C4  ZIN A   1      17.938   2.797  13.371  0.00  0.00     0.014 C 
ENDBRANCH  11  12
ENDBRANCH   8  11
ENDBRANCH   5   8
ENDBRANCH   1   2
BRANCH   1  16
ATOM     16  C14 ZIN A   1      19.352  -0.473   4.960  0.00  0.00     0.201 C 
BRANCH  16  17
ATOM     17  C15 ZIN A   1      19.273  -1.959   4.602  0.00  0.00     0.194 C 
BRANCH  17  18
ATOM     18  O16 ZIN A   1      19.768  -2.739   5.692  0.00  0.00    -0.387 OA
BRANCH  18  19
ATOM     19  C17 ZIN A   1      18.790  -3.596   6.285  0.00  0.00     0.195 C 
BRANCH  19  20
ATOM     20  C18 ZIN A   1      19.433  -4.390   7.425  0.00  0.00     0.263 C 
BRANCH  20  21
ATOM     21  N19 ZIN A   1      18.392  -4.821   8.368  0.00  0.00    -0.069 N 
ATOM     22  C20 ZIN A   1      17.499  -5.781   7.706  0.00  0.00     0.272 C 
ATOM     23  C21 ZIN A   1      19.021  -5.459   9.532  0.00  0.00     0.272 C 
BRANCH  21  24
ATOM     24  C22 ZIN A   1      17.617  -3.653   8.808  0.00  0.00     0.275 C 
BRANCH  24  25
ATOM     25  C23 ZIN A   1      18.225  -3.092  10.067  0.00  0.00    -0.032 A 
ATOM     26  C28 ZIN A   1      17.605  -3.299  11.285  0.00  0.00     0.009 A 
ATOM     27  C27 ZIN A   1      18.165  -2.788  12.442  0.00  0.00     0.001 A 
ATOM     28  C26 ZIN A   1      19.339  -2.063  12.378  0.00  0.00     0.000 A 
ATOM     29  C25 ZIN A   1      19.957  -1.851  11.159  0.00  0.00     0.001 A 
ATOM     30  C24 ZIN A   1      19.400  -2.366  10.004  0.00  0.00     0.009 A 
ENDBRANCH  24  25
ENDBRANCH  21  24
ENDBRANCH  20  21
ENDBRANCH  19  20
ENDBRANCH  18  19
ENDBRANCH  17  18
ENDBRANCH  16  17
ENDBRANCH   1  16
TORSDOF 12
ENDMDL
MODEL 5
REMARK VINA RESULT:      -7.6      0.952      1.879
REMARK  12 active torsions:
REMARK  status: ('A' for Active; 'I' for Inactive)
REMARK    1  A    between atoms: C2_2  and  C5_5 
REMARK    2  A    between atoms: C5_5  and  C6_6 
REMARK    3  A    between atoms: C6_6  and  C9_9 
REMARK    4  A    between atoms: C12_12  and  O13_13 
REMARK    5  A    between atoms: O13_13  and  C14_14 
REMARK    6  A    between atoms: C14_14  and  C15_15 
REMARK    7  A    between atoms: C15_15  and  O16_16 
REMARK    8  A    between atoms: O16_16  and  C17_17 
REMARK    9  A    between atoms: C17_17  and  C18_18 
REMARK   10  A    between atoms: C18_18  and  N19_19 
REMARK   11  A    between atoms: N19_19  and  C22_22 
REMARK   12  A    between atoms: C22_22  and  C23_23 
ROOT
ATOM      1  O13 ZIN A   1      17.903  -0.163  17.160  0.00  0.00    -0.349 OA
ENDROOT
BRANCH   1   2
ATOM      2  C12 ZIN A   1      18.165  -0.426  15.853  0.00  0.00     0.068 A 
ATOM      3  C11 ZIN A   1      19.201  -1.283  15.511  0.00  0.00     0.037 A 
ATOM      4  C10 ZIN A   1      19.466  -1.548  14.180  0.00  0.00     0.011 A 
ATOM      5  C9  ZIN A   1      18.700  -0.961  13.191  0.00  0.00    -0.050 A 
ATOM      6  C30 ZIN A   1      17.669  -0.102  13.529  0.00  0.00     0.011 A 
ATOM      7  C29 ZIN A   1      17.398   0.162  14.858  0.00  0.00     0.037 A 
BRANCH   5   8
ATOM      8  C6  ZIN A   1      18.991  -1.252  11.742  0.00  0.00    -0.020 C 
ATOM      9  C7  ZIN A   1      19.026  -2.766  11.523  0.00  0.00     0.020 C 
ATOM     10  C8  ZIN A   1      20.346  -0.651  11.363  0.00  0.00     0.020 C 
BRANCH   8  11
ATOM     11  C5  ZIN A   1      17.897  -0.636  10.867  0.00  0.00     0.022 C 
BRANCH  11  12
ATOM     12  C2  ZIN A   1      18.287  -0.768   9.394  0.00  0.00    -0.050 C 
ATOM     13  C1  ZIN A   1      19.763  -0.403   9.222  0.00  0.00     0.014 C 
ATOM     14  C3  ZIN A   1      17.427   0.179   8.553  0.00  0.00     0.014 C 
ATOM     15  C4  ZIN A   1      18.058  -2.208   8.933  0.00  0.00     0.014 C 
ENDBRANCH  11  12
ENDBRANCH   8  11
ENDBRANCH   5   8
ENDBRANCH   1   2
BRANCH   1  16
ATOM     16  C14 ZIN A   1      19.027   0.079  18.010  0.00  0.00     0.201 C 
BRANCH  16  17
ATOM     17  C15 ZIN A   1      19.058   1.557  18.406  0.00  0.00     0.194 C 
BRANCH  17  18
ATOM     18  O16 ZIN A   1      19.655   2.320  17.355  0.00  0.00    -0.387 OA
BRANCH  18  19
ATOM     19  C17 ZIN A   1      18.914   3.487  16.993  0.00  0.00     0.195 C 
BRANCH  19  20
ATOM     20  C18 ZIN A   1      19.729   4.319  16.000  0.00  0.00     0.263 C 
BRANCH  20  21
ATOM     21  N19 ZIN A   1      18.866   4.738  14.888  0.00  0.00    -0.069 N 
ATOM     22  C20 ZIN A   1      17.913   5.751  15.361  0.00  0.00     0.272 C 
ATOM     23  C21 ZIN A   1      19.692   5.307  13.815  0.00  0.00     0.272 C 
BRANCH  21  24
ATOM     24  C22 ZIN A   1      18.130   3.575  14.375  0.00  0.00     0.275 C 
BRANCH  24  25
ATOM     25  C23 ZIN A   1      18.232   3.538  12.872  0.00  0.00    -0.032 A 
ATOM     26  C28 ZIN A   1      17.270   4.160  12.099  0.00  0.00     0.009 A 
ATOM     27  C27 ZIN A   1      17.365   4.131  10.720  0.00  0.00     0.001 A 
ATOM     28  C26 ZIN A   1      18.418   3.472  10.115  0.00  0.00     0.000 A 
ATOM     29  C25 ZIN A   1      19.378   2.845  10.888  0.00  0.00     0.001 A 
ATOM     30  C24 ZIN A   1      19.285   2.879  12.267  0.00  0.00     0.009 A 
ENDBRANCH  24  25
ENDBRANCH  21  24
ENDBRANCH  20  21
ENDBRANCH  19  20
ENDBRANCH  18  19
ENDBRANCH  17  18
ENDBRANCH  16  17
ENDBRANCH   1  16
TORSDOF 12
ENDMDL
MODEL 6
REMARK VINA RESULT:      -7.6      3.864      8.195
REMARK  12 active torsions:
REMARK  status: ('A' for Active; 'I' for Inactive)
REMARK    1  A    between atoms: C2_2  and  C5_5 
REMARK    2  A    between atoms: C5_5  and  C6_6 
REMARK    3  A    between atoms: C6_6  and  C9_9 
REMARK    4  A    between atoms: C12_12  and  O13_13 
REMARK    5  A    between atoms: O13_13  and  C14_14 
REMARK    6  A    between atoms: C14_14  and  C15_15 
REMARK    7  A    between atoms: C15_15  and  O16_16 
REMARK    8  A    between atoms: O16_16  and  C17_17 
REMARK    9  A    between atoms: C17_17  and  C18_18 
REMARK   10  A    between atoms: C18_18  and  N19_19 
REMARK   11  A    between atoms: N19_19  and  C22_22 
REMARK   12  A    between atoms: C22_22  and  C23_23 
ROOT
ATOM      1  O13 ZIN A   1      18.226  -0.752   6.902  0.00  0.00    -0.349 OA
ENDROOT
BRANCH   1   2
ATOM      2  C12 ZIN A   1      18.276   0.213   7.857  0.00  0.00     0.068 A 
ATOM      3  C11 ZIN A   1      19.236   1.212   7.784  0.00  0.00     0.037 A 
ATOM      4  C10 ZIN A   1      19.286   2.193   8.757  0.00  0.00     0.011 A 
ATOM      5  C9  ZIN A   1      18.380   2.180   9.801  0.00  0.00    -0.050 A 
ATOM      6  C30 ZIN A   1      17.425   1.182   9.878  0.00  0.00     0.011 A 
ATOM      7  C29 ZIN A   1      17.369   0.202   8.906  0.00  0.00     0.037 A 
BRANCH   5   8
ATOM      8  C6  ZIN A   1      18.436   3.250  10.859  0.00  0.00    -0.020 C 
ATOM      9  C7  ZIN A   1      17.775   4.525  10.331  0.00  0.00     0.020 C 
ATOM     10  C8  ZIN A   1      19.897   3.542  11.212  0.00  0.00     0.020 C 
BRANCH   8  11
ATOM     11  C5  ZIN A   1      17.695   2.772  12.110  0.00  0.00     0.022 C 
BRANCH  11  12
ATOM     12  C2  ZIN A   1      17.988   3.722  13.272  0.00  0.00    -0.050 C 
ATOM     13  C1  ZIN A   1      17.969   2.941  14.587  0.00  0.00     0.014 C 
ATOM     14  C3  ZIN A   1      16.921   4.818  13.315  0.00  0.00     0.014 C 
ATOM     15  C4  ZIN A   1      19.364   4.360  13.075  0.00  0.00     0.014 C 
ENDBRANCH  11  12
ENDBRANCH   8  11
ENDBRANCH   5   8
ENDBRANCH   1   2
BRANCH   1  16
ATOM     16  C14 ZIN A   1      19.323  -1.667   6.848  0.00  0.00     0.201 C 
BRANCH  16  17
ATOM     17  C15 ZIN A   1      18.801  -3.071   6.536  0.00  0.00     0.194 C 
BRANCH  17  18
ATOM     18  O16 ZIN A   1      19.296  -3.992   7.511  0.00  0.00    -0.387 OA
BRANCH  18  19
ATOM     19  C17 ZIN A   1      18.376  -4.268   8.569  0.00  0.00     0.195 C 
BRANCH  19  20
ATOM     20  C18 ZIN A   1      19.124  -4.916   9.737  0.00  0.00     0.263 C 
BRANCH  20  21
ATOM     21  N19 ZIN A   1      18.915  -4.119  10.953  0.00  0.00    -0.069 N 
ATOM     22  C20 ZIN A   1      18.002  -4.834  11.856  0.00  0.00     0.272 C 
ATOM     23  C21 ZIN A   1      20.203  -3.908  11.627  0.00  0.00     0.272 C 
BRANCH  21  24
ATOM     24  C22 ZIN A   1      18.330  -2.821  10.593  0.00  0.00     0.275 C 
BRANCH  24  25
ATOM     25  C23 ZIN A   1      18.981  -1.734  11.409  0.00  0.00    -0.032 A 
ATOM     26  C28 ZIN A   1      20.074  -1.053  10.906  0.00  0.00     0.009 A 
ATOM     27  C27 ZIN A   1      20.668  -0.052  11.653  0.00  0.00     0.001 A 
ATOM     28  C26 ZIN A   1      20.175   0.261  12.905  0.00  0.00     0.000 A 
ATOM     29  C25 ZIN A   1      19.086  -0.423  13.411  0.00  0.00     0.001 A 
ATOM     30  C24 ZIN A   1      18.488  -1.420  12.662  0.00  0.00     0.009 A 
ENDBRANCH  24  25
ENDBRANCH  21  24
ENDBRANCH  20  21
ENDBRANCH  19  20
ENDBRANCH  18  19
ENDBRANCH  17  18
ENDBRANCH  16  17
ENDBRANCH   1  16
TORSDOF 12
ENDMDL
MODEL 7
REMARK VINA RESULT:      -7.6      4.591      9.096
REMARK  12 active torsions:
REMARK  status: ('A' for Active; 'I' for Inactive)
REMARK    1  A    between atoms: C2_2  and  C5_5 
REMARK    2  A    between atoms: C5_5  and  C6_6 
REMARK    3  A    between atoms: C6_6  and  C9_9 
REMARK    4  A    between atoms: C12_12  and  O13_13 
REMARK    5  A    between atoms: O13_13  and  C14_14 
REMARK    6  A    between atoms: C14_14  and  C15_15 
REMARK    7  A    between atoms: C15_15  and  O16_16 
REMARK    8  A    between atoms: O16_16  and  C17_17 
REMARK    9  A    between atoms: C17_17  and  C18_18 
REMARK   10  A    between atoms: C18_18  and  N19_19 
REMARK   11  A    between atoms: N19_19  and  C22_22 
REMARK   12  A    between atoms: C22_22  and  C23_23 
ROOT
ATOM      1  O13 ZIN A   1      17.999  -0.067   5.748  0.00  0.00    -0.349 OA
ENDROOT
BRANCH   1   2
ATOM      2  C12 ZIN A   1      18.090   0.382   7.027  0.00  0.00     0.068 A 
ATOM      3  C11 ZIN A   1      17.322  -0.202   8.024  0.00  0.00     0.037 A 
ATOM      4  C10 ZIN A   1      17.416   0.257   9.325  0.00  0.00     0.011 A 
ATOM      5  C9  ZIN A   1      18.274   1.297   9.632  0.00  0.00    -0.050 A 
ATOM      6  C30 ZIN A   1      19.036   1.884   8.638  0.00  0.00     0.011 A 
ATOM      7  C29 ZIN A   1      18.949   1.426   7.338  0.00  0.00     0.037 A 
BRANCH   5   8
ATOM      8  C6  ZIN A   1      18.374   1.795  11.050  0.00  0.00    -0.020 C 
ATOM      9  C7  ZIN A   1      17.601   3.108  11.185  0.00  0.00     0.020 C 
ATOM     10  C8  ZIN A   1      19.844   2.030  11.406  0.00  0.00     0.020 C 
BRANCH   8  11
ATOM     11  C5  ZIN A   1      17.780   0.753  12.000  0.00  0.00     0.022 C 
BRANCH  11  12
ATOM     12  C2  ZIN A   1      18.466   0.855  13.363  0.00  0.00    -0.050 C 
ATOM     13  C1  ZIN A   1      19.927   0.419  13.233  0.00  0.00     0.014 C 
ATOM     14  C3  ZIN A   1      17.750  -0.054  14.364  0.00  0.00     0.014 C 
ATOM     15  C4  ZIN A   1      18.407   2.302  13.858  0.00  0.00     0.014 C 
ENDBRANCH  11  12
ENDBRANCH   8  11
ENDBRANCH   5   8
ENDBRANCH   1   2
BRANCH   1  16
ATOM     16  C14 ZIN A   1      19.226  -0.286   5.049  0.00  0.00     0.201 C 
BRANCH  16  17
ATOM     17  C15 ZIN A   1      19.317  -1.754   4.626  0.00  0.00     0.194 C 
BRANCH  17  18
ATOM     18  O16 ZIN A   1      19.688  -2.553   5.751  0.00  0.00    -0.387 OA
BRANCH  18  19
ATOM     19  C17 ZIN A   1      18.702  -3.516   6.130  0.00  0.00     0.195 C 
BRANCH  19  20
ATOM     20  C18 ZIN A   1      18.909  -3.906   7.596  0.00  0.00     0.263 C 
BRANCH  20  21
ATOM     21  N19 ZIN A   1      19.270  -5.327   7.678  0.00  0.00    -0.069 N 
ATOM     22  C20 ZIN A   1      18.669  -6.051   6.549  0.00  0.00     0.272 C 
ATOM     23  C21 ZIN A   1      20.731  -5.465   7.625  0.00  0.00     0.272 C 
BRANCH  21  24
ATOM     24  C22 ZIN A   1      18.769  -5.887   8.940  0.00  0.00     0.275 C 
BRANCH  24  25
ATOM     25  C23 ZIN A   1      18.748  -4.810   9.994  0.00  0.00    -0.032 A 
ATOM     26  C28 ZIN A   1      19.887  -4.542  10.731  0.00  0.00     0.009 A 
ATOM     27  C27 ZIN A   1      19.869  -3.551  11.695  0.00  0.00     0.001 A 
ATOM     28  C26 ZIN A   1      18.711  -2.834  11.926  0.00  0.00     0.000 A 
ATOM     29  C25 ZIN A   1      17.571  -3.104  11.193  0.00  0.00     0.001 A 
ATOM     30  C24 ZIN A   1      17.590  -4.092  10.226  0.00  0.00     0.009 A 
ENDBRANCH  24  25
ENDBRANCH  21  24
ENDBRANCH  20  21
ENDBRANCH  19  20
ENDBRANCH  18  19
ENDBRANCH  17  18
ENDBRANCH  16  17
ENDBRANCH   1  16
TORSDOF 12
ENDMDL
MODEL 8
REMARK VINA RESULT:      -7.6      1.864      3.132
REMARK  12 active torsions:
REMARK  status: ('A' for Active; 'I' for Inactive)
REMARK    1  A    between atoms: C2_2  and  C5_5 
REMARK    2  A    between atoms: C5_5  and  C6_6 
REMARK    3  A    between atoms: C6_6  and  C9_9 
REMARK    4  A    between atoms: C12_12  and  O13_13 
REMARK    5  A    between atoms: O13_13  and  C14_14 
REMARK    6  A    between atoms: C14_14  and  C15_15 
REMARK    7  A    between atoms: C15_15  and  O16_16 
REMARK    8  A    between atoms: O16_16  and  C17_17 
REMARK    9  A    between atoms: C17_17  and  C18_18 
REMARK   10  A    between atoms: C18_18  and  N19_19 
REMARK   11  A    between atoms: N19_19  and  C22_22 
REMARK   12  A    between atoms: C22_22  and  C23_23 
ROOT
ATOM      1  O13 ZIN A   1      17.513  -0.397  14.872  0.00  0.00    -0.349 OA
ENDROOT
BRANCH   1   2
ATOM      2  C12 ZIN A   1      17.793  -0.543  13.551  0.00  0.00     0.068 A 
ATOM      3  C11 ZIN A   1      16.953   0.014  12.598  0.00  0.00     0.037 A 
ATOM      4  C10 ZIN A   1      17.239  -0.137  11.253  0.00  0.00     0.011 A 
ATOM      5  C9  ZIN A   1      18.361  -0.842  10.859  0.00  0.00    -0.050 A 
ATOM      6  C30 ZIN A   1      19.197  -1.403  11.808  0.00  0.00     0.011 A 
ATOM      7  C29 ZIN A   1      18.917  -1.251  13.152  0.00  0.00     0.037 A 
BRANCH   5   8
ATOM      8  C6  ZIN A   1      18.670  -1.005   9.394  0.00  0.00    -0.020 C 
ATOM      9  C7  ZIN A   1      18.635  -2.490   9.027  0.00  0.00     0.020 C 
ATOM     10  C8  ZIN A   1      20.061  -0.440   9.100  0.00  0.00     0.020 C 
BRANCH   8  11
ATOM     11  C5  ZIN A   1      17.627  -0.251   8.565  0.00  0.00     0.022 C 
BRANCH  11  12
ATOM     12  C2  ZIN A   1      18.151  -0.055   7.142  0.00  0.00    -0.050 C 
ATOM     13  C1  ZIN A   1      18.926   1.262   7.061  0.00  0.00     0.014 C 
ATOM     14  C3  ZIN A   1      16.974  -0.013   6.166  0.00  0.00     0.014 C 
ATOM     15  C4  ZIN A   1      19.077  -1.216   6.774  0.00  0.00     0.014 C 
ENDBRANCH  11  12
ENDBRANCH   8  11
ENDBRANCH   5   8
ENDBRANCH   1   2
BRANCH   1  16
ATOM     16  C14 ZIN A   1      18.499  -0.859  15.799  0.00  0.00     0.201 C 
BRANCH  16  17
ATOM     17  C15 ZIN A   1      18.741   0.213  16.863  0.00  0.00     0.194 C 
BRANCH  17  18
ATOM     18  O16 ZIN A   1      18.263   1.473  16.388  0.00  0.00    -0.387 OA
BRANCH  18  19
ATOM     19  C17 ZIN A   1      19.270   2.282  15.775  0.00  0.00     0.195 C 
BRANCH  19  20
ATOM     20  C18 ZIN A   1      18.662   3.047  14.598  0.00  0.00     0.263 C 
BRANCH  20  21
ATOM     21  N19 ZIN A   1      18.812   4.491  14.823  0.00  0.00    -0.069 N 
ATOM     22  C20 ZIN A   1      17.487   5.098  15.006  0.00  0.00     0.272 C 
ATOM     23  C21 ZIN A   1      19.625   4.717  16.025  0.00  0.00     0.272 C 
BRANCH  21  24
ATOM     24  C22 ZIN A   1      19.474   5.101  13.662  0.00  0.00     0.275 C 
BRANCH  24  25
ATOM     25  C23 ZIN A   1      19.013   4.413  12.403  0.00  0.00    -0.032 A 
ATOM     26  C28 ZIN A   1      19.782   3.409  11.843  0.00  0.00     0.009 A 
ATOM     27  C27 ZIN A   1      19.357   2.775  10.690  0.00  0.00     0.001 A 
ATOM     28  C26 ZIN A   1      18.169   3.149  10.093  0.00  0.00     0.000 A 
ATOM     29  C25 ZIN A   1      17.402   4.156  10.650  0.00  0.00     0.001 A 
ATOM     30  C24 ZIN A   1      17.824   4.787  11.805  0.00  0.00     0.009 A 
ENDBRANCH  24  25
ENDBRANCH  21  24
ENDBRANCH  20  21
ENDBRANCH  19  20
ENDBRANCH  18  19
ENDBRANCH  17  18
ENDBRANCH  16  17
ENDBRANCH   1  16
TORSDOF 12
ENDMDL
MODEL 9
REMARK VINA RESULT:      -7.4      2.975      5.404
REMARK  12 active torsions:
REMARK  status: ('A' for Active; 'I' for Inactive)
REMARK    1  A    between atoms: C2_2  and  C5_5 
REMARK    2  A    between atoms: C5_5  and  C6_6 
REMARK    3  A    between atoms: C6_6  and  C9_9 
REMARK    4  A    between atoms: C12_12  and  O13_13 
REMARK    5  A    between atoms: O13_13  and  C14_14 
REMARK    6  A    between atoms: C14_14  and  C15_15 
REMARK    7  A    between atoms: C15_15  and  O16_16 
REMARK    8  A    between atoms: O16_16  and  C17_17 
REMARK    9  A    between atoms: C17_17  and  C18_18 
REMARK   10  A    between atoms: C18_18  and  N19_19 
REMARK   11  A    between atoms: N19_19  and  C22_22 
REMARK   12  A    between atoms: C22_22  and  C23_23 
ROOT
ATOM      1  O13 ZIN A   1      17.755   0.911  13.904  0.00  0.00    -0.349 OA
ENDROOT
BRANCH   1   2
ATOM      2  C12 ZIN A   1      17.964  -0.272  13.269  0.00  0.00     0.068 A 
ATOM      3  C11 ZIN A   1      17.064  -0.714  12.310  0.00  0.00     0.037 A 
ATOM      4  C10 ZIN A   1      17.278  -1.918  11.666  0.00  0.00     0.011 A 
ATOM      5  C9  ZIN A   1      18.387  -2.683  11.977  0.00  0.00    -0.050 A 
ATOM      6  C30 ZIN A   1      19.282  -2.247  12.937  0.00  0.00     0.011 A 
ATOM      7  C29 ZIN A   1      19.075  -1.042  13.580  0.00  0.00     0.037 A 
BRANCH   5   8
ATOM      8  C6  ZIN A   1      18.617  -3.995  11.274  0.00  0.00    -0.020 C 
ATOM      9  C7  ZIN A   1      17.783  -5.087  11.947  0.00  0.00     0.020 C 
ATOM     10  C8  ZIN A   1      20.100  -4.363  11.354  0.00  0.00     0.020 C 
BRANCH   8  11
ATOM     11  C5  ZIN A   1      18.201  -3.868   9.807  0.00  0.00     0.022 C 
BRANCH  11  12
ATOM     12  C2  ZIN A   1      18.250  -5.244   9.141  0.00  0.00    -0.050 C 
ATOM     13  C1  ZIN A   1      17.691  -5.144   7.720  0.00  0.00     0.014 C 
ATOM     14  C3  ZIN A   1      17.407  -6.232   9.951  0.00  0.00     0.014 C 
ATOM     15  C4  ZIN A   1      19.698  -5.734   9.088  0.00  0.00     0.014 C 
ENDBRANCH  11  12
ENDBRANCH   8  11
ENDBRANCH   5   8
ENDBRANCH   1   2
BRANCH   1  16
ATOM     16  C14 ZIN A   1      18.707   1.951  13.665  0.00  0.00     0.201 C 
BRANCH  16  17
ATOM     17  C15 ZIN A   1      18.209   2.846  12.527  0.00  0.00     0.194 C 
BRANCH  17  18
ATOM     18  O16 ZIN A   1      19.289   3.129  11.635  0.00  0.00    -0.387 OA
BRANCH  18  19
ATOM     19  C17 ZIN A   1      18.922   3.105  10.254  0.00  0.00     0.195 C 
BRANCH  19  20
ATOM     20  C18 ZIN A   1      17.978   1.928   9.998  0.00  0.00     0.263 C 
BRANCH  20  21
ATOM     21  N19 ZIN A   1      18.592   1.009   9.030  0.00  0.00    -0.069 N 
ATOM     22  C20 ZIN A   1      19.262   1.784   7.977  0.00  0.00     0.272 C 
ATOM     23  C21 ZIN A   1      19.576   0.162   9.716  0.00  0.00     0.272 C 
BRANCH  21  24
ATOM     24  C22 ZIN A   1      17.551   0.165   8.429  0.00  0.00     0.275 C 
BRANCH  24  25
ATOM     25  C23 ZIN A   1      18.074  -0.446   7.154  0.00  0.00    -0.032 A 
ATOM     26  C28 ZIN A   1      17.726   0.100   5.933  0.00  0.00     0.009 A 
ATOM     27  C27 ZIN A   1      18.209  -0.457   4.763  0.00  0.00     0.001 A 
ATOM     28  C26 ZIN A   1      19.034  -1.565   4.816  0.00  0.00     0.000 A 
ATOM     29  C25 ZIN A   1      19.379  -2.114   6.037  0.00  0.00     0.001 A 
ATOM     30  C24 ZIN A   1      18.899  -1.554   7.206  0.00  0.00     0.009 A 
ENDBRANCH  24  25
ENDBRANCH  21  24
ENDBRANCH  20  21
ENDBRANCH  19  20
ENDBRANCH  18  19
ENDBRANCH  17  18
ENDBRANCH  16  17
ENDBRANCH   1  16
TORSDOF 12
ENDMDL
