MODEL 1
REMARK VINA RESULT:      -4.6      0.000      0.000
REMARK  10 active torsions:
REMARK  status: ('A' for Active; 'I' for Inactive)
REMARK    1  A    between atoms: C2_2  and  C3_3 
REMARK    2  A    between atoms: C3_3  and  O5_4 
REMARK    3  A    between atoms: C3_3  and  C6_5 
REMARK    4  A    between atoms: C6_5  and  O8_6 
REMARK    5  A    between atoms: C6_5  and  C9_7 
REMARK    6  A    between atoms: C9_7  and  O11_8 
REMARK    7  A    between atoms: C9_7  and  C12_9 
REMARK    8  A    between atoms: C12_9  and  O14_10 
REMARK    9  A    between atoms: C12_9  and  C15_11 
REMARK   10  A    between atoms: C15_11  and  O16_12 
ROOT
ATOM      1  C9  ZIN A   1      19.266  -1.403  10.516  0.00  0.00     0.180 C 
ENDROOT
BRANCH   1   2
ATOM      2  C6  ZIN A   1      19.598  -2.302  11.709  0.00  0.00     0.184 C 
BRANCH   2   3
ATOM      3  C3  ZIN A   1      18.391  -3.188  12.030  0.00  0.00     0.210 C 
BRANCH   3   4
ATOM      4  C2  ZIN A   1      18.657  -4.592  11.551  0.00  0.00     0.265 C 
ATOM      5  O1  ZIN A   1      18.613  -4.847  10.372  0.00  0.00    -0.304 OA
ENDBRANCH   3   4
BRANCH   3   6
ATOM      6  O5  ZIN A   1      17.233  -2.672  11.371  0.00  0.00    -0.386 OA
ATOM      7  H18 ZIN A   1      17.431  -2.081  10.631  0.00  0.00     0.210 HD
ENDBRANCH   3   6
ENDBRANCH   2   3
BRANCH   2   8
ATOM      8  O8  ZIN A   1      20.720  -3.126  11.386  0.00  0.00    -0.390 OA
ATOM      9  H19 ZIN A   1      21.193  -3.466  12.158  0.00  0.00     0.210 HD
ENDBRANCH   2   8
ENDBRANCH   1   2
BRANCH   1  10
ATOM     10  O11 ZIN A   1      19.463  -2.130   9.301  0.00  0.00    -0.390 OA
ATOM     11  H20 ZIN A   1      19.970  -2.946   9.410  0.00  0.00     0.210 HD
ENDBRANCH   1  10
BRANCH   1  12
ATOM     12  C12 ZIN A   1      20.181  -0.177  10.532  0.00  0.00     0.173 C 
BRANCH  12  13
ATOM     13  O14 ZIN A   1      21.461  -0.532  10.007  0.00  0.00    -0.391 OA
ATOM     14  H21 ZIN A   1      21.929   0.199   9.582  0.00  0.00     0.210 HD
ENDBRANCH  12  13
BRANCH  12  15
ATOM     15  C15 ZIN A   1      20.340   0.322  11.970  0.00  0.00     0.198 C 
BRANCH  15  16
ATOM     16  O16 ZIN A   1      21.713   0.635  12.216  0.00  0.00    -0.398 OA
ATOM     17  H24 ZIN A   1      21.845   1.341  12.864  0.00  0.00     0.209 HD
ENDBRANCH  15  16
ENDBRANCH  12  15
ENDBRANCH   1  12
TORSDOF 10
ENDMDL
MODEL 2
REMARK VINA RESULT:      -4.5      3.052      5.623
REMARK  10 active torsions:
REMARK  status: ('A' for Active; 'I' for Inactive)
REMARK    1  A    between atoms: C2_2  and  C3_3 
REMARK    2  A    between atoms: C3_3  and  O5_4 
REMARK    3  A    between atoms: C3_3  and  C6_5 
REMARK    4  A    between atoms: C6_5  and  O8_6 
REMARK    5  A    between atoms: C6_5  and  C9_7 
REMARK    6  A    between atoms: C9_7  and  O11_8 
REMARK    7  A    between atoms: C9_7  and  C12_9 
REMARK    8  A    between atoms: C12_9  and  O14_10 
REMARK    9  A    between atoms: C12_9  and  C15_11 
REMARK   10  A    between atoms: C15_11  and  O16_12 
ROOT
ATOM      1  C9  ZIN A   1      19.413   1.381  12.462  0.00  0.00     0.180 C 
ENDROOT
BRANCH   1   2
ATOM      2  C6  ZIN A   1      19.664   2.355  11.309  0.00  0.00     0.184 C 
BRANCH   2   3
ATOM      3  C3  ZIN A   1      18.388   3.154  11.029  0.00  0.00     0.210 C 
BRANCH   3   4
ATOM      4  C2  ZIN A   1      18.533   4.544  11.591  0.00  0.00     0.265 C 
ATOM      5  O1  ZIN A   1      18.487   4.722  12.784  0.00  0.00    -0.304 OA
ENDBRANCH   3   4
BRANCH   3   6
ATOM      6  O5  ZIN A   1      17.275   2.504  11.648  0.00  0.00    -0.386 OA
ATOM      7  H18 ZIN A   1      17.137   2.755  12.572  0.00  0.00     0.210 HD
ENDBRANCH   3   6
ENDBRANCH   2   3
BRANCH   2   8
ATOM      8  O8  ZIN A   1      20.718   3.252  11.664  0.00  0.00    -0.390 OA
ATOM      9  H19 ZIN A   1      21.252   3.548  10.914  0.00  0.00     0.210 HD
ENDBRANCH   2   8
ENDBRANCH   1   2
BRANCH   1  10
ATOM     10  O11 ZIN A   1      19.623   2.051  13.707  0.00  0.00    -0.390 OA
ATOM     11  H20 ZIN A   1      19.259   1.584  14.471  0.00  0.00     0.210 HD
ENDBRANCH   1  10
BRANCH   1  12
ATOM     12  C12 ZIN A   1      20.377   0.199  12.349  0.00  0.00     0.173 C 
BRANCH  12  13
ATOM     13  O14 ZIN A   1      21.712   0.686  12.206  0.00  0.00    -0.391 OA
ATOM     14  H21 ZIN A   1      22.097   0.530  11.333  0.00  0.00     0.210 HD
ENDBRANCH  12  13
BRANCH  12  15
ATOM     15  C15 ZIN A   1      20.008  -0.646  11.128  0.00  0.00     0.198 C 
BRANCH  15  16
ATOM     16  O16 ZIN A   1      20.922  -1.738  11.010  0.00  0.00    -0.398 OA
ATOM     17  H24 ZIN A   1      21.563  -1.794  11.733  0.00  0.00     0.209 HD
ENDBRANCH  15  16
ENDBRANCH  12  15
ENDBRANCH   1  12
TORSDOF 10
ENDMDL
MODEL 3
REMARK VINA RESULT:      -4.3      1.146      1.865
REMARK  10 active torsions:
REMARK  status: ('A' for Active; 'I' for Inactive)
REMARK    1  A    between atoms: C2_2  and  C3_3 
REMARK    2  A    between atoms: C3_3  and  O5_4 
REMARK    3  A    between atoms: C3_3  and  C6_5 
REMARK    4  A    between atoms: C6_5  and  O8_6 
REMARK    5  A    between atoms: C6_5  and  C9_7 
REMARK    6  A    between atoms: C9_7  and  O11_8 
REMARK    7  A    between atoms: C9_7  and  C12_9 
REMARK    8  A    between atoms: C12_9  and  O14_10 
REMARK    9  A    between atoms: C12_9  and  C15_11 
REMARK   10  A    between atoms: C15_11  and  O16_12 
ROOT
ATOM      1  C9  ZIN A   1      19.959  -0.311  10.763  0.00  0.00     0.180 C 
ENDROOT
BRANCH   1   2
ATOM      2  C6  ZIN A   1      19.745  -1.724  11.310  0.00  0.00     0.184 C 
BRANCH   2   3
ATOM      3  C3  ZIN A   1      18.736  -2.464  10.429  0.00  0.00     0.210 C 
BRANCH   3   4
ATOM      4  C2  ZIN A   1      18.211  -3.667  11.169  0.00  0.00     0.265 C 
ATOM      5  O1  ZIN A   1      18.972  -4.526  11.543  0.00  0.00    -0.304 OA
ENDBRANCH   3   4
BRANCH   3   6
ATOM      6  O5  ZIN A   1      19.377  -2.889   9.224  0.00  0.00    -0.386 OA
ATOM      7  H18 ZIN A   1      18.981  -2.529   8.419  0.00  0.00     0.210 HD
ENDBRANCH   3   6
ENDBRANCH   2   3
BRANCH   2   8
ATOM      8  O8  ZIN A   1      20.988  -2.429  11.305  0.00  0.00    -0.390 OA
ATOM      9  H19 ZIN A   1      21.229  -2.797  10.444  0.00  0.00     0.210 HD
ENDBRANCH   2   8
ENDBRANCH   1   2
BRANCH   1  10
ATOM     10  O11 ZIN A   1      21.001  -0.330   9.785  0.00  0.00    -0.390 OA
ATOM     11  H20 ZIN A   1      21.409   0.532   9.629  0.00  0.00     0.210 HD
ENDBRANCH   1  10
BRANCH   1  12
ATOM     12  C12 ZIN A   1      20.351   0.625  11.908  0.00  0.00     0.173 C 
BRANCH  12  13
ATOM     13  O14 ZIN A   1      21.763   0.558  12.115  0.00  0.00    -0.391 OA
ATOM     14  H21 ZIN A   1      22.121  -0.340  12.104  0.00  0.00     0.210 HD
ENDBRANCH  12  13
BRANCH  12  15
ATOM     15  C15 ZIN A   1      19.628   0.197  13.187  0.00  0.00     0.198 C 
BRANCH  15  16
ATOM     16  O16 ZIN A   1      19.923   1.125  14.233  0.00  0.00    -0.398 OA
ATOM     17  H24 ZIN A   1      19.558   0.876  15.094  0.00  0.00     0.209 HD
ENDBRANCH  15  16
ENDBRANCH  12  15
ENDBRANCH   1  12
TORSDOF 10
ENDMDL
MODEL 4
REMARK VINA RESULT:      -4.3      3.057      5.381
REMARK  10 active torsions:
REMARK  status: ('A' for Active; 'I' for Inactive)
REMARK    1  A    between atoms: C2_2  and  C3_3 
REMARK    2  A    between atoms: C3_3  and  O5_4 
REMARK    3  A    between atoms: C3_3  and  C6_5 
REMARK    4  A    between atoms: C6_5  and  O8_6 
REMARK    5  A    between atoms: C6_5  and  C9_7 
REMARK    6  A    between atoms: C9_7  and  O11_8 
REMARK    7  A    between atoms: C9_7  and  C12_9 
REMARK    8  A    between atoms: C12_9  and  O14_10 
REMARK    9  A    between atoms: C12_9  and  C15_11 
REMARK   10  A    between atoms: C15_11  and  O16_12 
ROOT
ATOM      1  C9  ZIN A   1      20.318   0.657  11.980  0.00  0.00     0.180 C 
ENDROOT
BRANCH   1   2
ATOM      2  C6  ZIN A   1      19.803   2.093  11.867  0.00  0.00     0.184 C 
BRANCH   2   3
ATOM      3  C3  ZIN A   1      19.021   2.456  13.132  0.00  0.00     0.210 C 
BRANCH   3   4
ATOM      4  C2  ZIN A   1      19.018   3.952  13.309  0.00  0.00     0.265 C 
ATOM      5  O1  ZIN A   1      18.698   4.669  12.391  0.00  0.00    -0.304 OA
ENDBRANCH   3   4
BRANCH   3   6
ATOM      6  O5  ZIN A   1      19.640   1.845  14.266  0.00  0.00    -0.386 OA
ATOM      7  H18 ZIN A   1      20.590   1.694  14.162  0.00  0.00     0.210 HD
ENDBRANCH   3   6
ENDBRANCH   2   3
BRANCH   2   8
ATOM      8  O8  ZIN A   1      20.910   2.986  11.720  0.00  0.00    -0.390 OA
ATOM      9  H19 ZIN A   1      20.675   3.920  11.802  0.00  0.00     0.210 HD
ENDBRANCH   2   8
ENDBRANCH   1   2
BRANCH   1  10
ATOM     10  O11 ZIN A   1      21.727   0.673  12.223  0.00  0.00    -0.390 OA
ATOM     11  H20 ZIN A   1      21.964   0.855  13.142  0.00  0.00     0.210 HD
ENDBRANCH   1  10
BRANCH   1  12
ATOM     12  C12 ZIN A   1      20.033  -0.091  10.677  0.00  0.00     0.173 C 
BRANCH  12  13
ATOM     13  O14 ZIN A   1      21.267  -0.406  10.030  0.00  0.00    -0.391 OA
ATOM     14  H21 ZIN A   1      21.627  -1.270  10.268  0.00  0.00     0.210 HD
ENDBRANCH  12  13
BRANCH  12  15
ATOM     15  C15 ZIN A   1      19.186   0.792   9.757  0.00  0.00     0.198 C 
BRANCH  15  16
ATOM     16  O16 ZIN A   1      19.977   1.220   8.647  0.00  0.00    -0.398 OA
ATOM     17  H24 ZIN A   1      20.347   0.494   8.124  0.00  0.00     0.209 HD
ENDBRANCH  15  16
ENDBRANCH  12  15
ENDBRANCH   1  12
TORSDOF 10
ENDMDL
MODEL 5
REMARK VINA RESULT:      -4.3      2.458      3.875
REMARK  10 active torsions:
REMARK  status: ('A' for Active; 'I' for Inactive)
REMARK    1  A    between atoms: C2_2  and  C3_3 
REMARK    2  A    between atoms: C3_3  and  O5_4 
REMARK    3  A    between atoms: C3_3  and  C6_5 
REMARK    4  A    between atoms: C6_5  and  O8_6 
REMARK    5  A    between atoms: C6_5  and  C9_7 
REMARK    6  A    between atoms: C9_7  and  O11_8 
REMARK    7  A    between atoms: C9_7  and  C12_9 
REMARK    8  A    between atoms: C12_9  and  O14_10 
REMARK    9  A    between atoms: C12_9  and  C15_11 
REMARK   10  A    between atoms: C15_11  and  O16_12 
ROOT
ATOM      1  C9  ZIN A   1      19.423   1.493  11.688  0.00  0.00     0.180 C 
ENDROOT
BRANCH   1   2
ATOM      2  C6  ZIN A   1      19.756   0.094  12.210  0.00  0.00     0.184 C 
BRANCH   2   3
ATOM      3  C3  ZIN A   1      20.284  -0.768  11.061  0.00  0.00     0.210 C 
BRANCH   3   4
ATOM      4  C2  ZIN A   1      19.958  -2.215  11.327  0.00  0.00     0.265 C 
ATOM      5  O1  ZIN A   1      19.660  -2.572  12.441  0.00  0.00    -0.304 OA
ENDBRANCH   3   4
BRANCH   3   6
ATOM      6  O5  ZIN A   1      21.702  -0.611  10.961  0.00  0.00    -0.386 OA
ATOM      7  H18 ZIN A   1      22.205  -1.212  11.527  0.00  0.00     0.210 HD
ENDBRANCH   3   6
ENDBRANCH   2   3
BRANCH   2   8
ATOM      8  O8  ZIN A   1      20.752   0.191  13.230  0.00  0.00    -0.390 OA
ATOM      9  H19 ZIN A   1      20.441   0.608  14.045  0.00  0.00     0.210 HD
ENDBRANCH   2   8
ENDBRANCH   1   2
BRANCH   1  10
ATOM     10  O11 ZIN A   1      20.579   2.328  11.791  0.00  0.00    -0.390 OA
ATOM     11  H20 ZIN A   1      21.207   2.046  12.470  0.00  0.00     0.210 HD
ENDBRANCH   1  10
BRANCH   1  12
ATOM     12  C12 ZIN A   1      18.286   2.090  12.518  0.00  0.00     0.173 C 
BRANCH  12  13
ATOM     13  O14 ZIN A   1      17.266   2.580  11.645  0.00  0.00    -0.391 OA
ATOM     14  H21 ZIN A   1      17.577   2.787  10.753  0.00  0.00     0.210 HD
ENDBRANCH  12  13
BRANCH  12  15
ATOM     15  C15 ZIN A   1      18.826   3.242  13.368  0.00  0.00     0.198 C 
BRANCH  15  16
ATOM     16  O16 ZIN A   1      19.495   2.713  14.515  0.00  0.00    -0.398 OA
ATOM     17  H24 ZIN A   1      19.791   1.798  14.411  0.00  0.00     0.209 HD
ENDBRANCH  15  16
ENDBRANCH  12  15
ENDBRANCH   1  12
TORSDOF 10
ENDMDL
MODEL 6
REMARK VINA RESULT:      -4.3      2.387      5.110
REMARK  10 active torsions:
REMARK  status: ('A' for Active; 'I' for Inactive)
REMARK    1  A    between atoms: C2_2  and  C3_3 
REMARK    2  A    between atoms: C3_3  and  O5_4 
REMARK    3  A    between atoms: C3_3  and  C6_5 
REMARK    4  A    between atoms: C6_5  and  O8_6 
REMARK    5  A    between atoms: C6_5  and  C9_7 
REMARK    6  A    between atoms: C9_7  and  O11_8 
REMARK    7  A    between atoms: C9_7  and  C12_9 
REMARK    8  A    between atoms: C12_9  and  O14_10 
REMARK    9  A    between atoms: C12_9  and  C15_11 
REMARK   10  A    between atoms: C15_11  and  O16_12 
ROOT
ATOM      1  C9  ZIN A   1      20.321   0.253  12.120  0.00  0.00     0.180 C 
ENDROOT
BRANCH   1   2
ATOM      2  C6  ZIN A   1      19.516   1.227  11.256  0.00  0.00     0.184 C 
BRANCH   2   3
ATOM      3  C3  ZIN A   1      19.655   2.643  11.819  0.00  0.00     0.210 C 
BRANCH   3   4
ATOM      4  C2  ZIN A   1      18.672   3.555  11.132  0.00  0.00     0.265 C 
ATOM      5  O1  ZIN A   1      18.505   3.476   9.939  0.00  0.00    -0.304 OA
ENDBRANCH   3   4
BRANCH   3   6
ATOM      6  O5  ZIN A   1      20.984   3.118  11.590  0.00  0.00    -0.386 OA
ATOM      7  H18 ZIN A   1      21.156   3.997  11.954  0.00  0.00     0.210 HD
ENDBRANCH   3   6
ENDBRANCH   2   3
BRANCH   2   8
ATOM      8  O8  ZIN A   1      20.012   1.196   9.916  0.00  0.00    -0.390 OA
ATOM      9  H19 ZIN A   1      20.754   0.589   9.785  0.00  0.00     0.210 HD
ENDBRANCH   2   8
ENDBRANCH   1   2
BRANCH   1  10
ATOM     10  O11 ZIN A   1      21.565  -0.038  11.477  0.00  0.00    -0.390 OA
ATOM     11  H20 ZIN A   1      21.604  -0.918  11.080  0.00  0.00     0.210 HD
ENDBRANCH   1  10
BRANCH   1  12
ATOM     12  C12 ZIN A   1      19.527  -1.041  12.305  0.00  0.00     0.173 C 
BRANCH  12  13
ATOM     13  O14 ZIN A   1      19.936  -1.681  13.515  0.00  0.00    -0.391 OA
ATOM     14  H21 ZIN A   1      20.891  -1.668  13.664  0.00  0.00     0.210 HD
ENDBRANCH  12  13
BRANCH  12  15
ATOM     15  C15 ZIN A   1      19.789  -1.974  11.121  0.00  0.00     0.198 C 
BRANCH  15  16
ATOM     16  O16 ZIN A   1      20.856  -2.866  11.445  0.00  0.00    -0.398 OA
ATOM     17  H24 ZIN A   1      21.610  -2.814  10.841  0.00  0.00     0.209 HD
ENDBRANCH  15  16
ENDBRANCH  12  15
ENDBRANCH   1  12
TORSDOF 10
ENDMDL
MODEL 7
REMARK VINA RESULT:      -4.3      2.479      3.921
REMARK  10 active torsions:
REMARK  status: ('A' for Active; 'I' for Inactive)
REMARK    1  A    between atoms: C2_2  and  C3_3 
REMARK    2  A    between atoms: C3_3  and  O5_4 
REMARK    3  A    between atoms: C3_3  and  C6_5 
REMARK    4  A    between atoms: C6_5  and  O8_6 
REMARK    5  A    between atoms: C6_5  and  C9_7 
REMARK    6  A    between atoms: C9_7  and  O11_8 
REMARK    7  A    between atoms: C9_7  and  C12_9 
REMARK    8  A    between atoms: C12_9  and  O14_10 
REMARK    9  A    between atoms: C12_9  and  C15_11 
REMARK   10  A    between atoms: C15_11  and  O16_12 
ROOT
ATOM      1  C9  ZIN A   1      19.513   1.457  12.615  0.00  0.00     0.180 C 
ENDROOT
BRANCH   1   2
ATOM      2  C6  ZIN A   1      20.385   0.262  12.226  0.00  0.00     0.184 C 
BRANCH   2   3
ATOM      3  C3  ZIN A   1      20.025  -0.192  10.809  0.00  0.00     0.210 C 
BRANCH   3   4
ATOM      4  C2  ZIN A   1      19.308  -1.516  10.873  0.00  0.00     0.265 C 
ATOM      5  O1  ZIN A   1      18.782  -1.870  11.901  0.00  0.00    -0.304 OA
ENDBRANCH   3   4
BRANCH   3   6
ATOM      6  O5  ZIN A   1      21.219  -0.336  10.037  0.00  0.00    -0.386 OA
ATOM      7  H18 ZIN A   1      21.592  -1.228  10.052  0.00  0.00     0.210 HD
ENDBRANCH   3   6
ENDBRANCH   2   3
BRANCH   2   8
ATOM      8  O8  ZIN A   1      21.762   0.643  12.268  0.00  0.00    -0.390 OA
ATOM      9  H19 ZIN A   1      22.319   0.173  11.632  0.00  0.00     0.210 HD
ENDBRANCH   2   8
ENDBRANCH   1   2
BRANCH   1  10
ATOM     10  O11 ZIN A   1      18.168   1.018  12.823  0.00  0.00    -0.390 OA
ATOM     11  H20 ZIN A   1      18.013   0.626  13.693  0.00  0.00     0.210 HD
ENDBRANCH   1  10
BRANCH   1  12
ATOM     12  C12 ZIN A   1      19.542   2.496  11.493  0.00  0.00     0.173 C 
BRANCH  12  13
ATOM     13  O14 ZIN A   1      20.751   3.253  11.578  0.00  0.00    -0.391 OA
ATOM     14  H21 ZIN A   1      21.329   3.159  10.809  0.00  0.00     0.210 HD
ENDBRANCH  12  13
BRANCH  12  15
ATOM     15  C15 ZIN A   1      18.342   3.435  11.635  0.00  0.00     0.198 C 
BRANCH  15  16
ATOM     16  O16 ZIN A   1      17.236   2.908  10.898  0.00  0.00    -0.398 OA
ATOM     17  H24 ZIN A   1      17.132   1.949  10.977  0.00  0.00     0.209 HD
ENDBRANCH  15  16
ENDBRANCH  12  15
ENDBRANCH   1  12
TORSDOF 10
ENDMDL
MODEL 8
REMARK VINA RESULT:      -4.3      3.442      5.672
REMARK  10 active torsions:
REMARK  status: ('A' for Active; 'I' for Inactive)
REMARK    1  A    between atoms: C2_2  and  C3_3 
REMARK    2  A    between atoms: C3_3  and  O5_4 
REMARK    3  A    between atoms: C3_3  and  C6_5 
REMARK    4  A    between atoms: C6_5  and  O8_6 
REMARK    5  A    between atoms: C6_5  and  C9_7 
REMARK    6  A    between atoms: C9_7  and  O11_8 
REMARK    7  A    between atoms: C9_7  and  C12_9 
REMARK    8  A    between atoms: C12_9  and  O14_10 
REMARK    9  A    between atoms: C12_9  and  C15_11 
REMARK   10  A    between atoms: C15_11  and  O16_12 
ROOT
ATOM      1  C9  ZIN A   1      19.774   2.066  11.538  0.00  0.00     0.180 C 
ENDROOT
BRANCH   1   2
ATOM      2  C6  ZIN A   1      18.404   2.346  12.158  0.00  0.00     0.184 C 
BRANCH   2   3
ATOM      3  C3  ZIN A   1      18.221   3.856  12.328  0.00  0.00     0.210 C 
BRANCH   3   4
ATOM      4  C2  ZIN A   1      17.247   4.364  11.296  0.00  0.00     0.265 C 
ATOM      5  O1  ZIN A   1      17.586   4.461  10.142  0.00  0.00    -0.304 OA
ENDBRANCH   3   4
BRANCH   3   6
ATOM      6  O5  ZIN A   1      19.480   4.511  12.156  0.00  0.00    -0.386 OA
ATOM      7  H18 ZIN A   1      20.047   4.102  11.488  0.00  0.00     0.210 HD
ENDBRANCH   3   6
ENDBRANCH   2   3
BRANCH   2   8
ATOM      8  O8  ZIN A   1      17.379   1.836  11.302  0.00  0.00    -0.390 OA
ATOM      9  H19 ZIN A   1      16.498   1.834  11.701  0.00  0.00     0.210 HD
ENDBRANCH   2   8
ENDBRANCH   1   2
BRANCH   1  10
ATOM     10  O11 ZIN A   1      19.680   2.158  10.114  0.00  0.00    -0.390 OA
ATOM     11  H20 ZIN A   1      20.536   2.162   9.664  0.00  0.00     0.210 HD
ENDBRANCH   1  10
BRANCH   1  12
ATOM     12  C12 ZIN A   1      20.232   0.660  11.929  0.00  0.00     0.173 C 
BRANCH  12  13
ATOM     13  O14 ZIN A   1      21.640   0.670  12.176  0.00  0.00    -0.391 OA
ATOM     14  H21 ZIN A   1      22.035  -0.210  12.238  0.00  0.00     0.210 HD
ENDBRANCH  12  13
BRANCH  12  15
ATOM     15  C15 ZIN A   1      19.921  -0.314  10.791  0.00  0.00     0.198 C 
BRANCH  15  16
ATOM     16  O16 ZIN A   1      21.035  -0.374   9.897  0.00  0.00    -0.398 OA
ATOM     17  H24 ZIN A   1      21.612   0.402   9.935  0.00  0.00     0.209 HD
ENDBRANCH  15  16
ENDBRANCH  12  15
ENDBRANCH   1  12
TORSDOF 10
ENDMDL
MODEL 9
REMARK VINA RESULT:      -4.3      2.428      3.947
REMARK  10 active torsions:
REMARK  status: ('A' for Active; 'I' for Inactive)
REMARK    1  A    between atoms: C2_2  and  C3_3 
REMARK    2  A    between atoms: C3_3  and  O5_4 
REMARK    3  A    between atoms: C3_3  and  C6_5 
REMARK    4  A    between atoms: C6_5  and  O8_6 
REMARK    5  A    between atoms: C6_5  and  C9_7 
REMARK    6  A    between atoms: C9_7  and  O11_8 
REMARK    7  A    between atoms: C9_7  and  C12_9 
REMARK    8  A    between atoms: C12_9  and  O14_10 
REMARK    9  A    between atoms: C12_9  and  C15_11 
REMARK   10  A    between atoms: C15_11  and  O16_12 
ROOT
ATOM      1  C9  ZIN A   1      20.372   0.860  11.879  0.00  0.00     0.180 C 
ENDROOT
BRANCH   1   2
ATOM      2  C6  ZIN A   1      20.103  -0.128  10.742  0.00  0.00     0.184 C 
BRANCH   2   3
ATOM      3  C3  ZIN A   1      19.295   0.568   9.644  0.00  0.00     0.210 C 
BRANCH   3   4
ATOM      4  C2  ZIN A   1      19.398  -0.225   8.366  0.00  0.00     0.265 C 
ATOM      5  O1  ZIN A   1      19.280  -1.426   8.388  0.00  0.00    -0.304 OA
ENDBRANCH   3   4
BRANCH   3   6
ATOM      6  O5  ZIN A   1      19.813   1.882   9.431  0.00  0.00    -0.386 OA
ATOM      7  H18 ZIN A   1      19.237   2.452   8.904  0.00  0.00     0.210 HD
ENDBRANCH   3   6
ENDBRANCH   2   3
BRANCH   2   8
ATOM      8  O8  ZIN A   1      21.345  -0.584  10.203  0.00  0.00    -0.390 OA
ATOM      9  H19 ZIN A   1      21.496  -1.533  10.311  0.00  0.00     0.210 HD
ENDBRANCH   2   8
ENDBRANCH   1   2
BRANCH   1  10
ATOM     10  O11 ZIN A   1      21.716   0.701  12.340  0.00  0.00    -0.390 OA
ATOM     11  H20 ZIN A   1      21.952  -0.212  12.554  0.00  0.00     0.210 HD
ENDBRANCH   1  10
BRANCH   1  12
ATOM     12  C12 ZIN A   1      19.402   0.588  13.031  0.00  0.00     0.173 C 
BRANCH  12  13
ATOM     13  O14 ZIN A   1      19.954   1.095  14.247  0.00  0.00    -0.391 OA
ATOM     14  H21 ZIN A   1      19.317   1.161  14.971  0.00  0.00     0.210 HD
ENDBRANCH  12  13
BRANCH  12  15
ATOM     15  C15 ZIN A   1      19.176  -0.919  13.162  0.00  0.00     0.198 C 
BRANCH  15  16
ATOM     16  O16 ZIN A   1      20.184  -1.480  14.006  0.00  0.00    -0.398 OA
ATOM     17  H24 ZIN A   1      21.062  -1.094  13.881  0.00  0.00     0.209 HD
ENDBRANCH  15  16
ENDBRANCH  12  15
ENDBRANCH   1  12
TORSDOF 10
ENDMDL
