MODEL 1
REMARK VINA RESULT:      -7.2      0.000      0.000
REMARK  6 active torsions:
REMARK  status: ('A' for Active; 'I' for Inactive)
REMARK    1  A    between atoms: C3_3  and  C4_4 
REMARK    2  A    between atoms: C4_4  and  O5_5 
REMARK    3  A    between atoms: O5_5  and  C6_6 
REMARK    4  A    between atoms: C6_6  and  C8_7 
REMARK    5  A    between atoms: C6_6  and  C15_14 
REMARK    6  A    between atoms: C8_7  and  N9_8 
ROOT
ATOM      1  C6  <0> d   1      18.702   2.007  11.019  0.00  0.00     0.174 C 
ENDROOT
BRANCH   1   2
ATOM      2  O5  <0> d   1      20.009   1.663  11.485  0.00  0.00    -0.375 OA
BRANCH   2   3
ATOM      3  C4  <0> d   1      20.157   0.286  11.837  0.00  0.00     0.209 C 
BRANCH   3   4
ATOM      4  C3  <0> d   1      19.572   0.053  13.206  0.00  0.00    -0.005 A 
ATOM      5  C2  <0> d   1      18.952  -1.081  13.539  0.00  0.00     0.083 A 
ATOM      6 Cl1  <0> d   1      18.722  -2.442  12.486  0.00  0.00    -0.076 Cl
ATOM      7  S25 <0> d   1      18.399  -0.984  15.206  0.00  0.00    -0.089 SA
ATOM      8  C24 <0> d   1      19.068   0.635  15.365  0.00  0.00     0.052 A 
ATOM      9  C23 <0> d   1      19.635   1.000  14.215  0.00  0.00     0.019 A 
ENDBRANCH   3   4
ENDBRANCH   2   3
ENDBRANCH   1   2
BRANCH   1  10
ATOM     10  C8  <0> d   1      18.569   3.529  10.950  0.00  0.00     0.166 C 
BRANCH  10  11
ATOM     11  N9  <0> d   1      18.837   4.103  12.272  0.00  0.00    -0.349 N 
ATOM     12  C14 <0> d   1      19.966   4.734  12.659  0.00  0.00     0.182 A 
ATOM     13  N12 <0> d   1      19.833   5.106  13.902  0.00  0.00    -0.361 N 
ATOM     14  C11 <0> d   1      18.629   4.722  14.353  0.00  0.00     0.106 A 
ATOM     15  H13 <0> d   1      20.500   5.582  14.420  0.00  0.00     0.166 HD
ATOM     16  C10 <0> d   1      17.990   4.092  13.348  0.00  0.00     0.108 A 
ENDBRANCH  10  11
ENDBRANCH   1  10
BRANCH   1  17
ATOM     17  C15 <0> d   1      18.488   1.422   9.646  0.00  0.00    -0.006 A 
ATOM     18  C21 <0> d   1      17.549   0.422   9.460  0.00  0.00     0.044 A 
ATOM     19  C20 <0> d   1      17.348  -0.111   8.199  0.00  0.00     0.048 A 
ATOM     20 Cl22 <0> d   1      16.614  -0.153  10.804  0.00  0.00    -0.084 Cl
ATOM     21  C18 <0> d   1      18.095   0.348   7.128  0.00  0.00     0.035 A 
ATOM     22  C17 <0> d   1      19.036   1.343   7.317  0.00  0.00     0.024 A 
ATOM     23 Cl19 <0> d   1      17.847  -0.325   5.547  0.00  0.00    -0.084 Cl
ATOM     24  C16 <0> d   1      19.233   1.879   8.576  0.00  0.00     0.013 A 
ENDBRANCH   1  17
TORSDOF 6
ENDMDL
MODEL 2
REMARK VINA RESULT:      -7.1      1.238      1.712
REMARK  6 active torsions:
REMARK  status: ('A' for Active; 'I' for Inactive)
REMARK    1  A    between atoms: C3_3  and  C4_4 
REMARK    2  A    between atoms: C4_4  and  O5_5 
REMARK    3  A    between atoms: O5_5  and  C6_6 
REMARK    4  A    between atoms: C6_6  and  C8_7 
REMARK    5  A    between atoms: C6_6  and  C15_14 
REMARK    6  A    between atoms: C8_7  and  N9_8 
ROOT
ATOM      1  C6  <0> d   1      18.773   1.976  10.846  0.00  0.00     0.174 C 
ENDROOT
BRANCH   1   2
ATOM      2  O5  <0> d   1      20.044   1.530  11.324  0.00  0.00    -0.375 OA
BRANCH   2   3
ATOM      3  C4  <0> d   1      19.981   0.796  12.549  0.00  0.00     0.209 C 
BRANCH   3   4
ATOM      4  C3  <0> d   1      19.619  -0.636  12.257  0.00  0.00    -0.005 A 
ATOM      5  C2  <0> d   1      18.764  -1.330  13.012  0.00  0.00     0.083 A 
ATOM      6 Cl1  <0> d   1      17.945  -0.718  14.415  0.00  0.00    -0.076 Cl
ATOM      7  S25 <0> d   1      18.598  -2.960  12.371  0.00  0.00    -0.089 SA
ATOM      8  C24 <0> d   1      19.726  -2.595  11.071  0.00  0.00     0.052 A 
ATOM      9  C23 <0> d   1      20.150  -1.336  11.186  0.00  0.00     0.019 A 
ENDBRANCH   3   4
ENDBRANCH   2   3
ENDBRANCH   1   2
BRANCH   1  10
ATOM     10  C8  <0> d   1      18.768   3.503  10.756  0.00  0.00     0.166 C 
BRANCH  10  11
ATOM     11  N9  <0> d   1      18.723   4.072  12.105  0.00  0.00    -0.349 N 
ATOM     12  C14 <0> d   1      19.692   4.797  12.702  0.00  0.00     0.182 A 
ATOM     13  N12 <0> d   1      19.290   5.130  13.898  0.00  0.00    -0.361 N 
ATOM     14  C11 <0> d   1      18.064   4.629  14.108  0.00  0.00     0.106 A 
ATOM     15  H13 <0> d   1      19.798   5.656  14.535  0.00  0.00     0.166 HD
ATOM     16  C10 <0> d   1      17.691   3.963  12.998  0.00  0.00     0.108 A 
ENDBRANCH  10  11
ENDBRANCH   1  10
BRANCH   1  17
ATOM     17  C15 <0> d   1      18.515   1.390   9.481  0.00  0.00    -0.006 A 
ATOM     18  C21 <0> d   1      17.527   0.437   9.313  0.00  0.00     0.044 A 
ATOM     19  C20 <0> d   1      17.287  -0.096   8.060  0.00  0.00     0.048 A 
ATOM     20 Cl22 <0> d   1      16.579  -0.081  10.673  0.00  0.00    -0.084 Cl
ATOM     21  C18 <0> d   1      18.043   0.317   6.977  0.00  0.00     0.035 A 
ATOM     22  C17 <0> d   1      19.035   1.266   7.148  0.00  0.00     0.024 A 
ATOM     23 Cl19 <0> d   1      17.747  -0.357   5.405  0.00  0.00    -0.084 Cl
ATOM     24  C16 <0> d   1      19.270   1.802   8.400  0.00  0.00     0.013 A 
ENDBRANCH   1  17
TORSDOF 6
ENDMDL
MODEL 3
REMARK VINA RESULT:      -7.0      3.901      6.898
REMARK  6 active torsions:
REMARK  status: ('A' for Active; 'I' for Inactive)
REMARK    1  A    between atoms: C3_3  and  C4_4 
REMARK    2  A    between atoms: C4_4  and  O5_5 
REMARK    3  A    between atoms: O5_5  and  C6_6 
REMARK    4  A    between atoms: C6_6  and  C8_7 
REMARK    5  A    between atoms: C6_6  and  C15_14 
REMARK    6  A    between atoms: C8_7  and  N9_8 
ROOT
ATOM      1  C6  <0> d   1      19.193  -1.631  11.919  0.00  0.00     0.174 C 
ENDROOT
BRANCH   1   2
ATOM      2  O5  <0> d   1      20.329  -0.875  11.492  0.00  0.00    -0.375 OA
BRANCH   2   3
ATOM      3  C4  <0> d   1      20.171  -0.261  10.211  0.00  0.00     0.209 C 
BRANCH   3   4
ATOM      4  C3  <0> d   1      19.592   1.118  10.383  0.00  0.00    -0.005 A 
ATOM      5  C2  <0> d   1      18.782   1.677   9.480  0.00  0.00     0.083 A 
ATOM      6 Cl1  <0> d   1      18.272   0.930   7.998  0.00  0.00    -0.076 Cl
ATOM      7  S25 <0> d   1      18.317   3.285  10.017  0.00  0.00    -0.089 SA
ATOM      8  C24 <0> d   1      19.268   3.102  11.486  0.00  0.00     0.052 A 
ATOM      9  C23 <0> d   1      19.860   1.907  11.490  0.00  0.00     0.019 A 
ENDBRANCH   3   4
ENDBRANCH   2   3
ENDBRANCH   1   2
BRANCH   1  10
ATOM     10  C8  <0> d   1      19.557  -3.116  11.964  0.00  0.00     0.166 C 
BRANCH  10  11
ATOM     11  N9  <0> d   1      18.590  -3.880  11.170  0.00  0.00    -0.349 N 
ATOM     12  C14 <0> d   1      18.814  -4.453   9.969  0.00  0.00     0.182 A 
ATOM     13  N12 <0> d   1      17.719  -5.046   9.578  0.00  0.00    -0.361 N 
ATOM     14  C11 <0> d   1      16.764  -4.868  10.503  0.00  0.00     0.106 A 
ATOM     15  H13 <0> d   1      17.612  -5.536   8.747  0.00  0.00     0.166 HD
ATOM     16  C10 <0> d   1      17.290  -4.140  11.507  0.00  0.00     0.108 A 
ENDBRANCH  10  11
ENDBRANCH   1  10
BRANCH   1  17
ATOM     17  C15 <0> d   1      18.773  -1.175  13.293  0.00  0.00    -0.006 A 
ATOM     18  C21 <0> d   1      17.653  -0.377  13.443  0.00  0.00     0.044 A 
ATOM     19  C20 <0> d   1      17.264   0.037  14.704  0.00  0.00     0.048 A 
ATOM     20 Cl22 <0> d   1      16.729   0.094  12.052  0.00  0.00    -0.084 Cl
ATOM     21  C18 <0> d   1      18.002  -0.338  15.813  0.00  0.00     0.035 A 
ATOM     22  C17 <0> d   1      19.125  -1.132  15.660  0.00  0.00     0.024 A 
ATOM     23 Cl19 <0> d   1      17.518   0.186  17.396  0.00  0.00    -0.084 Cl
ATOM     24  C16 <0> d   1      19.510  -1.550  14.400  0.00  0.00     0.013 A 
ENDBRANCH   1  17
TORSDOF 6
ENDMDL
MODEL 4
REMARK VINA RESULT:      -6.9      4.164      5.466
REMARK  6 active torsions:
REMARK  status: ('A' for Active; 'I' for Inactive)
REMARK    1  A    between atoms: C3_3  and  C4_4 
REMARK    2  A    between atoms: C4_4  and  O5_5 
REMARK    3  A    between atoms: O5_5  and  C6_6 
REMARK    4  A    between atoms: C6_6  and  C8_7 
REMARK    5  A    between atoms: C6_6  and  C15_14 
REMARK    6  A    between atoms: C8_7  and  N9_8 
ROOT
ATOM      1  C6  <0> d   1      18.133  -1.820  10.191  0.00  0.00     0.174 C 
ENDROOT
BRANCH   1   2
ATOM      2  O5  <0> d   1      17.234  -2.931  10.132  0.00  0.00    -0.375 OA
BRANCH   2   3
ATOM      3  C4  <0> d   1      17.802  -4.162  10.585  0.00  0.00     0.209 C 
BRANCH   3   4
ATOM      4  C3  <0> d   1      17.482  -5.255   9.598  0.00  0.00    -0.005 A 
ATOM      5  C2  <0> d   1      18.429  -5.941   8.953  0.00  0.00     0.083 A 
ATOM      6 Cl1  <0> d   1      20.139  -5.699   9.136  0.00  0.00    -0.076 Cl
ATOM      7  S25 <0> d   1      17.680  -7.120   7.885  0.00  0.00    -0.089 SA
ATOM      8  C24 <0> d   1      16.076  -6.609   8.396  0.00  0.00     0.052 A 
ATOM      9  C23 <0> d   1      16.184  -5.624   9.290  0.00  0.00     0.019 A 
ENDBRANCH   3   4
ENDBRANCH   2   3
ENDBRANCH   1   2
BRANCH   1  10
ATOM     10  C8  <0> d   1      19.438  -2.254  10.859  0.00  0.00     0.166 C 
BRANCH  10  11
ATOM     11  N9  <0> d   1      20.040  -1.109  11.547  0.00  0.00    -0.349 N 
ATOM     12  C14 <0> d   1      21.145  -0.434  11.166  0.00  0.00     0.182 A 
ATOM     13  N12 <0> d   1      21.370   0.521  12.026  0.00  0.00    -0.361 N 
ATOM     14  C11 <0> d   1      20.430   0.486  12.982  0.00  0.00     0.106 A 
ATOM     15  H13 <0> d   1      22.103   1.155  11.982  0.00  0.00     0.166 HD
ATOM     16  C10 <0> d   1      19.588  -0.527  12.701  0.00  0.00     0.108 A 
ENDBRANCH  10  11
ENDBRANCH   1  10
BRANCH   1  17
ATOM     17  C15 <0> d   1      18.420  -1.333   8.794  0.00  0.00    -0.006 A 
ATOM     18  C21 <0> d   1      18.266   0.007   8.484  0.00  0.00     0.044 A 
ATOM     19  C20 <0> d   1      18.536   0.455   7.204  0.00  0.00     0.048 A 
ATOM     20 Cl22 <0> d   1      17.748   1.127   9.705  0.00  0.00    -0.084 Cl
ATOM     21  C18 <0> d   1      18.949  -0.438   6.231  0.00  0.00     0.035 A 
ATOM     22  C17 <0> d   1      19.097  -1.778   6.541  0.00  0.00     0.024 A 
ATOM     23 Cl19 <0> d   1      19.281   0.123   4.623  0.00  0.00    -0.084 Cl
ATOM     24  C16 <0> d   1      18.832  -2.224   7.823  0.00  0.00     0.013 A 
ENDBRANCH   1  17
TORSDOF 6
ENDMDL
MODEL 5
REMARK VINA RESULT:      -6.9      3.095      5.096
REMARK  6 active torsions:
REMARK  status: ('A' for Active; 'I' for Inactive)
REMARK    1  A    between atoms: C3_3  and  C4_4 
REMARK    2  A    between atoms: C4_4  and  O5_5 
REMARK    3  A    between atoms: O5_5  and  C6_6 
REMARK    4  A    between atoms: C6_6  and  C8_7 
REMARK    5  A    between atoms: C6_6  and  C15_14 
REMARK    6  A    between atoms: C8_7  and  N9_8 
ROOT
ATOM      1  C6  <0> d   1      19.652  -0.452  11.429  0.00  0.00     0.174 C 
ENDROOT
BRANCH   1   2
ATOM      2  O5  <0> d   1      20.335  -0.151  12.648  0.00  0.00    -0.375 OA
BRANCH   2   3
ATOM      3  C4  <0> d   1      19.685   0.837  13.450  0.00  0.00     0.209 C 
BRANCH   3   4
ATOM      4  C3  <0> d   1      19.295   0.232  14.773  0.00  0.00    -0.005 A 
ATOM      5  C2  <0> d   1      18.994   0.973  15.842  0.00  0.00     0.083 A 
ATOM      6 Cl1  <0> d   1      18.998   2.708  15.889  0.00  0.00    -0.076 Cl
ATOM      7  S25 <0> d   1      18.598  -0.077  17.196  0.00  0.00    -0.089 SA
ATOM      8  C24 <0> d   1      18.862  -1.506  16.205  0.00  0.00     0.052 A 
ATOM      9  C23 <0> d   1      19.222  -1.137  14.974  0.00  0.00     0.019 A 
ENDBRANCH   3   4
ENDBRANCH   2   3
ENDBRANCH   1   2
BRANCH   1  10
ATOM     10  C8  <0> d   1      20.630  -0.350  10.257  0.00  0.00     0.166 C 
BRANCH  10  11
ATOM     11  N9  <0> d   1      19.889  -0.063   9.025  0.00  0.00    -0.349 N 
ATOM     12  C14 <0> d   1      19.500  -0.962   8.096  0.00  0.00     0.182 A 
ATOM     13  N12 <0> d   1      18.864  -0.333   7.146  0.00  0.00    -0.361 N 
ATOM     14  C11 <0> d   1      18.830   0.978   7.428  0.00  0.00     0.106 A 
ATOM     15  H13 <0> d   1      18.478  -0.747   6.359  0.00  0.00     0.166 HD
ATOM     16  C10 <0> d   1      19.467   1.167   8.600  0.00  0.00     0.108 A 
ENDBRANCH  10  11
ENDBRANCH   1  10
BRANCH   1  17
ATOM     17  C15 <0> d   1      19.094  -1.851  11.498  0.00  0.00    -0.006 A 
ATOM     18  C21 <0> d   1      17.732  -2.046  11.640  0.00  0.00     0.044 A 
ATOM     19  C20 <0> d   1      17.220  -3.329  11.698  0.00  0.00     0.048 A 
ATOM     20 Cl22 <0> d   1      16.664  -0.680  11.733  0.00  0.00    -0.084 Cl
ATOM     21  C18 <0> d   1      18.072  -4.417  11.624  0.00  0.00     0.035 A 
ATOM     22  C17 <0> d   1      19.434  -4.221  11.487  0.00  0.00     0.024 A 
ATOM     23 Cl19 <0> d   1      17.430  -6.028  11.702  0.00  0.00    -0.084 Cl
ATOM     24  C16 <0> d   1      19.945  -2.937  11.424  0.00  0.00     0.013 A 
ENDBRANCH   1  17
TORSDOF 6
ENDMDL
MODEL 6
REMARK VINA RESULT:      -6.8      3.108      4.609
REMARK  6 active torsions:
REMARK  status: ('A' for Active; 'I' for Inactive)
REMARK    1  A    between atoms: C3_3  and  C4_4 
REMARK    2  A    between atoms: C4_4  and  O5_5 
REMARK    3  A    between atoms: O5_5  and  C6_6 
REMARK    4  A    between atoms: C6_6  and  C8_7 
REMARK    5  A    between atoms: C6_6  and  C15_14 
REMARK    6  A    between atoms: C8_7  and  N9_8 
ROOT
ATOM      1  C6  <0> d   1      18.146  -0.451  10.122  0.00  0.00     0.174 C 
ENDROOT
BRANCH   1   2
ATOM      2  O5  <0> d   1      17.170   0.471  10.614  0.00  0.00    -0.375 OA
BRANCH   2   3
ATOM      3  C4  <0> d   1      16.746   0.207  11.953  0.00  0.00     0.209 C 
BRANCH   3   4
ATOM      4  C3  <0> d   1      17.613   0.976  12.915  0.00  0.00    -0.005 A 
ATOM      5  C2  <0> d   1      18.249   0.392  13.934  0.00  0.00     0.083 A 
ATOM      6 Cl1  <0> d   1      18.188  -1.301  14.312  0.00  0.00    -0.076 Cl
ATOM      7  S25 <0> d   1      19.152   1.601  14.837  0.00  0.00    -0.089 SA
ATOM      8  C24 <0> d   1      18.609   2.868  13.744  0.00  0.00     0.052 A 
ATOM      9  C23 <0> d   1      17.813   2.343  12.811  0.00  0.00     0.019 A 
ENDBRANCH   3   4
ENDBRANCH   2   3
ENDBRANCH   1   2
BRANCH   1  10
ATOM     10  C8  <0> d   1      17.696  -1.881  10.424  0.00  0.00     0.166 C 
BRANCH  10  11
ATOM     11  N9  <0> d   1      18.851  -2.676  10.852  0.00  0.00    -0.349 N 
ATOM     12  C14 <0> d   1      20.023  -2.200  11.322  0.00  0.00     0.182 A 
ATOM     13  N12 <0> d   1      20.803  -3.208  11.600  0.00  0.00    -0.361 N 
ATOM     14  C11 <0> d   1      20.167  -4.353  11.313  0.00  0.00     0.106 A 
ATOM     15  H13 <0> d   1      21.703  -3.140  11.956  0.00  0.00     0.166 HD
ATOM     16  C10 <0> d   1      18.943  -4.042  10.843  0.00  0.00     0.108 A 
ENDBRANCH  10  11
ENDBRANCH   1  10
BRANCH   1  17
ATOM     17  C15 <0> d   1      18.297  -0.275   8.632  0.00  0.00    -0.006 A 
ATOM     18  C21 <0> d   1      18.806   0.906   8.123  0.00  0.00     0.044 A 
ATOM     19  C20 <0> d   1      18.949   1.065   6.757  0.00  0.00     0.048 A 
ATOM     20 Cl22 <0> d   1      19.278   2.183   9.199  0.00  0.00    -0.084 Cl
ATOM     21  C18 <0> d   1      18.572   0.046   5.899  0.00  0.00     0.035 A 
ATOM     22  C17 <0> d   1      18.058  -1.133   6.410  0.00  0.00     0.024 A 
ATOM     23 Cl19 <0> d   1      18.746   0.247   4.184  0.00  0.00    -0.084 Cl
ATOM     24  C16 <0> d   1      17.921  -1.292   7.776  0.00  0.00     0.013 A 
ENDBRANCH   1  17
TORSDOF 6
ENDMDL
MODEL 7
REMARK VINA RESULT:      -6.8      4.229      7.361
REMARK  6 active torsions:
REMARK  status: ('A' for Active; 'I' for Inactive)
REMARK    1  A    between atoms: C3_3  and  C4_4 
REMARK    2  A    between atoms: C4_4  and  O5_5 
REMARK    3  A    between atoms: O5_5  and  C6_6 
REMARK    4  A    between atoms: C6_6  and  C8_7 
REMARK    5  A    between atoms: C6_6  and  C15_14 
REMARK    6  A    between atoms: C8_7  and  N9_8 
ROOT
ATOM      1  C6  <0> d   1      18.715  -1.993  11.323  0.00  0.00     0.174 C 
ENDROOT
BRANCH   1   2
ATOM      2  O5  <0> d   1      20.014  -1.683  10.812  0.00  0.00    -0.375 OA
BRANCH   2   3
ATOM      3  C4  <0> d   1      20.137  -0.352  10.306  0.00  0.00     0.209 C 
BRANCH   3   4
ATOM      4  C3  <0> d   1      19.570  -0.291   8.912  0.00  0.00    -0.005 A 
ATOM      5  C2  <0> d   1      19.072   0.831   8.386  0.00  0.00     0.083 A 
ATOM      6 Cl1  <0> d   1      18.996   2.365   9.195  0.00  0.00    -0.076 Cl
ATOM      7  S25 <0> d   1      18.499   0.515   6.754  0.00  0.00    -0.089 SA
ATOM      8  C24 <0> d   1      18.991  -1.169   6.875  0.00  0.00     0.052 A 
ATOM      9  C23 <0> d   1      19.525  -1.395   8.076  0.00  0.00     0.019 A 
ENDBRANCH   3   4
ENDBRANCH   2   3
ENDBRANCH   1   2
BRANCH   1  10
ATOM     10  C8  <0> d   1      18.566  -3.509  11.453  0.00  0.00     0.166 C 
BRANCH  10  11
ATOM     11  N9  <0> d   1      18.319  -4.091  10.131  0.00  0.00    -0.349 N 
ATOM     12  C14 <0> d   1      17.216  -3.917   9.372  0.00  0.00     0.182 A 
ATOM     13  N12 <0> d   1      17.361  -4.589   8.263  0.00  0.00    -0.361 N 
ATOM     14  C11 <0> d   1      18.547  -5.216   8.277  0.00  0.00     0.106 A 
ATOM     15  H13 <0> d   1      16.713  -4.631   7.543  0.00  0.00     0.166 HD
ATOM     16  C10 <0> d   1      19.161  -4.917   9.438  0.00  0.00     0.108 A 
ENDBRANCH  10  11
ENDBRANCH   1  10
BRANCH   1  17
ATOM     17  C15 <0> d   1      18.542  -1.353  12.677  0.00  0.00    -0.006 A 
ATOM     18  C21 <0> d   1      17.602  -0.353  12.855  0.00  0.00     0.044 A 
ATOM     19  C20 <0> d   1      17.440   0.230  14.098  0.00  0.00     0.048 A 
ATOM     20 Cl22 <0> d   1      16.617   0.160  11.520  0.00  0.00    -0.084 Cl
ATOM     21  C18 <0> d   1      18.225  -0.179  15.161  0.00  0.00     0.035 A 
ATOM     22  C17 <0> d   1      19.169  -1.175  14.981  0.00  0.00     0.024 A 
ATOM     23 Cl19 <0> d   1      18.027   0.556  16.721  0.00  0.00    -0.084 Cl
ATOM     24  C16 <0> d   1      19.326  -1.761  13.739  0.00  0.00     0.013 A 
ENDBRANCH   1  17
TORSDOF 6
ENDMDL
MODEL 8
REMARK VINA RESULT:      -6.8      3.388      5.551
REMARK  6 active torsions:
REMARK  status: ('A' for Active; 'I' for Inactive)
REMARK    1  A    between atoms: C3_3  and  C4_4 
REMARK    2  A    between atoms: C4_4  and  O5_5 
REMARK    3  A    between atoms: O5_5  and  C6_6 
REMARK    4  A    between atoms: C6_6  and  C8_7 
REMARK    5  A    between atoms: C6_6  and  C15_14 
REMARK    6  A    between atoms: C8_7  and  N9_8 
ROOT
ATOM      1  C6  <0> d   1      19.008  -0.793  10.632  0.00  0.00     0.174 C 
ENDROOT
BRANCH   1   2
ATOM      2  O5  <0> d   1      19.328  -1.363   9.360  0.00  0.00    -0.375 OA
BRANCH   2   3
ATOM      3  C4  <0> d   1      18.185  -1.706   8.573  0.00  0.00     0.209 C 
BRANCH   3   4
ATOM      4  C3  <0> d   1      18.387  -1.226   7.159  0.00  0.00    -0.005 A 
ATOM      5  C2  <0> d   1      19.095  -1.915   6.260  0.00  0.00     0.083 A 
ATOM      6 Cl1  <0> d   1      19.879  -3.435   6.558  0.00  0.00    -0.076 Cl
ATOM      7  S25 <0> d   1      19.117  -1.044   4.733  0.00  0.00    -0.089 SA
ATOM      8  C24 <0> d   1      18.127   0.240   5.416  0.00  0.00     0.052 A 
ATOM      9  C23 <0> d   1      17.853  -0.037   6.692  0.00  0.00     0.019 A 
ENDBRANCH   3   4
ENDBRANCH   2   3
ENDBRANCH   1   2
BRANCH   1  10
ATOM     10  C8  <0> d   1      20.201  -0.952  11.576  0.00  0.00     0.166 C 
BRANCH  10  11
ATOM     11  N9  <0> d   1      19.746  -0.833  12.964  0.00  0.00    -0.349 N 
ATOM     12  C14 <0> d   1      19.956   0.214  13.789  0.00  0.00     0.182 A 
ATOM     13  N12 <0> d   1      19.400  -0.044  14.942  0.00  0.00    -0.361 N 
ATOM     14  C11 <0> d   1      18.827  -1.256  14.895  0.00  0.00     0.106 A 
ATOM     15  H13 <0> d   1      19.403   0.547  15.711  0.00  0.00     0.166 HD
ATOM     16  C10 <0> d   1      19.032  -1.766  13.666  0.00  0.00     0.108 A 
ENDBRANCH  10  11
ENDBRANCH   1  10
BRANCH   1  17
ATOM     17  C15 <0> d   1      18.693   0.671  10.462  0.00  0.00    -0.006 A 
ATOM     18  C21 <0> d   1      17.614   1.227  11.127  0.00  0.00     0.044 A 
ATOM     19  C20 <0> d   1      17.328   2.571  10.975  0.00  0.00     0.048 A 
ATOM     20 Cl22 <0> d   1      16.627   0.240  12.159  0.00  0.00    -0.084 Cl
ATOM     21  C18 <0> d   1      18.114   3.357  10.151  0.00  0.00     0.035 A 
ATOM     22  C17 <0> d   1      19.190   2.799   9.484  0.00  0.00     0.024 A 
ATOM     23 Cl19 <0> d   1      17.752   5.043   9.956  0.00  0.00    -0.084 Cl
ATOM     24  C16 <0> d   1      19.478   1.455   9.640  0.00  0.00     0.013 A 
ENDBRANCH   1  17
TORSDOF 6
ENDMDL
MODEL 9
REMARK VINA RESULT:      -6.7      3.854      5.644
REMARK  6 active torsions:
REMARK  status: ('A' for Active; 'I' for Inactive)
REMARK    1  A    between atoms: C3_3  and  C4_4 
REMARK    2  A    between atoms: C4_4  and  O5_5 
REMARK    3  A    between atoms: O5_5  and  C6_6 
REMARK    4  A    between atoms: C6_6  and  C8_7 
REMARK    5  A    between atoms: C6_6  and  C15_14 
REMARK    6  A    between atoms: C8_7  and  N9_8 
ROOT
ATOM      1  C6  <0> d   1      18.726  -1.663  12.166  0.00  0.00     0.174 C 
ENDROOT
BRANCH   1   2
ATOM      2  O5  <0> d   1      18.451  -1.660  13.569  0.00  0.00    -0.375 OA
BRANCH   2   3
ATOM      3  C4  <0> d   1      19.548  -1.227  14.375  0.00  0.00     0.209 C 
BRANCH   3   4
ATOM      4  C3  <0> d   1      19.024  -0.547  15.612  0.00  0.00    -0.005 A 
ATOM      5  C2  <0> d   1      18.883   0.778  15.700  0.00  0.00     0.083 A 
ATOM      6 Cl1  <0> d   1      19.267   1.909  14.439  0.00  0.00    -0.076 Cl
ATOM      7  S25 <0> d   1      18.256   1.203  17.287  0.00  0.00    -0.089 SA
ATOM      8  C24 <0> d   1      18.209  -0.492  17.755  0.00  0.00     0.052 A 
ATOM      9  C23 <0> d   1      18.652  -1.247  16.748  0.00  0.00     0.019 A 
ENDBRANCH   3   4
ENDBRANCH   2   3
ENDBRANCH   1   2
BRANCH   1  10
ATOM     10  C8  <0> d   1      17.745  -2.597  11.455  0.00  0.00     0.166 C 
BRANCH  10  11
ATOM     11  N9  <0> d   1      18.471  -3.421  10.485  0.00  0.00    -0.349 N 
ATOM     12  C14 <0> d   1      19.655  -4.039  10.684  0.00  0.00     0.182 A 
ATOM     13  N12 <0> d   1      19.982  -4.678   9.594  0.00  0.00    -0.361 N 
ATOM     14  C11 <0> d   1      19.032  -4.487   8.667  0.00  0.00     0.106 A 
ATOM     15  H13 <0> d   1      20.786  -5.206   9.473  0.00  0.00     0.166 HD
ATOM     16  C10 <0> d   1      18.078  -3.703   9.205  0.00  0.00     0.108 A 
ENDBRANCH  10  11
ENDBRANCH   1  10
BRANCH   1  17
ATOM     17  C15 <0> d   1      18.573  -0.266  11.621  0.00  0.00    -0.006 A 
ATOM     18  C21 <0> d   1      19.628   0.337  10.959  0.00  0.00     0.044 A 
ATOM     19  C20 <0> d   1      19.486   1.617  10.454  0.00  0.00     0.048 A 
ATOM     20 Cl22 <0> d   1      21.125  -0.517  10.751  0.00  0.00    -0.084 Cl
ATOM     21  C18 <0> d   1      18.292   2.297  10.621  0.00  0.00     0.035 A 
ATOM     22  C17 <0> d   1      17.240   1.695  11.287  0.00  0.00     0.024 A 
ATOM     23 Cl19 <0> d   1      18.116   3.906   9.993  0.00  0.00    -0.084 Cl
ATOM     24  C16 <0> d   1      17.382   0.414  11.787  0.00  0.00     0.013 A 
ENDBRANCH   1  17
TORSDOF 6
ENDMDL
