MODEL 1
REMARK VINA RESULT:      -8.8      0.000      0.000
REMARK  7 active torsions:
REMARK  status: ('A' for Active; 'I' for Inactive)
REMARK       I    between atoms: C2_2  and  N4_4 
REMARK    1  A    between atoms: N7_7  and  C8_8 
REMARK    2  A    between atoms: C11_11  and  O12_12 
REMARK    3  A    between atoms: O12_12  and  C13_13 
REMARK    4  A    between atoms: C13_13  and  C14_14 
REMARK    5  A    between atoms: C18_17  and  C19_18 
REMARK    6  A    between atoms: C18_17  and  C25_24 
REMARK    7  A    between atoms: C19_18  and  N20_19 
ROOT
ATOM      1  C14 <0> d   1      18.389  -3.916   7.020  0.00  0.00     0.173 C 
ATOM      2  C16 <0> d   1      19.393  -5.093   6.930  0.00  0.00     0.206 C 
ATOM      3  O17 <0> d   1      18.551  -6.223   7.263  0.00  0.00    -0.347 OA
ATOM      4  C18 <0> d   1      17.643  -5.725   8.261  0.00  0.00     0.212 C 
ATOM      5  O33 <0> d   1      17.526  -4.302   8.110  0.00  0.00    -0.340 OA
ENDROOT
BRANCH   1   6
ATOM      6  C13 <0> d   1      19.115  -2.609   7.342  0.00  0.00     0.209 C 
BRANCH   6   7
ATOM      7  O12 <0> d   1      18.250  -1.505   7.074  0.00  0.00    -0.349 OA
BRANCH   7   8
ATOM      8  C11 <0> d   1      18.340  -0.433   7.908  0.00  0.00     0.069 A 
ATOM      9  C10 <0> d   1      17.719  -0.464   9.147  0.00  0.00     0.039 A 
ATOM     10  C9  <0> d   1      17.811   0.622   9.994  0.00  0.00     0.032 A 
ATOM     11  C8  <0> d   1      18.524   1.748   9.603  0.00  0.00     0.030 A 
ATOM     12  C35 <0> d   1      19.140   1.781   8.360  0.00  0.00     0.032 A 
ATOM     13  C34 <0> d   1      19.052   0.691   7.516  0.00  0.00     0.039 A 
BRANCH  11  14
ATOM     14  N7  <0> d   1      18.617   2.850  10.460  0.00  0.00    -0.378 N 
ATOM     15  C6  <0> d   1      17.632   3.937  10.391  0.00  0.00     0.143 C 
ATOM     16  C5  <0> d   1      17.015   4.131  11.783  0.00  0.00     0.145 C 
ATOM     17  N4  <0> d   1      18.101   4.222  12.768  0.00  0.00    -0.349 N 
ATOM     18  C2  <0> d   1      18.192   5.284  13.593  0.00  0.00     0.215 C 
ATOM     19  C37 <0> d   1      19.091   3.137  12.834  0.00  0.00     0.145 C 
ATOM     20  C1  <0> d   1      17.170   6.389  13.514  0.00  0.00     0.117 C 
ATOM     21  O3  <0> d   1      19.096   5.350  14.399  0.00  0.00    -0.274 OA
ATOM     22  C36 <0> d   1      19.704   2.941  11.446  0.00  0.00     0.143 C 
ENDBRANCH  11  14
ENDBRANCH   7   8
ENDBRANCH   6   7
ENDBRANCH   1   6
BRANCH   4  23
ATOM     23  C19 <0> d   1      18.180  -6.055   9.654  0.00  0.00     0.203 C 
BRANCH  23  24
ATOM     24  N20 <0> d   1      18.240  -4.830  10.456  0.00  0.00    -0.345 N 
ATOM     25  C24 <0> d   1      17.200  -4.215  11.060  0.00  0.00     0.209 A 
ATOM     26  N23 <0> d   1      17.643  -3.158  11.682  0.00  0.00    -0.255 NA
ATOM     27  C22 <0> d   1      18.968  -3.056  11.494  0.00  0.00     0.135 A 
ATOM     28  C21 <0> d   1      19.360  -4.093  10.729  0.00  0.00     0.111 A 
ENDBRANCH  23  24
ENDBRANCH   4  23
BRANCH   4  29
ATOM     29  C25 <0> d   1      16.289  -6.360   8.075  0.00  0.00     0.027 A 
ATOM     30  C31 <0> d   1      16.192  -7.662   7.617  0.00  0.00     0.047 A 
ATOM     31  C30 <0> d   1      14.948  -8.246   7.452  0.00  0.00     0.048 A 
ATOM     32 Cl32 <0> d   1      17.630  -8.567   7.262  0.00  0.00    -0.084 Cl
ATOM     33  C28 <0> d   1      13.803  -7.523   7.735  0.00  0.00     0.035 A 
ATOM     34  C27 <0> d   1      13.902  -6.220   8.187  0.00  0.00     0.024 A 
ATOM     35 Cl29 <0> d   1      12.242  -8.253   7.522  0.00  0.00    -0.084 Cl
ATOM     36  C26 <0> d   1      15.145  -5.638   8.357  0.00  0.00     0.016 A 
ENDBRANCH   4  29
TORSDOF 7
ENDMDL
MODEL 2
REMARK VINA RESULT:      -8.8      2.611      3.056
REMARK  7 active torsions:
REMARK  status: ('A' for Active; 'I' for Inactive)
REMARK       I    between atoms: C2_2  and  N4_4 
REMARK    1  A    between atoms: N7_7  and  C8_8 
REMARK    2  A    between atoms: C11_11  and  O12_12 
REMARK    3  A    between atoms: O12_12  and  C13_13 
REMARK    4  A    between atoms: C13_13  and  C14_14 
REMARK    5  A    between atoms: C18_17  and  C19_18 
REMARK    6  A    between atoms: C18_17  and  C25_24 
REMARK    7  A    between atoms: C19_18  and  N20_19 
ROOT
ATOM      1  C14 <0> d   1      18.134  -3.640   7.051  0.00  0.00     0.173 C 
ATOM      2  C16 <0> d   1      19.055  -4.675   6.357  0.00  0.00     0.206 C 
ATOM      3  O17 <0> d   1      18.290  -5.896   6.508  0.00  0.00    -0.347 OA
ATOM      4  C18 <0> d   1      17.666  -5.783   7.797  0.00  0.00     0.212 C 
ATOM      5  O33 <0> d   1      17.553  -4.391   8.136  0.00  0.00    -0.340 OA
ENDROOT
BRANCH   1   6
ATOM      6  C13 <0> d   1      18.951  -2.462   7.585  0.00  0.00     0.209 C 
BRANCH   6   7
ATOM      7  O12 <0> d   1      18.086  -1.551   8.263  0.00  0.00    -0.349 OA
BRANCH   7   8
ATOM      8  C11 <0> d   1      18.399  -1.243   9.551  0.00  0.00     0.069 A 
ATOM      9  C10 <0> d   1      17.423  -1.296  10.534  0.00  0.00     0.039 A 
ATOM     10  C9  <0> d   1      17.740  -0.985  11.841  0.00  0.00     0.032 A 
ATOM     11  C8  <0> d   1      19.037  -0.616  12.171  0.00  0.00     0.030 A 
ATOM     12  C35 <0> d   1      20.013  -0.557  11.185  0.00  0.00     0.032 A 
ATOM     13  C34 <0> d   1      19.695  -0.875   9.879  0.00  0.00     0.039 A 
BRANCH  11  14
ATOM     14  N7  <0> d   1      19.360  -0.300  13.495  0.00  0.00    -0.378 N 
ATOM     15  C6  <0> d   1      19.392   1.099  13.943  0.00  0.00     0.143 C 
ATOM     16  C5  <0> d   1      18.460   1.248  15.153  0.00  0.00     0.145 C 
ATOM     17  N4  <0> d   1      18.774   0.188  16.120  0.00  0.00    -0.349 N 
ATOM     18  C2  <0> d   1      19.085   0.492  17.396  0.00  0.00     0.215 C 
ATOM     19  C37 <0> d   1      18.747  -1.212  15.670  0.00  0.00     0.145 C 
ATOM     20  C1  <0> d   1      19.109   1.932  17.842  0.00  0.00     0.117 C 
ATOM     21  O3  <0> d   1      19.347  -0.392  18.184  0.00  0.00    -0.274 OA
ATOM     22  C36 <0> d   1      19.674  -1.361  14.463  0.00  0.00     0.143 C 
ENDBRANCH  11  14
ENDBRANCH   7   8
ENDBRANCH   6   7
ENDBRANCH   1   6
BRANCH   4  23
ATOM     23  C19 <0> d   1      18.516  -6.502   8.845  0.00  0.00     0.203 C 
BRANCH  23  24
ATOM     24  N20 <0> d   1      18.703  -5.628  10.006  0.00  0.00    -0.345 N 
ATOM     25  C24 <0> d   1      17.809  -5.405  10.993  0.00  0.00     0.209 A 
ATOM     26  N23 <0> d   1      18.332  -4.572  11.851  0.00  0.00    -0.255 NA
ATOM     27  C22 <0> d   1      19.563  -4.232  11.442  0.00  0.00     0.135 A 
ATOM     28  C21 <0> d   1      19.814  -4.882  10.289  0.00  0.00     0.111 A 
ENDBRANCH  23  24
ENDBRANCH   4  23
BRANCH   4  29
ATOM     29  C25 <0> d   1      16.291  -6.398   7.750  0.00  0.00     0.027 A 
ATOM     30  C31 <0> d   1      16.116  -7.661   7.213  0.00  0.00     0.047 A 
ATOM     31  C30 <0> d   1      14.854  -8.228   7.175  0.00  0.00     0.048 A 
ATOM     32 Cl32 <0> d   1      17.481  -8.540   6.600  0.00  0.00    -0.084 Cl
ATOM     33  C28 <0> d   1      13.766  -7.526   7.664  0.00  0.00     0.035 A 
ATOM     34  C27 <0> d   1      13.942  -6.261   8.195  0.00  0.00     0.024 A 
ATOM     35 Cl29 <0> d   1      12.182  -8.233   7.610  0.00  0.00    -0.084 Cl
ATOM     36  C26 <0> d   1      15.204  -5.697   8.237  0.00  0.00     0.016 A 
ENDBRANCH   4  29
TORSDOF 7
ENDMDL
MODEL 3
REMARK VINA RESULT:      -8.8      5.409     10.654
REMARK  7 active torsions:
REMARK  status: ('A' for Active; 'I' for Inactive)
REMARK       I    between atoms: C2_2  and  N4_4 
REMARK    1  A    between atoms: N7_7  and  C8_8 
REMARK    2  A    between atoms: C11_11  and  O12_12 
REMARK    3  A    between atoms: O12_12  and  C13_13 
REMARK    4  A    between atoms: C13_13  and  C14_14 
REMARK    5  A    between atoms: C18_17  and  C19_18 
REMARK    6  A    between atoms: C18_17  and  C25_24 
REMARK    7  A    between atoms: C19_18  and  N20_19 
ROOT
ATOM      1  C14 <0> d   1      18.579   2.525  15.573  0.00  0.00     0.173 C 
ATOM      2  C16 <0> d   1      19.715   3.393  16.170  0.00  0.00     0.206 C 
ATOM      3  O17 <0> d   1      19.166   4.727  16.036  0.00  0.00    -0.347 OA
ATOM      4  C18 <0> d   1      18.438   4.703  14.797  0.00  0.00     0.212 C 
ATOM      5  O33 <0> d   1      18.059   3.348  14.509  0.00  0.00    -0.340 OA
ENDROOT
BRANCH   1   6
ATOM      6  C13 <0> d   1      19.136   1.212  15.019  0.00  0.00     0.209 C 
BRANCH   6   7
ATOM      7  O12 <0> d   1      18.061   0.404  14.538  0.00  0.00    -0.349 OA
BRANCH   7   8
ATOM      8  C11 <0> d   1      18.054   0.113  13.209  0.00  0.00     0.069 A 
ATOM      9  C10 <0> d   1      19.158  -0.488  12.624  0.00  0.00     0.039 A 
ATOM     10  C9  <0> d   1      19.151  -0.784  11.276  0.00  0.00     0.032 A 
ATOM     11  C8  <0> d   1      18.037  -0.478  10.505  0.00  0.00     0.030 A 
ATOM     12  C35 <0> d   1      16.934   0.129  11.089  0.00  0.00     0.032 A 
ATOM     13  C34 <0> d   1      16.941   0.420  12.440  0.00  0.00     0.039 A 
BRANCH  11  14
ATOM     14  N7  <0> d   1      18.029  -0.776   9.137  0.00  0.00    -0.378 N 
ATOM     15  C6  <0> d   1      17.697   0.258   8.148  0.00  0.00     0.143 C 
ATOM     16  C5  <0> d   1      18.845   0.352   7.134  0.00  0.00     0.145 C 
ATOM     17  N4  <0> d   1      19.167  -1.002   6.662  0.00  0.00    -0.349 N 
ATOM     18  C2  <0> d   1      19.158  -1.290   5.345  0.00  0.00     0.215 C 
ATOM     19  C37 <0> d   1      19.493  -2.038   7.653  0.00  0.00     0.145 C 
ATOM     20  C1  <0> d   1      18.822  -0.217   4.342  0.00  0.00     0.117 C 
ATOM     21  O3  <0> d   1      19.421  -2.413   4.969  0.00  0.00    -0.274 OA
ATOM     22  C36 <0> d   1      18.351  -2.131   8.666  0.00  0.00     0.143 C 
ENDBRANCH  11  14
ENDBRANCH   7   8
ENDBRANCH   6   7
ENDBRANCH   1   6
BRANCH   4  23
ATOM     23  C19 <0> d   1      19.321   5.243  13.671  0.00  0.00     0.203 C 
BRANCH  23  24
ATOM     24  N20 <0> d   1      19.173   4.395  12.485  0.00  0.00    -0.345 N 
ATOM     25  C24 <0> d   1      19.957   3.350  12.144  0.00  0.00     0.209 A 
ATOM     26  N23 <0> d   1      19.514   2.842  11.027  0.00  0.00    -0.255 NA
ATOM     27  C22 <0> d   1      18.447   3.542  10.615  0.00  0.00     0.135 A 
ATOM     28  C21 <0> d   1      18.217   4.519  11.514  0.00  0.00     0.111 A 
ENDBRANCH  23  24
ENDBRANCH   4  23
BRANCH   4  29
ATOM     29  C25 <0> d   1      17.199   5.552  14.922  0.00  0.00     0.027 A 
ATOM     30  C31 <0> d   1      17.180   6.626  15.792  0.00  0.00     0.047 A 
ATOM     31  C30 <0> d   1      16.045   7.409  15.902  0.00  0.00     0.048 A 
ATOM     32 Cl32 <0> d   1      18.587   7.001  16.738  0.00  0.00    -0.084 Cl
ATOM     33  C28 <0> d   1      14.924   7.109  15.148  0.00  0.00     0.035 A 
ATOM     34  C27 <0> d   1      14.942   6.031  14.282  0.00  0.00     0.024 A 
ATOM     35 Cl29 <0> d   1      13.496   8.086  15.290  0.00  0.00    -0.084 Cl
ATOM     36  C26 <0> d   1      16.079   5.252  14.169  0.00  0.00     0.016 A 
ENDBRANCH   4  29
TORSDOF 7
ENDMDL
MODEL 4
REMARK VINA RESULT:      -8.6      2.909      9.056
REMARK  7 active torsions:
REMARK  status: ('A' for Active; 'I' for Inactive)
REMARK       I    between atoms: C2_2  and  N4_4 
REMARK    1  A    between atoms: N7_7  and  C8_8 
REMARK    2  A    between atoms: C11_11  and  O12_12 
REMARK    3  A    between atoms: O12_12  and  C13_13 
REMARK    4  A    between atoms: C13_13  and  C14_14 
REMARK    5  A    between atoms: C18_17  and  C19_18 
REMARK    6  A    between atoms: C18_17  and  C25_24 
REMARK    7  A    between atoms: C19_18  and  N20_19 
ROOT
ATOM      1  C14 <0> d   1      18.682  -0.223  12.017  0.00  0.00     0.173 C 
ATOM      2  C16 <0> d   1      17.528   0.785  12.251  0.00  0.00     0.206 C 
ATOM      3  O17 <0> d   1      17.338   1.327  10.921  0.00  0.00    -0.347 OA
ATOM      4  C18 <0> d   1      18.659   1.395  10.359  0.00  0.00     0.212 C 
ATOM      5  O33 <0> d   1      19.493   0.431  11.020  0.00  0.00    -0.340 OA
ENDROOT
BRANCH   1   6
ATOM      6  C13 <0> d   1      19.478  -0.442  13.304  0.00  0.00     0.209 C 
BRANCH   6   7
ATOM      7  O12 <0> d   1      19.366  -1.807  13.707  0.00  0.00    -0.349 OA
BRANCH   7   8
ATOM      8  C11 <0> d   1      19.110  -2.721  12.732  0.00  0.00     0.069 A 
ATOM      9  C10 <0> d   1      20.136  -3.168  11.914  0.00  0.00     0.039 A 
ATOM     10  C9  <0> d   1      19.877  -4.096  10.924  0.00  0.00     0.032 A 
ATOM     11  C8  <0> d   1      18.587  -4.578  10.747  0.00  0.00     0.030 A 
ATOM     12  C35 <0> d   1      17.559  -4.125  11.562  0.00  0.00     0.032 A 
ATOM     13  C34 <0> d   1      17.821  -3.202  12.555  0.00  0.00     0.039 A 
BRANCH  11  14
ATOM     14  N7  <0> d   1      18.323  -5.518   9.744  0.00  0.00    -0.378 N 
ATOM     15  C6  <0> d   1      16.999  -6.145   9.636  0.00  0.00     0.143 C 
ATOM     16  C5  <0> d   1      16.461  -5.914   8.217  0.00  0.00     0.145 C 
ATOM     17  N4  <0> d   1      17.503  -6.291   7.254  0.00  0.00    -0.349 N 
ATOM     18  C2  <0> d   1      17.249  -7.197   6.288  0.00  0.00     0.215 C 
ATOM     19  C37 <0> d   1      18.830  -5.668   7.365  0.00  0.00     0.145 C 
ATOM     20  C1  <0> d   1      15.884  -7.827   6.186  0.00  0.00     0.117 C 
ATOM     21  O3  <0> d   1      18.120  -7.504   5.500  0.00  0.00    -0.274 OA
ATOM     22  C36 <0> d   1      19.366  -5.895   8.779  0.00  0.00     0.143 C 
ENDBRANCH  11  14
ENDBRANCH   7   8
ENDBRANCH   6   7
ENDBRANCH   1   6
BRANCH   4  23
ATOM     23  C19 <0> d   1      19.232   2.798  10.559  0.00  0.00     0.203 C 
BRANCH  23  24
ATOM     24  N20 <0> d   1      18.193   3.678  11.101  0.00  0.00    -0.345 N 
ATOM     25  C24 <0> d   1      17.160   4.214  10.416  0.00  0.00     0.209 A 
ATOM     26  N23 <0> d   1      16.447   4.938  11.235  0.00  0.00    -0.255 NA
ATOM     27  C22 <0> d   1      16.998   4.896  12.457  0.00  0.00     0.135 A 
ATOM     28  C21 <0> d   1      18.092   4.112  12.395  0.00  0.00     0.111 A 
ENDBRANCH  23  24
ENDBRANCH   4  23
BRANCH   4  29
ATOM     29  C25 <0> d   1      18.598   1.076   8.886  0.00  0.00     0.027 A 
ATOM     30  C31 <0> d   1      17.988  -0.087   8.454  0.00  0.00     0.047 A 
ATOM     31  C30 <0> d   1      17.927  -0.376   7.103  0.00  0.00     0.048 A 
ATOM     32 Cl32 <0> d   1      17.285  -1.178   9.607  0.00  0.00    -0.084 Cl
ATOM     33  C28 <0> d   1      18.488   0.495   6.185  0.00  0.00     0.035 A 
ATOM     34  C27 <0> d   1      19.103   1.655   6.619  0.00  0.00     0.024 A 
ATOM     35 Cl29 <0> d   1      18.419   0.130   4.489  0.00  0.00    -0.084 Cl
ATOM     36  C26 <0> d   1      19.159   1.946   7.969  0.00  0.00     0.016 A 
ENDBRANCH   4  29
TORSDOF 7
ENDMDL
MODEL 5
REMARK VINA RESULT:      -8.6      3.394      5.318
REMARK  7 active torsions:
REMARK  status: ('A' for Active; 'I' for Inactive)
REMARK       I    between atoms: C2_2  and  N4_4 
REMARK    1  A    between atoms: N7_7  and  C8_8 
REMARK    2  A    between atoms: C11_11  and  O12_12 
REMARK    3  A    between atoms: O12_12  and  C13_13 
REMARK    4  A    between atoms: C13_13  and  C14_14 
REMARK    5  A    between atoms: C18_17  and  C19_18 
REMARK    6  A    between atoms: C18_17  and  C25_24 
REMARK    7  A    between atoms: C19_18  and  N20_19 
ROOT
ATOM      1  C14 <0> d   1      18.504   0.537   8.367  0.00  0.00     0.173 C 
ATOM      2  C16 <0> d   1      17.794   0.001   7.098  0.00  0.00     0.206 C 
ATOM      3  O17 <0> d   1      17.627  -1.400   7.425  0.00  0.00    -0.347 OA
ATOM      4  C18 <0> d   1      18.810  -1.751   8.161  0.00  0.00     0.212 C 
ATOM      5  O33 <0> d   1      19.352  -0.562   8.759  0.00  0.00    -0.340 OA
ENDROOT
BRANCH   1   6
ATOM      6  C13 <0> d   1      19.340   1.774   8.036  0.00  0.00     0.209 C 
BRANCH   6   7
ATOM      7  O12 <0> d   1      18.852   2.891   8.782  0.00  0.00    -0.349 OA
BRANCH   7   8
ATOM      8  C11 <0> d   1      18.732   2.731  10.127  0.00  0.00     0.069 A 
ATOM      9  C10 <0> d   1      17.494   2.876  10.735  0.00  0.00     0.039 A 
ATOM     10  C9  <0> d   1      17.371   2.713  12.101  0.00  0.00     0.032 A 
ATOM     11  C8  <0> d   1      18.488   2.405  12.866  0.00  0.00     0.030 A 
ATOM     12  C35 <0> d   1      19.728   2.266  12.258  0.00  0.00     0.032 A 
ATOM     13  C34 <0> d   1      19.849   2.424  10.891  0.00  0.00     0.039 A 
BRANCH  11  14
ATOM     14  N7  <0> d   1      18.365   2.240  14.250  0.00  0.00    -0.378 N 
ATOM     15  C6  <0> d   1      17.880   0.973  14.812  0.00  0.00     0.143 C 
ATOM     16  C5  <0> d   1      18.917   0.453  15.817  0.00  0.00     0.145 C 
ATOM     17  N4  <0> d   1      19.270   1.546  16.734  0.00  0.00    -0.349 N 
ATOM     18  C2  <0> d   1      19.150   1.388  18.068  0.00  0.00     0.215 C 
ATOM     19  C37 <0> d   1      19.749   2.817  16.171  0.00  0.00     0.145 C 
ATOM     20  C1  <0> d   1      18.657   0.079  18.630  0.00  0.00     0.117 C 
ATOM     21  O3  <0> d   1      19.440   2.299  18.814  0.00  0.00    -0.274 OA
ATOM     22  C36 <0> d   1      18.718   3.334  15.168  0.00  0.00     0.143 C 
ENDBRANCH  11  14
ENDBRANCH   7   8
ENDBRANCH   6   7
ENDBRANCH   1   6
BRANCH   4  23
ATOM     23  C19 <0> d   1      19.840  -2.370   7.215  0.00  0.00     0.203 C 
BRANCH  23  24
ATOM     24  N20 <0> d   1      19.156  -2.928   6.046  0.00  0.00    -0.345 N 
ATOM     25  C24 <0> d   1      18.989  -2.323   4.851  0.00  0.00     0.209 A 
ATOM     26  N23 <0> d   1      18.336  -3.131   4.061  0.00  0.00    -0.255 NA
ATOM     27  C22 <0> d   1      18.058  -4.265   4.720  0.00  0.00     0.135 A 
ATOM     28  C21 <0> d   1      18.563  -4.159   5.965  0.00  0.00     0.111 A 
ENDBRANCH  23  24
ENDBRANCH   4  23
BRANCH   4  29
ATOM     29  C25 <0> d   1      18.458  -2.738   9.245  0.00  0.00     0.027 A 
ATOM     30  C31 <0> d   1      19.089  -2.671  10.474  0.00  0.00     0.047 A 
ATOM     31  C30 <0> d   1      18.761  -3.573  11.470  0.00  0.00     0.048 A 
ATOM     32 Cl32 <0> d   1      20.282  -1.445  10.771  0.00  0.00    -0.084 Cl
ATOM     33  C28 <0> d   1      17.810  -4.550  11.231  0.00  0.00     0.035 A 
ATOM     34  C27 <0> d   1      17.185  -4.620  10.000  0.00  0.00     0.024 A 
ATOM     35 Cl29 <0> d   1      17.404  -5.688  12.477  0.00  0.00    -0.084 Cl
ATOM     36  C26 <0> d   1      17.509  -3.714   9.006  0.00  0.00     0.016 A 
ENDBRANCH   4  29
TORSDOF 7
ENDMDL
MODEL 6
REMARK VINA RESULT:      -8.4      4.761     11.315
REMARK  7 active torsions:
REMARK  status: ('A' for Active; 'I' for Inactive)
REMARK       I    between atoms: C2_2  and  N4_4 
REMARK    1  A    between atoms: N7_7  and  C8_8 
REMARK    2  A    between atoms: C11_11  and  O12_12 
REMARK    3  A    between atoms: O12_12  and  C13_13 
REMARK    4  A    between atoms: C13_13  and  C14_14 
REMARK    5  A    between atoms: C18_17  and  C19_18 
REMARK    6  A    between atoms: C18_17  and  C25_24 
REMARK    7  A    between atoms: C19_18  and  N20_19 
ROOT
ATOM      1  C14 <0> d   1      17.756   1.866  14.339  0.00  0.00     0.173 C 
ATOM      2  C16 <0> d   1      19.209   1.896  14.876  0.00  0.00     0.206 C 
ATOM      3  O17 <0> d   1      19.364   3.293  15.224  0.00  0.00    -0.347 OA
ATOM      4  C18 <0> d   1      18.629   4.008  14.217  0.00  0.00     0.212 C 
ATOM      5  O33 <0> d   1      17.623   3.138  13.673  0.00  0.00    -0.340 OA
ENDROOT
BRANCH   1   6
ATOM      6  C13 <0> d   1      17.569   0.715  13.349  0.00  0.00     0.209 C 
BRANCH   6   7
ATOM      7  O12 <0> d   1      18.668  -0.190  13.458  0.00  0.00    -0.349 OA
BRANCH   7   8
ATOM      8  C11 <0> d   1      18.609  -1.326  12.712  0.00  0.00     0.069 A 
ATOM      9  C10 <0> d   1      19.723  -2.144  12.605  0.00  0.00     0.039 A 
ATOM     10  C9  <0> d   1      19.664  -3.298  11.849  0.00  0.00     0.032 A 
ATOM     11  C8  <0> d   1      18.488  -3.638  11.194  0.00  0.00     0.030 A 
ATOM     12  C35 <0> d   1      17.374  -2.816  11.296  0.00  0.00     0.032 A 
ATOM     13  C34 <0> d   1      17.434  -1.665  12.058  0.00  0.00     0.039 A 
BRANCH  11  14
ATOM     14  N7  <0> d   1      18.427  -4.807  10.426  0.00  0.00    -0.378 N 
ATOM     15  C6  <0> d   1      17.392  -5.817  10.683  0.00  0.00     0.143 C 
ATOM     16  C5  <0> d   1      16.624  -6.075   9.380  0.00  0.00     0.145 C 
ATOM     17  N4  <0> d   1      17.594  -6.314   8.303  0.00  0.00    -0.349 N 
ATOM     18  C2  <0> d   1      17.536  -7.440   7.564  0.00  0.00     0.215 C 
ATOM     19  C37 <0> d   1      18.634  -5.306   8.050  0.00  0.00     0.145 C 
ATOM     20  C1  <0> d   1      16.465  -8.465   7.836  0.00  0.00     0.117 C 
ATOM     21  O3  <0> d   1      18.346  -7.628   6.681  0.00  0.00    -0.274 OA
ATOM     22  C36 <0> d   1      19.398  -5.046   9.349  0.00  0.00     0.143 C 
ENDBRANCH  11  14
ENDBRANCH   7   8
ENDBRANCH   6   7
ENDBRANCH   1   6
BRANCH   4  23
ATOM     23  C19 <0> d   1      19.581   4.455  13.106  0.00  0.00     0.203 C 
BRANCH  23  24
ATOM     24  N20 <0> d   1      19.053   4.025  11.809  0.00  0.00    -0.345 N 
ATOM     25  C24 <0> d   1      18.073   4.628  11.102  0.00  0.00     0.209 A 
ATOM     26  N23 <0> d   1      17.880   3.958   9.999  0.00  0.00    -0.255 NA
ATOM     27  C22 <0> d   1      18.716   2.910   9.966  0.00  0.00     0.135 A 
ATOM     28  C21 <0> d   1      19.459   2.934  11.089  0.00  0.00     0.111 A 
ENDBRANCH  23  24
ENDBRANCH   4  23
BRANCH   4  29
ATOM     29  C25 <0> d   1      17.967   5.213  14.833  0.00  0.00     0.027 A 
ATOM     30  C31 <0> d   1      18.704   6.086  15.613  0.00  0.00     0.047 A 
ATOM     31  C30 <0> d   1      18.097   7.195  16.174  0.00  0.00     0.048 A 
ATOM     32 Cl32 <0> d   1      20.395   5.796  15.877  0.00  0.00    -0.084 Cl
ATOM     33  C28 <0> d   1      16.749   7.425  15.963  0.00  0.00     0.035 A 
ATOM     34  C27 <0> d   1      16.011   6.549  15.188  0.00  0.00     0.024 A 
ATOM     35 Cl29 <0> d   1      15.984   8.813  16.672  0.00  0.00    -0.084 Cl
ATOM     36  C26 <0> d   1      16.620   5.443  14.623  0.00  0.00     0.016 A 
ENDBRANCH   4  29
TORSDOF 7
ENDMDL
MODEL 7
REMARK VINA RESULT:      -8.2      4.358     10.515
REMARK  7 active torsions:
REMARK  status: ('A' for Active; 'I' for Inactive)
REMARK       I    between atoms: C2_2  and  N4_4 
REMARK    1  A    between atoms: N7_7  and  C8_8 
REMARK    2  A    between atoms: C11_11  and  O12_12 
REMARK    3  A    between atoms: O12_12  and  C13_13 
REMARK    4  A    between atoms: C13_13  and  C14_14 
REMARK    5  A    between atoms: C18_17  and  C19_18 
REMARK    6  A    between atoms: C18_17  and  C25_24 
REMARK    7  A    between atoms: C19_18  and  N20_19 
ROOT
ATOM      1  C14 <0> d   1      19.242   3.357  12.009  0.00  0.00     0.173 C 
ATOM      2  C16 <0> d   1      19.742   4.696  12.606  0.00  0.00     0.206 C 
ATOM      3  O17 <0> d   1      19.567   4.469  14.026  0.00  0.00    -0.347 OA
ATOM      4  C18 <0> d   1      18.364   3.688  14.128  0.00  0.00     0.212 C 
ATOM      5  O33 <0> d   1      18.163   2.986  12.891  0.00  0.00    -0.340 OA
ENDROOT
BRANCH   1   6
ATOM      6  C13 <0> d   1      18.730   3.558  10.582  0.00  0.00     0.209 C 
BRANCH   6   7
ATOM      7  O12 <0> d   1      17.594   2.721  10.360  0.00  0.00    -0.349 OA
BRANCH   7   8
ATOM      8  C11 <0> d   1      17.838   1.432   9.997  0.00  0.00     0.069 A 
ATOM      9  C10 <0> d   1      18.564   1.162   8.847  0.00  0.00     0.039 A 
ATOM     10  C9  <0> d   1      18.813  -0.145   8.477  0.00  0.00     0.032 A 
ATOM     11  C8  <0> d   1      18.334  -1.189   9.257  0.00  0.00     0.030 A 
ATOM     12  C35 <0> d   1      17.602  -0.918  10.405  0.00  0.00     0.032 A 
ATOM     13  C34 <0> d   1      17.359   0.390  10.776  0.00  0.00     0.039 A 
BRANCH  11  14
ATOM     14  N7  <0> d   1      18.584  -2.514   8.884  0.00  0.00    -0.378 N 
ATOM     15  C6  <0> d   1      18.098  -3.629   9.708  0.00  0.00     0.143 C 
ATOM     16  C5  <0> d   1      17.252  -4.558   8.826  0.00  0.00     0.145 C 
ATOM     17  N4  <0> d   1      18.007  -4.859   7.603  0.00  0.00    -0.349 N 
ATOM     18  C2  <0> d   1      18.250  -6.136   7.243  0.00  0.00     0.215 C 
ATOM     19  C37 <0> d   1      18.500  -3.744   6.781  0.00  0.00     0.145 C 
ATOM     20  C1  <0> d   1      17.739  -7.268   8.096  0.00  0.00     0.117 C 
ATOM     21  O3  <0> d   1      18.879  -6.372   6.233  0.00  0.00    -0.274 OA
ATOM     22  C36 <0> d   1      19.340  -2.816   7.659  0.00  0.00     0.143 C 
ENDBRANCH  11  14
ENDBRANCH   7   8
ENDBRANCH   6   7
ENDBRANCH   1   6
BRANCH   4  23
ATOM     23  C19 <0> d   1      17.174   4.609  14.399  0.00  0.00     0.203 C 
BRANCH  23  24
ATOM     24  N20 <0> d   1      17.595   5.706  15.275  0.00  0.00    -0.345 N 
ATOM     25  C24 <0> d   1      18.287   6.805  14.906  0.00  0.00     0.209 A 
ATOM     26  N23 <0> d   1      18.473   7.554  15.958  0.00  0.00    -0.255 NA
ATOM     27  C22 <0> d   1      17.918   6.962  17.026  0.00  0.00     0.135 A 
ATOM     28  C21 <0> d   1      17.364   5.804  16.620  0.00  0.00     0.111 A 
ENDBRANCH  23  24
ENDBRANCH   4  23
BRANCH   4  29
ATOM     29  C25 <0> d   1      18.502   2.692  15.250  0.00  0.00     0.027 A 
ATOM     30  C31 <0> d   1      19.399   2.925  16.276  0.00  0.00     0.047 A 
ATOM     31  C30 <0> d   1      19.521   2.013  17.310  0.00  0.00     0.048 A 
ATOM     32 Cl32 <0> d   1      20.364   4.368  16.275  0.00  0.00    -0.084 Cl
ATOM     33  C28 <0> d   1      18.751   0.863  17.310  0.00  0.00     0.035 A 
ATOM     34  C27 <0> d   1      17.859   0.628  16.280  0.00  0.00     0.024 A 
ATOM     35 Cl29 <0> d   1      18.908  -0.286  18.602  0.00  0.00    -0.084 Cl
ATOM     36  C26 <0> d   1      17.734   1.542  15.250  0.00  0.00     0.016 A 
ENDBRANCH   4  29
TORSDOF 7
ENDMDL
MODEL 8
REMARK VINA RESULT:      -8.1      4.958     11.108
REMARK  7 active torsions:
REMARK  status: ('A' for Active; 'I' for Inactive)
REMARK       I    between atoms: C2_2  and  N4_4 
REMARK    1  A    between atoms: N7_7  and  C8_8 
REMARK    2  A    between atoms: C11_11  and  O12_12 
REMARK    3  A    between atoms: O12_12  and  C13_13 
REMARK    4  A    between atoms: C13_13  and  C14_14 
REMARK    5  A    between atoms: C18_17  and  C19_18 
REMARK    6  A    between atoms: C18_17  and  C25_24 
REMARK    7  A    between atoms: C19_18  and  N20_19 
ROOT
ATOM      1  C14 <0> d   1      18.605   2.923  15.762  0.00  0.00     0.173 C 
ATOM      2  C16 <0> d   1      19.667   4.024  16.005  0.00  0.00     0.206 C 
ATOM      3  O17 <0> d   1      18.854   5.223  16.002  0.00  0.00    -0.347 OA
ATOM      4  C18 <0> d   1      17.841   4.978  15.012  0.00  0.00     0.212 C 
ATOM      5  O33 <0> d   1      17.670   3.559  14.867  0.00  0.00    -0.340 OA
ENDROOT
BRANCH   1   6
ATOM      6  C13 <0> d   1      19.238   1.697  15.102  0.00  0.00     0.209 C 
BRANCH   6   7
ATOM      7  O12 <0> d   1      18.333   0.594  15.179  0.00  0.00    -0.349 OA
BRANCH   7   8
ATOM      8  C11 <0> d   1      18.297  -0.251  14.113  0.00  0.00     0.069 A 
ATOM      9  C10 <0> d   1      17.406  -0.020  13.075  0.00  0.00     0.039 A 
ATOM     10  C9  <0> d   1      17.369  -0.876  11.992  0.00  0.00     0.032 A 
ATOM     11  C8  <0> d   1      18.223  -1.969  11.944  0.00  0.00     0.030 A 
ATOM     12  C35 <0> d   1      19.111  -2.203  12.985  0.00  0.00     0.032 A 
ATOM     13  C34 <0> d   1      19.151  -1.343  14.065  0.00  0.00     0.039 A 
BRANCH  11  14
ATOM     14  N7  <0> d   1      18.186  -2.838  10.847  0.00  0.00    -0.378 N 
ATOM     15  C6  <0> d   1      17.889  -2.332   9.501  0.00  0.00     0.143 C 
ATOM     16  C5  <0> d   1      19.028  -2.744   8.559  0.00  0.00     0.145 C 
ATOM     17  N4  <0> d   1      19.285  -4.180   8.734  0.00  0.00    -0.349 N 
ATOM     18  C2  <0> d   1      19.248  -5.017   7.678  0.00  0.00     0.215 C 
ATOM     19  C37 <0> d   1      19.577  -4.688  10.083  0.00  0.00     0.145 C 
ATOM     20  C1  <0> d   1      18.948  -4.482   6.302  0.00  0.00     0.117 C 
ATOM     21  O3  <0> d   1      19.458  -6.202   7.837  0.00  0.00    -0.274 OA
ATOM     22  C36 <0> d   1      18.443  -4.275  11.023  0.00  0.00     0.143 C 
ENDBRANCH  11  14
ENDBRANCH   7   8
ENDBRANCH   6   7
ENDBRANCH   1   6
BRANCH   4  23
ATOM     23  C19 <0> d   1      18.270   5.586  13.676  0.00  0.00     0.203 C 
BRANCH  23  24
ATOM     24  N20 <0> d   1      18.376   4.528  12.669  0.00  0.00    -0.345 N 
ATOM     25  C24 <0> d   1      17.354   3.955  11.998  0.00  0.00     0.209 A 
ATOM     26  N23 <0> d   1      17.839   3.056  11.185  0.00  0.00    -0.255 NA
ATOM     27  C22 <0> d   1      19.173   3.018  11.313  0.00  0.00     0.135 A 
ATOM     28  C21 <0> d   1      19.530   3.932  12.237  0.00  0.00     0.111 A 
ENDBRANCH  23  24
ENDBRANCH   4  23
BRANCH   4  29
ATOM     29  C25 <0> d   1      16.540   5.595  15.457  0.00  0.00     0.027 A 
ATOM     30  C31 <0> d   1      16.319   5.855  16.797  0.00  0.00     0.047 A 
ATOM     31  C30 <0> d   1      15.127   6.427  17.203  0.00  0.00     0.048 A 
ATOM     32 Cl32 <0> d   1      17.544   5.478  17.967  0.00  0.00    -0.084 Cl
ATOM     33  C28 <0> d   1      14.151   6.727  16.270  0.00  0.00     0.035 A 
ATOM     34  C27 <0> d   1      14.370   6.460  14.931  0.00  0.00     0.024 A 
ATOM     35 Cl29 <0> d   1      12.651   7.438  16.780  0.00  0.00    -0.084 Cl
ATOM     36  C26 <0> d   1      15.565   5.894  14.524  0.00  0.00     0.016 A 
ENDBRANCH   4  29
TORSDOF 7
ENDMDL
MODEL 9
REMARK VINA RESULT:      -8.1      4.173     10.427
REMARK  7 active torsions:
REMARK  status: ('A' for Active; 'I' for Inactive)
REMARK       I    between atoms: C2_2  and  N4_4 
REMARK    1  A    between atoms: N7_7  and  C8_8 
REMARK    2  A    between atoms: C11_11  and  O12_12 
REMARK    3  A    between atoms: O12_12  and  C13_13 
REMARK    4  A    between atoms: C13_13  and  C14_14 
REMARK    5  A    between atoms: C18_17  and  C19_18 
REMARK    6  A    between atoms: C18_17  and  C25_24 
REMARK    7  A    between atoms: C19_18  and  N20_19 
ROOT
ATOM      1  C14 <0> d   1      19.544   3.841  12.516  0.00  0.00     0.173 C 
ATOM      2  C16 <0> d   1      19.879   5.144  13.286  0.00  0.00     0.206 C 
ATOM      3  O17 <0> d   1      19.625   4.747  14.656  0.00  0.00    -0.347 OA
ATOM      4  C18 <0> d   1      18.493   3.864  14.580  0.00  0.00     0.212 C 
ATOM      5  O33 <0> d   1      18.443   3.288  13.265  0.00  0.00    -0.340 OA
ENDROOT
BRANCH   1   6
ATOM      6  C13 <0> d   1      19.118   4.156  11.081  0.00  0.00     0.209 C 
BRANCH   6   7
ATOM      7  O12 <0> d   1      17.995   3.347  10.729  0.00  0.00    -0.349 OA
BRANCH   7   8
ATOM      8  C11 <0> d   1      18.233   2.276   9.925  0.00  0.00     0.069 A 
ATOM      9  C10 <0> d   1      17.811   1.012  10.311  0.00  0.00     0.039 A 
ATOM     10  C9  <0> d   1      18.051  -0.076   9.496  0.00  0.00     0.032 A 
ATOM     11  C8  <0> d   1      18.718   0.095   8.290  0.00  0.00     0.030 A 
ATOM     12  C35 <0> d   1      19.145   1.359   7.907  0.00  0.00     0.032 A 
ATOM     13  C34 <0> d   1      18.899   2.447   8.721  0.00  0.00     0.039 A 
BRANCH  11  14
ATOM     14  N7  <0> d   1      18.963  -1.007   7.463  0.00  0.00    -0.378 N 
ATOM     15  C6  <0> d   1      19.152  -2.346   8.037  0.00  0.00     0.143 C 
ATOM     16  C5  <0> d   1      18.146  -3.305   7.387  0.00  0.00     0.145 C 
ATOM     17  N4  <0> d   1      18.220  -3.144   5.929  0.00  0.00    -0.349 N 
ATOM     18  C2  <0> d   1      18.457  -4.205   5.132  0.00  0.00     0.215 C 
ATOM     19  C37 <0> d   1      18.036  -1.803   5.354  0.00  0.00     0.145 C 
ATOM     20  C1  <0> d   1      18.643  -5.573   5.736  0.00  0.00     0.117 C 
ATOM     21  O3  <0> d   1      18.519  -4.058   3.929  0.00  0.00    -0.274 OA
ATOM     22  C36 <0> d   1      19.036  -0.845   6.003  0.00  0.00     0.143 C 
ENDBRANCH  11  14
ENDBRANCH   7   8
ENDBRANCH   6   7
ENDBRANCH   1   6
BRANCH   4  23
ATOM     23  C19 <0> d   1      17.209   4.649  14.850  0.00  0.00     0.203 C 
BRANCH  23  24
ATOM     24  N20 <0> d   1      17.548   6.001  15.300  0.00  0.00    -0.345 N 
ATOM     25  C24 <0> d   1      18.150   6.331  16.463  0.00  0.00     0.209 A 
ATOM     26  N23 <0> d   1      18.288   7.628  16.509  0.00  0.00    -0.255 NA
ATOM     27  C22 <0> d   1      17.778   8.167  15.392  0.00  0.00     0.135 A 
ATOM     28  C21 <0> d   1      17.309   7.165  14.622  0.00  0.00     0.111 A 
ENDBRANCH  23  24
ENDBRANCH   4  23
BRANCH   4  29
ATOM     29  C25 <0> d   1      18.641   2.765  15.601  0.00  0.00     0.027 A 
ATOM     30  C31 <0> d   1      18.178   1.492  15.320  0.00  0.00     0.047 A 
ATOM     31  C30 <0> d   1      18.319   0.482  16.254  0.00  0.00     0.048 A 
ATOM     32 Cl32 <0> d   1      17.432   1.159  13.788  0.00  0.00    -0.084 Cl
ATOM     33  C28 <0> d   1      18.913   0.749  17.475  0.00  0.00     0.035 A 
ATOM     34  C27 <0> d   1      19.370   2.023  17.758  0.00  0.00     0.024 A 
ATOM     35 Cl29 <0> d   1      19.084  -0.515  18.652  0.00  0.00    -0.084 Cl
ATOM     36  C26 <0> d   1      19.234   3.031  16.821  0.00  0.00     0.016 A 
ENDBRANCH   4  29
TORSDOF 7
ENDMDL
