MODEL 1
REMARK VINA RESULT:      -8.7      0.000      0.000
REMARK  6 active torsions:
REMARK  status: ('A' for Active; 'I' for Inactive)
REMARK    1  A    between atoms: C5_5  and  C6_6 
REMARK    2  A    between atoms: C6_6  and  C14_14 
REMARK    3  A    between atoms: C7_7  and  C8_8 
REMARK    4  A    between atoms: C8_8  and  N9_9 
REMARK    5  A    between atoms: C18_18  and  C19_19 
REMARK    6  A    between atoms: C20_20  and  C21_21 
ROOT
ATOM      1  C6  <0> d   1      17.977  -1.078  12.880  0.00  0.00     0.001 C 
ATOM      2  C7  <0> d   1      17.309  -0.238  12.080  0.00  0.00     0.018 C 
ENDROOT
BRANCH   1   3
ATOM      3  C5  <0> d   1      18.134  -0.762  14.321  0.00  0.00    -0.024 A 
ATOM      4  C4  <0> d   1      17.649   0.441  14.831  0.00  0.00     0.013 A 
ATOM      5  C3  <0> d   1      17.797   0.729  16.172  0.00  0.00     0.007 A 
ATOM      6  C2  <0> d   1      18.425  -0.175  17.011  0.00  0.00    -0.062 A 
ATOM      7  C1  <0> d   1      18.585   0.147  18.475  0.00  0.00     0.048 C 
ATOM      8  C26 <0> d   1      18.914  -1.367  16.510  0.00  0.00     0.007 A 
ATOM      9  C25 <0> d   1      18.766  -1.668  15.171  0.00  0.00     0.013 A 
ENDBRANCH   1   3
BRANCH   1  10
ATOM     10  C14 <0> d   1      18.560  -2.323  12.327  0.00  0.00     0.068 A 
ATOM     11  N24 <0> d   1      17.782  -3.374  12.117  0.00  0.00    -0.248 NA
ATOM     12  C18 <0> d   1      18.265  -4.506  11.617  0.00  0.00     0.057 A 
ATOM     13  C17 <0> d   1      19.623  -4.626  11.308  0.00  0.00     0.031 A 
ATOM     14  C16 <0> d   1      20.464  -3.545  11.523  0.00  0.00     0.005 A 
ATOM     15  C15 <0> d   1      19.927  -2.379  12.040  0.00  0.00     0.032 A 
BRANCH  12  16
ATOM     16  C19 <0> d   1      17.361  -5.648  11.393  0.00  0.00     0.038 C 
ATOM     17  C20 <0> d   1      16.807  -5.842  10.178  0.00  0.00     0.086 C 
BRANCH  17  18
ATOM     18  C21 <0> d   1      17.434  -5.268   8.989  0.00  0.00     0.198 C 
ATOM     19  O22 <0> d   1      17.164  -4.124   8.646  0.00  0.00    -0.645 OA
ATOM     20  O23 <0> d   1      18.231  -5.932   8.337  0.00  0.00    -0.645 OA
ENDBRANCH  17  18
ENDBRANCH  12  16
ENDBRANCH   1  10
BRANCH   2  21
ATOM     21  C8  <0> d   1      17.255  -0.494  10.596  0.00  0.00     0.300 C 
BRANCH  21  22
ATOM     22  N9  <0> d   1      17.422   0.773   9.873  0.00  0.00     0.091 N 
ATOM     23  C13 <0> d   1      18.488   0.667   8.854  0.00  0.00     0.273 C 
ATOM     24  C12 <0> d   1      19.182   2.040   8.781  0.00  0.00     0.032 C 
ATOM     25  C11 <0> d   1      18.465   2.911   9.838  0.00  0.00     0.032 C 
ATOM     26  C10 <0> d   1      17.848   1.859  10.794  0.00  0.00     0.273 C 
ENDBRANCH  21  22
ENDBRANCH   2  21
TORSDOF 6
ENDMDL
MODEL 2
REMARK VINA RESULT:      -8.5      2.506      6.127
REMARK  6 active torsions:
REMARK  status: ('A' for Active; 'I' for Inactive)
REMARK    1  A    between atoms: C5_5  and  C6_6 
REMARK    2  A    between atoms: C6_6  and  C14_14 
REMARK    3  A    between atoms: C7_7  and  C8_8 
REMARK    4  A    between atoms: C8_8  and  N9_9 
REMARK    5  A    between atoms: C18_18  and  C19_19 
REMARK    6  A    between atoms: C20_20  and  C21_21 
ROOT
ATOM      1  C6  <0> d   1      18.742   1.168   9.526  0.00  0.00     0.001 C 
ATOM      2  C7  <0> d   1      19.242   2.375   9.818  0.00  0.00     0.018 C 
ENDROOT
BRANCH   1   3
ATOM      3  C5  <0> d   1      18.535   0.774   8.112  0.00  0.00    -0.024 A 
ATOM      4  C4  <0> d   1      19.352   1.298   7.112  0.00  0.00     0.013 A 
ATOM      5  C3  <0> d   1      19.154   0.927   5.798  0.00  0.00     0.007 A 
ATOM      6  C2  <0> d   1      18.146   0.036   5.472  0.00  0.00    -0.062 A 
ATOM      7  C1  <0> d   1      17.935  -0.364   4.034  0.00  0.00     0.048 C 
ATOM      8  C26 <0> d   1      17.329  -0.482   6.459  0.00  0.00     0.007 A 
ATOM      9  C25 <0> d   1      17.521  -0.123   7.777  0.00  0.00     0.013 A 
ENDBRANCH   1   3
BRANCH   1  10
ATOM     10  C14 <0> d   1      18.398   0.224  10.617  0.00  0.00     0.068 A 
ATOM     11  N24 <0> d   1      19.171  -0.827  10.842  0.00  0.00    -0.248 NA
ATOM     12  C18 <0> d   1      18.899  -1.691  11.813  0.00  0.00     0.057 A 
ATOM     13  C17 <0> d   1      17.773  -1.523  12.623  0.00  0.00     0.031 A 
ATOM     14  C16 <0> d   1      16.942  -0.435  12.408  0.00  0.00     0.005 A 
ATOM     15  C15 <0> d   1      17.257   0.450  11.391  0.00  0.00     0.032 A 
BRANCH  12  16
ATOM     16  C19 <0> d   1      19.791  -2.845  12.033  0.00  0.00     0.038 C 
ATOM     17  C20 <0> d   1      19.485  -4.045  11.498  0.00  0.00     0.086 C 
BRANCH  17  18
ATOM     18  C21 <0> d   1      18.594  -4.125  10.342  0.00  0.00     0.198 C 
ATOM     19  O22 <0> d   1      17.418  -4.426  10.495  0.00  0.00    -0.645 OA
ATOM     20  O23 <0> d   1      19.026  -3.889   9.220  0.00  0.00    -0.645 OA
ENDBRANCH  17  18
ENDBRANCH  12  16
ENDBRANCH   1  10
BRANCH   2  21
ATOM     21  C8  <0> d   1      19.337   2.824  11.254  0.00  0.00     0.300 C 
BRANCH  21  22
ATOM     22  N9  <0> d   1      18.684   4.131  11.403  0.00  0.00     0.091 N 
ATOM     23  C13 <0> d   1      17.873   4.181  12.639  0.00  0.00     0.273 C 
ATOM     24  C12 <0> d   1      16.646   5.062  12.339  0.00  0.00     0.032 C 
ATOM     25  C11 <0> d   1      16.800   5.478  10.858  0.00  0.00     0.032 C 
ATOM     26  C10 <0> d   1      17.738   4.383  10.286  0.00  0.00     0.273 C 
ENDBRANCH  21  22
ENDBRANCH   2  21
TORSDOF 6
ENDMDL
MODEL 3
REMARK VINA RESULT:      -8.3      1.974      2.853
REMARK  6 active torsions:
REMARK  status: ('A' for Active; 'I' for Inactive)
REMARK    1  A    between atoms: C5_5  and  C6_6 
REMARK    2  A    between atoms: C6_6  and  C14_14 
REMARK    3  A    between atoms: C7_7  and  C8_8 
REMARK    4  A    between atoms: C8_8  and  N9_9 
REMARK    5  A    between atoms: C18_18  and  C19_19 
REMARK    6  A    between atoms: C20_20  and  C21_21 
ROOT
ATOM      1  C6  <0> d   1      18.043  -1.868  10.948  0.00  0.00     0.001 C 
ATOM      2  C7  <0> d   1      17.821  -0.943  10.005  0.00  0.00     0.018 C 
ENDROOT
BRANCH   1   3
ATOM      3  C5  <0> d   1      18.252  -1.454  12.356  0.00  0.00    -0.024 A 
ATOM      4  C4  <0> d   1      17.434  -0.482  12.930  0.00  0.00     0.013 A 
ATOM      5  C3  <0> d   1      17.634  -0.101  14.241  0.00  0.00     0.007 A 
ATOM      6  C2  <0> d   1      18.643  -0.684  14.987  0.00  0.00    -0.062 A 
ATOM      7  C1  <0> d   1      18.856  -0.263  16.419  0.00  0.00     0.048 C 
ATOM      8  C26 <0> d   1      19.461  -1.645  14.422  0.00  0.00     0.007 A 
ATOM      9  C25 <0> d   1      19.267  -2.037  13.113  0.00  0.00     0.013 A 
ENDBRANCH   1   3
BRANCH   1  10
ATOM     10  C14 <0> d   1      18.078  -3.304  10.584  0.00  0.00     0.068 A 
ATOM     11  N24 <0> d   1      19.115  -3.786   9.916  0.00  0.00    -0.248 NA
ATOM     12  C18 <0> d   1      19.186  -5.068   9.577  0.00  0.00     0.057 A 
ATOM     13  C17 <0> d   1      18.154  -5.951   9.908  0.00  0.00     0.031 A 
ATOM     14  C16 <0> d   1      17.053  -5.475  10.602  0.00  0.00     0.005 A 
ATOM     15  C15 <0> d   1      17.013  -4.135  10.945  0.00  0.00     0.032 A 
BRANCH  12  16
ATOM     16  C19 <0> d   1      20.362  -5.563   8.839  0.00  0.00     0.038 C 
ATOM     17  C20 <0> d   1      20.415  -5.443   7.496  0.00  0.00     0.086 C 
BRANCH  17  18
ATOM     18  C21 <0> d   1      19.601  -4.434   6.820  0.00  0.00     0.198 C 
ATOM     19  O22 <0> d   1      18.425  -4.665   6.567  0.00  0.00    -0.645 OA
ATOM     20  O23 <0> d   1      20.096  -3.358   6.507  0.00  0.00    -0.645 OA
ENDBRANCH  17  18
ENDBRANCH  12  16
ENDBRANCH   1  10
BRANCH   2  21
ATOM     21  C8  <0> d   1      17.733  -1.351   8.557  0.00  0.00     0.300 C 
BRANCH  21  22
ATOM     22  N9  <0> d   1      18.655  -0.532   7.760  0.00  0.00     0.091 N 
ATOM     23  C13 <0> d   1      19.078   0.672   8.507  0.00  0.00     0.273 C 
ATOM     24  C12 <0> d   1      19.252   1.805   7.479  0.00  0.00     0.032 C 
ATOM     25  C11 <0> d   1      18.874   1.176   6.118  0.00  0.00     0.032 C 
ATOM     26  C10 <0> d   1      17.993  -0.032   6.527  0.00  0.00     0.273 C 
ENDBRANCH  21  22
ENDBRANCH   2  21
TORSDOF 6
ENDMDL
MODEL 4
REMARK VINA RESULT:      -8.3      4.394      7.180
REMARK  6 active torsions:
REMARK  status: ('A' for Active; 'I' for Inactive)
REMARK    1  A    between atoms: C5_5  and  C6_6 
REMARK    2  A    between atoms: C6_6  and  C14_14 
REMARK    3  A    between atoms: C7_7  and  C8_8 
REMARK    4  A    between atoms: C8_8  and  N9_9 
REMARK    5  A    between atoms: C18_18  and  C19_19 
REMARK    6  A    between atoms: C20_20  and  C21_21 
ROOT
ATOM      1  C6  <0> d   1      18.250   1.801  12.547  0.00  0.00     0.001 C 
ATOM      2  C7  <0> d   1      18.015   3.061  12.937  0.00  0.00     0.018 C 
ENDROOT
BRANCH   1   3
ATOM      3  C5  <0> d   1      18.283   1.468  11.103  0.00  0.00    -0.024 A 
ATOM      4  C4  <0> d   1      19.185   2.109  10.256  0.00  0.00     0.013 A 
ATOM      5  C3  <0> d   1      19.211   1.793   8.913  0.00  0.00     0.007 A 
ATOM      6  C2  <0> d   1      18.344   0.841   8.406  0.00  0.00    -0.062 A 
ATOM      7  C1  <0> d   1      18.377   0.502   6.938  0.00  0.00     0.048 C 
ATOM      8  C26 <0> d   1      17.442   0.206   9.240  0.00  0.00     0.007 A 
ATOM      9  C25 <0> d   1      17.411   0.510  10.587  0.00  0.00     0.013 A 
ENDBRANCH   1   3
BRANCH   1  10
ATOM     10  C14 <0> d   1      18.478   0.742  13.558  0.00  0.00     0.068 A 
ATOM     11  N24 <0> d   1      17.761   0.733  14.671  0.00  0.00    -0.248 NA
ATOM     12  C18 <0> d   1      17.931  -0.203  15.598  0.00  0.00     0.057 A 
ATOM     13  C17 <0> d   1      18.889  -1.206  15.430  0.00  0.00     0.031 A 
ATOM     14  C16 <0> d   1      19.659  -1.220  14.278  0.00  0.00     0.005 A 
ATOM     15  C15 <0> d   1      19.453  -0.234  13.330  0.00  0.00     0.032 A 
BRANCH  12  16
ATOM     16  C19 <0> d   1      17.106  -0.178  16.819  0.00  0.00     0.038 C 
ATOM     17  C20 <0> d   1      17.639   0.242  17.985  0.00  0.00     0.086 C 
BRANCH  17  18
ATOM     18  C21 <0> d   1      18.817   1.109  17.980  0.00  0.00     0.198 C 
ATOM     19  O22 <0> d   1      18.718   2.274  17.617  0.00  0.00    -0.645 OA
ATOM     20  O23 <0> d   1      19.901   0.669  18.340  0.00  0.00    -0.645 OA
ENDBRANCH  17  18
ENDBRANCH  12  16
ENDBRANCH   1  10
BRANCH   2  21
ATOM     21  C8  <0> d   1      17.858   3.378  14.402  0.00  0.00     0.300 C 
BRANCH  21  22
ATOM     22  N9  <0> d   1      18.942   4.273  14.828  0.00  0.00     0.091 N 
ATOM     23  C13 <0> d   1      18.442   5.303  15.765  0.00  0.00     0.273 C 
ATOM     24  C12 <0> d   1      19.247   6.588  15.496  0.00  0.00     0.032 C 
ATOM     25  C11 <0> d   1      20.205   6.228  14.336  0.00  0.00     0.032 C 
ATOM     26  C10 <0> d   1      19.504   5.016  13.671  0.00  0.00     0.273 C 
ENDBRANCH  21  22
ENDBRANCH   2  21
TORSDOF 6
ENDMDL
MODEL 5
REMARK VINA RESULT:      -8.3      4.755      8.791
REMARK  6 active torsions:
REMARK  status: ('A' for Active; 'I' for Inactive)
REMARK    1  A    between atoms: C5_5  and  C6_6 
REMARK    2  A    between atoms: C6_6  and  C14_14 
REMARK    3  A    between atoms: C7_7  and  C8_8 
REMARK    4  A    between atoms: C8_8  and  N9_9 
REMARK    5  A    between atoms: C18_18  and  C19_19 
REMARK    6  A    between atoms: C20_20  and  C21_21 
ROOT
ATOM      1  C6  <0> d   1      18.030   2.132  12.284  0.00  0.00     0.001 C 
ATOM      2  C7  <0> d   1      17.856   1.145  13.172  0.00  0.00     0.018 C 
ENDROOT
BRANCH   1   3
ATOM      3  C5  <0> d   1      18.211   1.813  10.847  0.00  0.00    -0.024 A 
ATOM      4  C4  <0> d   1      19.039   2.604  10.053  0.00  0.00     0.013 A 
ATOM      5  C3  <0> d   1      19.202   2.302   8.716  0.00  0.00     0.007 A 
ATOM      6  C2  <0> d   1      18.547   1.214   8.165  0.00  0.00    -0.062 A 
ATOM      7  C1  <0> d   1      18.730   0.890   6.704  0.00  0.00     0.048 C 
ATOM      8  C26 <0> d   1      17.720   0.429   8.947  0.00  0.00     0.007 A 
ATOM      9  C25 <0> d   1      17.553   0.719  10.286  0.00  0.00     0.013 A 
ENDBRANCH   1   3
BRANCH   1  10
ATOM     10  C14 <0> d   1      18.042   3.543  12.737  0.00  0.00     0.068 A 
ATOM     11  N24 <0> d   1      19.110   4.024  13.355  0.00  0.00    -0.248 NA
ATOM     12  C18 <0> d   1      19.161   5.284  13.771  0.00  0.00     0.057 A 
ATOM     13  C17 <0> d   1      18.076   6.143  13.578  0.00  0.00     0.031 A 
ATOM     14  C16 <0> d   1      16.942   5.667  12.939  0.00  0.00     0.005 A 
ATOM     15  C15 <0> d   1      16.923   4.351  12.513  0.00  0.00     0.032 A 
BRANCH  12  16
ATOM     16  C19 <0> d   1      20.373   5.779  14.450  0.00  0.00     0.038 C 
ATOM     17  C20 <0> d   1      20.483   5.679  15.791  0.00  0.00     0.086 C 
BRANCH  17  18
ATOM     18  C21 <0> d   1      19.691   4.689  16.518  0.00  0.00     0.198 C 
ATOM     19  O22 <0> d   1      20.129   3.558  16.685  0.00  0.00    -0.645 OA
ATOM     20  O23 <0> d   1      18.590   4.991  16.960  0.00  0.00    -0.645 OA
ENDBRANCH  17  18
ENDBRANCH  12  16
ENDBRANCH   1  10
BRANCH   2  21
ATOM     21  C8  <0> d   1      17.797   1.458  14.644  0.00  0.00     0.300 C 
BRANCH  21  22
ATOM     22  N9  <0> d   1      17.790   0.206  15.412  0.00  0.00     0.091 N 
ATOM     23  C13 <0> d   1      17.785   0.475  16.866  0.00  0.00     0.273 C 
ATOM     24  C12 <0> d   1      18.605  -0.643  17.536  0.00  0.00     0.032 C 
ATOM     25  C11 <0> d   1      19.095  -1.536  16.372  0.00  0.00     0.032 C 
ATOM     26  C10 <0> d   1      19.020  -0.585  15.151  0.00  0.00     0.273 C 
ENDBRANCH  21  22
ENDBRANCH   2  21
TORSDOF 6
ENDMDL
MODEL 6
REMARK VINA RESULT:      -8.1      1.811      5.672
REMARK  6 active torsions:
REMARK  status: ('A' for Active; 'I' for Inactive)
REMARK    1  A    between atoms: C5_5  and  C6_6 
REMARK    2  A    between atoms: C6_6  and  C14_14 
REMARK    3  A    between atoms: C7_7  and  C8_8 
REMARK    4  A    between atoms: C8_8  and  N9_9 
REMARK    5  A    between atoms: C18_18  and  C19_19 
REMARK    6  A    between atoms: C20_20  and  C21_21 
ROOT
ATOM      1  C6  <0> d   1      18.144  -1.122   9.995  0.00  0.00     0.001 C 
ATOM      2  C7  <0> d   1      17.522  -0.253  10.801  0.00  0.00     0.018 C 
ENDROOT
BRANCH   1   3
ATOM      3  C5  <0> d   1      18.395  -0.769   8.577  0.00  0.00    -0.024 A 
ATOM      4  C4  <0> d   1      18.784  -1.752   7.669  0.00  0.00     0.013 A 
ATOM      5  C3  <0> d   1      19.016  -1.417   6.351  0.00  0.00     0.007 A 
ATOM      6  C2  <0> d   1      18.861  -0.108   5.929  0.00  0.00    -0.062 A 
ATOM      7  C1  <0> d   1      19.117   0.252   4.488  0.00  0.00     0.048 C 
ATOM      8  C26 <0> d   1      18.481   0.873   6.827  0.00  0.00     0.007 A 
ATOM      9  C25 <0> d   1      18.242   0.548   8.147  0.00  0.00     0.013 A 
ENDBRANCH   1   3
BRANCH   1  10
ATOM     10  C14 <0> d   1      18.583  -2.437  10.521  0.00  0.00     0.068 A 
ATOM     11  N24 <0> d   1      17.777  -3.483  10.426  0.00  0.00    -0.248 NA
ATOM     12  C18 <0> d   1      18.137  -4.679  10.879  0.00  0.00     0.057 A 
ATOM     13  C17 <0> d   1      19.381  -4.866  11.486  0.00  0.00     0.031 A 
ATOM     14  C16 <0> d   1      20.245  -3.789  11.605  0.00  0.00     0.005 A 
ATOM     15  C15 <0> d   1      19.842  -2.558  11.117  0.00  0.00     0.032 A 
BRANCH  12  16
ATOM     16  C19 <0> d   1      17.210  -5.817  10.747  0.00  0.00     0.038 C 
ATOM     17  C20 <0> d   1      16.979  -6.362   9.534  0.00  0.00     0.086 C 
BRANCH  17  18
ATOM     18  C21 <0> d   1      17.954  -6.192   8.459  0.00  0.00     0.198 C 
ATOM     19  O22 <0> d   1      18.980  -6.861   8.451  0.00  0.00    -0.645 OA
ATOM     20  O23 <0> d   1      17.744  -5.381   7.566  0.00  0.00    -0.645 OA
ENDBRANCH  17  18
ENDBRANCH  12  16
ENDBRANCH   1  10
BRANCH   2  21
ATOM     21  C8  <0> d   1      17.156  -0.657  12.206  0.00  0.00     0.300 C 
BRANCH  21  22
ATOM     22  N9  <0> d   1      18.180  -0.169  13.139  0.00  0.00     0.091 N 
ATOM     23  C13 <0> d   1      18.459  -1.169  14.193  0.00  0.00     0.273 C 
ATOM     24  C12 <0> d   1      18.775  -0.390  15.483  0.00  0.00     0.032 C 
ATOM     25  C11 <0> d   1      18.628   1.101  15.100  0.00  0.00     0.032 C 
ATOM     26  C10 <0> d   1      17.714   1.049  13.850  0.00  0.00     0.273 C 
ENDBRANCH  21  22
ENDBRANCH   2  21
TORSDOF 6
ENDMDL
MODEL 7
REMARK VINA RESULT:      -8.1      2.438      5.724
REMARK  6 active torsions:
REMARK  status: ('A' for Active; 'I' for Inactive)
REMARK    1  A    between atoms: C5_5  and  C6_6 
REMARK    2  A    between atoms: C6_6  and  C14_14 
REMARK    3  A    between atoms: C7_7  and  C8_8 
REMARK    4  A    between atoms: C8_8  and  N9_9 
REMARK    5  A    between atoms: C18_18  and  C19_19 
REMARK    6  A    between atoms: C20_20  and  C21_21 
ROOT
ATOM      1  C6  <0> d   1      18.049   0.851   9.961  0.00  0.00     0.001 C 
ATOM      2  C7  <0> d   1      17.646   2.035  10.441  0.00  0.00     0.018 C 
ENDROOT
BRANCH   1   3
ATOM      3  C5  <0> d   1      18.173   0.648   8.498  0.00  0.00    -0.024 A 
ATOM      4  C4  <0> d   1      19.164   1.315   7.780  0.00  0.00     0.013 A 
ATOM      5  C3  <0> d   1      19.274   1.122   6.418  0.00  0.00     0.007 A 
ATOM      6  C2  <0> d   1      18.404   0.266   5.765  0.00  0.00    -0.062 A 
ATOM      7  C1  <0> d   1      18.530   0.060   4.277  0.00  0.00     0.048 C 
ATOM      8  C26 <0> d   1      17.415  -0.394   6.471  0.00  0.00     0.007 A 
ATOM      9  C25 <0> d   1      17.299  -0.212   7.835  0.00  0.00     0.013 A 
ENDBRANCH   1   3
BRANCH   1  10
ATOM     10  C14 <0> d   1      18.371  -0.256  10.893  0.00  0.00     0.068 A 
ATOM     11  N24 <0> d   1      17.704  -1.397  10.811  0.00  0.00    -0.248 NA
ATOM     12  C18 <0> d   1      17.967  -2.414  11.623  0.00  0.00     0.057 A 
ATOM     13  C17 <0> d   1      18.955  -2.304  12.606  0.00  0.00     0.031 A 
ATOM     14  C16 <0> d   1      19.666  -1.119  12.721  0.00  0.00     0.005 A 
ATOM     15  C15 <0> d   1      19.371  -0.081  11.854  0.00  0.00     0.032 A 
BRANCH  12  16
ATOM     16  C19 <0> d   1      17.204  -3.668  11.492  0.00  0.00     0.038 C 
ATOM     17  C20 <0> d   1      17.458  -4.508  10.467  0.00  0.00     0.086 C 
BRANCH  17  18
ATOM     18  C21 <0> d   1      18.752  -4.461   9.787  0.00  0.00     0.198 C 
ATOM     19  O22 <0> d   1      18.851  -3.911   8.698  0.00  0.00    -0.645 OA
ATOM     20  O23 <0> d   1      19.735  -4.972  10.308  0.00  0.00    -0.645 OA
ENDBRANCH  17  18
ENDBRANCH  12  16
ENDBRANCH   1  10
BRANCH   2  21
ATOM     21  C8  <0> d   1      17.400   2.205  11.918  0.00  0.00     0.300 C 
BRANCH  21  22
ATOM     22  N9  <0> d   1      17.812   3.553  12.331  0.00  0.00     0.091 N 
ATOM     23  C13 <0> d   1      19.076   3.947  11.675  0.00  0.00     0.273 C 
ATOM     24  C12 <0> d   1      19.855   4.817  12.678  0.00  0.00     0.032 C 
ATOM     25  C11 <0> d   1      18.969   4.862  13.945  0.00  0.00     0.032 C 
ATOM     26  C10 <0> d   1      18.081   3.602  13.792  0.00  0.00     0.273 C 
ENDBRANCH  21  22
ENDBRANCH   2  21
TORSDOF 6
ENDMDL
MODEL 8
REMARK VINA RESULT:      -8.0      1.895      6.211
REMARK  6 active torsions:
REMARK  status: ('A' for Active; 'I' for Inactive)
REMARK    1  A    between atoms: C5_5  and  C6_6 
REMARK    2  A    between atoms: C6_6  and  C14_14 
REMARK    3  A    between atoms: C7_7  and  C8_8 
REMARK    4  A    between atoms: C8_8  and  N9_9 
REMARK    5  A    between atoms: C18_18  and  C19_19 
REMARK    6  A    between atoms: C20_20  and  C21_21 
ROOT
ATOM      1  C6  <0> d   1      18.913  -1.285  12.143  0.00  0.00     0.001 C 
ATOM      2  C7  <0> d   1      19.375  -1.269  13.400  0.00  0.00     0.018 C 
ENDROOT
BRANCH   1   3
ATOM      3  C5  <0> d   1      18.757  -2.574  11.428  0.00  0.00    -0.024 A 
ATOM      4  C4  <0> d   1      17.534  -2.911  10.850  0.00  0.00     0.013 A 
ATOM      5  C3  <0> d   1      17.395  -4.112  10.185  0.00  0.00     0.007 A 
ATOM      6  C2  <0> d   1      18.468  -4.981  10.090  0.00  0.00    -0.062 A 
ATOM      7  C1  <0> d   1      18.310  -6.292   9.363  0.00  0.00     0.048 C 
ATOM      8  C26 <0> d   1      19.682  -4.655  10.666  0.00  0.00     0.007 A 
ATOM      9  C25 <0> d   1      19.834  -3.454  11.329  0.00  0.00     0.013 A 
ENDBRANCH   1   3
BRANCH   1  10
ATOM     10  C14 <0> d   1      18.555  -0.015  11.468  0.00  0.00     0.068 A 
ATOM     11  N24 <0> d   1      19.090   0.275  10.292  0.00  0.00    -0.248 NA
ATOM     12  C18 <0> d   1      18.791   1.401   9.653  0.00  0.00     0.057 A 
ATOM     13  C17 <0> d   1      17.905   2.325  10.214  0.00  0.00     0.031 A 
ATOM     14  C16 <0> d   1      17.334   2.052  11.447  0.00  0.00     0.005 A 
ATOM     15  C15 <0> d   1      17.663   0.868  12.083  0.00  0.00     0.032 A 
BRANCH  12  16
ATOM     16  C19 <0> d   1      19.405   1.680   8.342  0.00  0.00     0.038 C 
ATOM     17  C20 <0> d   1      19.296   0.782   7.341  0.00  0.00     0.086 C 
BRANCH  17  18
ATOM     18  C21 <0> d   1      18.213  -0.200   7.354  0.00  0.00     0.198 C 
ATOM     19  O22 <0> d   1      17.061   0.157   7.142  0.00  0.00    -0.645 OA
ATOM     20  O23 <0> d   1      18.458  -1.378   7.576  0.00  0.00    -0.645 OA
ENDBRANCH  17  18
ENDBRANCH  12  16
ENDBRANCH   1  10
BRANCH   2  21
ATOM     21  C8  <0> d   1      19.651   0.045  14.084  0.00  0.00     0.300 C 
BRANCH  21  22
ATOM     22  N9  <0> d   1      19.091   0.018  15.441  0.00  0.00     0.091 N 
ATOM     23  C13 <0> d   1      18.925  -1.371  15.920  0.00  0.00     0.273 C 
ATOM     24  C12 <0> d   1      17.666  -1.397  16.806  0.00  0.00     0.032 C 
ATOM     25  C11 <0> d   1      17.119   0.049  16.771  0.00  0.00     0.032 C 
ATOM     26  C10 <0> d   1      17.734   0.621  15.469  0.00  0.00     0.273 C 
ENDBRANCH  21  22
ENDBRANCH   2  21
TORSDOF 6
ENDMDL
MODEL 9
REMARK VINA RESULT:      -8.0      3.169      7.000
REMARK  6 active torsions:
REMARK  status: ('A' for Active; 'I' for Inactive)
REMARK    1  A    between atoms: C5_5  and  C6_6 
REMARK    2  A    between atoms: C6_6  and  C14_14 
REMARK    3  A    between atoms: C7_7  and  C8_8 
REMARK    4  A    between atoms: C8_8  and  N9_9 
REMARK    5  A    between atoms: C18_18  and  C19_19 
REMARK    6  A    between atoms: C20_20  and  C21_21 
ROOT
ATOM      1  C6  <0> d   1      19.024  -1.466  11.986  0.00  0.00     0.001 C 
ATOM      2  C7  <0> d   1      19.275  -1.410  13.301  0.00  0.00     0.018 C 
ENDROOT
BRANCH   1   3
ATOM      3  C5  <0> d   1      18.697  -2.765  11.350  0.00  0.00    -0.024 A 
ATOM      4  C4  <0> d   1      19.716  -3.647  10.995  0.00  0.00     0.013 A 
ATOM      5  C3  <0> d   1      19.405  -4.854  10.403  0.00  0.00     0.007 A 
ATOM      6  C2  <0> d   1      18.084  -5.190  10.163  0.00  0.00    -0.062 A 
ATOM      7  C1  <0> d   1      17.751  -6.510   9.515  0.00  0.00     0.048 C 
ATOM      8  C26 <0> d   1      17.069  -4.316  10.508  0.00  0.00     0.007 A 
ATOM      9  C25 <0> d   1      17.368  -3.108  11.105  0.00  0.00     0.013 A 
ENDBRANCH   1   3
BRANCH   1  10
ATOM     10  C14 <0> d   1      19.073  -0.231  11.168  0.00  0.00     0.068 A 
ATOM     11  N24 <0> d   1      18.268   0.780  11.459  0.00  0.00    -0.248 NA
ATOM     12  C18 <0> d   1      18.286   1.905  10.754  0.00  0.00     0.057 A 
ATOM     13  C17 <0> d   1      19.152   2.052   9.667  0.00  0.00     0.031 A 
ATOM     14  C16 <0> d   1      20.002   1.009   9.334  0.00  0.00     0.005 A 
ATOM     15  C15 <0> d   1      19.963  -0.148  10.093  0.00  0.00     0.032 A 
BRANCH  12  16
ATOM     16  C19 <0> d   1      17.377   3.007  11.117  0.00  0.00     0.038 C 
ATOM     17  C20 <0> d   1      17.626   3.754  12.213  0.00  0.00     0.086 C 
BRANCH  17  18
ATOM     18  C21 <0> d   1      18.982   3.825  12.756  0.00  0.00     0.198 C 
ATOM     19  O22 <0> d   1      19.846   4.460  12.164  0.00  0.00    -0.645 OA
ATOM     20  O23 <0> d   1      19.252   3.251  13.803  0.00  0.00    -0.645 OA
ENDBRANCH  17  18
ENDBRANCH  12  16
ENDBRANCH   1  10
BRANCH   2  21
ATOM     21  C8  <0> d   1      19.728  -0.115  13.925  0.00  0.00     0.300 C 
BRANCH  21  22
ATOM     22  N9  <0> d   1      19.102   0.038  15.245  0.00  0.00     0.091 N 
ATOM     23  C13 <0> d   1      19.051  -1.255  15.962  0.00  0.00     0.273 C 
ATOM     24  C12 <0> d   1      17.755  -1.260  16.793  0.00  0.00     0.032 C 
ATOM     25  C11 <0> d   1      17.068   0.089  16.478  0.00  0.00     0.032 C 
ATOM     26  C10 <0> d   1      17.691   0.485  15.115  0.00  0.00     0.273 C 
ENDBRANCH  21  22
ENDBRANCH   2  21
TORSDOF 6
ENDMDL
