MODEL 1
REMARK VINA RESULT:      -8.3      0.000      0.000
REMARK  1 active torsions:
REMARK  status: ('A' for Active; 'I' for Inactive)
REMARK    1  A    between atoms: N15_14  and  C16_15 
ROOT
ATOM      1  O1  ZIN A   1      17.764   4.403  14.887  0.00  0.00    -0.267 OA
ATOM      2  C2  ZIN A   1      18.119   3.241  14.897  0.00  0.00     0.254 C 
ATOM      3  C3  ZIN A   1      18.500   2.588  16.168  0.00  0.00     0.039 A 
ATOM      4  C4  ZIN A   1      18.746   3.353  17.305  0.00  0.00     0.017 A 
ATOM      5  C5  ZIN A   1      19.116   2.726  18.477  0.00  0.00     0.002 A 
ATOM      6  C6  ZIN A   1      19.234   1.352  18.517  0.00  0.00     0.007 A 
ATOM      7  C7  ZIN A   1      18.984   0.576  17.388  0.00  0.00    -0.050 A 
ATOM      8  C8  ZIN A   1      18.617   1.195  16.216  0.00  0.00    -0.030 A 
ATOM      9  C9  ZIN A   1      18.316   0.406  14.968  0.00  0.00     0.038 C 
ATOM     10  C11 ZIN A   1      19.086  -0.916  15.015  0.00  0.00     0.011 C 
ATOM     11  C12 ZIN A   1      18.689  -1.670  16.281  0.00  0.00     0.005 C 
ATOM     12  C13 ZIN A   1      19.121  -0.912  17.522  0.00  0.00     0.039 C 
ATOM     13  C14 ZIN A   1      18.742   1.190  13.729  0.00  0.00     0.136 C 
ATOM     14  N15 ZIN A   1      18.164   2.536  13.751  0.00  0.00    -0.341 N 
ENDROOT
BRANCH  14  15
ATOM     15  C16 ZIN A   1      17.641   3.123  12.514  0.00  0.00     0.117 C 
ATOM     16  C23 ZIN A   1      18.544   4.284  12.076  0.00  0.00     0.013 C 
ATOM     17  C22 ZIN A   1      17.997   4.852  10.759  0.00  0.00     0.034 C 
ATOM     18  C24 ZIN A   1      19.950   3.728  11.815  0.00  0.00     0.034 C 
ATOM     19  C21 ZIN A   1      17.970   3.737   9.712  0.00  0.00     0.235 C 
ATOM     20  N19 ZIN A   1      18.472   2.489  10.293  0.00  0.00    -0.069 N 
ATOM     21  C18 ZIN A   1      17.626   2.063  11.410  0.00  0.00     0.260 C 
ATOM     22  H20 ZIN A   1      18.448   1.774   9.582  0.00  0.00     0.280 HD
ATOM     23  C25 ZIN A   1      19.859   2.660  10.733  0.00  0.00     0.235 C 
ENDBRANCH  14  15
TORSDOF 1
ENDMDL
MODEL 2
REMARK VINA RESULT:      -8.2      4.042      7.683
REMARK  1 active torsions:
REMARK  status: ('A' for Active; 'I' for Inactive)
REMARK    1  A    between atoms: N15_14  and  C16_15 
ROOT
ATOM      1  O1  ZIN A   1      17.180  -2.524  11.388  0.00  0.00    -0.267 OA
ATOM      2  C2  ZIN A   1      17.694  -1.663  10.702  0.00  0.00     0.254 C 
ATOM      3  C3  ZIN A   1      18.039  -1.941   9.290  0.00  0.00     0.039 A 
ATOM      4  C4  ZIN A   1      18.064  -3.251   8.819  0.00  0.00     0.017 A 
ATOM      5  C5  ZIN A   1      18.403  -3.490   7.503  0.00  0.00     0.002 A 
ATOM      6  C6  ZIN A   1      18.711  -2.438   6.666  0.00  0.00     0.007 A 
ATOM      7  C7  ZIN A   1      18.683  -1.123   7.126  0.00  0.00    -0.050 A 
ATOM      8  C8  ZIN A   1      18.346  -0.878   8.436  0.00  0.00    -0.030 A 
ATOM      9  C9  ZIN A   1      18.282   0.525   8.985  0.00  0.00     0.038 C 
ATOM     10  C11 ZIN A   1      19.223   1.421   8.175  0.00  0.00     0.011 C 
ATOM     11  C12 ZIN A   1      18.816   1.360   6.706  0.00  0.00     0.005 C 
ATOM     12  C13 ZIN A   1      19.015  -0.036   6.146  0.00  0.00     0.039 C 
ATOM     13  C14 ZIN A   1      18.710   0.543  10.450  0.00  0.00     0.136 C 
ATOM     14  N15 ZIN A   1      17.948  -0.446  11.218  0.00  0.00    -0.341 N 
ENDROOT
BRANCH  14  15
ATOM     15  C16 ZIN A   1      17.469  -0.110  12.561  0.00  0.00     0.117 C 
ATOM     16  C23 ZIN A   1      18.202  -0.973  13.597  0.00  0.00     0.013 C 
ATOM     17  C22 ZIN A   1      17.711  -0.572  14.995  0.00  0.00     0.034 C 
ATOM     18  C24 ZIN A   1      19.702  -0.665  13.505  0.00  0.00     0.034 C 
ATOM     19  C21 ZIN A   1      17.988   0.917  15.210  0.00  0.00     0.235 C 
ATOM     20  N19 ZIN A   1      18.631   1.485  14.022  0.00  0.00    -0.069 N 
ATOM     21  C18 ZIN A   1      17.754   1.365  12.854  0.00  0.00     0.260 C 
ATOM     22  H20 ZIN A   1      18.806   2.463  14.191  0.00  0.00     0.280 HD
ATOM     23  C25 ZIN A   1      19.913   0.820  13.774  0.00  0.00     0.235 C 
ENDBRANCH  14  15
TORSDOF 1
ENDMDL
MODEL 3
REMARK VINA RESULT:      -8.2      2.495      3.309
REMARK  1 active torsions:
REMARK  status: ('A' for Active; 'I' for Inactive)
REMARK    1  A    between atoms: N15_14  and  C16_15 
ROOT
ATOM      1  O1  ZIN A   1      17.129   2.418  11.482  0.00  0.00    -0.267 OA
ATOM      2  C2  ZIN A   1      17.632   1.606  12.233  0.00  0.00     0.254 C 
ATOM      3  C3  ZIN A   1      17.992   1.992  13.615  0.00  0.00     0.039 A 
ATOM      4  C4  ZIN A   1      18.044   3.335  13.979  0.00  0.00     0.017 A 
ATOM      5  C5  ZIN A   1      18.398   3.674  15.269  0.00  0.00     0.002 A 
ATOM      6  C6  ZIN A   1      18.693   2.687  16.186  0.00  0.00     0.007 A 
ATOM      7  C7  ZIN A   1      18.638   1.340  15.835  0.00  0.00    -0.050 A 
ATOM      8  C8  ZIN A   1      18.287   0.995  14.551  0.00  0.00    -0.030 A 
ATOM      9  C9  ZIN A   1      18.194  -0.446  14.119  0.00  0.00     0.038 C 
ATOM     10  C11 ZIN A   1      19.125  -1.290  14.993  0.00  0.00     0.011 C 
ATOM     11  C12 ZIN A   1      18.730  -1.103  16.455  0.00  0.00     0.005 C 
ATOM     12  C13 ZIN A   1      18.958   0.330  16.898  0.00  0.00     0.039 C 
ATOM     13  C14 ZIN A   1      18.611  -0.590  12.657  0.00  0.00     0.136 C 
ATOM     14  N15 ZIN A   1      17.860   0.347  11.816  0.00  0.00    -0.341 N 
ENDROOT
BRANCH  14  15
ATOM     15  C16 ZIN A   1      17.366  -0.087  10.507  0.00  0.00     0.117 C 
ATOM     16  C23 ZIN A   1      18.001   0.773   9.407  0.00  0.00     0.013 C 
ATOM     17  C22 ZIN A   1      17.498   0.270   8.047  0.00  0.00     0.034 C 
ATOM     18  C24 ZIN A   1      19.522   0.578   9.462  0.00  0.00     0.034 C 
ATOM     19  C21 ZIN A   1      17.876  -1.205   7.894  0.00  0.00     0.235 C 
ATOM     20  N19 ZIN A   1      18.595  -1.666   9.084  0.00  0.00    -0.069 N 
ATOM     21  C18 ZIN A   1      17.749  -1.552  10.274  0.00  0.00     0.260 C 
ATOM     22  H20 ZIN A   1      18.836  -2.637   8.955  0.00  0.00     0.280 HD
ATOM     23  C25 ZIN A   1      19.832  -0.900   9.256  0.00  0.00     0.235 C 
ENDBRANCH  14  15
TORSDOF 1
ENDMDL
MODEL 4
REMARK VINA RESULT:      -8.2      4.449      7.828
REMARK  1 active torsions:
REMARK  status: ('A' for Active; 'I' for Inactive)
REMARK    1  A    between atoms: N15_14  and  C16_15 
ROOT
ATOM      1  O1  ZIN A   1      17.790  -1.399  10.830  0.00  0.00    -0.267 OA
ATOM      2  C2  ZIN A   1      18.157  -0.854   9.807  0.00  0.00     0.254 C 
ATOM      3  C3  ZIN A   1      18.574  -1.662   8.640  0.00  0.00     0.039 A 
ATOM      4  C4  ZIN A   1      18.839  -3.021   8.786  0.00  0.00     0.017 A 
ATOM      5  C5  ZIN A   1      19.242  -3.754   7.688  0.00  0.00     0.002 A 
ATOM      6  C6  ZIN A   1      19.376  -3.141   6.459  0.00  0.00     0.007 A 
ATOM      7  C7  ZIN A   1      19.108  -1.783   6.302  0.00  0.00    -0.050 A 
ATOM      8  C8  ZIN A   1      18.707  -1.047   7.392  0.00  0.00    -0.030 A 
ATOM      9  C9  ZIN A   1      18.386   0.421   7.277  0.00  0.00     0.038 C 
ATOM     10  C11 ZIN A   1      19.171   1.014   6.104  0.00  0.00     0.011 C 
ATOM     11  C12 ZIN A   1      18.811   0.246   4.835  0.00  0.00     0.005 C 
ATOM     12  C13 ZIN A   1      19.264  -1.198   4.928  0.00  0.00     0.039 C 
ATOM     13  C14 ZIN A   1      18.775   1.151   8.560  0.00  0.00     0.136 C 
ATOM     14  N15 ZIN A   1      18.183   0.489   9.725  0.00  0.00    -0.341 N 
ENDROOT
BRANCH  14  15
ATOM     15  C16 ZIN A   1      17.626   1.295  10.815  0.00  0.00     0.117 C 
ATOM     16  C23 ZIN A   1      18.460   1.088  12.085  0.00  0.00     0.013 C 
ATOM     17  C22 ZIN A   1      17.879   1.974  13.196  0.00  0.00     0.034 C 
ATOM     18  C24 ZIN A   1      19.895   1.550  11.799  0.00  0.00     0.034 C 
ATOM     19  C21 ZIN A   1      17.913   3.433  12.735  0.00  0.00     0.235 C 
ATOM     20  N19 ZIN A   1      18.487   3.521  11.390  0.00  0.00    -0.069 N 
ATOM     21  C18 ZIN A   1      17.668   2.777  10.430  0.00  0.00     0.260 C 
ATOM     22  H20 ZIN A   1      18.502   4.490  11.112  0.00  0.00     0.280 HD
ATOM     23  C25 ZIN A   1      19.863   3.018  11.392  0.00  0.00     0.235 C 
ENDBRANCH  14  15
TORSDOF 1
ENDMDL
MODEL 5
REMARK VINA RESULT:      -8.1      4.812      8.150
REMARK  1 active torsions:
REMARK  status: ('A' for Active; 'I' for Inactive)
REMARK    1  A    between atoms: N15_14  and  C16_15 
ROOT
ATOM      1  O1  ZIN A   1      19.246   2.078   8.451  0.00  0.00    -0.267 OA
ATOM      2  C2  ZIN A   1      19.082   0.875   8.390  0.00  0.00     0.254 C 
ATOM      3  C3  ZIN A   1      19.085   0.187   7.080  0.00  0.00     0.039 A 
ATOM      4  C4  ZIN A   1      18.971   0.920   5.902  0.00  0.00     0.017 A 
ATOM      5  C5  ZIN A   1      18.959   0.258   4.691  0.00  0.00     0.002 A 
ATOM      6  C6  ZIN A   1      19.063  -1.117   4.655  0.00  0.00     0.007 A 
ATOM      7  C7  ZIN A   1      19.184  -1.859   5.827  0.00  0.00    -0.050 A 
ATOM      8  C8  ZIN A   1      19.196  -1.206   7.037  0.00  0.00    -0.030 A 
ATOM      9  C9  ZIN A   1      19.342  -1.955   8.337  0.00  0.00     0.038 C 
ATOM     10  C11 ZIN A   1      18.811  -3.380   8.155  0.00  0.00     0.011 C 
ATOM     11  C12 ZIN A   1      19.579  -4.047   7.017  0.00  0.00     0.005 C 
ATOM     12  C13 ZIN A   1      19.308  -3.349   5.698  0.00  0.00     0.039 C 
ATOM     13  C14 ZIN A   1      18.548  -1.262   9.442  0.00  0.00     0.136 C 
ATOM     14  N15 ZIN A   1      18.905   0.157   9.515  0.00  0.00    -0.341 N 
ENDROOT
BRANCH  14  15
ATOM     15  C16 ZIN A   1      19.057   0.802  10.822  0.00  0.00     0.117 C 
ATOM     16  C23 ZIN A   1      17.705   1.367  11.276  0.00  0.00     0.013 C 
ATOM     17  C22 ZIN A   1      17.885   1.998  12.663  0.00  0.00     0.034 C 
ATOM     18  C24 ZIN A   1      16.715   0.201  11.401  0.00  0.00     0.034 C 
ATOM     19  C21 ZIN A   1      18.401   0.931  13.631  0.00  0.00     0.235 C 
ATOM     20  N19 ZIN A   1      18.557  -0.347  12.932  0.00  0.00    -0.069 N 
ATOM     21  C18 ZIN A   1      19.536  -0.227  11.849  0.00  0.00     0.260 C 
ATOM     22  H20 ZIN A   1      18.893  -1.032  13.592  0.00  0.00     0.280 HD
ATOM     23  C25 ZIN A   1      17.264  -0.799  12.411  0.00  0.00     0.235 C 
ENDBRANCH  14  15
TORSDOF 1
ENDMDL
MODEL 6
REMARK VINA RESULT:      -8.0      5.697      9.033
REMARK  1 active torsions:
REMARK  status: ('A' for Active; 'I' for Inactive)
REMARK    1  A    between atoms: N15_14  and  C16_15 
ROOT
ATOM      1  O1  ZIN A   1      17.818  -3.299   7.097  0.00  0.00    -0.267 OA
ATOM      2  C2  ZIN A   1      18.071  -2.355   7.819  0.00  0.00     0.254 C 
ATOM      3  C3  ZIN A   1      18.476  -1.058   7.235  0.00  0.00     0.039 A 
ATOM      4  C4  ZIN A   1      18.863  -0.979   5.900  0.00  0.00     0.017 A 
ATOM      5  C5  ZIN A   1      19.253   0.238   5.379  0.00  0.00     0.002 A 
ATOM      6  C6  ZIN A   1      19.254   1.363   6.177  0.00  0.00     0.007 A 
ATOM      7  C7  ZIN A   1      18.863   1.297   7.512  0.00  0.00    -0.050 A 
ATOM      8  C8  ZIN A   1      18.474   0.087   8.038  0.00  0.00    -0.030 A 
ATOM      9  C9  ZIN A   1      18.024  -0.042   9.471  0.00  0.00     0.038 C 
ATOM     10  C11 ZIN A   1      18.678   1.066  10.301  0.00  0.00     0.011 C 
ATOM     11  C12 ZIN A   1      18.301   2.417   9.700  0.00  0.00     0.005 C 
ATOM     12  C13 ZIN A   1      18.878   2.570   8.306  0.00  0.00     0.039 C 
ATOM     13  C14 ZIN A   1      18.434  -1.400  10.036  0.00  0.00     0.136 C 
ATOM     14  N15 ZIN A   1      17.978  -2.479   9.156  0.00  0.00    -0.341 N 
ENDROOT
BRANCH  14  15
ATOM     15  C16 ZIN A   1      17.428  -3.707   9.736  0.00  0.00     0.117 C 
ATOM     16  C23 ZIN A   1      18.332  -4.894   9.379  0.00  0.00     0.013 C 
ATOM     17  C22 ZIN A   1      17.756  -6.156  10.033  0.00  0.00     0.034 C 
ATOM     18  C24 ZIN A   1      19.723  -4.634   9.973  0.00  0.00     0.034 C 
ATOM     19  C21 ZIN A   1      17.684  -5.942  11.547  0.00  0.00     0.235 C 
ATOM     20  N19 ZIN A   1      18.186  -4.609  11.890  0.00  0.00    -0.069 N 
ATOM     21  C18 ZIN A   1      17.367  -3.571  11.260  0.00  0.00     0.260 C 
ATOM     22  H20 ZIN A   1      18.132  -4.496  12.890  0.00  0.00     0.280 HD
ATOM     23  C25 ZIN A   1      19.587  -4.477  11.483  0.00  0.00     0.235 C 
ENDBRANCH  14  15
TORSDOF 1
ENDMDL
MODEL 7
REMARK VINA RESULT:      -7.9      1.850      3.421
REMARK  1 active torsions:
REMARK  status: ('A' for Active; 'I' for Inactive)
REMARK    1  A    between atoms: N15_14  and  C16_15 
ROOT
ATOM      1  O1  ZIN A   1      19.241  -1.219  13.127  0.00  0.00    -0.267 OA
ATOM      2  C2  ZIN A   1      19.053  -0.162  13.696  0.00  0.00     0.254 C 
ATOM      3  C3  ZIN A   1      18.690  -0.142  15.130  0.00  0.00     0.039 A 
ATOM      4  C4  ZIN A   1      18.268  -1.308  15.764  0.00  0.00     0.017 A 
ATOM      5  C5  ZIN A   1      17.919  -1.264  17.098  0.00  0.00     0.002 A 
ATOM      6  C6  ZIN A   1      17.992  -0.075  17.793  0.00  0.00     0.007 A 
ATOM      7  C7  ZIN A   1      18.418   1.095  17.170  0.00  0.00    -0.050 A 
ATOM      8  C8  ZIN A   1      18.767   1.059  15.841  0.00  0.00    -0.030 A 
ATOM      9  C9  ZIN A   1      19.252   2.290  15.119  0.00  0.00     0.038 C 
ATOM     10  C11 ZIN A   1      18.674   3.532  15.804  0.00  0.00     0.011 C 
ATOM     11  C12 ZIN A   1      19.094   3.523  17.271  0.00  0.00     0.005 C 
ATOM     12  C13 ZIN A   1      18.484   2.343  18.003  0.00  0.00     0.039 C 
ATOM     13  C14 ZIN A   1      18.798   2.265  13.661  0.00  0.00     0.136 C 
ATOM     14  N15 ZIN A   1      19.179   1.000  13.028  0.00  0.00    -0.341 N 
ENDROOT
BRANCH  14  15
ATOM     15  C16 ZIN A   1      19.689   0.999  11.655  0.00  0.00     0.117 C 
ATOM     16  C23 ZIN A   1      18.632   0.405  10.715  0.00  0.00     0.013 C 
ATOM     17  C22 ZIN A   1      19.176   0.455   9.281  0.00  0.00     0.034 C 
ATOM     18  C24 ZIN A   1      17.377   1.286  10.786  0.00  0.00     0.034 C 
ATOM     19  C21 ZIN A   1      19.494   1.908   8.921  0.00  0.00     0.235 C 
ATOM     20  N19 ZIN A   1      19.179   2.785  10.051  0.00  0.00    -0.069 N 
ATOM     21  C18 ZIN A   1      19.991   2.435  11.218  0.00  0.00     0.260 C 
ATOM     22  H20 ZIN A   1      19.393   3.735   9.786  0.00  0.00     0.280 HD
ATOM     23  C25 ZIN A   1      17.752   2.704  10.372  0.00  0.00     0.235 C 
ENDBRANCH  14  15
TORSDOF 1
ENDMDL
MODEL 8
REMARK VINA RESULT:      -7.9      3.248      5.415
REMARK  1 active torsions:
REMARK  status: ('A' for Active; 'I' for Inactive)
REMARK    1  A    between atoms: N15_14  and  C16_15 
ROOT
ATOM      1  O1  ZIN A   1      20.442  -0.485  11.231  0.00  0.00    -0.267 OA
ATOM      2  C2  ZIN A   1      19.705   0.480  11.194  0.00  0.00     0.254 C 
ATOM      3  C3  ZIN A   1      19.352   1.197  12.439  0.00  0.00     0.039 A 
ATOM      4  C4  ZIN A   1      19.603   0.616  13.679  0.00  0.00     0.017 A 
ATOM      5  C5  ZIN A   1      19.252   1.295  14.828  0.00  0.00     0.002 A 
ATOM      6  C6  ZIN A   1      18.662   2.538  14.743  0.00  0.00     0.007 A 
ATOM      7  C7  ZIN A   1      18.412   3.132  13.508  0.00  0.00    -0.050 A 
ATOM      8  C8  ZIN A   1      18.758   2.460  12.359  0.00  0.00    -0.030 A 
ATOM      9  C9  ZIN A   1      18.529   3.060  10.995  0.00  0.00     0.038 C 
ATOM     10  C11 ZIN A   1      17.360   4.047  11.074  0.00  0.00     0.011 C 
ATOM     11  C12 ZIN A   1      17.685   5.108  12.121  0.00  0.00     0.005 C 
ATOM     12  C13 ZIN A   1      17.781   4.493  13.504  0.00  0.00     0.039 C 
ATOM     13  C14 ZIN A   1      18.194   1.967   9.983  0.00  0.00     0.136 C 
ATOM     14  N15 ZIN A   1      19.207   0.909  10.019  0.00  0.00    -0.341 N 
ENDROOT
BRANCH  14  15
ATOM     15  C16 ZIN A   1      19.672   0.306   8.768  0.00  0.00     0.117 C 
ATOM     16  C23 ZIN A   1      19.099  -1.111   8.636  0.00  0.00     0.013 C 
ATOM     17  C22 ZIN A   1      19.568  -1.701   7.299  0.00  0.00     0.034 C 
ATOM     18  C24 ZIN A   1      17.568  -1.009   8.608  0.00  0.00     0.034 C 
ATOM     19  C21 ZIN A   1      19.091  -0.796   6.162  0.00  0.00     0.235 C 
ATOM     20  N19 ZIN A   1      18.341   0.340   6.705  0.00  0.00    -0.069 N 
ATOM     21  C18 ZIN A   1      19.192   1.148   7.582  0.00  0.00     0.260 C 
ATOM     22  H20 ZIN A   1      18.035   0.917   5.937  0.00  0.00     0.280 HD
ATOM     23  C25 ZIN A   1      17.159  -0.135   7.428  0.00  0.00     0.235 C 
ENDBRANCH  14  15
TORSDOF 1
ENDMDL
MODEL 9
REMARK VINA RESULT:      -7.8      3.098      5.572
REMARK  1 active torsions:
REMARK  status: ('A' for Active; 'I' for Inactive)
REMARK    1  A    between atoms: N15_14  and  C16_15 
ROOT
ATOM      1  O1  ZIN A   1      20.102  -0.396  13.947  0.00  0.00    -0.267 OA
ATOM      2  C2  ZIN A   1      19.488   0.327  13.188  0.00  0.00     0.254 C 
ATOM      3  C3  ZIN A   1      19.007   1.650  13.645  0.00  0.00     0.039 A 
ATOM      4  C4  ZIN A   1      18.981   1.957  15.002  0.00  0.00     0.017 A 
ATOM      5  C5  ZIN A   1      18.513   3.191  15.408  0.00  0.00     0.002 A 
ATOM      6  C6  ZIN A   1      18.081   4.108  14.473  0.00  0.00     0.007 A 
ATOM      7  C7  ZIN A   1      18.110   3.813  13.112  0.00  0.00    -0.050 A 
ATOM      8  C8  ZIN A   1      18.573   2.585  12.701  0.00  0.00    -0.030 A 
ATOM      9  C9  ZIN A   1      18.643   2.217  11.240  0.00  0.00     0.038 C 
ATOM     10  C11 ZIN A   1      17.590   3.020  10.472  0.00  0.00     0.011 C 
ATOM     11  C12 ZIN A   1      17.842   4.508  10.702  0.00  0.00     0.005 C 
ATOM     12  C13 ZIN A   1      17.636   4.873  12.160  0.00  0.00     0.039 C 
ATOM     13  C14 ZIN A   1      18.371   0.727  11.055  0.00  0.00     0.136 C 
ATOM     14  N15 ZIN A   1      19.245  -0.065  11.924  0.00  0.00    -0.341 N 
ENDROOT
BRANCH  14  15
ATOM     15  C16 ZIN A   1      19.850  -1.300  11.416  0.00  0.00     0.117 C 
ATOM     16  C23 ZIN A   1      19.345  -2.494  12.237  0.00  0.00     0.013 C 
ATOM     17  C22 ZIN A   1      19.961  -3.775  11.658  0.00  0.00     0.034 C 
ATOM     18  C24 ZIN A   1      17.821  -2.576  12.078  0.00  0.00     0.034 C 
ATOM     19  C21 ZIN A   1      19.560  -3.896  10.186  0.00  0.00     0.235 C 
ATOM     20  N19 ZIN A   1      18.720  -2.760   9.799  0.00  0.00    -0.069 N 
ATOM     21  C18 ZIN A   1      19.452  -1.501   9.951  0.00  0.00     0.260 C 
ATOM     22  H20 ZIN A   1      18.467  -2.867   8.828  0.00  0.00     0.280 HD
ATOM     23  C25 ZIN A   1      17.493  -2.743  10.599  0.00  0.00     0.235 C 
ENDBRANCH  14  15
TORSDOF 1
ENDMDL
