MODEL 1
REMARK VINA RESULT:      -7.3      0.000      0.000
REMARK  5 active torsions:
REMARK  status: ('A' for Active; 'I' for Inactive)
REMARK    1  A    between atoms: N1_1  and  C2_2 
REMARK    2  A    between atoms: C3_3  and  C4_4 
REMARK    3  A    between atoms: C4_4  and  C5_5 
REMARK    4  A    between atoms: C11_11  and  C12_12 
REMARK    5  A    between atoms: C12_12  and  C14_14 
ROOT
ATOM      1  C2  ZIN A   1      18.074  -0.030   9.446  0.00  0.00     0.047 A 
ATOM      2  C3  ZIN A   1      18.855   0.501   8.429  0.00  0.00    -0.021 A 
ATOM      3  C8  ZIN A   1      19.262   1.818   8.484  0.00  0.00     0.010 A 
ATOM      4  C9  ZIN A   1      18.896   2.622   9.555  0.00  0.00     0.002 A 
ATOM      5  C10 ZIN A   1      18.123   2.112  10.574  0.00  0.00     0.018 A 
ATOM      6  C11 ZIN A   1      17.696   0.782  10.528  0.00  0.00     0.042 A 
ENDROOT
BRANCH   6   7
ATOM      7  C12 ZIN A   1      16.868   0.231  11.616  0.00  0.00     0.194 C 
ATOM      8  O13 ZIN A   1      15.677   0.058  11.445  0.00  0.00    -0.287 OA
BRANCH   7   9
ATOM      9  C14 ZIN A   1      17.486  -0.110  12.914  0.00  0.00     0.015 A 
ATOM     10  C20 ZIN A   1      18.226  -1.286  13.052  0.00  0.00     0.017 A 
ATOM     11  C19 ZIN A   1      18.804  -1.595  14.264  0.00  0.00     0.020 A 
ATOM     12  C17 ZIN A   1      18.643  -0.748  15.348  0.00  0.00     0.011 A 
ATOM     13  C16 ZIN A   1      17.906   0.417  15.220  0.00  0.00     0.020 A 
ATOM     14 Br18 ZIN A   1      19.433  -1.184  17.010  0.00  0.00    -0.051 Br
ATOM     15  C15 ZIN A   1      17.327   0.741  14.011  0.00  0.00     0.017 A 
ENDBRANCH   7   9
ENDBRANCH   6   7
BRANCH   1  16
ATOM     16  N1  ZIN A   1      17.663  -1.355   9.391  0.00  0.00    -0.398 N 
ATOM     17  H21 ZIN A   1      17.337  -1.728   8.555  0.00  0.00     0.156 HD
ATOM     18  H22 ZIN A   1      17.703  -1.909  10.185  0.00  0.00     0.156 HD
ENDBRANCH   1  16
BRANCH   2  19
ATOM     19  C4  ZIN A   1      19.259  -0.362   7.261  0.00  0.00     0.154 C 
BRANCH  19  20
ATOM     20  C5  ZIN A   1      18.646   0.185   5.997  0.00  0.00     0.177 C 
ATOM     21  O6  ZIN A   1      19.360   0.506   5.062  0.00  0.00    -0.648 OA
ATOM     22  O7  ZIN A   1      17.436   0.306   5.910  0.00  0.00    -0.648 OA
ENDBRANCH  19  20
ENDBRANCH   2  19
TORSDOF 5
ENDMDL
MODEL 2
REMARK VINA RESULT:      -7.3      2.197      2.595
REMARK  5 active torsions:
REMARK  status: ('A' for Active; 'I' for Inactive)
REMARK    1  A    between atoms: N1_1  and  C2_2 
REMARK    2  A    between atoms: C3_3  and  C4_4 
REMARK    3  A    between atoms: C4_4  and  C5_5 
REMARK    4  A    between atoms: C11_11  and  C12_12 
REMARK    5  A    between atoms: C12_12  and  C14_14 
ROOT
ATOM      1  C2  ZIN A   1      19.289  -0.747   8.558  0.00  0.00     0.047 A 
ATOM      2  C3  ZIN A   1      18.691  -0.260   7.403  0.00  0.00    -0.021 A 
ATOM      3  C8  ZIN A   1      18.528   1.098   7.228  0.00  0.00     0.010 A 
ATOM      4  C9  ZIN A   1      18.962   1.989   8.200  0.00  0.00     0.002 A 
ATOM      5  C10 ZIN A   1      19.559   1.525   9.351  0.00  0.00     0.018 A 
ATOM      6  C11 ZIN A   1      19.723   0.151   9.547  0.00  0.00     0.042 A 
ENDROOT
BRANCH   6   7
ATOM      7  C12 ZIN A   1      20.361  -0.351  10.777  0.00  0.00     0.194 C 
ATOM      8  O13 ZIN A   1      21.478  -0.830  10.730  0.00  0.00    -0.287 OA
BRANCH   7   9
ATOM      9  C14 ZIN A   1      19.644  -0.273  12.066  0.00  0.00     0.015 A 
ATOM     10  C20 ZIN A   1      20.198   0.435  13.136  0.00  0.00     0.017 A 
ATOM     11  C19 ZIN A   1      19.521   0.508  14.334  0.00  0.00     0.020 A 
ATOM     12  C17 ZIN A   1      18.298  -0.127  14.483  0.00  0.00     0.011 A 
ATOM     13  C16 ZIN A   1      17.746  -0.834  13.428  0.00  0.00     0.020 A 
ATOM     14 Br18 ZIN A   1      17.380  -0.027  16.133  0.00  0.00    -0.051 Br
ATOM     15  C15 ZIN A   1      18.411  -0.911  12.222  0.00  0.00     0.017 A 
ENDBRANCH   7   9
ENDBRANCH   6   7
BRANCH   1  16
ATOM     16  N1  ZIN A   1      19.452  -2.114   8.737  0.00  0.00    -0.398 N 
ATOM     17  H21 ZIN A   1      19.365  -2.501   9.623  0.00  0.00     0.156 HD
ATOM     18  H22 ZIN A   1      19.650  -2.683   7.977  0.00  0.00     0.156 HD
ENDBRANCH   1  16
BRANCH   2  19
ATOM     19  C4  ZIN A   1      18.217  -1.218   6.340  0.00  0.00     0.154 C 
BRANCH  19  20
ATOM     20  C5  ZIN A   1      19.388  -1.649   5.494  0.00  0.00     0.177 C 
ATOM     21  O6  ZIN A   1      19.874  -2.757   5.644  0.00  0.00    -0.648 OA
ATOM     22  O7  ZIN A   1      19.849  -0.887   4.661  0.00  0.00    -0.648 OA
ENDBRANCH  19  20
ENDBRANCH   2  19
TORSDOF 5
ENDMDL
MODEL 3
REMARK VINA RESULT:      -7.2      4.072      7.448
REMARK  5 active torsions:
REMARK  status: ('A' for Active; 'I' for Inactive)
REMARK    1  A    between atoms: N1_1  and  C2_2 
REMARK    2  A    between atoms: C3_3  and  C4_4 
REMARK    3  A    between atoms: C4_4  and  C5_5 
REMARK    4  A    between atoms: C11_11  and  C12_12 
REMARK    5  A    between atoms: C12_12  and  C14_14 
ROOT
ATOM      1  C2  ZIN A   1      18.416   1.315  14.462  0.00  0.00     0.047 A 
ATOM      2  C3  ZIN A   1      18.552   0.392  15.491  0.00  0.00    -0.021 A 
ATOM      3  C8  ZIN A   1      19.092  -0.852  15.238  0.00  0.00     0.010 A 
ATOM      4  C9  ZIN A   1      19.503  -1.192  13.957  0.00  0.00     0.002 A 
ATOM      5  C10 ZIN A   1      19.377  -0.290  12.924  0.00  0.00     0.018 A 
ATOM      6  C11 ZIN A   1      18.825   0.972  13.163  0.00  0.00     0.042 A 
ENDROOT
BRANCH   6   7
ATOM      7  C12 ZIN A   1      18.687   1.941  12.062  0.00  0.00     0.194 C 
ATOM      8  O13 ZIN A   1      18.760   3.133  12.288  0.00  0.00    -0.287 OA
BRANCH   7   9
ATOM      9  C14 ZIN A   1      18.458   1.464  10.682  0.00  0.00     0.015 A 
ATOM     10  C20 ZIN A   1      19.230   1.964   9.630  0.00  0.00     0.017 A 
ATOM     11  C19 ZIN A   1      19.015   1.511   8.346  0.00  0.00     0.020 A 
ATOM     12  C17 ZIN A   1      18.030   0.570   8.095  0.00  0.00     0.011 A 
ATOM     13  C16 ZIN A   1      17.258   0.074   9.133  0.00  0.00     0.020 A 
ATOM     14 Br18 ZIN A   1      17.738  -0.040   6.330  0.00  0.00    -0.051 Br
ATOM     15  C15 ZIN A   1      17.466   0.515  10.423  0.00  0.00     0.017 A 
ENDBRANCH   7   9
ENDBRANCH   6   7
BRANCH   1  16
ATOM     16  N1  ZIN A   1      17.872   2.567  14.715  0.00  0.00    -0.398 N 
ATOM     17  H21 ZIN A   1      16.961   2.763  14.444  0.00  0.00     0.156 HD
ATOM     18  H22 ZIN A   1      18.400   3.243  15.165  0.00  0.00     0.156 HD
ENDBRANCH   1  16
BRANCH   2  19
ATOM     19  C4  ZIN A   1      18.110   0.750  16.887  0.00  0.00     0.154 C 
BRANCH  19  20
ATOM     20  C5  ZIN A   1      19.267   1.354  17.641  0.00  0.00     0.177 C 
ATOM     21  O6  ZIN A   1      19.891   0.680  18.443  0.00  0.00    -0.648 OA
ATOM     22  O7  ZIN A   1      19.579   2.517  17.449  0.00  0.00    -0.648 OA
ENDBRANCH  19  20
ENDBRANCH   2  19
TORSDOF 5
ENDMDL
MODEL 4
REMARK VINA RESULT:      -7.0      3.649      7.146
REMARK  5 active torsions:
REMARK  status: ('A' for Active; 'I' for Inactive)
REMARK    1  A    between atoms: N1_1  and  C2_2 
REMARK    2  A    between atoms: C3_3  and  C4_4 
REMARK    3  A    between atoms: C4_4  and  C5_5 
REMARK    4  A    between atoms: C11_11  and  C12_12 
REMARK    5  A    between atoms: C12_12  and  C14_14 
ROOT
ATOM      1  C2  ZIN A   1      18.036   0.201  13.456  0.00  0.00     0.047 A 
ATOM      2  C3  ZIN A   1      18.875  -0.269  14.457  0.00  0.00    -0.021 A 
ATOM      3  C8  ZIN A   1      19.542  -1.465  14.297  0.00  0.00     0.010 A 
ATOM      4  C9  ZIN A   1      19.382  -2.209  13.136  0.00  0.00     0.002 A 
ATOM      5  C10 ZIN A   1      18.555  -1.759  12.131  0.00  0.00     0.018 A 
ATOM      6  C11 ZIN A   1      17.866  -0.553  12.282  0.00  0.00     0.042 A 
ENDROOT
BRANCH   6   7
ATOM      7  C12 ZIN A   1      16.979  -0.066  11.211  0.00  0.00     0.194 C 
ATOM      8  O13 ZIN A   1      15.804   0.145  11.443  0.00  0.00    -0.287 OA
BRANCH   7   9
ATOM      9  C14 ZIN A   1      17.517   0.163   9.853  0.00  0.00     0.015 A 
ATOM     10  C20 ZIN A   1      18.453   1.176   9.632  0.00  0.00     0.017 A 
ATOM     11  C19 ZIN A   1      18.955   1.381   8.365  0.00  0.00     0.020 A 
ATOM     12  C17 ZIN A   1      18.525   0.593   7.310  0.00  0.00     0.011 A 
ATOM     13  C16 ZIN A   1      17.594  -0.410   7.522  0.00  0.00     0.020 A 
ATOM     14 Br18 ZIN A   1      19.213   0.887   5.573  0.00  0.00    -0.051 Br
ATOM     15  C15 ZIN A   1      17.088  -0.629   8.786  0.00  0.00     0.017 A 
ENDBRANCH   7   9
ENDBRANCH   6   7
BRANCH   1  16
ATOM     16  N1  ZIN A   1      17.363   1.404  13.616  0.00  0.00    -0.398 N 
ATOM     17  H21 ZIN A   1      17.732   2.093  14.192  0.00  0.00     0.156 HD
ATOM     18  H22 ZIN A   1      16.526   1.557  13.152  0.00  0.00     0.156 HD
ENDBRANCH   1  16
BRANCH   2  19
ATOM     19  C4  ZIN A   1      19.058   0.531  15.722  0.00  0.00     0.154 C 
BRANCH  19  20
ATOM     20  C5  ZIN A   1      18.503  -0.244  16.890  0.00  0.00     0.177 C 
ATOM     21  O6  ZIN A   1      19.197  -0.450  17.871  0.00  0.00    -0.648 OA
ATOM     22  O7  ZIN A   1      17.359  -0.665  16.853  0.00  0.00    -0.648 OA
ENDBRANCH  19  20
ENDBRANCH   2  19
TORSDOF 5
ENDMDL
MODEL 5
REMARK VINA RESULT:      -7.0      4.588      7.301
REMARK  5 active torsions:
REMARK  status: ('A' for Active; 'I' for Inactive)
REMARK    1  A    between atoms: N1_1  and  C2_2 
REMARK    2  A    between atoms: C3_3  and  C4_4 
REMARK    3  A    between atoms: C4_4  and  C5_5 
REMARK    4  A    between atoms: C11_11  and  C12_12 
REMARK    5  A    between atoms: C12_12  and  C14_14 
ROOT
ATOM      1  C2  ZIN A   1      19.058   0.869  14.539  0.00  0.00     0.047 A 
ATOM      2  C3  ZIN A   1      18.694   1.194  15.839  0.00  0.00    -0.021 A 
ATOM      3  C8  ZIN A   1      18.550   0.202  16.786  0.00  0.00     0.010 A 
ATOM      4  C9  ZIN A   1      18.768  -1.126  16.451  0.00  0.00     0.002 A 
ATOM      5  C10 ZIN A   1      19.131  -1.469  15.168  0.00  0.00     0.018 A 
ATOM      6  C11 ZIN A   1      19.273  -0.476  14.194  0.00  0.00     0.042 A 
ENDROOT
BRANCH   6   7
ATOM      7  C12 ZIN A   1      19.661  -0.837  12.819  0.00  0.00     0.194 C 
ATOM      8  O13 ZIN A   1      20.420  -0.121  12.194  0.00  0.00    -0.287 OA
BRANCH   7   9
ATOM      9  C14 ZIN A   1      19.126  -2.067  12.199  0.00  0.00     0.015 A 
ATOM     10  C20 ZIN A   1      17.770  -2.157  11.875  0.00  0.00     0.017 A 
ATOM     11  C19 ZIN A   1      17.279  -3.305  11.291  0.00  0.00     0.020 A 
ATOM     12  C17 ZIN A   1      18.125  -4.373  11.036  0.00  0.00     0.011 A 
ATOM     13  C16 ZIN A   1      19.469  -4.292  11.360  0.00  0.00     0.020 A 
ATOM     14 Br18 ZIN A   1      17.441  -5.947  10.243  0.00  0.00    -0.051 Br
ATOM     15  C15 ZIN A   1      19.974  -3.147  11.940  0.00  0.00     0.017 A 
ENDBRANCH   7   9
ENDBRANCH   6   7
BRANCH   1  16
ATOM     16  N1  ZIN A   1      19.202   1.866  13.584  0.00  0.00    -0.398 N 
ATOM     17  H21 ZIN A   1      19.673   1.680  12.756  0.00  0.00     0.156 HD
ATOM     18  H22 ZIN A   1      18.829   2.746  13.742  0.00  0.00     0.156 HD
ENDBRANCH   1  16
BRANCH   2  19
ATOM     19  C4  ZIN A   1      18.455   2.634  16.215  0.00  0.00     0.154 C 
BRANCH  19  20
ATOM     20  C5  ZIN A   1      19.577   3.115  17.100  0.00  0.00     0.177 C 
ATOM     21  O6  ZIN A   1      19.607   2.791  18.276  0.00  0.00    -0.648 OA
ATOM     22  O7  ZIN A   1      20.453   3.827  16.641  0.00  0.00    -0.648 OA
ENDBRANCH  19  20
ENDBRANCH   2  19
TORSDOF 5
ENDMDL
MODEL 6
REMARK VINA RESULT:      -6.8      3.688      4.606
REMARK  5 active torsions:
REMARK  status: ('A' for Active; 'I' for Inactive)
REMARK    1  A    between atoms: N1_1  and  C2_2 
REMARK    2  A    between atoms: C3_3  and  C4_4 
REMARK    3  A    between atoms: C4_4  and  C5_5 
REMARK    4  A    between atoms: C11_11  and  C12_12 
REMARK    5  A    between atoms: C12_12  and  C14_14 
ROOT
ATOM      1  C2  ZIN A   1      18.784  -3.665   9.675  0.00  0.00     0.047 A 
ATOM      2  C3  ZIN A   1      18.878  -5.026   9.416  0.00  0.00    -0.021 A 
ATOM      3  C8  ZIN A   1      18.046  -5.913  10.066  0.00  0.00     0.010 A 
ATOM      4  C9  ZIN A   1      17.108  -5.456  10.980  0.00  0.00     0.002 A 
ATOM      5  C10 ZIN A   1      16.998  -4.110  11.250  0.00  0.00     0.018 A 
ATOM      6  C11 ZIN A   1      17.840  -3.199  10.606  0.00  0.00     0.042 A 
ENDROOT
BRANCH   6   7
ATOM      7  C12 ZIN A   1      17.727  -1.757  10.890  0.00  0.00     0.194 C 
ATOM      8  O13 ZIN A   1      17.431  -0.983  10.000  0.00  0.00    -0.287 OA
BRANCH   7   9
ATOM      9  C14 ZIN A   1      17.975  -1.252  12.257  0.00  0.00     0.015 A 
ATOM     10  C20 ZIN A   1      17.277  -0.138  12.730  0.00  0.00     0.017 A 
ATOM     11  C19 ZIN A   1      17.509   0.324  14.008  0.00  0.00     0.020 A 
ATOM     12  C17 ZIN A   1      18.440  -0.305  14.818  0.00  0.00     0.011 A 
ATOM     13  C16 ZIN A   1      19.139  -1.407  14.352  0.00  0.00     0.020 A 
ATOM     14 Br18 ZIN A   1      18.758   0.341  16.566  0.00  0.00    -0.051 Br
ATOM     15  C15 ZIN A   1      18.913  -1.883  13.078  0.00  0.00     0.017 A 
ENDBRANCH   7   9
ENDBRANCH   6   7
BRANCH   1  16
ATOM     16  N1  ZIN A   1      19.622  -2.770   9.024  0.00  0.00    -0.398 N 
ATOM     17  H21 ZIN A   1      20.030  -3.015   8.178  0.00  0.00     0.156 HD
ATOM     18  H22 ZIN A   1      19.797  -1.899   9.412  0.00  0.00     0.156 HD
ENDBRANCH   1  16
BRANCH   2  19
ATOM     19  C4  ZIN A   1      19.893  -5.534   8.424  0.00  0.00     0.154 C 
BRANCH  19  20
ATOM     20  C5  ZIN A   1      19.269  -5.592   7.053  0.00  0.00     0.177 C 
ATOM     21  O6  ZIN A   1      19.178  -4.580   6.380  0.00  0.00    -0.648 OA
ATOM     22  O7  ZIN A   1      18.854  -6.653   6.618  0.00  0.00    -0.648 OA
ENDBRANCH  19  20
ENDBRANCH   2  19
TORSDOF 5
ENDMDL
MODEL 7
REMARK VINA RESULT:      -6.8      4.149      5.663
REMARK  5 active torsions:
REMARK  status: ('A' for Active; 'I' for Inactive)
REMARK    1  A    between atoms: N1_1  and  C2_2 
REMARK    2  A    between atoms: C3_3  and  C4_4 
REMARK    3  A    between atoms: C4_4  and  C5_5 
REMARK    4  A    between atoms: C11_11  and  C12_12 
REMARK    5  A    between atoms: C12_12  and  C14_14 
ROOT
ATOM      1  C2  ZIN A   1      18.489  -3.258   9.248  0.00  0.00     0.047 A 
ATOM      2  C3  ZIN A   1      18.552  -4.384  10.057  0.00  0.00    -0.021 A 
ATOM      3  C8  ZIN A   1      19.240  -4.341  11.251  0.00  0.00     0.010 A 
ATOM      4  C9  ZIN A   1      19.874  -3.175  11.655  0.00  0.00     0.002 A 
ATOM      5  C10 ZIN A   1      19.822  -2.047  10.868  0.00  0.00     0.018 A 
ATOM      6  C11 ZIN A   1      19.135  -2.077   9.651  0.00  0.00     0.042 A 
ENDROOT
BRANCH   6   7
ATOM      7  C12 ZIN A   1      19.076  -0.873   8.803  0.00  0.00     0.194 C 
ATOM      8  O13 ZIN A   1      19.377  -0.942   7.627  0.00  0.00    -0.287 OA
BRANCH   7   9
ATOM      9  C14 ZIN A   1      18.652   0.419   9.383  0.00  0.00     0.015 A 
ATOM     10  C20 ZIN A   1      19.170   1.616   8.883  0.00  0.00     0.017 A 
ATOM     11  C19 ZIN A   1      18.766   2.818   9.424  0.00  0.00     0.020 A 
ATOM     12  C17 ZIN A   1      17.857   2.840  10.469  0.00  0.00     0.011 A 
ATOM     13  C16 ZIN A   1      17.343   1.656  10.972  0.00  0.00     0.020 A 
ATOM     14 Br18 ZIN A   1      17.314   4.492  11.211  0.00  0.00    -0.051 Br
ATOM     15  C15 ZIN A   1      17.735   0.447  10.436  0.00  0.00     0.017 A 
ENDBRANCH   7   9
ENDBRANCH   6   7
BRANCH   1  16
ATOM     16  N1  ZIN A   1      17.798  -3.299   8.045  0.00  0.00    -0.398 N 
ATOM     17  H21 ZIN A   1      16.830  -3.379   8.044  0.00  0.00     0.156 HD
ATOM     18  H22 ZIN A   1      18.280  -3.245   7.206  0.00  0.00     0.156 HD
ENDBRANCH   1  16
BRANCH   2  19
ATOM     19  C4  ZIN A   1      17.867  -5.657   9.628  0.00  0.00     0.154 C 
BRANCH  19  20
ATOM     20  C5  ZIN A   1      18.791  -6.450   8.739  0.00  0.00     0.177 C 
ATOM     21  O6  ZIN A   1      18.331  -7.214   7.909  0.00  0.00    -0.648 OA
ATOM     22  O7  ZIN A   1      19.999  -6.326   8.853  0.00  0.00    -0.648 OA
ENDBRANCH  19  20
ENDBRANCH   2  19
TORSDOF 5
ENDMDL
MODEL 8
REMARK VINA RESULT:      -6.7      4.399      7.024
REMARK  5 active torsions:
REMARK  status: ('A' for Active; 'I' for Inactive)
REMARK    1  A    between atoms: N1_1  and  C2_2 
REMARK    2  A    between atoms: C3_3  and  C4_4 
REMARK    3  A    between atoms: C4_4  and  C5_5 
REMARK    4  A    between atoms: C11_11  and  C12_12 
REMARK    5  A    between atoms: C12_12  and  C14_14 
ROOT
ATOM      1  C2  ZIN A   1      18.717   3.330  12.488  0.00  0.00     0.047 A 
ATOM      2  C3  ZIN A   1      18.748   4.654  12.906  0.00  0.00    -0.021 A 
ATOM      3  C8  ZIN A   1      17.884   5.575  12.352  0.00  0.00     0.010 A 
ATOM      4  C9  ZIN A   1      16.978   5.189  11.375  0.00  0.00     0.002 A 
ATOM      5  C10 ZIN A   1      16.931   3.881  10.948  0.00  0.00     0.018 A 
ATOM      6  C11 ZIN A   1      17.805   2.937  11.494  0.00  0.00     0.042 A 
ENDROOT
BRANCH   6   7
ATOM      7  C12 ZIN A   1      17.760   1.535  11.041  0.00  0.00     0.194 C 
ATOM      8  O13 ZIN A   1      17.467   0.652  11.824  0.00  0.00    -0.287 OA
BRANCH   7   9
ATOM      9  C14 ZIN A   1      18.073   1.203   9.636  0.00  0.00     0.015 A 
ATOM     10  C20 ZIN A   1      19.056   1.917   8.947  0.00  0.00     0.017 A 
ATOM     11  C19 ZIN A   1      19.346   1.598   7.638  0.00  0.00     0.020 A 
ATOM     12  C17 ZIN A   1      18.658   0.578   7.001  0.00  0.00     0.011 A 
ATOM     13  C16 ZIN A   1      17.678  -0.130   7.677  0.00  0.00     0.020 A 
ATOM     14 Br18 ZIN A   1      19.057   0.153   5.203  0.00  0.00    -0.051 Br
ATOM     15  C15 ZIN A   1      17.382   0.175   8.988  0.00  0.00     0.017 A 
ENDBRANCH   7   9
ENDBRANCH   6   7
BRANCH   1  16
ATOM     16  N1  ZIN A   1      19.587   2.402  13.043  0.00  0.00    -0.398 N 
ATOM     17  H21 ZIN A   1      20.353   2.090  12.535  0.00  0.00     0.156 HD
ATOM     18  H22 ZIN A   1      19.432   2.068  13.940  0.00  0.00     0.156 HD
ENDBRANCH   1  16
BRANCH   2  19
ATOM     19  C4  ZIN A   1      19.728   5.085  13.967  0.00  0.00     0.154 C 
BRANCH  19  20
ATOM     20  C5  ZIN A   1      19.089   4.950  15.325  0.00  0.00     0.177 C 
ATOM     21  O6  ZIN A   1      19.024   3.857  15.863  0.00  0.00    -0.648 OA
ATOM     22  O7  ZIN A   1      18.637   5.933  15.886  0.00  0.00    -0.648 OA
ENDBRANCH  19  20
ENDBRANCH   2  19
TORSDOF 5
ENDMDL
MODEL 9
REMARK VINA RESULT:      -6.5      4.453      5.675
REMARK  5 active torsions:
REMARK  status: ('A' for Active; 'I' for Inactive)
REMARK    1  A    between atoms: N1_1  and  C2_2 
REMARK    2  A    between atoms: C3_3  and  C4_4 
REMARK    3  A    between atoms: C4_4  and  C5_5 
REMARK    4  A    between atoms: C11_11  and  C12_12 
REMARK    5  A    between atoms: C12_12  and  C14_14 
ROOT
ATOM      1  C2  ZIN A   1      19.004  -0.780  10.185  0.00  0.00     0.047 A 
ATOM      2  C3  ZIN A   1      18.354   0.447  10.195  0.00  0.00    -0.021 A 
ATOM      3  C8  ZIN A   1      17.284   0.656  11.040  0.00  0.00     0.010 A 
ATOM      4  C9  ZIN A   1      16.849  -0.354  11.886  0.00  0.00     0.002 A 
ATOM      5  C10 ZIN A   1      17.481  -1.577  11.892  0.00  0.00     0.018 A 
ATOM      6  C11 ZIN A   1      18.562  -1.808  11.035  0.00  0.00     0.042 A 
ENDROOT
BRANCH   6   7
ATOM      7  C12 ZIN A   1      19.242  -3.115  11.036  0.00  0.00     0.194 C 
ATOM      8  O13 ZIN A   1      20.294  -3.252  11.631  0.00  0.00    -0.287 OA
BRANCH   7   9
ATOM      9  C14 ZIN A   1      18.647  -4.258  10.313  0.00  0.00     0.015 A 
ATOM     10  C20 ZIN A   1      17.783  -5.133  10.974  0.00  0.00     0.017 A 
ATOM     11  C19 ZIN A   1      17.227  -6.194  10.292  0.00  0.00     0.020 A 
ATOM     12  C17 ZIN A   1      17.532  -6.400   8.957  0.00  0.00     0.011 A 
ATOM     13  C16 ZIN A   1      18.393  -5.539   8.297  0.00  0.00     0.020 A 
ATOM     14 Br18 ZIN A   1      16.771  -7.863   8.031  0.00  0.00    -0.051 Br
ATOM     15  C15 ZIN A   1      18.952  -4.471   8.966  0.00  0.00     0.017 A 
ENDBRANCH   7   9
ENDBRANCH   6   7
BRANCH   1  16
ATOM     16  N1  ZIN A   1      20.079  -0.994   9.334  0.00  0.00    -0.398 N 
ATOM     17  H21 ZIN A   1      20.976  -1.075   9.697  0.00  0.00     0.156 HD
ATOM     18  H22 ZIN A   1      19.935  -1.064   8.378  0.00  0.00     0.156 HD
ENDBRANCH   1  16
BRANCH   2  19
ATOM     19  C4  ZIN A   1      18.818   1.551   9.281  0.00  0.00     0.154 C 
BRANCH  19  20
ATOM     20  C5  ZIN A   1      18.951   2.831  10.067  0.00  0.00     0.177 C 
ATOM     21  O6  ZIN A   1      19.790   2.921  10.947  0.00  0.00    -0.648 OA
ATOM     22  O7  ZIN A   1      18.219   3.775   9.822  0.00  0.00    -0.648 OA
ENDBRANCH  19  20
ENDBRANCH   2  19
TORSDOF 5
ENDMDL
