MODEL 1
REMARK VINA RESULT:      -6.6      0.000      0.000
REMARK  3 active torsions:
REMARK  status: ('A' for Active; 'I' for Inactive)
REMARK    1  A    between atoms: C4_4  and  O5_5 
REMARK    2  A    between atoms: O5_5  and  C6_6 
REMARK    3  A    between atoms: C6_6  and  C7_7 
ROOT
ATOM      1  O5  ZIN A   1      19.665   1.435   8.580  0.00  0.00    -0.349 OA
ENDROOT
BRANCH   1   2
ATOM      2  C4  ZIN A   1      19.156   2.039   9.686  0.00  0.00     0.069 A 
ATOM      3  C3  ZIN A   1      19.373   1.489  10.940  0.00  0.00     0.043 A 
ATOM      4  C2  ZIN A   1      18.855   2.103  12.063  0.00  0.00    -0.059 A 
ATOM      5  C1  ZIN A   1      19.090   1.505  13.426  0.00  0.00     0.048 C 
ATOM      6  C17 ZIN A   1      18.114   3.264  11.937  0.00  0.00     0.013 A 
ATOM      7  C15 ZIN A   1      17.900   3.818  10.688  0.00  0.00    -0.059 A 
ATOM      8  C14 ZIN A   1      18.417   3.207   9.562  0.00  0.00     0.043 A 
ATOM      9  C16 ZIN A   1      17.097   5.087  10.554  0.00  0.00     0.048 C 
ENDBRANCH   1   2
BRANCH   1  10
ATOM     10  C6  ZIN A   1      19.263   0.085   8.335  0.00  0.00     0.210 C 
BRANCH  10  11
ATOM     11  C7  ZIN A   1      18.492   0.014   7.016  0.00  0.00     0.175 A 
ATOM     12  O13 ZIN A   1      18.798  -1.226   6.313  0.00  0.00    -0.295 OA
ATOM     13  C11 ZIN A   1      19.361  -0.938   5.131  0.00  0.00     0.361 A 
ATOM     14  N10 ZIN A   1      19.495   0.376   4.899  0.00  0.00    -0.334 N 
ATOM     15  O12 ZIN A   1      19.717  -1.789   4.342  0.00  0.00    -0.239 OA
ATOM     16  C9  ZIN A   1      18.966   1.120   6.053  0.00  0.00     0.159 A 
ATOM     17  H26 ZIN A   1      19.878   0.772   4.101  0.00  0.00     0.164 HD
ENDBRANCH  10  11
ENDBRANCH   1  10
TORSDOF 3
ENDMDL
MODEL 2
REMARK VINA RESULT:      -6.5      3.634      5.920
REMARK  3 active torsions:
REMARK  status: ('A' for Active; 'I' for Inactive)
REMARK    1  A    between atoms: C4_4  and  O5_5 
REMARK    2  A    between atoms: O5_5  and  C6_6 
REMARK    3  A    between atoms: C6_6  and  C7_7 
ROOT
ATOM      1  O5  ZIN A   1      19.190  -2.438   8.922  0.00  0.00    -0.349 OA
ENDROOT
BRANCH   1   2
ATOM      2  C4  ZIN A   1      19.112  -1.252   8.263  0.00  0.00     0.069 A 
ATOM      3  C3  ZIN A   1      19.092  -1.229   6.876  0.00  0.00     0.043 A 
ATOM      4  C2  ZIN A   1      19.012  -0.024   6.207  0.00  0.00    -0.059 A 
ATOM      5  C1  ZIN A   1      18.991   0.001   4.700  0.00  0.00     0.048 C 
ATOM      6  C17 ZIN A   1      18.958   1.160   6.918  0.00  0.00     0.013 A 
ATOM      7  C15 ZIN A   1      18.973   1.140   8.301  0.00  0.00    -0.059 A 
ATOM      8  C14 ZIN A   1      19.052  -0.063   8.974  0.00  0.00     0.043 A 
ATOM      9  C16 ZIN A   1      18.908   2.433   9.074  0.00  0.00     0.048 C 
ENDBRANCH   1   2
BRANCH   1  10
ATOM     10  C6  ZIN A   1      17.969  -2.978   9.433  0.00  0.00     0.210 C 
BRANCH  10  11
ATOM     11  C7  ZIN A   1      18.192  -3.487  10.858  0.00  0.00     0.175 A 
ATOM     12  O13 ZIN A   1      18.096  -2.390  11.812  0.00  0.00    -0.295 OA
ATOM     13  C11 ZIN A   1      19.267  -2.256  12.452  0.00  0.00     0.361 A 
ATOM     14  N10 ZIN A   1      20.200  -3.138  12.067  0.00  0.00    -0.334 N 
ATOM     15  O12 ZIN A   1      19.464  -1.412  13.303  0.00  0.00    -0.239 OA
ATOM     16  C9  ZIN A   1      19.632  -4.008  11.026  0.00  0.00     0.159 A 
ATOM     17  H26 ZIN A   1      21.103  -3.194  12.418  0.00  0.00     0.164 HD
ENDBRANCH  10  11
ENDBRANCH   1  10
TORSDOF 3
ENDMDL
MODEL 3
REMARK VINA RESULT:      -6.5      3.443      5.826
REMARK  3 active torsions:
REMARK  status: ('A' for Active; 'I' for Inactive)
REMARK    1  A    between atoms: C4_4  and  O5_5 
REMARK    2  A    between atoms: O5_5  and  C6_6 
REMARK    3  A    between atoms: C6_6  and  C7_7 
ROOT
ATOM      1  O5  ZIN A   1      19.228  -2.714   8.386  0.00  0.00    -0.349 OA
ENDROOT
BRANCH   1   2
ATOM      2  C4  ZIN A   1      19.123  -1.499   7.787  0.00  0.00     0.069 A 
ATOM      3  C3  ZIN A   1      19.160  -0.342   8.552  0.00  0.00     0.043 A 
ATOM      4  C2  ZIN A   1      19.053   0.893   7.943  0.00  0.00    -0.059 A 
ATOM      5  C1  ZIN A   1      19.093   2.149   8.774  0.00  0.00     0.048 C 
ATOM      6  C17 ZIN A   1      18.903   0.976   6.571  0.00  0.00     0.013 A 
ATOM      7  C15 ZIN A   1      18.870  -0.175   5.804  0.00  0.00    -0.059 A 
ATOM      8  C14 ZIN A   1      18.977  -1.412   6.410  0.00  0.00     0.043 A 
ATOM      9  C16 ZIN A   1      18.713  -0.080   4.309  0.00  0.00     0.048 C 
ENDBRANCH   1   2
BRANCH   1  10
ATOM     10  C6  ZIN A   1      18.046  -3.243   8.991  0.00  0.00     0.210 C 
BRANCH  10  11
ATOM     11  C7  ZIN A   1      18.332  -3.586  10.454  0.00  0.00     0.175 A 
ATOM     12  O13 ZIN A   1      18.256  -2.390  11.283  0.00  0.00    -0.295 OA
ATOM     13  C11 ZIN A   1      19.448  -2.172  11.857  0.00  0.00     0.361 A 
ATOM     14  N10 ZIN A   1      20.379  -3.082  11.536  0.00  0.00    -0.334 N 
ATOM     15  O12 ZIN A   1      19.664  -1.236  12.600  0.00  0.00    -0.239 OA
ATOM     16  C9  ZIN A   1      19.785  -4.069  10.621  0.00  0.00     0.159 A 
ATOM     17  H26 ZIN A   1      21.295  -3.088  11.854  0.00  0.00     0.164 HD
ENDBRANCH  10  11
ENDBRANCH   1  10
TORSDOF 3
ENDMDL
MODEL 4
REMARK VINA RESULT:      -6.5      4.822      7.534
REMARK  3 active torsions:
REMARK  status: ('A' for Active; 'I' for Inactive)
REMARK    1  A    between atoms: C4_4  and  O5_5 
REMARK    2  A    between atoms: O5_5  and  C6_6 
REMARK    3  A    between atoms: C6_6  and  C7_7 
ROOT
ATOM      1  O5  ZIN A   1      18.431   0.675  13.004  0.00  0.00    -0.349 OA
ENDROOT
BRANCH   1   2
ATOM      2  C4  ZIN A   1      18.358   1.521  11.944  0.00  0.00     0.069 A 
ATOM      3  C3  ZIN A   1      18.927   1.164  10.730  0.00  0.00     0.043 A 
ATOM      4  C2  ZIN A   1      18.853   2.026   9.653  0.00  0.00    -0.059 A 
ATOM      5  C1  ZIN A   1      19.472   1.638   8.334  0.00  0.00     0.048 C 
ATOM      6  C17 ZIN A   1      18.217   3.246   9.785  0.00  0.00     0.013 A 
ATOM      7  C15 ZIN A   1      17.645   3.603  10.993  0.00  0.00    -0.059 A 
ATOM      8  C14 ZIN A   1      17.717   2.744  12.073  0.00  0.00     0.043 A 
ATOM      9  C16 ZIN A   1      16.947   4.932  11.133  0.00  0.00     0.048 C 
ENDBRANCH   1   2
BRANCH   1  10
ATOM     10  C6  ZIN A   1      19.249   1.081  14.104  0.00  0.00     0.210 C 
BRANCH  10  11
ATOM     11  C7  ZIN A   1      18.392   1.183  15.367  0.00  0.00     0.175 A 
ATOM     12  O13 ZIN A   1      19.142   1.817  16.444  0.00  0.00    -0.295 OA
ATOM     13  C11 ZIN A   1      19.259   0.958  17.467  0.00  0.00     0.361 A 
ATOM     14  N10 ZIN A   1      18.673  -0.228  17.250  0.00  0.00    -0.334 N 
ATOM     15  O12 ZIN A   1      19.843   1.231  18.496  0.00  0.00    -0.239 OA
ATOM     16  C9  ZIN A   1      18.064  -0.221  15.911  0.00  0.00     0.159 A 
ATOM     17  H26 ZIN A   1      18.653  -0.970  17.874  0.00  0.00     0.164 HD
ENDBRANCH  10  11
ENDBRANCH   1  10
TORSDOF 3
ENDMDL
MODEL 5
REMARK VINA RESULT:      -6.4      4.821      7.673
REMARK  3 active torsions:
REMARK  status: ('A' for Active; 'I' for Inactive)
REMARK    1  A    between atoms: C4_4  and  O5_5 
REMARK    2  A    between atoms: O5_5  and  C6_6 
REMARK    3  A    between atoms: C6_6  and  C7_7 
ROOT
ATOM      1  O5  ZIN A   1      18.743   0.947  13.050  0.00  0.00    -0.349 OA
ENDROOT
BRANCH   1   2
ATOM      2  C4  ZIN A   1      18.567   1.734  11.956  0.00  0.00     0.069 A 
ATOM      3  C3  ZIN A   1      17.883   2.936  12.068  0.00  0.00     0.043 A 
ATOM      4  C2  ZIN A   1      17.705   3.735  10.956  0.00  0.00    -0.059 A 
ATOM      5  C1  ZIN A   1      16.961   5.040  11.077  0.00  0.00     0.048 C 
ATOM      6  C17 ZIN A   1      18.203   3.335   9.729  0.00  0.00     0.013 A 
ATOM      7  C15 ZIN A   1      18.889   2.140   9.615  0.00  0.00    -0.059 A 
ATOM      8  C14 ZIN A   1      19.070   1.338  10.726  0.00  0.00     0.043 A 
ATOM      9  C16 ZIN A   1      19.436   1.709   8.279  0.00  0.00     0.048 C 
ENDBRANCH   1   2
BRANCH   1  10
ATOM     10  C6  ZIN A   1      19.353   1.552  14.192  0.00  0.00     0.210 C 
BRANCH  10  11
ATOM     11  C7  ZIN A   1      18.452   1.360  15.414  0.00  0.00     0.175 A 
ATOM     12  O13 ZIN A   1      19.022   2.024  16.579  0.00  0.00    -0.295 OA
ATOM     13  C11 ZIN A   1      19.276   1.112  17.528  0.00  0.00     0.361 A 
ATOM     14  N10 ZIN A   1      18.950  -0.141  17.179  0.00  0.00    -0.334 N 
ATOM     15  O12 ZIN A   1      19.759   1.395  18.606  0.00  0.00    -0.239 OA
ATOM     16  C9  ZIN A   1      18.397  -0.126  15.816  0.00  0.00     0.159 A 
ATOM     17  H26 ZIN A   1      19.061  -0.928  17.734  0.00  0.00     0.164 HD
ENDBRANCH  10  11
ENDBRANCH   1  10
TORSDOF 3
ENDMDL
MODEL 6
REMARK VINA RESULT:      -6.4      1.050      2.259
REMARK  3 active torsions:
REMARK  status: ('A' for Active; 'I' for Inactive)
REMARK    1  A    between atoms: C4_4  and  O5_5 
REMARK    2  A    between atoms: O5_5  and  C6_6 
REMARK    3  A    between atoms: C6_6  and  C7_7 
ROOT
ATOM      1  O5  ZIN A   1      18.662   0.749   8.442  0.00  0.00    -0.349 OA
ENDROOT
BRANCH   1   2
ATOM      2  C4  ZIN A   1      18.305   1.393   9.584  0.00  0.00     0.069 A 
ATOM      3  C3  ZIN A   1      18.198   2.776   9.597  0.00  0.00     0.043 A 
ATOM      4  C2  ZIN A   1      17.836   3.429  10.759  0.00  0.00    -0.059 A 
ATOM      5  C1  ZIN A   1      17.720   4.932  10.773  0.00  0.00     0.048 C 
ATOM      6  C17 ZIN A   1      17.585   2.706  11.910  0.00  0.00     0.013 A 
ATOM      7  C15 ZIN A   1      17.686   1.326  11.899  0.00  0.00    -0.059 A 
ATOM      8  C14 ZIN A   1      18.048   0.669  10.739  0.00  0.00     0.043 A 
ATOM      9  C16 ZIN A   1      17.406   0.540  13.153  0.00  0.00     0.048 C 
ENDBRANCH   1   2
BRANCH   1  10
ATOM     10  C6  ZIN A   1      17.673  -0.083   7.831  0.00  0.00     0.210 C 
BRANCH  10  11
ATOM     11  C7  ZIN A   1      17.687   0.135   6.317  0.00  0.00     0.175 A 
ATOM     12  O13 ZIN A   1      18.033  -1.101   5.625  0.00  0.00    -0.295 OA
ATOM     13  C11 ZIN A   1      19.166  -0.919   4.932  0.00  0.00     0.361 A 
ATOM     14  N10 ZIN A   1      19.678   0.315   5.043  0.00  0.00    -0.334 N 
ATOM     15  O12 ZIN A   1      19.681  -1.793   4.264  0.00  0.00    -0.239 OA
ATOM     16  C9  ZIN A   1      18.810   1.114   5.922  0.00  0.00     0.159 A 
ATOM     17  H26 ZIN A   1      20.489   0.630   4.614  0.00  0.00     0.164 HD
ENDBRANCH  10  11
ENDBRANCH   1  10
TORSDOF 3
ENDMDL
MODEL 7
REMARK VINA RESULT:      -6.1      3.919      5.729
REMARK  3 active torsions:
REMARK  status: ('A' for Active; 'I' for Inactive)
REMARK    1  A    between atoms: C4_4  and  O5_5 
REMARK    2  A    between atoms: O5_5  and  C6_6 
REMARK    3  A    between atoms: C6_6  and  C7_7 
ROOT
ATOM      1  O5  ZIN A   1      19.034  -2.531   8.610  0.00  0.00    -0.349 OA
ENDROOT
BRANCH   1   2
ATOM      2  C4  ZIN A   1      19.004  -1.318   7.998  0.00  0.00     0.069 A 
ATOM      3  C3  ZIN A   1      18.969  -1.240   6.613  0.00  0.00     0.043 A 
ATOM      4  C2  ZIN A   1      18.938  -0.007   5.992  0.00  0.00    -0.059 A 
ATOM      5  C1  ZIN A   1      18.901   0.078   4.488  0.00  0.00     0.048 C 
ATOM      6  C17 ZIN A   1      18.948   1.150   6.749  0.00  0.00     0.013 A 
ATOM      7  C15 ZIN A   1      18.978   1.075   8.130  0.00  0.00    -0.059 A 
ATOM      8  C14 ZIN A   1      19.009  -0.156   8.755  0.00  0.00     0.043 A 
ATOM      9  C16 ZIN A   1      18.983   2.338   8.953  0.00  0.00     0.048 C 
ENDBRANCH   1   2
BRANCH   1  10
ATOM     10  C6  ZIN A   1      18.177  -2.708   9.740  0.00  0.00     0.210 C 
BRANCH  10  11
ATOM     11  C7  ZIN A   1      18.532  -4.016  10.450  0.00  0.00     0.175 A 
ATOM     12  O13 ZIN A   1      19.725  -4.609   9.859  0.00  0.00    -0.295 OA
ATOM     13  C11 ZIN A   1      19.418  -5.812   9.353  0.00  0.00     0.361 A 
ATOM     14  N10 ZIN A   1      18.132  -6.157   9.514  0.00  0.00    -0.334 N 
ATOM     15  O12 ZIN A   1      20.230  -6.524   8.798  0.00  0.00    -0.239 OA
ATOM     16  C9  ZIN A   1      17.433  -5.071  10.219  0.00  0.00     0.159 A 
ATOM     17  H26 ZIN A   1      17.729  -6.986   9.215  0.00  0.00     0.164 HD
ENDBRANCH  10  11
ENDBRANCH   1  10
TORSDOF 3
ENDMDL
MODEL 8
REMARK VINA RESULT:      -6.1      4.440      6.204
REMARK  3 active torsions:
REMARK  status: ('A' for Active; 'I' for Inactive)
REMARK    1  A    between atoms: C4_4  and  O5_5 
REMARK    2  A    between atoms: O5_5  and  C6_6 
REMARK    3  A    between atoms: C6_6  and  C7_7 
ROOT
ATOM      1  O5  ZIN A   1      17.168   1.665  12.028  0.00  0.00    -0.349 OA
ENDROOT
BRANCH   1   2
ATOM      2  C4  ZIN A   1      17.634   0.638  12.786  0.00  0.00     0.069 A 
ATOM      3  C3  ZIN A   1      18.274  -0.435  12.183  0.00  0.00     0.043 A 
ATOM      4  C2  ZIN A   1      18.748  -1.478  12.955  0.00  0.00    -0.059 A 
ATOM      5  C1  ZIN A   1      19.443  -2.644  12.300  0.00  0.00     0.048 C 
ATOM      6  C17 ZIN A   1      18.578  -1.457  14.327  0.00  0.00     0.013 A 
ATOM      7  C15 ZIN A   1      17.945  -0.386  14.931  0.00  0.00    -0.059 A 
ATOM      8  C14 ZIN A   1      17.470   0.660  14.163  0.00  0.00     0.043 A 
ATOM      9  C16 ZIN A   1      17.767  -0.363  16.427  0.00  0.00     0.048 C 
ENDBRANCH   1   2
BRANCH   1  10
ATOM     10  C6  ZIN A   1      17.684   1.777  10.699  0.00  0.00     0.210 C 
BRANCH  10  11
ATOM     11  C7  ZIN A   1      18.192   3.201  10.467  0.00  0.00     0.175 A 
ATOM     12  O13 ZIN A   1      19.372   3.461  11.281  0.00  0.00    -0.295 OA
ATOM     13  C11 ZIN A   1      19.113   4.468  12.128  0.00  0.00     0.361 A 
ATOM     14  N10 ZIN A   1      17.873   4.967  12.014  0.00  0.00    -0.334 N 
ATOM     15  O12 ZIN A   1      19.926   4.889  12.925  0.00  0.00    -0.239 OA
ATOM     16  C9  ZIN A   1      17.158   4.230  10.962  0.00  0.00     0.159 A 
ATOM     17  H26 ZIN A   1      17.508   5.696  12.541  0.00  0.00     0.164 HD
ENDBRANCH  10  11
ENDBRANCH   1  10
TORSDOF 3
ENDMDL
MODEL 9
REMARK VINA RESULT:      -6.1      3.575      4.830
REMARK  3 active torsions:
REMARK  status: ('A' for Active; 'I' for Inactive)
REMARK    1  A    between atoms: C4_4  and  O5_5 
REMARK    2  A    between atoms: O5_5  and  C6_6 
REMARK    3  A    between atoms: C6_6  and  C7_7 
ROOT
ATOM      1  O5  ZIN A   1      20.103  -1.037  10.759  0.00  0.00    -0.349 OA
ENDROOT
BRANCH   1   2
ATOM      2  C4  ZIN A   1      19.696   0.106  10.148  0.00  0.00     0.069 A 
ATOM      3  C3  ZIN A   1      19.503   0.128   8.774  0.00  0.00     0.043 A 
ATOM      4  C2  ZIN A   1      19.090   1.291   8.154  0.00  0.00    -0.059 A 
ATOM      5  C1  ZIN A   1      18.881   1.316   6.662  0.00  0.00     0.048 C 
ATOM      6  C17 ZIN A   1      18.875   2.435   8.900  0.00  0.00     0.013 A 
ATOM      7  C15 ZIN A   1      19.063   2.415  10.271  0.00  0.00    -0.059 A 
ATOM      8  C14 ZIN A   1      19.476   1.254  10.895  0.00  0.00     0.043 A 
ATOM      9  C16 ZIN A   1      18.822   3.661  11.082  0.00  0.00     0.048 C 
ENDBRANCH   1   2
BRANCH   1  10
ATOM     10  C6  ZIN A   1      19.627  -1.267  12.087  0.00  0.00     0.210 C 
BRANCH  10  11
ATOM     11  C7  ZIN A   1      19.030  -2.672  12.180  0.00  0.00     0.175 A 
ATOM     12  O13 ZIN A   1      19.971  -3.661  11.669  0.00  0.00    -0.295 OA
ATOM     13  C11 ZIN A   1      19.428  -4.286  10.615  0.00  0.00     0.361 A 
ATOM     14  N10 ZIN A   1      18.194  -3.860  10.307  0.00  0.00    -0.334 N 
ATOM     15  O12 ZIN A   1      20.001  -5.159   9.995  0.00  0.00    -0.239 OA
ATOM     16  C9  ZIN A   1      17.806  -2.802  11.252  0.00  0.00     0.159 A 
ATOM     17  H26 ZIN A   1      17.647  -4.195   9.579  0.00  0.00     0.164 HD
ENDBRANCH  10  11
ENDBRANCH   1  10
TORSDOF 3
ENDMDL
