MODEL 1
REMARK VINA RESULT:      -6.4      0.000      0.000
REMARK  5 active torsions:
REMARK  status: ('A' for Active; 'I' for Inactive)
REMARK    1  A    between atoms: C2_2  and  C3_3 
REMARK    2  A    between atoms: C3_3  and  C4_4 
REMARK    3  A    between atoms: C4_4  and  C5_5 
REMARK    4  A    between atoms: C5_5  and  C8_7 
REMARK    5  A    between atoms: C9_8  and  C10_9 
ROOT
ATOM      1  C4  ZIN A   1      18.868  -0.509  11.332  0.00  0.00     0.139 A 
ATOM      2  C12 ZIN A   1      20.289  -1.005  11.145  0.00  0.00     0.245 A 
ATOM      3  O13 ZIN A   1      21.202  -0.233  10.937  0.00  0.00    -0.272 OA
ATOM      4  N14 ZIN A   1      20.501  -2.336  11.219  0.00  0.00    -0.278 N 
ATOM      5  C15 ZIN A   1      19.506  -3.200  11.449  0.00  0.00     0.331 A 
ATOM      6  O16 ZIN A   1      19.786  -4.381  11.500  0.00  0.00    -0.246 OA
ATOM      7  N17 ZIN A   1      18.225  -2.859  11.626  0.00  0.00    -0.273 N 
ATOM      8  C18 ZIN A   1      17.235  -3.912  11.869  0.00  0.00     0.164 C 
ATOM      9  C19 ZIN A   1      17.816  -1.573  11.586  0.00  0.00     0.247 A 
ATOM     10  O20 ZIN A   1      16.651  -1.278  11.748  0.00  0.00    -0.271 OA
ATOM     11  H34 ZIN A   1      21.402  -2.676  11.103  0.00  0.00     0.173 HD
ENDROOT
BRANCH   1  12
ATOM     12  C3  ZIN A   1      18.465   0.268  10.077  0.00  0.00     0.057 C 
BRANCH  12  13
ATOM     13  C2  ZIN A   1      18.352  -0.682   8.913  0.00  0.00    -0.035 C 
ATOM     14  C1  ZIN A   1      17.420  -0.502   8.009  0.00  0.00     0.007 C 
ENDBRANCH  12  13
ENDBRANCH   1  12
BRANCH   1  15
ATOM     15  C5  ZIN A   1      18.858   0.462  12.514  0.00  0.00     0.088 C 
ATOM     16  C7  ZIN A   1      17.697   1.445  12.357  0.00  0.00     0.025 C 
BRANCH  15  17
ATOM     17  C8  ZIN A   1      18.696  -0.293  13.767  0.00  0.00    -0.100 C 
ATOM     18  C9  ZIN A   1      18.566  -0.896  14.767  0.00  0.00    -0.106 C 
BRANCH  18  19
ATOM     19  C10 ZIN A   1      18.405  -1.651  16.020  0.00  0.00     0.089 C 
ATOM     20  C11 ZIN A   1      17.273  -1.034  16.845  0.00  0.00     0.018 C 
ENDBRANCH  18  19
ENDBRANCH  15  17
ENDBRANCH   1  15
TORSDOF 5
ENDMDL
MODEL 2
REMARK VINA RESULT:      -6.4      1.970      4.585
REMARK  5 active torsions:
REMARK  status: ('A' for Active; 'I' for Inactive)
REMARK    1  A    between atoms: C2_2  and  C3_3 
REMARK    2  A    between atoms: C3_3  and  C4_4 
REMARK    3  A    between atoms: C4_4  and  C5_5 
REMARK    4  A    between atoms: C5_5  and  C8_7 
REMARK    5  A    between atoms: C9_8  and  C10_9 
ROOT
ATOM      1  C4  ZIN A   1      18.910   0.349  11.217  0.00  0.00     0.139 A 
ATOM      2  C12 ZIN A   1      17.477   0.045  11.613  0.00  0.00     0.245 A 
ATOM      3  O13 ZIN A   1      16.652   0.928  11.709  0.00  0.00    -0.272 OA
ATOM      4  N14 ZIN A   1      17.155  -1.244  11.852  0.00  0.00    -0.278 N 
ATOM      5  C15 ZIN A   1      18.054  -2.229  11.749  0.00  0.00     0.331 A 
ATOM      6  O16 ZIN A   1      17.678  -3.360  11.982  0.00  0.00    -0.246 OA
ATOM      7  N17 ZIN A   1      19.336  -2.060  11.408  0.00  0.00    -0.273 N 
ATOM      8  C18 ZIN A   1      20.213  -3.232  11.333  0.00  0.00     0.164 C 
ATOM      9  C19 ZIN A   1      19.847  -0.842  11.130  0.00  0.00     0.247 A 
ATOM     10  O20 ZIN A   1      21.012  -0.703  10.823  0.00  0.00    -0.271 OA
ATOM     11  H34 ZIN A   1      16.245  -1.461  12.107  0.00  0.00     0.173 HD
ENDROOT
BRANCH   1  12
ATOM     12  C3  ZIN A   1      19.487   1.334  12.235  0.00  0.00     0.057 C 
BRANCH  12  13
ATOM     13  C2  ZIN A   1      19.610   0.658  13.576  0.00  0.00    -0.035 C 
ATOM     14  C1  ZIN A   1      19.213   1.277  14.661  0.00  0.00     0.007 C 
ENDBRANCH  12  13
ENDBRANCH   1  12
BRANCH   1  15
ATOM     15  C5  ZIN A   1      18.887   1.037   9.852  0.00  0.00     0.088 C 
ATOM     16  C7  ZIN A   1      17.929   0.293   8.920  0.00  0.00     0.025 C 
BRANCH  15  17
ATOM     17  C8  ZIN A   1      18.435   2.428  10.012  0.00  0.00    -0.100 C 
ATOM     18  C9  ZIN A   1      18.074   3.538  10.139  0.00  0.00    -0.106 C 
BRANCH  18  19
ATOM     19  C10 ZIN A   1      17.621   4.930  10.299  0.00  0.00     0.089 C 
ATOM     20  C11 ZIN A   1      16.651   5.019  11.479  0.00  0.00     0.018 C 
ENDBRANCH  18  19
ENDBRANCH  15  17
ENDBRANCH   1  15
TORSDOF 5
ENDMDL
MODEL 3
REMARK VINA RESULT:      -6.4      2.079      3.474
REMARK  5 active torsions:
REMARK  status: ('A' for Active; 'I' for Inactive)
REMARK    1  A    between atoms: C2_2  and  C3_3 
REMARK    2  A    between atoms: C3_3  and  C4_4 
REMARK    3  A    between atoms: C4_4  and  C5_5 
REMARK    4  A    between atoms: C5_5  and  C8_7 
REMARK    5  A    between atoms: C9_8  and  C10_9 
ROOT
ATOM      1  C4  ZIN A   1      18.338   0.079  12.654  0.00  0.00     0.139 A 
ATOM      2  C12 ZIN A   1      19.830   0.277  12.461  0.00  0.00     0.245 A 
ATOM      3  O13 ZIN A   1      20.589   0.296  13.406  0.00  0.00    -0.272 OA
ATOM      4  N14 ZIN A   1      20.280   0.431  11.198  0.00  0.00    -0.278 N 
ATOM      5  C15 ZIN A   1      19.456   0.412  10.144  0.00  0.00     0.331 A 
ATOM      6  O16 ZIN A   1      19.948   0.558   9.043  0.00  0.00    -0.246 OA
ATOM      7  N17 ZIN A   1      18.131   0.245  10.215  0.00  0.00    -0.273 N 
ATOM      8  C18 ZIN A   1      17.347   0.245   8.977  0.00  0.00     0.164 C 
ATOM      9  C19 ZIN A   1      17.495   0.075  11.393  0.00  0.00     0.247 A 
ATOM     10  O20 ZIN A   1      16.292  -0.076  11.442  0.00  0.00    -0.271 OA
ATOM     11  H34 ZIN A   1      21.231   0.559  11.050  0.00  0.00     0.173 HD
ENDROOT
BRANCH   1  12
ATOM     12  C3  ZIN A   1      17.824   1.194  13.566  0.00  0.00     0.057 C 
BRANCH  12  13
ATOM     13  C2  ZIN A   1      18.036   2.529  12.898  0.00  0.00    -0.035 C 
ATOM     14  C1  ZIN A   1      18.514   3.536  13.585  0.00  0.00     0.007 C 
ENDBRANCH  12  13
ENDBRANCH   1  12
BRANCH   1  15
ATOM     15  C5  ZIN A   1      18.128  -1.255  13.371  0.00  0.00     0.088 C 
ATOM     16  C7  ZIN A   1      19.007  -2.327  12.725  0.00  0.00     0.025 C 
BRANCH  15  17
ATOM     17  C8  ZIN A   1      18.493  -1.111  14.790  0.00  0.00    -0.100 C 
ATOM     18  C9  ZIN A   1      18.784  -0.997  15.922  0.00  0.00    -0.106 C 
BRANCH  18  19
ATOM     19  C10 ZIN A   1      19.149  -0.853  17.341  0.00  0.00     0.089 C 
ATOM     20  C11 ZIN A   1      19.193   0.631  17.709  0.00  0.00     0.018 C 
ENDBRANCH  18  19
ENDBRANCH  15  17
ENDBRANCH   1  15
TORSDOF 5
ENDMDL
MODEL 4
REMARK VINA RESULT:      -6.4      2.079      5.139
REMARK  5 active torsions:
REMARK  status: ('A' for Active; 'I' for Inactive)
REMARK    1  A    between atoms: C2_2  and  C3_3 
REMARK    2  A    between atoms: C3_3  and  C4_4 
REMARK    3  A    between atoms: C4_4  and  C5_5 
REMARK    4  A    between atoms: C5_5  and  C8_7 
REMARK    5  A    between atoms: C9_8  and  C10_9 
ROOT
ATOM      1  C4  ZIN A   1      18.211  -0.170  10.378  0.00  0.00     0.139 A 
ATOM      2  C12 ZIN A   1      19.727  -0.159  10.431  0.00  0.00     0.245 A 
ATOM      3  O13 ZIN A   1      20.392  -0.345   9.434  0.00  0.00    -0.272 OA
ATOM      4  N14 ZIN A   1      20.308   0.067  11.628  0.00  0.00    -0.278 N 
ATOM      5  C15 ZIN A   1      19.588   0.276  12.736  0.00  0.00     0.331 A 
ATOM      6  O16 ZIN A   1      20.194   0.472  13.771  0.00  0.00    -0.246 OA
ATOM      7  N17 ZIN A   1      18.252   0.284  12.789  0.00  0.00    -0.273 N 
ATOM      8  C18 ZIN A   1      17.591   0.526  14.074  0.00  0.00     0.164 C 
ATOM      9  C19 ZIN A   1      17.493   0.076  11.692  0.00  0.00     0.247 A 
ATOM     10  O20 ZIN A   1      16.282   0.086  11.753  0.00  0.00    -0.271 OA
ATOM     11  H34 ZIN A   1      21.276   0.079  11.686  0.00  0.00     0.173 HD
ENDROOT
BRANCH   1  12
ATOM     12  C3  ZIN A   1      17.763  -1.530   9.839  0.00  0.00     0.057 C 
BRANCH  12  13
ATOM     13  C2  ZIN A   1      18.183  -2.614  10.799  0.00  0.00    -0.035 C 
ATOM     14  C1  ZIN A   1      17.339  -3.560  11.128  0.00  0.00     0.007 C 
ENDBRANCH  12  13
ENDBRANCH   1  12
BRANCH   1  15
ATOM     15  C5  ZIN A   1      17.765   0.903   9.384  0.00  0.00     0.088 C 
ATOM     16  C7  ZIN A   1      18.670   2.129   9.515  0.00  0.00     0.025 C 
BRANCH  15  17
ATOM     17  C8  ZIN A   1      17.855   0.370   8.014  0.00  0.00    -0.100 C 
ATOM     18  C9  ZIN A   1      17.927  -0.054   6.921  0.00  0.00    -0.106 C 
BRANCH  18  19
ATOM     19  C10 ZIN A   1      18.017  -0.586   5.552  0.00  0.00     0.089 C 
ATOM     20  C11 ZIN A   1      19.309  -0.094   4.897  0.00  0.00     0.018 C 
ENDBRANCH  18  19
ENDBRANCH  15  17
ENDBRANCH   1  15
TORSDOF 5
ENDMDL
MODEL 5
REMARK VINA RESULT:      -6.2      2.609      5.808
REMARK  5 active torsions:
REMARK  status: ('A' for Active; 'I' for Inactive)
REMARK    1  A    between atoms: C2_2  and  C3_3 
REMARK    2  A    between atoms: C3_3  and  C4_4 
REMARK    3  A    between atoms: C4_4  and  C5_5 
REMARK    4  A    between atoms: C5_5  and  C8_7 
REMARK    5  A    between atoms: C9_8  and  C10_9 
ROOT
ATOM      1  C4  ZIN A   1      18.935   0.478  11.874  0.00  0.00     0.139 A 
ATOM      2  C12 ZIN A   1      20.336   1.031  12.054  0.00  0.00     0.245 A 
ATOM      3  O13 ZIN A   1      21.281   0.296  12.251  0.00  0.00    -0.272 OA
ATOM      4  N14 ZIN A   1      20.493   2.370  11.987  0.00  0.00    -0.278 N 
ATOM      5  C15 ZIN A   1      19.461   3.193  11.769  0.00  0.00     0.331 A 
ATOM      6  O16 ZIN A   1      19.693   4.385  11.723  0.00  0.00    -0.246 OA
ATOM      7  N17 ZIN A   1      18.194   2.801  11.599  0.00  0.00    -0.273 N 
ATOM      8  C18 ZIN A   1      17.160   3.814  11.368  0.00  0.00     0.164 C 
ATOM      9  C19 ZIN A   1      17.839   1.499  11.633  0.00  0.00     0.247 A 
ATOM     10  O20 ZIN A   1      16.685   1.157  11.477  0.00  0.00    -0.271 OA
ATOM     11  H34 ZIN A   1      21.380   2.746  12.099  0.00  0.00     0.173 HD
ENDROOT
BRANCH   1  12
ATOM     12  C3  ZIN A   1      18.574  -0.322  13.126  0.00  0.00     0.057 C 
BRANCH  12  13
ATOM     13  C2  ZIN A   1      18.532   0.600  14.317  0.00  0.00    -0.035 C 
ATOM     14  C1  ZIN A   1      17.603   0.451  15.229  0.00  0.00     0.007 C 
ENDBRANCH  12  13
ENDBRANCH   1  12
BRANCH   1  15
ATOM     15  C5  ZIN A   1      18.957  -0.485  10.686  0.00  0.00     0.088 C 
ATOM     16  C7  ZIN A   1      17.705  -1.363  10.717  0.00  0.00     0.025 C 
BRANCH  15  17
ATOM     17  C8  ZIN A   1      18.986   0.284   9.431  0.00  0.00    -0.100 C 
ATOM     18  C9  ZIN A   1      19.009   0.897   8.430  0.00  0.00    -0.106 C 
BRANCH  18  19
ATOM     19  C10 ZIN A   1      19.039   1.667   7.175  0.00  0.00     0.089 C 
ATOM     20  C11 ZIN A   1      18.941   0.708   5.987  0.00  0.00     0.018 C 
ENDBRANCH  18  19
ENDBRANCH  15  17
ENDBRANCH   1  15
TORSDOF 5
ENDMDL
MODEL 6
REMARK VINA RESULT:      -6.2      2.007      4.243
REMARK  5 active torsions:
REMARK  status: ('A' for Active; 'I' for Inactive)
REMARK    1  A    between atoms: C2_2  and  C3_3 
REMARK    2  A    between atoms: C3_3  and  C4_4 
REMARK    3  A    between atoms: C4_4  and  C5_5 
REMARK    4  A    between atoms: C5_5  and  C8_7 
REMARK    5  A    between atoms: C9_8  and  C10_9 
ROOT
ATOM      1  C4  ZIN A   1      18.875  -0.597  10.860  0.00  0.00     0.139 A 
ATOM      2  C12 ZIN A   1      20.317  -0.322  11.244  0.00  0.00     0.245 A 
ATOM      3  O13 ZIN A   1      21.224  -0.528  10.467  0.00  0.00    -0.272 OA
ATOM      4  N14 ZIN A   1      20.551   0.162  12.483  0.00  0.00    -0.278 N 
ATOM      5  C15 ZIN A   1      19.561   0.396  13.351  0.00  0.00     0.331 A 
ATOM      6  O16 ZIN A   1      19.862   0.832  14.444  0.00  0.00    -0.246 OA
ATOM      7  N17 ZIN A   1      18.263   0.185  13.104  0.00  0.00    -0.273 N 
ATOM      8  C18 ZIN A   1      17.282   0.485  14.150  0.00  0.00     0.164 C 
ATOM      9  C19 ZIN A   1      17.831  -0.297  11.920  0.00  0.00     0.247 A 
ATOM     10  O20 ZIN A   1      16.651  -0.484  11.709  0.00  0.00    -0.271 OA
ATOM     11  H34 ZIN A   1      21.465   0.345  12.750  0.00  0.00     0.173 HD
ENDROOT
BRANCH   1  12
ATOM     12  C3  ZIN A   1      18.757  -2.074  10.480  0.00  0.00     0.057 C 
BRANCH  12  13
ATOM     13  C2  ZIN A   1      19.133  -2.929  11.663  0.00  0.00    -0.035 C 
ATOM     14  C1  ZIN A   1      19.960  -3.934  11.508  0.00  0.00     0.007 C 
ENDBRANCH  12  13
ENDBRANCH   1  12
BRANCH   1  15
ATOM     15  C5  ZIN A   1      18.549   0.238   9.621  0.00  0.00     0.088 C 
ATOM     16  C7  ZIN A   1      17.306  -0.329   8.935  0.00  0.00     0.025 C 
BRANCH  15  17
ATOM     17  C8  ZIN A   1      18.296   1.632  10.022  0.00  0.00    -0.100 C 
ATOM     18  C9  ZIN A   1      18.094   2.744  10.342  0.00  0.00    -0.106 C 
BRANCH  18  19
ATOM     19  C10 ZIN A   1      17.841   4.137  10.743  0.00  0.00     0.089 C 
ATOM     20  C11 ZIN A   1      18.741   4.499  11.927  0.00  0.00     0.018 C 
ENDBRANCH  18  19
ENDBRANCH  15  17
ENDBRANCH   1  15
TORSDOF 5
ENDMDL
MODEL 7
REMARK VINA RESULT:      -6.2      2.127      3.556
REMARK  5 active torsions:
REMARK  status: ('A' for Active; 'I' for Inactive)
REMARK    1  A    between atoms: C2_2  and  C3_3 
REMARK    2  A    between atoms: C3_3  and  C4_4 
REMARK    3  A    between atoms: C4_4  and  C5_5 
REMARK    4  A    between atoms: C5_5  and  C8_7 
REMARK    5  A    between atoms: C9_8  and  C10_9 
ROOT
ATOM      1  C4  ZIN A   1      18.924   0.648  11.899  0.00  0.00     0.139 A 
ATOM      2  C12 ZIN A   1      20.350   0.392  11.450  0.00  0.00     0.245 A 
ATOM      3  O13 ZIN A   1      21.287   0.568  12.200  0.00  0.00    -0.272 OA
ATOM      4  N14 ZIN A   1      20.538  -0.040  10.185  0.00  0.00    -0.278 N 
ATOM      5  C15 ZIN A   1      19.516  -0.240   9.345  0.00  0.00     0.331 A 
ATOM      6  O16 ZIN A   1      19.777  -0.630   8.224  0.00  0.00    -0.246 OA
ATOM      7  N17 ZIN A   1      18.229  -0.042   9.649  0.00  0.00    -0.273 N 
ATOM      8  C18 ZIN A   1      17.209  -0.301   8.629  0.00  0.00     0.164 C 
ATOM      9  C19 ZIN A   1      17.841   0.390  10.867  0.00  0.00     0.247 A 
ATOM     10  O20 ZIN A   1      16.670   0.566  11.129  0.00  0.00    -0.271 OA
ATOM     11  H34 ZIN A   1      21.442  -0.210   9.876  0.00  0.00     0.173 HD
ENDROOT
BRANCH   1  12
ATOM     12  C3  ZIN A   1      18.820   2.108  12.343  0.00  0.00     0.057 C 
BRANCH  12  13
ATOM     13  C2  ZIN A   1      19.114   3.012  11.174  0.00  0.00    -0.035 C 
ATOM     14  C1  ZIN A   1      18.254   3.940  10.831  0.00  0.00     0.007 C 
ENDBRANCH  12  13
ENDBRANCH   1  12
BRANCH   1  15
ATOM     15  C5  ZIN A   1      18.645  -0.238  13.113  0.00  0.00     0.088 C 
ATOM     16  C7  ZIN A   1      17.407   0.278  13.849  0.00  0.00     0.025 C 
BRANCH  15  17
ATOM     17  C8  ZIN A   1      18.411  -1.621  12.667  0.00  0.00    -0.100 C 
ATOM     18  C9  ZIN A   1      18.223  -2.725  12.311  0.00  0.00    -0.106 C 
BRANCH  18  19
ATOM     19  C10 ZIN A   1      17.989  -4.108  11.866  0.00  0.00     0.089 C 
ATOM     20  C11 ZIN A   1      19.217  -4.615  11.108  0.00  0.00     0.018 C 
ENDBRANCH  18  19
ENDBRANCH  15  17
ENDBRANCH   1  15
TORSDOF 5
ENDMDL
MODEL 8
REMARK VINA RESULT:      -6.0      2.612      5.645
REMARK  5 active torsions:
REMARK  status: ('A' for Active; 'I' for Inactive)
REMARK    1  A    between atoms: C2_2  and  C3_3 
REMARK    2  A    between atoms: C3_3  and  C4_4 
REMARK    3  A    between atoms: C4_4  and  C5_5 
REMARK    4  A    between atoms: C5_5  and  C8_7 
REMARK    5  A    between atoms: C9_8  and  C10_9 
ROOT
ATOM      1  C4  ZIN A   1      19.001   0.756  10.566  0.00  0.00     0.139 A 
ATOM      2  C12 ZIN A   1      17.526   0.411  10.642  0.00  0.00     0.245 A 
ATOM      3  O13 ZIN A   1      16.837   0.374   9.645  0.00  0.00    -0.272 OA
ATOM      4  N14 ZIN A   1      17.009   0.146  11.861  0.00  0.00    -0.278 N 
ATOM      5  C15 ZIN A   1      17.756   0.181  12.970  0.00  0.00     0.331 A 
ATOM      6  O16 ZIN A   1      17.208  -0.071  14.025  0.00  0.00    -0.246 OA
ATOM      7  N17 ZIN A   1      19.060   0.474  13.003  0.00  0.00    -0.273 N 
ATOM      8  C18 ZIN A   1      19.757   0.476  14.292  0.00  0.00     0.164 C 
ATOM      9  C19 ZIN A   1      19.755   0.768  11.884  0.00  0.00     0.247 A 
ATOM     10  O20 ZIN A   1      20.938   1.032  11.928  0.00  0.00    -0.271 OA
ATOM     11  H34 ZIN A   1      16.067  -0.077  11.933  0.00  0.00     0.173 HD
ENDROOT
BRANCH   1  12
ATOM     12  C3  ZIN A   1      19.135   2.140   9.929  0.00  0.00     0.057 C 
BRANCH  12  13
ATOM     13  C2  ZIN A   1      18.443   3.161  10.795  0.00  0.00    -0.035 C 
ATOM     14  C1  ZIN A   1      17.805   4.163  10.243  0.00  0.00     0.007 C 
ENDBRANCH  12  13
ENDBRANCH   1  12
BRANCH   1  15
ATOM     15  C5  ZIN A   1      19.676  -0.259   9.642  0.00  0.00     0.088 C 
ATOM     16  C7  ZIN A   1      19.231  -1.672  10.022  0.00  0.00     0.025 C 
BRANCH  15  17
ATOM     17  C8  ZIN A   1      19.293   0.018   8.248  0.00  0.00    -0.100 C 
ATOM     18  C9  ZIN A   1      18.987   0.239   7.136  0.00  0.00    -0.106 C 
BRANCH  18  19
ATOM     19  C10 ZIN A   1      18.604   0.516   5.742  0.00  0.00     0.089 C 
ATOM     20  C11 ZIN A   1      19.380  -0.412   4.805  0.00  0.00     0.018 C 
ENDBRANCH  18  19
ENDBRANCH  15  17
ENDBRANCH   1  15
TORSDOF 5
ENDMDL
MODEL 9
REMARK VINA RESULT:      -5.9      1.688      3.440
REMARK  5 active torsions:
REMARK  status: ('A' for Active; 'I' for Inactive)
REMARK    1  A    between atoms: C2_2  and  C3_3 
REMARK    2  A    between atoms: C3_3  and  C4_4 
REMARK    3  A    between atoms: C4_4  and  C5_5 
REMARK    4  A    between atoms: C5_5  and  C8_7 
REMARK    5  A    between atoms: C9_8  and  C10_9 
ROOT
ATOM      1  C4  ZIN A   1      18.505  -1.649  11.693  0.00  0.00     0.139 A 
ATOM      2  C12 ZIN A   1      17.383  -0.632  11.603  0.00  0.00     0.245 A 
ATOM      3  O13 ZIN A   1      16.816  -0.233  12.598  0.00  0.00    -0.272 OA
ATOM      4  N14 ZIN A   1      17.040  -0.188  10.375  0.00  0.00    -0.278 N 
ATOM      5  C15 ZIN A   1      17.657  -0.617   9.269  0.00  0.00     0.331 A 
ATOM      6  O16 ZIN A   1      17.284  -0.164   8.205  0.00  0.00    -0.246 OA
ATOM      7  N17 ZIN A   1      18.653  -1.509   9.247  0.00  0.00    -0.273 N 
ATOM      8  C18 ZIN A   1      19.239  -1.892   7.960  0.00  0.00     0.164 C 
ATOM      9  C19 ZIN A   1      19.135  -2.069  10.377  0.00  0.00     0.247 A 
ATOM     10  O20 ZIN A   1      20.039  -2.877  10.344  0.00  0.00    -0.271 OA
ATOM     11  H34 ZIN A   1      16.325   0.463  10.294  0.00  0.00     0.173 HD
ENDROOT
BRANCH   1  12
ATOM     12  C3  ZIN A   1      17.958  -2.902  12.379  0.00  0.00     0.057 C 
BRANCH  12  13
ATOM     13  C2  ZIN A   1      17.097  -3.671  11.411  0.00  0.00    -0.035 C 
ATOM     14  C1  ZIN A   1      17.053  -4.979  11.468  0.00  0.00     0.007 C 
ENDBRANCH  12  13
ENDBRANCH   1  12
BRANCH   1  15
ATOM     15  C5  ZIN A   1      19.603  -1.063  12.581  0.00  0.00     0.088 C 
ATOM     16  C7  ZIN A   1      19.816   0.409  12.227  0.00  0.00     0.025 C 
BRANCH  15  17
ATOM     17  C8  ZIN A   1      19.204  -1.176  13.993  0.00  0.00    -0.100 C 
ATOM     18  C9  ZIN A   1      18.885  -1.265  15.120  0.00  0.00    -0.106 C 
BRANCH  18  19
ATOM     19  C10 ZIN A   1      18.486  -1.378  16.533  0.00  0.00     0.089 C 
ATOM     20  C11 ZIN A   1      17.113  -0.730  16.727  0.00  0.00     0.018 C 
ENDBRANCH  18  19
ENDBRANCH  15  17
ENDBRANCH   1  15
TORSDOF 5
ENDMDL
