MODEL 1
REMARK VINA RESULT:      -7.7      0.000      0.000
REMARK  7 active torsions:
REMARK  status: ('A' for Active; 'I' for Inactive)
REMARK    1  A    between atoms: N2_2  and  C5_5 
REMARK    2  A    between atoms: C5_5  and  C6_6 
REMARK    3  A    between atoms: C6_6  and  C7_7 
REMARK    4  A    between atoms: C7_7  and  O9_8 
REMARK    5  A    between atoms: C7_7  and  C20_19 
REMARK    6  A    between atoms: O9_8  and  C10_9 
REMARK    7  A    between atoms: C13_12  and  C14_13 
ROOT
ATOM      1  C7  ZIN A   1      18.804   1.622  11.011  0.00  0.00     0.163 C 
ENDROOT
BRANCH   1   2
ATOM      2  C6  ZIN A   1      19.684   2.874  10.983  0.00  0.00     0.065 C 
BRANCH   2   3
ATOM      3  C5  ZIN A   1      19.041   3.967  11.838  0.00  0.00     0.234 C 
BRANCH   3   4
ATOM      4  N2  ZIN A   1      19.780   4.098  13.102  0.00  0.00    -0.079 N 
ATOM      5  C1  ZIN A   1      18.846   4.444  14.182  0.00  0.00     0.266 C 
ATOM      6  H3  ZIN A   1      20.475   4.824  13.012  0.00  0.00     0.276 HD
ATOM      7  H4  ZIN A   1      20.234   3.222  13.318  0.00  0.00     0.276 HD
ENDBRANCH   3   4
ENDBRANCH   2   3
ENDBRANCH   1   2
BRANCH   1   8
ATOM      8  O9  ZIN A   1      19.481   0.579  11.717  0.00  0.00    -0.341 OA
BRANCH   8   9
ATOM      9  C10 ZIN A   1      18.986   0.236  12.934  0.00  0.00     0.069 A 
ATOM     10  C19 ZIN A   1      17.879   0.897  13.447  0.00  0.00     0.037 A 
ATOM     11  C18 ZIN A   1      17.375   0.543  14.683  0.00  0.00     0.019 A 
ATOM     12  C13 ZIN A   1      17.979  -0.463  15.415  0.00  0.00     0.048 A 
ATOM     13  C12 ZIN A   1      19.086  -1.118  14.910  0.00  0.00     0.019 A 
ATOM     14  C11 ZIN A   1      19.592  -0.772  13.672  0.00  0.00     0.037 A 
BRANCH  12  15
ATOM     15  C14 ZIN A   1      17.430  -0.842  16.766  0.00  0.00     0.417 C 
ATOM     16  F15 ZIN A   1      16.269  -0.105  17.022  0.00  0.00    -0.166 F 
ATOM     17  F16 ZIN A   1      17.128  -2.207  16.781  0.00  0.00    -0.166 F 
ATOM     18  F17 ZIN A   1      18.385  -0.565  17.750  0.00  0.00    -0.166 F 
ENDBRANCH  12  15
ENDBRANCH   8   9
ENDBRANCH   1   8
BRANCH   1  19
ATOM     19  C20 ZIN A   1      18.523   1.174   9.601  0.00  0.00    -0.029 A 
ATOM     20  C25 ZIN A   1      17.567   0.205   9.360  0.00  0.00     0.010 A 
ATOM     21  C24 ZIN A   1      17.306  -0.202   8.065  0.00  0.00     0.001 A 
ATOM     22  C23 ZIN A   1      18.008   0.351   7.012  0.00  0.00     0.000 A 
ATOM     23  C22 ZIN A   1      18.970   1.315   7.252  0.00  0.00     0.001 A 
ATOM     24  C21 ZIN A   1      19.227   1.726   8.546  0.00  0.00     0.010 A 
ENDBRANCH   1  19
TORSDOF 7
ENDMDL
MODEL 2
REMARK VINA RESULT:      -7.6      2.006      4.033
REMARK  7 active torsions:
REMARK  status: ('A' for Active; 'I' for Inactive)
REMARK    1  A    between atoms: N2_2  and  C5_5 
REMARK    2  A    between atoms: C5_5  and  C6_6 
REMARK    3  A    between atoms: C6_6  and  C7_7 
REMARK    4  A    between atoms: C7_7  and  O9_8 
REMARK    5  A    between atoms: C7_7  and  C20_19 
REMARK    6  A    between atoms: O9_8  and  C10_9 
REMARK    7  A    between atoms: C13_12  and  C14_13 
ROOT
ATOM      1  C7  ZIN A   1      19.407   0.915  10.452  0.00  0.00     0.163 C 
ENDROOT
BRANCH   1   2
ATOM      2  C6  ZIN A   1      19.520   0.811   8.929  0.00  0.00     0.065 C 
BRANCH   2   3
ATOM      3  C5  ZIN A   1      18.878  -0.496   8.460  0.00  0.00     0.234 C 
BRANCH   3   4
ATOM      4  N2  ZIN A   1      19.709  -1.631   8.888  0.00  0.00    -0.079 N 
ATOM      5  C1  ZIN A   1      18.879  -2.840   8.973  0.00  0.00     0.266 C 
ATOM      6  H3  ZIN A   1      20.110  -1.432   9.792  0.00  0.00     0.276 HD
ATOM      7  H4  ZIN A   1      20.449  -1.777   8.216  0.00  0.00     0.276 HD
ENDBRANCH   3   4
ENDBRANCH   2   3
ENDBRANCH   1   2
BRANCH   1   8
ATOM      8  O9  ZIN A   1      18.441  -0.027  10.924  0.00  0.00    -0.341 OA
BRANCH   8   9
ATOM      9  C10 ZIN A   1      18.442  -0.296  12.255  0.00  0.00     0.069 A 
ATOM     10  C19 ZIN A   1      19.375  -1.174  12.787  0.00  0.00     0.037 A 
ATOM     11  C18 ZIN A   1      19.377  -1.442  14.142  0.00  0.00     0.019 A 
ATOM     12  C13 ZIN A   1      18.442  -0.844  14.968  0.00  0.00     0.048 A 
ATOM     13  C12 ZIN A   1      17.506   0.026  14.440  0.00  0.00     0.019 A 
ATOM     14  C11 ZIN A   1      17.504   0.302  13.086  0.00  0.00     0.037 A 
BRANCH  12  15
ATOM     15  C14 ZIN A   1      18.442  -1.144  16.444  0.00  0.00     0.417 C 
ATOM     16  F15 ZIN A   1      19.538  -1.956  16.756  0.00  0.00    -0.166 F 
ATOM     17  F16 ZIN A   1      18.529   0.052  17.163  0.00  0.00    -0.166 F 
ATOM     18  F17 ZIN A   1      17.258  -1.807  16.785  0.00  0.00    -0.166 F 
ENDBRANCH  12  15
ENDBRANCH   8   9
ENDBRANCH   1   8
BRANCH   1  19
ATOM     19  C20 ZIN A   1      18.977   2.308  10.830  0.00  0.00    -0.029 A 
ATOM     20  C25 ZIN A   1      19.745   3.056  11.703  0.00  0.00     0.010 A 
ATOM     21  C24 ZIN A   1      19.352   4.337  12.046  0.00  0.00     0.001 A 
ATOM     22  C23 ZIN A   1      18.187   4.866  11.523  0.00  0.00     0.000 A 
ATOM     23  C22 ZIN A   1      17.416   4.116  10.655  0.00  0.00     0.001 A 
ATOM     24  C21 ZIN A   1      17.811   2.838  10.308  0.00  0.00     0.010 A 
ENDBRANCH   1  19
TORSDOF 7
ENDMDL
MODEL 3
REMARK VINA RESULT:      -7.6      4.300      6.687
REMARK  7 active torsions:
REMARK  status: ('A' for Active; 'I' for Inactive)
REMARK    1  A    between atoms: N2_2  and  C5_5 
REMARK    2  A    between atoms: C5_5  and  C6_6 
REMARK    3  A    between atoms: C6_6  and  C7_7 
REMARK    4  A    between atoms: C7_7  and  O9_8 
REMARK    5  A    between atoms: C7_7  and  C20_19 
REMARK    6  A    between atoms: O9_8  and  C10_9 
REMARK    7  A    between atoms: C13_12  and  C14_13 
ROOT
ATOM      1  C7  ZIN A   1      18.430   2.012  12.739  0.00  0.00     0.163 C 
ENDROOT
BRANCH   1   2
ATOM      2  C6  ZIN A   1      18.193   3.274  13.571  0.00  0.00     0.065 C 
BRANCH   2   3
ATOM      3  C5  ZIN A   1      18.214   4.499  12.654  0.00  0.00     0.234 C 
BRANCH   3   4
ATOM      4  N2  ZIN A   1      16.843   4.818  12.232  0.00  0.00    -0.079 N 
ATOM      5  C1  ZIN A   1      16.849   5.235  10.823  0.00  0.00     0.266 C 
ATOM      6  H3  ZIN A   1      16.481   5.566  12.803  0.00  0.00     0.276 HD
ATOM      7  H4  ZIN A   1      16.260   4.000  12.338  0.00  0.00     0.276 HD
ENDBRANCH   3   4
ENDBRANCH   2   3
ENDBRANCH   1   2
BRANCH   1   8
ATOM      8  O9  ZIN A   1      17.359   1.847  11.807  0.00  0.00    -0.341 OA
BRANCH   8   9
ATOM      9  C10 ZIN A   1      17.693   1.465  10.547  0.00  0.00     0.069 A 
ATOM     10  C19 ZIN A   1      18.590   2.218   9.805  0.00  0.00     0.037 A 
ATOM     11  C18 ZIN A   1      18.931   1.825   8.526  0.00  0.00     0.019 A 
ATOM     12  C13 ZIN A   1      18.370   0.685   7.979  0.00  0.00     0.048 A 
ATOM     13  C12 ZIN A   1      17.470  -0.065   8.713  0.00  0.00     0.019 A 
ATOM     14  C11 ZIN A   1      17.130   0.321   9.996  0.00  0.00     0.037 A 
BRANCH  12  15
ATOM     15  C14 ZIN A   1      18.739   0.261   6.582  0.00  0.00     0.417 C 
ATOM     16  F15 ZIN A   1      19.488  -0.920   6.634  0.00  0.00    -0.166 F 
ATOM     17  F16 ZIN A   1      17.575   0.042   5.838  0.00  0.00    -0.166 F 
ATOM     18  F17 ZIN A   1      19.498   1.268   5.975  0.00  0.00    -0.166 F 
ENDBRANCH  12  15
ENDBRANCH   8   9
ENDBRANCH   1   8
BRANCH   1  19
ATOM     19  C20 ZIN A   1      18.490   0.814  13.651  0.00  0.00    -0.029 A 
ATOM     20  C25 ZIN A   1      17.628   0.720  14.727  0.00  0.00     0.010 A 
ATOM     21  C24 ZIN A   1      17.680  -0.382  15.561  0.00  0.00     0.001 A 
ATOM     22  C23 ZIN A   1      18.601  -1.384  15.325  0.00  0.00     0.000 A 
ATOM     23  C22 ZIN A   1      19.468  -1.288  14.252  0.00  0.00     0.001 A 
ATOM     24  C21 ZIN A   1      19.412  -0.189  13.415  0.00  0.00     0.010 A 
ENDBRANCH   1  19
TORSDOF 7
ENDMDL
MODEL 4
REMARK VINA RESULT:      -7.5      4.147      6.566
REMARK  7 active torsions:
REMARK  status: ('A' for Active; 'I' for Inactive)
REMARK    1  A    between atoms: N2_2  and  C5_5 
REMARK    2  A    between atoms: C5_5  and  C6_6 
REMARK    3  A    between atoms: C6_6  and  C7_7 
REMARK    4  A    between atoms: C7_7  and  O9_8 
REMARK    5  A    between atoms: C7_7  and  C20_19 
REMARK    6  A    between atoms: O9_8  and  C10_9 
REMARK    7  A    between atoms: C13_12  and  C14_13 
ROOT
ATOM      1  C7  ZIN A   1      18.782   2.176  13.110  0.00  0.00     0.163 C 
ENDROOT
BRANCH   1   2
ATOM      2  C6  ZIN A   1      18.738   3.400  14.028  0.00  0.00     0.065 C 
BRANCH   2   3
ATOM      3  C5  ZIN A   1      18.954   4.667  13.199  0.00  0.00     0.234 C 
BRANCH   3   4
ATOM      4  N2  ZIN A   1      17.678   5.081  12.597  0.00  0.00    -0.079 N 
ATOM      5  C1  ZIN A   1      16.716   5.400  13.659  0.00  0.00     0.266 C 
ATOM      6  H3  ZIN A   1      17.316   4.331  12.028  0.00  0.00     0.276 HD
ATOM      7  H4  ZIN A   1      17.828   5.897  12.022  0.00  0.00     0.276 HD
ENDBRANCH   3   4
ENDBRANCH   2   3
ENDBRANCH   1   2
BRANCH   1   8
ATOM      8  O9  ZIN A   1      17.679   2.222  12.203  0.00  0.00    -0.341 OA
BRANCH   8   9
ATOM      9  C10 ZIN A   1      17.906   1.793  10.934  0.00  0.00     0.069 A 
ATOM     10  C19 ZIN A   1      18.720   2.529  10.086  0.00  0.00     0.037 A 
ATOM     11  C18 ZIN A   1      18.953   2.089   8.798  0.00  0.00     0.019 A 
ATOM     12  C13 ZIN A   1      18.367   0.920   8.349  0.00  0.00     0.048 A 
ATOM     13  C12 ZIN A   1      17.549   0.187   9.189  0.00  0.00     0.019 A 
ATOM     14  C11 ZIN A   1      17.317   0.620  10.481  0.00  0.00     0.037 A 
BRANCH  12  15
ATOM     15  C14 ZIN A   1      18.618   0.446   6.941  0.00  0.00     0.417 C 
ATOM     16  F15 ZIN A   1      17.396   0.266   6.284  0.00  0.00    -0.166 F 
ATOM     17  F16 ZIN A   1      19.380   1.397   6.256  0.00  0.00    -0.166 F 
ATOM     18  F17 ZIN A   1      19.311  -0.769   6.976  0.00  0.00    -0.166 F 
ENDBRANCH  12  15
ENDBRANCH   8   9
ENDBRANCH   1   8
BRANCH   1  19
ATOM     19  C20 ZIN A   1      18.699   0.922  13.940  0.00  0.00    -0.029 A 
ATOM     20  C25 ZIN A   1      19.601  -0.105  13.732  0.00  0.00     0.010 A 
ATOM     21  C24 ZIN A   1      19.527  -1.255  14.498  0.00  0.00     0.001 A 
ATOM     22  C23 ZIN A   1      18.547  -1.381  15.463  0.00  0.00     0.000 A 
ATOM     23  C22 ZIN A   1      17.641  -0.356  15.667  0.00  0.00     0.001 A 
ATOM     24  C21 ZIN A   1      17.718   0.795  14.906  0.00  0.00     0.010 A 
ENDBRANCH   1  19
TORSDOF 7
ENDMDL
MODEL 5
REMARK VINA RESULT:      -7.3      2.395      3.826
REMARK  7 active torsions:
REMARK  status: ('A' for Active; 'I' for Inactive)
REMARK    1  A    between atoms: N2_2  and  C5_5 
REMARK    2  A    between atoms: C5_5  and  C6_6 
REMARK    3  A    between atoms: C6_6  and  C7_7 
REMARK    4  A    between atoms: C7_7  and  O9_8 
REMARK    5  A    between atoms: C7_7  and  C20_19 
REMARK    6  A    between atoms: O9_8  and  C10_9 
REMARK    7  A    between atoms: C13_12  and  C14_13 
ROOT
ATOM      1  C7  ZIN A   1      18.859  -0.402  11.207  0.00  0.00     0.163 C 
ENDROOT
BRANCH   1   2
ATOM      2  C6  ZIN A   1      18.575  -0.990   9.823  0.00  0.00     0.065 C 
BRANCH   2   3
ATOM      3  C5  ZIN A   1      18.988  -2.463   9.801  0.00  0.00     0.234 C 
BRANCH   3   4
ATOM      4  N2  ZIN A   1      20.042  -2.691  10.799  0.00  0.00    -0.079 N 
ATOM      5  C1  ZIN A   1      19.866  -4.018  11.404  0.00  0.00     0.266 C 
ATOM      6  H3  ZIN A   1      19.985  -1.983  11.516  0.00  0.00     0.276 HD
ATOM      7  H4  ZIN A   1      20.946  -2.643  10.351  0.00  0.00     0.276 HD
ENDBRANCH   3   4
ENDBRANCH   2   3
ENDBRANCH   1   2
BRANCH   1   8
ATOM      8  O9  ZIN A   1      17.882  -0.879  12.136  0.00  0.00    -0.341 OA
BRANCH   8   9
ATOM      9  C10 ZIN A   1      18.140  -0.684  13.455  0.00  0.00     0.069 A 
ATOM     10  C19 ZIN A   1      17.472   0.310  14.155  0.00  0.00     0.037 A 
ATOM     11  C18 ZIN A   1      17.732   0.503  15.498  0.00  0.00     0.019 A 
ATOM     12  C13 ZIN A   1      18.666  -0.287  16.143  0.00  0.00     0.048 A 
ATOM     13  C12 ZIN A   1      19.339  -1.274  15.446  0.00  0.00     0.019 A 
ATOM     14  C11 ZIN A   1      19.078  -1.475  14.104  0.00  0.00     0.037 A 
BRANCH  12  15
ATOM     15  C14 ZIN A   1      18.952  -0.070  17.606  0.00  0.00     0.417 C 
ATOM     16  F15 ZIN A   1      19.719   1.089  17.765  0.00  0.00    -0.166 F 
ATOM     17  F16 ZIN A   1      17.747   0.068  18.302  0.00  0.00    -0.166 F 
ATOM     18  F17 ZIN A   1      19.658  -1.169  18.110  0.00  0.00    -0.166 F 
ENDBRANCH  12  15
ENDBRANCH   8   9
ENDBRANCH   1   8
BRANCH   1  19
ATOM     19  C20 ZIN A   1      18.794   1.101  11.137  0.00  0.00    -0.029 A 
ATOM     20  C25 ZIN A   1      17.690   1.721  10.581  0.00  0.00     0.010 A 
ATOM     21  C24 ZIN A   1      17.629   3.101  10.522  0.00  0.00     0.001 A 
ATOM     22  C23 ZIN A   1      18.676   3.861  11.008  0.00  0.00     0.000 A 
ATOM     23  C22 ZIN A   1      19.783   3.242  11.558  0.00  0.00     0.001 A 
ATOM     24  C21 ZIN A   1      19.842   1.862  11.623  0.00  0.00     0.010 A 
ENDBRANCH   1  19
TORSDOF 7
ENDMDL
MODEL 6
REMARK VINA RESULT:      -7.2      2.648      3.909
REMARK  7 active torsions:
REMARK  status: ('A' for Active; 'I' for Inactive)
REMARK    1  A    between atoms: N2_2  and  C5_5 
REMARK    2  A    between atoms: C5_5  and  C6_6 
REMARK    3  A    between atoms: C6_6  and  C7_7 
REMARK    4  A    between atoms: C7_7  and  O9_8 
REMARK    5  A    between atoms: C7_7  and  C20_19 
REMARK    6  A    between atoms: O9_8  and  C10_9 
REMARK    7  A    between atoms: C13_12  and  C14_13 
ROOT
ATOM      1  C7  ZIN A   1      18.467  -0.930  12.279  0.00  0.00     0.163 C 
ENDROOT
BRANCH   1   2
ATOM      2  C6  ZIN A   1      18.502   0.001  11.065  0.00  0.00     0.065 C 
BRANCH   2   3
ATOM      3  C5  ZIN A   1      19.950   0.384  10.759  0.00  0.00     0.234 C 
BRANCH   3   4
ATOM      4  N2  ZIN A   1      20.238   1.708  11.331  0.00  0.00    -0.079 N 
ATOM      5  C1  ZIN A   1      19.130   2.623  11.029  0.00  0.00     0.266 C 
ATOM      6  H3  ZIN A   1      21.092   2.068  10.931  0.00  0.00     0.276 HD
ATOM      7  H4  ZIN A   1      20.343   1.625  12.331  0.00  0.00     0.276 HD
ENDBRANCH   3   4
ENDBRANCH   2   3
ENDBRANCH   1   2
BRANCH   1   8
ATOM      8  O9  ZIN A   1      19.583  -0.650  13.127  0.00  0.00    -0.341 OA
BRANCH   8   9
ATOM      9  C10 ZIN A   1      19.310  -0.295  14.409  0.00  0.00     0.069 A 
ATOM     10  C19 ZIN A   1      19.043  -1.269  15.360  0.00  0.00     0.037 A 
ATOM     11  C18 ZIN A   1      18.771  -0.906  16.664  0.00  0.00     0.019 A 
ATOM     12  C13 ZIN A   1      18.753   0.430  17.022  0.00  0.00     0.048 A 
ATOM     13  C12 ZIN A   1      19.012   1.404  16.076  0.00  0.00     0.019 A 
ATOM     14  C11 ZIN A   1      19.291   1.046  14.770  0.00  0.00     0.037 A 
BRANCH  12  15
ATOM     15  C14 ZIN A   1      18.449   0.823  18.443  0.00  0.00     0.417 C 
ATOM     16  F15 ZIN A   1      19.408   1.740  18.889  0.00  0.00    -0.166 F 
ATOM     17  F16 ZIN A   1      17.181   1.408  18.505  0.00  0.00    -0.166 F 
ATOM     18  F17 ZIN A   1      18.478  -0.315  19.258  0.00  0.00    -0.166 F 
ENDBRANCH  12  15
ENDBRANCH   8   9
ENDBRANCH   1   8
BRANCH   1  19
ATOM     19  C20 ZIN A   1      18.534  -2.362  11.817  0.00  0.00    -0.029 A 
ATOM     20  C25 ZIN A   1      19.737  -3.042  11.844  0.00  0.00     0.010 A 
ATOM     21  C24 ZIN A   1      19.798  -4.358  11.424  0.00  0.00     0.001 A 
ATOM     22  C23 ZIN A   1      18.657  -4.990  10.968  0.00  0.00     0.000 A 
ATOM     23  C22 ZIN A   1      17.455  -4.309  10.934  0.00  0.00     0.001 A 
ATOM     24  C21 ZIN A   1      17.393  -2.995  11.359  0.00  0.00     0.010 A 
ENDBRANCH   1  19
TORSDOF 7
ENDMDL
MODEL 7
REMARK VINA RESULT:      -7.2      3.248      4.561
REMARK  7 active torsions:
REMARK  status: ('A' for Active; 'I' for Inactive)
REMARK    1  A    between atoms: N2_2  and  C5_5 
REMARK    2  A    between atoms: C5_5  and  C6_6 
REMARK    3  A    between atoms: C6_6  and  C7_7 
REMARK    4  A    between atoms: C7_7  and  O9_8 
REMARK    5  A    between atoms: C7_7  and  C20_19 
REMARK    6  A    between atoms: O9_8  and  C10_9 
REMARK    7  A    between atoms: C13_12  and  C14_13 
ROOT
ATOM      1  C7  ZIN A   1      18.888  -2.017   9.062  0.00  0.00     0.163 C 
ENDROOT
BRANCH   1   2
ATOM      2  C6  ZIN A   1      18.866  -3.208   8.101  0.00  0.00     0.065 C 
BRANCH   2   3
ATOM      3  C5  ZIN A   1      18.250  -4.418   8.805  0.00  0.00     0.234 C 
BRANCH   3   4
ATOM      4  N2  ZIN A   1      16.844  -4.558   8.399  0.00  0.00    -0.079 N 
ATOM      5  C1  ZIN A   1      16.128  -5.377   9.385  0.00  0.00     0.266 C 
ATOM      6  H3  ZIN A   1      16.798  -5.002   7.494  0.00  0.00     0.276 HD
ATOM      7  H4  ZIN A   1      16.418  -3.644   8.347  0.00  0.00     0.276 HD
ENDBRANCH   3   4
ENDBRANCH   2   3
ENDBRANCH   1   2
BRANCH   1   8
ATOM      8  O9  ZIN A   1      17.740  -2.068   9.911  0.00  0.00    -0.341 OA
BRANCH   8   9
ATOM      9  C10 ZIN A   1      17.916  -1.708  11.209  0.00  0.00     0.069 A 
ATOM     10  C19 ZIN A   1      17.186  -0.657  11.745  0.00  0.00     0.037 A 
ATOM     11  C18 ZIN A   1      17.363  -0.296  13.066  0.00  0.00     0.019 A 
ATOM     12  C13 ZIN A   1      18.276  -0.975  13.853  0.00  0.00     0.048 A 
ATOM     13  C12 ZIN A   1      19.010  -2.018  13.320  0.00  0.00     0.019 A 
ATOM     14  C11 ZIN A   1      18.833  -2.387  12.000  0.00  0.00     0.037 A 
BRANCH  12  15
ATOM     15  C14 ZIN A   1      18.472  -0.574  15.292  0.00  0.00     0.417 C 
ATOM     16  F15 ZIN A   1      17.258  -0.125  15.821  0.00  0.00    -0.166 F 
ATOM     17  F16 ZIN A   1      18.921  -1.677  16.026  0.00  0.00    -0.166 F 
ATOM     18  F17 ZIN A   1      19.421   0.451  15.365  0.00  0.00    -0.166 F 
ENDBRANCH  12  15
ENDBRANCH   8   9
ENDBRANCH   1   8
BRANCH   1  19
ATOM     19  C20 ZIN A   1      18.871  -0.734   8.272  0.00  0.00    -0.029 A 
ATOM     20  C25 ZIN A   1      18.294  -0.702   7.017  0.00  0.00     0.010 A 
ATOM     21  C24 ZIN A   1      18.275   0.477   6.294  0.00  0.00     0.001 A 
ATOM     22  C23 ZIN A   1      18.842   1.620   6.822  0.00  0.00     0.000 A 
ATOM     23  C22 ZIN A   1      19.425   1.588   8.075  0.00  0.00     0.001 A 
ATOM     24  C21 ZIN A   1      19.440   0.411   8.800  0.00  0.00     0.010 A 
ENDBRANCH   1  19
TORSDOF 7
ENDMDL
MODEL 8
REMARK VINA RESULT:      -7.1      4.691      7.560
REMARK  7 active torsions:
REMARK  status: ('A' for Active; 'I' for Inactive)
REMARK    1  A    between atoms: N2_2  and  C5_5 
REMARK    2  A    between atoms: C5_5  and  C6_6 
REMARK    3  A    between atoms: C6_6  and  C7_7 
REMARK    4  A    between atoms: C7_7  and  O9_8 
REMARK    5  A    between atoms: C7_7  and  C20_19 
REMARK    6  A    between atoms: O9_8  and  C10_9 
REMARK    7  A    between atoms: C13_12  and  C14_13 
ROOT
ATOM      1  C7  ZIN A   1      18.274  -0.878  12.839  0.00  0.00     0.163 C 
ENDROOT
BRANCH   1   2
ATOM      2  C6  ZIN A   1      19.570  -1.579  12.429  0.00  0.00     0.065 C 
BRANCH   2   3
ATOM      3  C5  ZIN A   1      19.237  -2.906  11.744  0.00  0.00     0.234 C 
BRANCH   3   4
ATOM      4  N2  ZIN A   1      19.745  -2.886  10.365  0.00  0.00    -0.079 N 
ATOM      5  C1  ZIN A   1      18.814  -3.611   9.489  0.00  0.00     0.266 C 
ATOM      6  H3  ZIN A   1      20.651  -3.329  10.334  0.00  0.00     0.276 HD
ATOM      7  H4  ZIN A   1      19.826  -1.930  10.051  0.00  0.00     0.276 HD
ENDBRANCH   3   4
ENDBRANCH   2   3
ENDBRANCH   1   2
BRANCH   1   8
ATOM      8  O9  ZIN A   1      18.223   0.418  12.238  0.00  0.00    -0.341 OA
BRANCH   8   9
ATOM      9  C10 ZIN A   1      18.271   0.471  10.882  0.00  0.00     0.069 A 
ATOM     10  C19 ZIN A   1      17.305  -0.174  10.125  0.00  0.00     0.037 A 
ATOM     11  C18 ZIN A   1      17.354  -0.114   8.746  0.00  0.00     0.019 A 
ATOM     12  C13 ZIN A   1      18.373   0.580   8.119  0.00  0.00     0.048 A 
ATOM     13  C12 ZIN A   1      19.342   1.218   8.870  0.00  0.00     0.019 A 
ATOM     14  C11 ZIN A   1      19.294   1.166  10.250  0.00  0.00     0.037 A 
BRANCH  12  15
ATOM     15  C14 ZIN A   1      18.427   0.638   6.614  0.00  0.00     0.417 C 
ATOM     16  F15 ZIN A   1      17.139   0.475   6.094  0.00  0.00    -0.166 F 
ATOM     17  F16 ZIN A   1      18.939   1.876   6.213  0.00  0.00    -0.166 F 
ATOM     18  F17 ZIN A   1      19.255  -0.385   6.139  0.00  0.00    -0.166 F 
ENDBRANCH  12  15
ENDBRANCH   8   9
ENDBRANCH   1   8
BRANCH   1  19
ATOM     19  C20 ZIN A   1      18.231  -0.738  14.339  0.00  0.00    -0.029 A 
ATOM     20  C25 ZIN A   1      19.014  -1.557  15.132  0.00  0.00     0.010 A 
ATOM     21  C24 ZIN A   1      18.977  -1.425  16.508  0.00  0.00     0.001 A 
ATOM     22  C23 ZIN A   1      18.152  -0.483  17.091  0.00  0.00     0.000 A 
ATOM     23  C22 ZIN A   1      17.365   0.332  16.299  0.00  0.00     0.001 A 
ATOM     24  C21 ZIN A   1      17.405   0.204  14.923  0.00  0.00     0.010 A 
ENDBRANCH   1  19
TORSDOF 7
ENDMDL
MODEL 9
REMARK VINA RESULT:      -7.1      2.980      4.011
REMARK  7 active torsions:
REMARK  status: ('A' for Active; 'I' for Inactive)
REMARK    1  A    between atoms: N2_2  and  C5_5 
REMARK    2  A    between atoms: C5_5  and  C6_6 
REMARK    3  A    between atoms: C6_6  and  C7_7 
REMARK    4  A    between atoms: C7_7  and  O9_8 
REMARK    5  A    between atoms: C7_7  and  C20_19 
REMARK    6  A    between atoms: O9_8  and  C10_9 
REMARK    7  A    between atoms: C13_12  and  C14_13 
ROOT
ATOM      1  C7  ZIN A   1      18.501  -1.582  10.757  0.00  0.00     0.163 C 
ENDROOT
BRANCH   1   2
ATOM      2  C6  ZIN A   1      19.027  -1.180   9.378  0.00  0.00     0.065 C 
BRANCH   2   3
ATOM      3  C5  ZIN A   1      20.206  -0.220   9.542  0.00  0.00     0.234 C 
BRANCH   3   4
ATOM      4  N2  ZIN A   1      19.703   1.121   9.871  0.00  0.00    -0.079 N 
ATOM      5  C1  ZIN A   1      19.277   1.800   8.640  0.00  0.00     0.266 C 
ATOM      6  H3  ZIN A   1      20.435   1.656  10.314  0.00  0.00     0.276 HD
ATOM      7  H4  ZIN A   1      18.918   1.040  10.500  0.00  0.00     0.276 HD
ENDBRANCH   3   4
ENDBRANCH   2   3
ENDBRANCH   1   2
BRANCH   1   8
ATOM      8  O9  ZIN A   1      19.480  -1.270  11.750  0.00  0.00    -0.341 OA
BRANCH   8   9
ATOM      9  C10 ZIN A   1      19.023  -0.948  12.988  0.00  0.00     0.069 A 
ATOM     10  C19 ZIN A   1      18.033   0.013  13.137  0.00  0.00     0.037 A 
ATOM     11  C18 ZIN A   1      17.566   0.334  14.396  0.00  0.00     0.019 A 
ATOM     12  C13 ZIN A   1      18.091  -0.294  15.510  0.00  0.00     0.048 A 
ATOM     13  C12 ZIN A   1      19.082  -1.247  15.367  0.00  0.00     0.019 A 
ATOM     14  C11 ZIN A   1      19.549  -1.577  14.108  0.00  0.00     0.037 A 
BRANCH  12  15
ATOM     15  C14 ZIN A   1      17.584   0.063  16.883  0.00  0.00     0.417 C 
ATOM     16  F15 ZIN A   1      16.213  -0.203  16.958  0.00  0.00    -0.166 F 
ATOM     17  F16 ZIN A   1      18.260  -0.697  17.843  0.00  0.00    -0.166 F 
ATOM     18  F17 ZIN A   1      17.809   1.423  17.123  0.00  0.00    -0.166 F 
ENDBRANCH  12  15
ENDBRANCH   8   9
ENDBRANCH   1   8
BRANCH   1  19
ATOM     19  C20 ZIN A   1      18.221  -3.062  10.776  0.00  0.00    -0.029 A 
ATOM     20  C25 ZIN A   1      19.027  -3.928  10.062  0.00  0.00     0.010 A 
ATOM     21  C24 ZIN A   1      18.772  -5.287  10.083  0.00  0.00     0.001 A 
ATOM     22  C23 ZIN A   1      17.706  -5.779  10.811  0.00  0.00     0.000 A 
ATOM     23  C22 ZIN A   1      16.895  -4.913  11.521  0.00  0.00     0.001 A 
ATOM     24  C21 ZIN A   1      17.153  -3.555  11.504  0.00  0.00     0.010 A 
ENDBRANCH   1  19
TORSDOF 7
ENDMDL
