MODEL 1
REMARK VINA RESULT:      -6.7      0.000      0.000
REMARK  5 active torsions:
REMARK  status: ('A' for Active; 'I' for Inactive)
REMARK    1  A    between atoms: N2_2  and  N3_3 
REMARK    2  A    between atoms: N3_3  and  C4_4 
REMARK    3  A    between atoms: C4_4  and  C5_5 
REMARK    4  A    between atoms: C8_8  and  C9_9 
REMARK       I    between atoms: C9_9  and  N11_11 
REMARK    5  A    between atoms: N11_11  and  C12_12 
ROOT
ATOM      1  C5  ZIN A   1      18.428   0.409   6.420  0.00  0.00    -0.044 A 
ATOM      2  C6  ZIN A   1      17.546  -0.333   7.185  0.00  0.00     0.009 A 
ATOM      3  C7  ZIN A   1      17.397  -0.060   8.529  0.00  0.00     0.017 A 
ATOM      4  C8  ZIN A   1      18.138   0.966   9.116  0.00  0.00     0.032 A 
ATOM      5  C15 ZIN A   1      19.026   1.710   8.338  0.00  0.00     0.017 A 
ATOM      6  C16 ZIN A   1      19.169   1.424   6.997  0.00  0.00     0.009 A 
ENDROOT
BRANCH   4   7
ATOM      7  C9  ZIN A   1      17.983   1.264  10.556  0.00  0.00     0.251 C 
ATOM      8  O10 ZIN A   1      17.233   2.149  10.916  0.00  0.00    -0.268 OA
ATOM      9  N11 ZIN A   1      18.674   0.553  11.470  0.00  0.00    -0.353 N 
ATOM     10  H26 ZIN A   1      19.273  -0.154  11.182  0.00  0.00     0.163 HD
BRANCH   9  11
ATOM     11  C12 ZIN A   1      18.520   0.848  12.896  0.00  0.00     0.076 C 
ATOM     12  C13 ZIN A   1      17.499  -0.113  13.509  0.00  0.00     0.032 C 
ATOM     13  C14 ZIN A   1      19.868   0.677  13.601  0.00  0.00     0.032 C 
ENDBRANCH   9  11
ENDBRANCH   4   7
BRANCH   1  14
ATOM     14  C4  ZIN A   1      18.585   0.106   4.952  0.00  0.00     0.143 C 
BRANCH  14  15
ATOM     15  N3  ZIN A   1      19.764  -0.748   4.752  0.00  0.00    -0.257 NA
ATOM     16  H21 ZIN A   1      20.237  -0.921   5.625  0.00  0.00     0.141 HD
BRANCH  15  17
ATOM     17  N2  ZIN A   1      19.400  -1.996   4.100  0.00  0.00    -0.265 NA
ATOM     18  C1  ZIN A   1      19.083  -3.034   5.090  0.00  0.00     0.126 C 
ATOM     19  H20 ZIN A   1      20.128  -2.303   3.474  0.00  0.00     0.140 HD
ENDBRANCH  15  17
ENDBRANCH  14  15
ENDBRANCH   1  14
TORSDOF 5
ENDMDL
MODEL 2
REMARK VINA RESULT:      -6.7      0.214      1.221
REMARK  5 active torsions:
REMARK  status: ('A' for Active; 'I' for Inactive)
REMARK    1  A    between atoms: N2_2  and  N3_3 
REMARK    2  A    between atoms: N3_3  and  C4_4 
REMARK    3  A    between atoms: C4_4  and  C5_5 
REMARK    4  A    between atoms: C8_8  and  C9_9 
REMARK       I    between atoms: C9_9  and  N11_11 
REMARK    5  A    between atoms: N11_11  and  C12_12 
ROOT
ATOM      1  C5  ZIN A   1      18.446   0.427   6.432  0.00  0.00    -0.044 A 
ATOM      2  C6  ZIN A   1      19.193   1.408   7.060  0.00  0.00     0.009 A 
ATOM      3  C7  ZIN A   1      19.013   1.661   8.404  0.00  0.00     0.017 A 
ATOM      4  C8  ZIN A   1      18.077   0.924   9.130  0.00  0.00     0.032 A 
ATOM      5  C15 ZIN A   1      17.327  -0.064   8.491  0.00  0.00     0.017 A 
ATOM      6  C16 ZIN A   1      17.512  -0.303   7.145  0.00  0.00     0.009 A 
ENDROOT
BRANCH   4   7
ATOM      7  C9  ZIN A   1      17.880   1.189  10.572  0.00  0.00     0.251 C 
ATOM      8  O10 ZIN A   1      17.174   2.111  10.929  0.00  0.00    -0.268 OA
ATOM      9  N11 ZIN A   1      18.483   0.408  11.490  0.00  0.00    -0.353 N 
ATOM     10  H26 ZIN A   1      19.047  -0.329  11.204  0.00  0.00     0.163 HD
BRANCH   9  11
ATOM     11  C12 ZIN A   1      18.287   0.671  12.917  0.00  0.00     0.076 C 
ATOM     12  C13 ZIN A   1      17.759  -0.592  13.601  0.00  0.00     0.032 C 
ATOM     13  C14 ZIN A   1      19.621   1.073  13.550  0.00  0.00     0.032 C 
ENDBRANCH   9  11
ENDBRANCH   4   7
BRANCH   1  14
ATOM     14  C4  ZIN A   1      18.647   0.157   4.963  0.00  0.00     0.143 C 
BRANCH  14  15
ATOM     15  N3  ZIN A   1      19.789  -0.751   4.784  0.00  0.00    -0.257 NA
ATOM     16  H21 ZIN A   1      20.234  -0.950   5.667  0.00  0.00     0.141 HD
BRANCH  15  17
ATOM     17  N2  ZIN A   1      19.380  -1.977   4.118  0.00  0.00    -0.265 NA
ATOM     18  C1  ZIN A   1      19.077  -3.031   5.096  0.00  0.00     0.126 C 
ATOM     19  H20 ZIN A   1      20.082  -2.284   3.462  0.00  0.00     0.140 HD
ENDBRANCH  15  17
ENDBRANCH  14  15
ENDBRANCH   1  14
TORSDOF 5
ENDMDL
MODEL 3
REMARK VINA RESULT:      -6.7      1.719      2.112
REMARK  5 active torsions:
REMARK  status: ('A' for Active; 'I' for Inactive)
REMARK    1  A    between atoms: N2_2  and  N3_3 
REMARK    2  A    between atoms: N3_3  and  C4_4 
REMARK    3  A    between atoms: C4_4  and  C5_5 
REMARK    4  A    between atoms: C8_8  and  C9_9 
REMARK       I    between atoms: C9_9  and  N11_11 
REMARK    5  A    between atoms: N11_11  and  C12_12 
ROOT
ATOM      1  C5  ZIN A   1      18.314   0.304   6.384  0.00  0.00    -0.044 A 
ATOM      2  C6  ZIN A   1      17.476  -0.286   7.313  0.00  0.00     0.009 A 
ATOM      3  C7  ZIN A   1      17.428   0.194   8.606  0.00  0.00     0.017 A 
ATOM      4  C8  ZIN A   1      18.227   1.276   8.975  0.00  0.00     0.032 A 
ATOM      5  C15 ZIN A   1      19.070   1.867   8.033  0.00  0.00     0.017 A 
ATOM      6  C16 ZIN A   1      19.112   1.375   6.746  0.00  0.00     0.009 A 
ENDROOT
BRANCH   4   7
ATOM      7  C9  ZIN A   1      18.181   1.795  10.359  0.00  0.00     0.251 C 
ATOM      8  O10 ZIN A   1      18.312   1.035  11.298  0.00  0.00    -0.268 OA
ATOM      9  N11 ZIN A   1      17.994   3.112  10.579  0.00  0.00    -0.353 N 
ATOM     10  H26 ZIN A   1      17.889   3.719   9.829  0.00  0.00     0.163 HD
BRANCH   9  11
ATOM     11  C12 ZIN A   1      17.948   3.625  11.950  0.00  0.00     0.076 C 
ATOM     12  C13 ZIN A   1      19.313   4.209  12.322  0.00  0.00     0.032 C 
ATOM     13  C14 ZIN A   1      16.882   4.719  12.051  0.00  0.00     0.032 C 
ENDBRANCH   9  11
ENDBRANCH   4   7
BRANCH   1  14
ATOM     14  C4  ZIN A   1      18.360  -0.224   4.973  0.00  0.00     0.143 C 
BRANCH  14  15
ATOM     15  N3  ZIN A   1      19.659  -0.869   4.735  0.00  0.00    -0.257 NA
ATOM     16  H21 ZIN A   1      20.197  -0.924   5.587  0.00  0.00     0.141 HD
BRANCH  15  17
ATOM     17  N2  ZIN A   1      19.486  -2.186   4.142  0.00  0.00    -0.265 NA
ATOM     18  C1  ZIN A   1      19.051  -3.164   5.149  0.00  0.00     0.126 C 
ATOM     19  H20 ZIN A   1      20.331  -2.490   3.684  0.00  0.00     0.140 HD
ENDBRANCH  15  17
ENDBRANCH  14  15
ENDBRANCH   1  14
TORSDOF 5
ENDMDL
MODEL 4
REMARK VINA RESULT:      -6.2      5.331      9.331
REMARK  5 active torsions:
REMARK  status: ('A' for Active; 'I' for Inactive)
REMARK    1  A    between atoms: N2_2  and  N3_3 
REMARK    2  A    between atoms: N3_3  and  C4_4 
REMARK    3  A    between atoms: C4_4  and  C5_5 
REMARK    4  A    between atoms: C8_8  and  C9_9 
REMARK       I    between atoms: C9_9  and  N11_11 
REMARK    5  A    between atoms: N11_11  and  C12_12 
ROOT
ATOM      1  C5  ZIN A   1      18.586   0.337  16.884  0.00  0.00    -0.044 A 
ATOM      2  C6  ZIN A   1      18.567   1.164  15.776  0.00  0.00     0.009 A 
ATOM      3  C7  ZIN A   1      18.729   0.635  14.513  0.00  0.00     0.017 A 
ATOM      4  C8  ZIN A   1      18.912  -0.739  14.354  0.00  0.00     0.032 A 
ATOM      5  C15 ZIN A   1      18.930  -1.569  15.476  0.00  0.00     0.017 A 
ATOM      6  C16 ZIN A   1      18.772  -1.026  16.733  0.00  0.00     0.009 A 
ENDROOT
BRANCH   4   7
ATOM      7  C9  ZIN A   1      19.086  -1.314  13.003  0.00  0.00     0.251 C 
ATOM      8  O10 ZIN A   1      19.679  -0.687  12.147  0.00  0.00    -0.268 OA
ATOM      9  N11 ZIN A   1      18.588  -2.535  12.720  0.00  0.00    -0.353 N 
ATOM     10  H26 ZIN A   1      18.115  -3.036  13.403  0.00  0.00     0.163 HD
BRANCH   9  11
ATOM     11  C12 ZIN A   1      18.762  -3.104  11.381  0.00  0.00     0.076 C 
ATOM     12  C13 ZIN A   1      19.866  -4.162  11.416  0.00  0.00     0.032 C 
ATOM     13  C14 ZIN A   1      17.450  -3.750  10.928  0.00  0.00     0.032 C 
ENDBRANCH   9  11
ENDBRANCH   4   7
BRANCH   1  14
ATOM     14  C4  ZIN A   1      18.408   0.922  18.261  0.00  0.00     0.143 C 
BRANCH  14  15
ATOM     15  N3  ZIN A   1      19.656   1.574  18.681  0.00  0.00    -0.257 NA
ATOM     16  H21 ZIN A   1      20.309   1.632  17.915  0.00  0.00     0.141 HD
BRANCH  15  17
ATOM     17  N2  ZIN A   1      19.394   2.888  19.244  0.00  0.00    -0.265 NA
ATOM     18  C1  ZIN A   1      18.201   3.493  18.636  0.00  0.00     0.126 C 
ATOM     19  H20 ZIN A   1      20.196   3.491  19.143  0.00  0.00     0.140 HD
ENDBRANCH  15  17
ENDBRANCH  14  15
ENDBRANCH   1  14
TORSDOF 5
ENDMDL
MODEL 5
REMARK VINA RESULT:      -6.2      3.835      8.979
REMARK  5 active torsions:
REMARK  status: ('A' for Active; 'I' for Inactive)
REMARK    1  A    between atoms: N2_2  and  N3_3 
REMARK    2  A    between atoms: N3_3  and  C4_4 
REMARK    3  A    between atoms: C4_4  and  C5_5 
REMARK    4  A    between atoms: C8_8  and  C9_9 
REMARK       I    between atoms: C9_9  and  N11_11 
REMARK    5  A    between atoms: N11_11  and  C12_12 
ROOT
ATOM      1  C5  ZIN A   1      18.507  -0.451  16.896  0.00  0.00    -0.044 A 
ATOM      2  C6  ZIN A   1      17.515   0.320  16.316  0.00  0.00     0.009 A 
ATOM      3  C7  ZIN A   1      17.311   0.274  14.952  0.00  0.00     0.017 A 
ATOM      4  C8  ZIN A   1      18.107  -0.552  14.158  0.00  0.00     0.032 A 
ATOM      5  C15 ZIN A   1      19.106  -1.326  14.749  0.00  0.00     0.017 A 
ATOM      6  C16 ZIN A   1      19.303  -1.267  16.112  0.00  0.00     0.009 A 
ENDROOT
BRANCH   4   7
ATOM      7  C9  ZIN A   1      17.893  -0.605  12.696  0.00  0.00     0.251 C 
ATOM      8  O10 ZIN A   1      16.922  -1.181  12.244  0.00  0.00    -0.268 OA
ATOM      9  N11 ZIN A   1      18.774  -0.015  11.863  0.00  0.00    -0.353 N 
ATOM     10  H26 ZIN A   1      19.549   0.444  12.224  0.00  0.00     0.163 HD
BRANCH   9  11
ATOM     11  C12 ZIN A   1      18.561  -0.069  10.415  0.00  0.00     0.076 C 
ATOM     12  C13 ZIN A   1      17.975   1.261   9.936  0.00  0.00     0.032 C 
ATOM     13  C14 ZIN A   1      19.898  -0.320   9.712  0.00  0.00     0.032 C 
ENDBRANCH   9  11
ENDBRANCH   4   7
BRANCH   1  14
ATOM     14  C4  ZIN A   1      18.725  -0.396  18.386  0.00  0.00     0.143 C 
BRANCH  14  15
ATOM     15  N3  ZIN A   1      18.353   0.934  18.887  0.00  0.00    -0.257 NA
ATOM     16  H21 ZIN A   1      17.992   0.878  19.827  0.00  0.00     0.141 HD
BRANCH  15  17
ATOM     17  N2  ZIN A   1      19.477   1.852  18.813  0.00  0.00    -0.265 NA
ATOM     18  C1  ZIN A   1      19.079   3.124  18.197  0.00  0.00     0.126 C 
ATOM     19  H20 ZIN A   1      20.251   1.437  18.317  0.00  0.00     0.140 HD
ENDBRANCH  15  17
ENDBRANCH  14  15
ENDBRANCH   1  14
TORSDOF 5
ENDMDL
MODEL 6
REMARK VINA RESULT:      -6.2      3.677      8.330
REMARK  5 active torsions:
REMARK  status: ('A' for Active; 'I' for Inactive)
REMARK    1  A    between atoms: N2_2  and  N3_3 
REMARK    2  A    between atoms: N3_3  and  C4_4 
REMARK    3  A    between atoms: C4_4  and  C5_5 
REMARK    4  A    between atoms: C8_8  and  C9_9 
REMARK       I    between atoms: C9_9  and  N11_11 
REMARK    5  A    between atoms: N11_11  and  C12_12 
ROOT
ATOM      1  C5  ZIN A   1      18.809  -0.799  15.642  0.00  0.00    -0.044 A 
ATOM      2  C6  ZIN A   1      19.503  -1.147  14.498  0.00  0.00     0.009 A 
ATOM      3  C7  ZIN A   1      19.142  -0.613  13.279  0.00  0.00     0.017 A 
ATOM      4  C8  ZIN A   1      18.073   0.281  13.201  0.00  0.00     0.032 A 
ATOM      5  C15 ZIN A   1      17.377   0.628  14.360  0.00  0.00     0.017 A 
ATOM      6  C16 ZIN A   1      17.745   0.083  15.572  0.00  0.00     0.009 A 
ENDROOT
BRANCH   4   7
ATOM      7  C9  ZIN A   1      17.680   0.858  11.898  0.00  0.00     0.251 C 
ATOM      8  O10 ZIN A   1      16.595   0.595  11.420  0.00  0.00    -0.268 OA
ATOM      9  N11 ZIN A   1      18.526   1.677  11.240  0.00  0.00    -0.353 N 
ATOM     10  H26 ZIN A   1      19.393   1.887  11.623  0.00  0.00     0.163 HD
BRANCH   9  11
ATOM     11  C12 ZIN A   1      18.136   2.248   9.949  0.00  0.00     0.076 C 
ATOM     12  C13 ZIN A   1      17.992   3.765  10.085  0.00  0.00     0.032 C 
ATOM     13  C14 ZIN A   1      19.209   1.929   8.905  0.00  0.00     0.032 C 
ENDBRANCH   9  11
ENDBRANCH   4   7
BRANCH   1  14
ATOM     14  C4  ZIN A   1      19.210  -1.387  16.971  0.00  0.00     0.143 C 
BRANCH  14  15
ATOM     15  N3  ZIN A   1      18.790  -0.484  18.052  0.00  0.00    -0.257 NA
ATOM     16  H21 ZIN A   1      18.527  -1.004  18.875  0.00  0.00     0.141 HD
BRANCH  15  17
ATOM     17  N2  ZIN A   1      19.832   0.483  18.357  0.00  0.00    -0.265 NA
ATOM     18  C1  ZIN A   1      19.281   1.842  18.443  0.00  0.00     0.126 C 
ATOM     19  H20 ZIN A   1      20.577   0.437  17.679  0.00  0.00     0.140 HD
ENDBRANCH  15  17
ENDBRANCH  14  15
ENDBRANCH   1  14
TORSDOF 5
ENDMDL
MODEL 7
REMARK VINA RESULT:      -6.0      2.229      2.766
REMARK  5 active torsions:
REMARK  status: ('A' for Active; 'I' for Inactive)
REMARK    1  A    between atoms: N2_2  and  N3_3 
REMARK    2  A    between atoms: N3_3  and  C4_4 
REMARK    3  A    between atoms: C4_4  and  C5_5 
REMARK    4  A    between atoms: C8_8  and  C9_9 
REMARK       I    between atoms: C9_9  and  N11_11 
REMARK    5  A    between atoms: N11_11  and  C12_12 
ROOT
ATOM      1  C5  ZIN A   1      18.596   0.192   8.154  0.00  0.00    -0.044 A 
ATOM      2  C6  ZIN A   1      19.220   1.427   8.150  0.00  0.00     0.009 A 
ATOM      3  C7  ZIN A   1      18.954   2.340   9.149  0.00  0.00     0.017 A 
ATOM      4  C8  ZIN A   1      18.055   2.016  10.165  0.00  0.00     0.032 A 
ATOM      5  C15 ZIN A   1      17.429   0.769  10.164  0.00  0.00     0.017 A 
ATOM      6  C16 ZIN A   1      17.700  -0.133   9.156  0.00  0.00     0.009 A 
ENDROOT
BRANCH   4   7
ATOM      7  C9  ZIN A   1      17.765   2.990  11.240  0.00  0.00     0.251 C 
ATOM      8  O10 ZIN A   1      16.827   3.755  11.130  0.00  0.00    -0.268 OA
ATOM      9  N11 ZIN A   1      18.541   3.029  12.342  0.00  0.00    -0.353 N 
ATOM     10  H26 ZIN A   1      19.290   2.418  12.429  0.00  0.00     0.163 HD
BRANCH   9  11
ATOM     11  C12 ZIN A   1      18.253   3.994  13.405  0.00  0.00     0.076 C 
ATOM     12  C13 ZIN A   1      18.248   3.277  14.756  0.00  0.00     0.032 C 
ATOM     13  C14 ZIN A   1      19.329   5.083  13.410  0.00  0.00     0.032 C 
ENDBRANCH   9  11
ENDBRANCH   4   7
BRANCH   1  14
ATOM     14  C4  ZIN A   1      18.892  -0.801   7.059  0.00  0.00     0.143 C 
BRANCH  14  15
ATOM     15  N3  ZIN A   1      17.675  -1.565   6.750  0.00  0.00    -0.257 NA
ATOM     16  H21 ZIN A   1      17.068  -1.618   7.554  0.00  0.00     0.141 HD
BRANCH  15  17
ATOM     17  N2  ZIN A   1      16.979  -0.995   5.608  0.00  0.00    -0.265 NA
ATOM     18  C1  ZIN A   1      17.643  -1.364   4.350  0.00  0.00     0.126 C 
ATOM     19  H20 ZIN A   1      16.901   0.006   5.695  0.00  0.00     0.140 HD
ENDBRANCH  15  17
ENDBRANCH  14  15
ENDBRANCH   1  14
TORSDOF 5
ENDMDL
MODEL 8
REMARK VINA RESULT:      -5.8      2.446      6.664
REMARK  5 active torsions:
REMARK  status: ('A' for Active; 'I' for Inactive)
REMARK    1  A    between atoms: N2_2  and  N3_3 
REMARK    2  A    between atoms: N3_3  and  C4_4 
REMARK    3  A    between atoms: C4_4  and  C5_5 
REMARK    4  A    between atoms: C8_8  and  C9_9 
REMARK       I    between atoms: C9_9  and  N11_11 
REMARK    5  A    between atoms: N11_11  and  C12_12 
ROOT
ATOM      1  C5  ZIN A   1      18.641   1.482   9.015  0.00  0.00    -0.044 A 
ATOM      2  C6  ZIN A   1      18.245   0.169   9.191  0.00  0.00     0.009 A 
ATOM      3  C7  ZIN A   1      18.306  -0.720   8.138  0.00  0.00     0.017 A 
ATOM      4  C8  ZIN A   1      18.770  -0.293   6.894  0.00  0.00     0.032 A 
ATOM      5  C15 ZIN A   1      19.168   1.034   6.723  0.00  0.00     0.017 A 
ATOM      6  C16 ZIN A   1      19.097   1.914   7.782  0.00  0.00     0.009 A 
ENDROOT
BRANCH   4   7
ATOM      7  C9  ZIN A   1      18.838  -1.241   5.761  0.00  0.00     0.251 C 
ATOM      8  O10 ZIN A   1      19.708  -1.122   4.921  0.00  0.00    -0.268 OA
ATOM      9  N11 ZIN A   1      17.936  -2.238   5.660  0.00  0.00    -0.353 N 
ATOM     10  H26 ZIN A   1      17.242  -2.332   6.332  0.00  0.00     0.163 HD
BRANCH   9  11
ATOM     11  C12 ZIN A   1      18.005  -3.176   4.538  0.00  0.00     0.076 C 
ATOM     12  C13 ZIN A   1      18.130  -4.604   5.074  0.00  0.00     0.032 C 
ATOM     13  C14 ZIN A   1      16.733  -3.057   3.696  0.00  0.00     0.032 C 
ENDBRANCH   9  11
ENDBRANCH   4   7
BRANCH   1  14
ATOM     14  C4  ZIN A   1      18.572   2.449  10.169  0.00  0.00     0.143 C 
BRANCH  14  15
ATOM     15  N3  ZIN A   1      19.918   2.645  10.725  0.00  0.00    -0.257 NA
ATOM     16  H21 ZIN A   1      20.471   3.242  10.129  0.00  0.00     0.141 HD
BRANCH  15  17
ATOM     17  N2  ZIN A   1      19.852   3.176  12.077  0.00  0.00    -0.265 NA
ATOM     18  C1  ZIN A   1      19.043   2.308  12.944  0.00  0.00     0.126 C 
ATOM     19  H20 ZIN A   1      19.496   4.120  12.077  0.00  0.00     0.140 HD
ENDBRANCH  15  17
ENDBRANCH  14  15
ENDBRANCH   1  14
TORSDOF 5
ENDMDL
MODEL 9
REMARK VINA RESULT:      -5.7      4.524      6.827
REMARK  5 active torsions:
REMARK  status: ('A' for Active; 'I' for Inactive)
REMARK    1  A    between atoms: N2_2  and  N3_3 
REMARK    2  A    between atoms: N3_3  and  C4_4 
REMARK    3  A    between atoms: C4_4  and  C5_5 
REMARK    4  A    between atoms: C8_8  and  C9_9 
REMARK       I    between atoms: C9_9  and  N11_11 
REMARK    5  A    between atoms: N11_11  and  C12_12 
ROOT
ATOM      1  C5  ZIN A   1      19.446  -1.443   9.944  0.00  0.00    -0.044 A 
ATOM      2  C6  ZIN A   1      19.232  -2.214  11.073  0.00  0.00     0.009 A 
ATOM      3  C7  ZIN A   1      18.412  -3.321  11.011  0.00  0.00     0.017 A 
ATOM      4  C8  ZIN A   1      17.798  -3.664   9.806  0.00  0.00     0.032 A 
ATOM      5  C15 ZIN A   1      18.017  -2.882   8.671  0.00  0.00     0.017 A 
ATOM      6  C16 ZIN A   1      18.835  -1.774   8.748  0.00  0.00     0.009 A 
ENDROOT
BRANCH   4   7
ATOM      7  C9  ZIN A   1      16.917  -4.849   9.732  0.00  0.00     0.251 C 
ATOM      8  O10 ZIN A   1      16.676  -5.491  10.736  0.00  0.00    -0.268 OA
ATOM      9  N11 ZIN A   1      16.381  -5.218   8.551  0.00  0.00    -0.353 N 
ATOM     10  H26 ZIN A   1      16.574  -4.706   7.750  0.00  0.00     0.163 HD
BRANCH   9  11
ATOM     11  C12 ZIN A   1      15.509  -6.393   8.479  0.00  0.00     0.076 C 
ATOM     12  C13 ZIN A   1      14.388  -6.135   7.470  0.00  0.00     0.032 C 
ATOM     13  C14 ZIN A   1      16.326  -7.608   8.034  0.00  0.00     0.032 C 
ENDBRANCH   9  11
ENDBRANCH   4   7
BRANCH   1  14
ATOM     14  C4  ZIN A   1      20.344  -0.235  10.020  0.00  0.00     0.143 C 
BRANCH  14  15
ATOM     15  N3  ZIN A   1      21.458  -0.510  10.936  0.00  0.00    -0.257 NA
ATOM     16  H21 ZIN A   1      22.336  -0.542  10.439  0.00  0.00     0.141 HD
BRANCH  15  17
ATOM     17  N2  ZIN A   1      21.504   0.469  12.010  0.00  0.00    -0.265 NA
ATOM     18  C1  ZIN A   1      20.320   1.339  11.979  0.00  0.00     0.126 C 
ATOM     19  H20 ZIN A   1      22.353   1.013  11.968  0.00  0.00     0.140 HD
ENDBRANCH  15  17
ENDBRANCH  14  15
ENDBRANCH   1  14
TORSDOF 5
ENDMDL
