MODEL 1
REMARK VINA RESULT:      -9.1      0.000      0.000
REMARK  7 active torsions:
REMARK  status: ('A' for Active; 'I' for Inactive)
REMARK    1  A    between atoms: C5_5  and  C6_6 
REMARK       I    between atoms: C6_6  and  N8_8 
REMARK    2  A    between atoms: N8_8  and  C9_9 
REMARK    3  A    between atoms: C9_9  and  C10_10 
REMARK    4  A    between atoms: C10_10  and  C11_11 
REMARK    5  A    between atoms: C14_14  and  S15_15 
REMARK    6  A    between atoms: S15_15  and  N18_18 
REMARK       I    between atoms: N18_18  and  C19_19 
REMARK       I    between atoms: C19_19  and  N21_21 
REMARK    7  A    between atoms: N21_21  and  C22_22 
ROOT
ATOM      1  C11 ZIN A   1      18.138   0.195   6.550  0.00  0.00    -0.057 A 
ATOM      2  C12 ZIN A   1      17.384  -0.294   7.601  0.00  0.00     0.009 A 
ATOM      3  C13 ZIN A   1      17.456   0.309   8.842  0.00  0.00     0.026 A 
ATOM      4  C14 ZIN A   1      18.280   1.402   9.035  0.00  0.00     0.081 A 
ATOM      5  C28 ZIN A   1      19.035   1.891   7.984  0.00  0.00     0.026 A 
ATOM      6  C29 ZIN A   1      18.966   1.285   6.743  0.00  0.00     0.009 A 
ENDROOT
BRANCH   4   7
ATOM      7  S15 ZIN A   1      18.371   2.171  10.617  0.00  0.00     0.287 S 
ATOM      8  O16 ZIN A   1      19.661   2.760  10.703  0.00  0.00    -0.198 OA
ATOM      9  O17 ZIN A   1      17.167   2.908  10.774  0.00  0.00    -0.198 OA
BRANCH   7  10
ATOM     10  N18 ZIN A   1      18.331   0.964  11.751  0.00  0.00    -0.102 NA
ATOM     11  C19 ZIN A   1      18.147   1.267  13.051  0.00  0.00     0.353 C 
ATOM     12  O20 ZIN A   1      18.010   2.427  13.392  0.00  0.00    -0.244 OA
ATOM     13  N21 ZIN A   1      18.115   0.286  13.974  0.00  0.00    -0.336 N 
ATOM     14  H43 ZIN A   1      18.224  -0.639  13.703  0.00  0.00     0.164 HD
BRANCH  13  15
ATOM     15  C22 ZIN A   1      17.914   0.616  15.388  0.00  0.00     0.086 C 
ATOM     16  C27 ZIN A   1      19.192   1.237  15.953  0.00  0.00     0.025 C 
ATOM     17  C26 ZIN A   1      18.982   1.582  17.429  0.00  0.00     0.002 C 
ATOM     18  C25 ZIN A   1      18.647   0.307  18.207  0.00  0.00     0.000 C 
ATOM     19  C24 ZIN A   1      17.368  -0.313  17.642  0.00  0.00     0.002 C 
ATOM     20  C23 ZIN A   1      17.578  -0.658  16.165  0.00  0.00     0.025 C 
ENDBRANCH  13  15
ENDBRANCH   7  10
ENDBRANCH   4   7
BRANCH   1  21
ATOM     21  C10 ZIN A   1      18.060  -0.461   5.196  0.00  0.00     0.058 C 
BRANCH  21  22
ATOM     22  C9  ZIN A   1      19.155  -1.524   5.082  0.00  0.00     0.127 C 
BRANCH  22  23
ATOM     23  N8  ZIN A   1      18.570  -2.851   5.293  0.00  0.00    -0.355 N 
ATOM     24  C6  ZIN A   1      19.261  -3.793   5.965  0.00  0.00     0.271 C 
ATOM     25  O7  ZIN A   1      20.369  -3.541   6.396  0.00  0.00    -0.266 OA
ATOM     26  H36 ZIN A   1      17.686  -3.052   4.949  0.00  0.00     0.162 HD
BRANCH  24  27
ATOM     27  C5  ZIN A   1      18.671  -5.135   6.179  0.00  0.00     0.141 A 
ATOM     28  N4  ZIN A   1      17.862  -5.660   5.262  0.00  0.00    -0.252 NA
ATOM     29  C3  ZIN A   1      17.338  -6.854   5.456  0.00  0.00     0.144 A 
ATOM     30  C2  ZIN A   1      17.628  -7.563   6.612  0.00  0.00     0.048 A 
ATOM     31  C1  ZIN A   1      17.025  -8.928   6.828  0.00  0.00     0.072 C 
ATOM     32  N31 ZIN A   1      18.427  -7.043   7.528  0.00  0.00    -0.262 NA
ATOM     33  C30 ZIN A   1      18.961  -5.850   7.340  0.00  0.00     0.154 A 
ENDBRANCH  24  27
ENDBRANCH  22  23
ENDBRANCH  21  22
ENDBRANCH   1  21
TORSDOF 7
ENDMDL
MODEL 2
REMARK VINA RESULT:      -9.1      2.723     10.438
REMARK  7 active torsions:
REMARK  status: ('A' for Active; 'I' for Inactive)
REMARK    1  A    between atoms: C5_5  and  C6_6 
REMARK       I    between atoms: C6_6  and  N8_8 
REMARK    2  A    between atoms: N8_8  and  C9_9 
REMARK    3  A    between atoms: C9_9  and  C10_10 
REMARK    4  A    between atoms: C10_10  and  C11_11 
REMARK    5  A    between atoms: C14_14  and  S15_15 
REMARK    6  A    between atoms: S15_15  and  N18_18 
REMARK       I    between atoms: N18_18  and  C19_19 
REMARK       I    between atoms: C19_19  and  N21_21 
REMARK    7  A    between atoms: N21_21  and  C22_22 
ROOT
ATOM      1  C11 ZIN A   1      18.945   1.496   8.769  0.00  0.00    -0.057 A 
ATOM      2  C12 ZIN A   1      19.091   0.168   9.125  0.00  0.00     0.009 A 
ATOM      3  C13 ZIN A   1      19.190  -0.802   8.145  0.00  0.00     0.026 A 
ATOM      4  C14 ZIN A   1      19.145  -0.446   6.810  0.00  0.00     0.081 A 
ATOM      5  C28 ZIN A   1      18.999   0.883   6.456  0.00  0.00     0.026 A 
ATOM      6  C29 ZIN A   1      18.895   1.852   7.435  0.00  0.00     0.009 A 
ENDROOT
BRANCH   4   7
ATOM      7  S15 ZIN A   1      19.273  -1.682   5.563  0.00  0.00     0.287 S 
ATOM      8  O16 ZIN A   1      19.855  -1.052   4.431  0.00  0.00    -0.198 OA
ATOM      9  O17 ZIN A   1      19.833  -2.828   6.189  0.00  0.00    -0.198 OA
BRANCH   7  10
ATOM     10  N18 ZIN A   1      17.730  -2.097   5.124  0.00  0.00    -0.102 NA
ATOM     11  C19 ZIN A   1      17.516  -3.196   4.374  0.00  0.00     0.353 C 
ATOM     12  O20 ZIN A   1      18.454  -3.882   4.018  0.00  0.00    -0.244 OA
ATOM     13  N21 ZIN A   1      16.261  -3.534   4.016  0.00  0.00    -0.336 N 
ATOM     14  H43 ZIN A   1      15.512  -2.986   4.300  0.00  0.00     0.164 HD
BRANCH  13  15
ATOM     15  C22 ZIN A   1      16.027  -4.728   3.200  0.00  0.00     0.086 C 
ATOM     16  C27 ZIN A   1      15.473  -4.314   1.836  0.00  0.00     0.025 C 
ATOM     17  C26 ZIN A   1      15.229  -5.560   0.984  0.00  0.00     0.002 C 
ATOM     18  C25 ZIN A   1      14.221  -6.472   1.689  0.00  0.00     0.000 C 
ATOM     19  C24 ZIN A   1      14.778  -6.886   3.053  0.00  0.00     0.002 C 
ATOM     20  C23 ZIN A   1      15.021  -5.638   3.905  0.00  0.00     0.025 C 
ENDBRANCH  13  15
ENDBRANCH   7  10
ENDBRANCH   4   7
BRANCH   1  21
ATOM     21  C10 ZIN A   1      18.837   2.554   9.837  0.00  0.00     0.058 C 
BRANCH  21  22
ATOM     22  C9  ZIN A   1      17.608   2.278  10.704  0.00  0.00     0.127 C 
BRANCH  22  23
ATOM     23  N8  ZIN A   1      18.034   1.985  12.075  0.00  0.00    -0.355 N 
ATOM     24  C6  ZIN A   1      17.569   0.888  12.706  0.00  0.00     0.271 C 
ATOM     25  O7  ZIN A   1      16.796   0.143  12.136  0.00  0.00    -0.266 OA
ATOM     26  H36 ZIN A   1      18.651   2.579  12.529  0.00  0.00     0.162 HD
BRANCH  24  27
ATOM     27  C5  ZIN A   1      18.000   0.590  14.091  0.00  0.00     0.141 A 
ATOM     28  N4  ZIN A   1      18.107  -0.672  14.499  0.00  0.00    -0.252 NA
ATOM     29  C3  ZIN A   1      18.490  -0.932  15.733  0.00  0.00     0.144 A 
ATOM     30  C2  ZIN A   1      18.783   0.105  16.606  0.00  0.00     0.048 A 
ATOM     31  C1  ZIN A   1      19.220  -0.200  18.016  0.00  0.00     0.072 C 
ATOM     32  N31 ZIN A   1      18.673   1.360  16.207  0.00  0.00    -0.262 NA
ATOM     33  C30 ZIN A   1      18.295   1.631  14.970  0.00  0.00     0.154 A 
ENDBRANCH  24  27
ENDBRANCH  22  23
ENDBRANCH  21  22
ENDBRANCH   1  21
TORSDOF 7
ENDMDL
MODEL 3
REMARK VINA RESULT:      -9.0      1.672      2.222
REMARK  7 active torsions:
REMARK  status: ('A' for Active; 'I' for Inactive)
REMARK    1  A    between atoms: C5_5  and  C6_6 
REMARK       I    between atoms: C6_6  and  N8_8 
REMARK    2  A    between atoms: N8_8  and  C9_9 
REMARK    3  A    between atoms: C9_9  and  C10_10 
REMARK    4  A    between atoms: C10_10  and  C11_11 
REMARK    5  A    between atoms: C14_14  and  S15_15 
REMARK    6  A    between atoms: S15_15  and  N18_18 
REMARK       I    between atoms: N18_18  and  C19_19 
REMARK       I    between atoms: C19_19  and  N21_21 
REMARK    7  A    between atoms: N21_21  and  C22_22 
ROOT
ATOM      1  C11 ZIN A   1      18.191   0.235   6.423  0.00  0.00    -0.057 A 
ATOM      2  C12 ZIN A   1      19.156   1.189   6.688  0.00  0.00     0.009 A 
ATOM      3  C13 ZIN A   1      19.218   1.780   7.936  0.00  0.00     0.026 A 
ATOM      4  C14 ZIN A   1      18.315   1.419   8.919  0.00  0.00     0.081 A 
ATOM      5  C28 ZIN A   1      17.349   0.466   8.653  0.00  0.00     0.026 A 
ATOM      6  C29 ZIN A   1      17.285  -0.123   7.404  0.00  0.00     0.009 A 
ENDROOT
BRANCH   4   7
ATOM      7  S15 ZIN A   1      18.394   2.173  10.509  0.00  0.00     0.287 S 
ATOM      8  O16 ZIN A   1      19.652   2.829  10.579  0.00  0.00    -0.198 OA
ATOM      9  O17 ZIN A   1      17.156   2.843  10.697  0.00  0.00    -0.198 OA
BRANCH   7  10
ATOM     10  N18 ZIN A   1      18.440   0.953  11.628  0.00  0.00    -0.102 NA
ATOM     11  C19 ZIN A   1      18.199   1.221  12.927  0.00  0.00     0.353 C 
ATOM     12  O20 ZIN A   1      17.948   2.358  13.277  0.00  0.00    -0.244 OA
ATOM     13  N21 ZIN A   1      18.237   0.229  13.838  0.00  0.00    -0.336 N 
ATOM     14  H43 ZIN A   1      18.437  -0.679  13.559  0.00  0.00     0.164 HD
BRANCH  13  15
ATOM     15  C22 ZIN A   1      17.975   0.520  15.250  0.00  0.00     0.086 C 
ATOM     16  C27 ZIN A   1      19.217   1.151  15.880  0.00  0.00     0.025 C 
ATOM     17  C26 ZIN A   1      18.943   1.455  17.354  0.00  0.00     0.002 C 
ATOM     18  C25 ZIN A   1      18.603   0.156  18.088  0.00  0.00     0.000 C 
ATOM     19  C24 ZIN A   1      17.360  -0.475  17.458  0.00  0.00     0.002 C 
ATOM     20  C23 ZIN A   1      17.634  -0.779  15.983  0.00  0.00     0.025 C 
ENDBRANCH  13  15
ENDBRANCH   7  10
ENDBRANCH   4   7
BRANCH   1  21
ATOM     21  C10 ZIN A   1      18.124  -0.412   5.063  0.00  0.00     0.058 C 
BRANCH  21  22
ATOM     22  C9  ZIN A   1      18.737  -1.812   5.135  0.00  0.00     0.127 C 
BRANCH  22  23
ATOM     23  N8  ZIN A   1      18.332  -2.457   6.386  0.00  0.00    -0.355 N 
ATOM     24  C6  ZIN A   1      19.162  -3.330   6.994  0.00  0.00     0.271 C 
ATOM     25  O7  ZIN A   1      20.245  -3.579   6.502  0.00  0.00    -0.266 OA
ATOM     26  H36 ZIN A   1      17.468  -2.259   6.778  0.00  0.00     0.162 HD
BRANCH  24  27
ATOM     27  C5  ZIN A   1      18.754  -3.983   8.259  0.00  0.00     0.141 A 
ATOM     28  N4  ZIN A   1      19.361  -5.097   8.659  0.00  0.00    -0.252 NA
ATOM     29  C3  ZIN A   1      18.994  -5.676   9.786  0.00  0.00     0.144 A 
ATOM     30  C2  ZIN A   1      17.979  -5.126  10.554  0.00  0.00     0.048 A 
ATOM     31  C1  ZIN A   1      17.564  -5.792  11.840  0.00  0.00     0.072 C 
ATOM     32  N31 ZIN A   1      17.370  -4.022  10.157  0.00  0.00    -0.262 NA
ATOM     33  C30 ZIN A   1      17.734  -3.432   9.033  0.00  0.00     0.154 A 
ENDBRANCH  24  27
ENDBRANCH  22  23
ENDBRANCH  21  22
ENDBRANCH   1  21
TORSDOF 7
ENDMDL
MODEL 4
REMARK VINA RESULT:      -8.9      1.576      1.977
REMARK  7 active torsions:
REMARK  status: ('A' for Active; 'I' for Inactive)
REMARK    1  A    between atoms: C5_5  and  C6_6 
REMARK       I    between atoms: C6_6  and  N8_8 
REMARK    2  A    between atoms: N8_8  and  C9_9 
REMARK    3  A    between atoms: C9_9  and  C10_10 
REMARK    4  A    between atoms: C10_10  and  C11_11 
REMARK    5  A    between atoms: C14_14  and  S15_15 
REMARK    6  A    between atoms: S15_15  and  N18_18 
REMARK       I    between atoms: N18_18  and  C19_19 
REMARK       I    between atoms: C19_19  and  N21_21 
REMARK    7  A    between atoms: N21_21  and  C22_22 
ROOT
ATOM      1  C11 ZIN A   1      18.437   0.317   8.493  0.00  0.00    -0.057 A 
ATOM      2  C12 ZIN A   1      17.578   0.129   9.560  0.00  0.00     0.009 A 
ATOM      3  C13 ZIN A   1      17.363   1.154  10.463  0.00  0.00     0.026 A 
ATOM      4  C14 ZIN A   1      18.007   2.367  10.300  0.00  0.00     0.081 A 
ATOM      5  C28 ZIN A   1      18.866   2.554   9.233  0.00  0.00     0.026 A 
ATOM      6  C29 ZIN A   1      19.084   1.528   8.332  0.00  0.00     0.009 A 
ENDROOT
BRANCH   4   7
ATOM      7  S15 ZIN A   1      17.732   3.672  11.450  0.00  0.00     0.287 S 
ATOM      8  O16 ZIN A   1      19.009   4.218  11.748  0.00  0.00    -0.198 OA
ATOM      9  O17 ZIN A   1      16.658   4.444  10.932  0.00  0.00    -0.198 OA
BRANCH   7  10
ATOM     10  N18 ZIN A   1      17.179   2.983  12.851  0.00  0.00    -0.102 NA
ATOM     11  C19 ZIN A   1      18.032   2.320  13.657  0.00  0.00     0.353 C 
ATOM     12  O20 ZIN A   1      19.206   2.227  13.357  0.00  0.00    -0.244 OA
ATOM     13  N21 ZIN A   1      17.582   1.759  14.797  0.00  0.00    -0.336 N 
ATOM     14  H43 ZIN A   1      16.645   1.832  15.037  0.00  0.00     0.164 HD
BRANCH  13  15
ATOM     15  C22 ZIN A   1      18.509   1.038  15.674  0.00  0.00     0.086 C 
ATOM     16  C27 ZIN A   1      18.097  -0.433  15.752  0.00  0.00     0.025 C 
ATOM     17  C26 ZIN A   1      19.065  -1.186  16.667  0.00  0.00     0.002 C 
ATOM     18  C25 ZIN A   1      19.025  -0.571  18.068  0.00  0.00     0.000 C 
ATOM     19  C24 ZIN A   1      19.437   0.901  17.990  0.00  0.00     0.002 C 
ATOM     20  C23 ZIN A   1      18.468   1.653  17.074  0.00  0.00     0.025 C 
ENDBRANCH  13  15
ENDBRANCH   7  10
ENDBRANCH   4   7
BRANCH   1  21
ATOM     21  C10 ZIN A   1      18.671  -0.799   7.508  0.00  0.00     0.058 C 
BRANCH  21  22
ATOM     22  C9  ZIN A   1      18.784  -2.126   8.261  0.00  0.00     0.127 C 
BRANCH  22  23
ATOM     23  N8  ZIN A   1      18.234  -3.204   7.434  0.00  0.00    -0.355 N 
ATOM     24  C6  ZIN A   1      19.016  -3.823   6.527  0.00  0.00     0.271 C 
ATOM     25  O7  ZIN A   1      20.177  -3.488   6.397  0.00  0.00    -0.266 OA
ATOM     26  H36 ZIN A   1      17.308  -3.472   7.538  0.00  0.00     0.162 HD
BRANCH  24  27
ATOM     27  C5  ZIN A   1      18.462  -4.913   5.691  0.00  0.00     0.141 A 
ATOM     28  N4  ZIN A   1      17.910  -4.634   4.513  0.00  0.00    -0.252 NA
ATOM     29  C3  ZIN A   1      17.417  -5.606   3.772  0.00  0.00     0.144 A 
ATOM     30  C2  ZIN A   1      17.472  -6.918   4.217  0.00  0.00     0.048 A 
ATOM     31  C1  ZIN A   1      16.906  -8.025   3.366  0.00  0.00     0.072 C 
ATOM     32  N31 ZIN A   1      18.015  -7.200   5.389  0.00  0.00    -0.262 NA
ATOM     33  C30 ZIN A   1      18.516  -6.233   6.136  0.00  0.00     0.154 A 
ENDBRANCH  24  27
ENDBRANCH  22  23
ENDBRANCH  21  22
ENDBRANCH   1  21
TORSDOF 7
ENDMDL
MODEL 5
REMARK VINA RESULT:      -8.8      4.138      5.898
REMARK  7 active torsions:
REMARK  status: ('A' for Active; 'I' for Inactive)
REMARK    1  A    between atoms: C5_5  and  C6_6 
REMARK       I    between atoms: C6_6  and  N8_8 
REMARK    2  A    between atoms: N8_8  and  C9_9 
REMARK    3  A    between atoms: C9_9  and  C10_10 
REMARK    4  A    between atoms: C10_10  and  C11_11 
REMARK    5  A    between atoms: C14_14  and  S15_15 
REMARK    6  A    between atoms: S15_15  and  N18_18 
REMARK       I    between atoms: N18_18  and  C19_19 
REMARK       I    between atoms: C19_19  and  N21_21 
REMARK    7  A    between atoms: N21_21  and  C22_22 
ROOT
ATOM      1  C11 ZIN A   1      17.899   4.568  11.866  0.00  0.00    -0.057 A 
ATOM      2  C12 ZIN A   1      19.251   4.582  12.153  0.00  0.00     0.009 A 
ATOM      3  C13 ZIN A   1      19.685   4.915  13.422  0.00  0.00     0.026 A 
ATOM      4  C14 ZIN A   1      18.767   5.234  14.406  0.00  0.00     0.081 A 
ATOM      5  C28 ZIN A   1      17.414   5.221  14.118  0.00  0.00     0.026 A 
ATOM      6  C29 ZIN A   1      16.981   4.891  12.848  0.00  0.00     0.009 A 
ENDROOT
BRANCH   4   7
ATOM      7  S15 ZIN A   1      19.320   5.659  16.023  0.00  0.00     0.287 S 
ATOM      8  O16 ZIN A   1      20.662   5.203  16.120  0.00  0.00    -0.198 OA
ATOM      9  O17 ZIN A   1      18.941   7.011  16.235  0.00  0.00    -0.198 OA
BRANCH   7  10
ATOM     10  N18 ZIN A   1      18.440   4.753  17.095  0.00  0.00    -0.102 NA
ATOM     11  C19 ZIN A   1      18.526   3.409  17.072  0.00  0.00     0.353 C 
ATOM     12  O20 ZIN A   1      19.250   2.860  16.263  0.00  0.00    -0.244 OA
ATOM     13  N21 ZIN A   1      17.810   2.672  17.943  0.00  0.00    -0.336 N 
ATOM     14  H43 ZIN A   1      17.233   3.110  18.589  0.00  0.00     0.164 HD
BRANCH  13  15
ATOM     15  C22 ZIN A   1      17.904   1.210  17.918  0.00  0.00     0.086 C 
ATOM     16  C27 ZIN A   1      19.365   0.789  18.090  0.00  0.00     0.025 C 
ATOM     17  C26 ZIN A   1      19.463  -0.737  18.064  0.00  0.00     0.002 C 
ATOM     18  C25 ZIN A   1      18.935  -1.260  16.726  0.00  0.00     0.000 C 
ATOM     19  C24 ZIN A   1      17.474  -0.840  16.556  0.00  0.00     0.002 C 
ATOM     20  C23 ZIN A   1      17.377   0.688  16.581  0.00  0.00     0.025 C 
ENDBRANCH  13  15
ENDBRANCH   7  10
ENDBRANCH   4   7
BRANCH   1  21
ATOM     21  C10 ZIN A   1      17.425   4.203  10.483  0.00  0.00     0.058 C 
BRANCH  21  22
ATOM     22  C9  ZIN A   1      18.445   3.273   9.824  0.00  0.00     0.127 C 
BRANCH  22  23
ATOM     23  N8  ZIN A   1      18.008   1.883   9.977  0.00  0.00    -0.355 N 
ATOM     24  C6  ZIN A   1      18.780   1.003  10.645  0.00  0.00     0.271 C 
ATOM     25  O7  ZIN A   1      19.839   1.364  11.120  0.00  0.00    -0.266 OA
ATOM     26  H36 ZIN A   1      17.163   1.595   9.599  0.00  0.00     0.162 HD
BRANCH  24  27
ATOM     27  C5  ZIN A   1      18.339  -0.402  10.801  0.00  0.00     0.141 A 
ATOM     28  N4  ZIN A   1      18.794  -1.339   9.974  0.00  0.00    -0.252 NA
ATOM     29  C3  ZIN A   1      18.398  -2.589  10.115  0.00  0.00     0.144 A 
ATOM     30  C2  ZIN A   1      17.509  -2.928  11.124  0.00  0.00     0.048 A 
ATOM     31  C1  ZIN A   1      17.060  -4.358  11.280  0.00  0.00     0.072 C 
ATOM     32  N31 ZIN A   1      17.050  -2.000  11.945  0.00  0.00    -0.262 NA
ATOM     33  C30 ZIN A   1      17.445  -0.746  11.814  0.00  0.00     0.154 A 
ENDBRANCH  24  27
ENDBRANCH  22  23
ENDBRANCH  21  22
ENDBRANCH   1  21
TORSDOF 7
ENDMDL
MODEL 6
REMARK VINA RESULT:      -8.7      4.070      9.235
REMARK  7 active torsions:
REMARK  status: ('A' for Active; 'I' for Inactive)
REMARK    1  A    between atoms: C5_5  and  C6_6 
REMARK       I    between atoms: C6_6  and  N8_8 
REMARK    2  A    between atoms: N8_8  and  C9_9 
REMARK    3  A    between atoms: C9_9  and  C10_10 
REMARK    4  A    between atoms: C10_10  and  C11_11 
REMARK    5  A    between atoms: C14_14  and  S15_15 
REMARK    6  A    between atoms: S15_15  and  N18_18 
REMARK       I    between atoms: N18_18  and  C19_19 
REMARK       I    between atoms: C19_19  and  N21_21 
REMARK    7  A    between atoms: N21_21  and  C22_22 
ROOT
ATOM      1  C11 ZIN A   1      18.725   5.755  13.936  0.00  0.00    -0.057 A 
ATOM      2  C12 ZIN A   1      17.493   5.226  13.599  0.00  0.00     0.009 A 
ATOM      3  C13 ZIN A   1      17.407   4.224  12.650  0.00  0.00     0.026 A 
ATOM      4  C14 ZIN A   1      18.553   3.751  12.038  0.00  0.00     0.081 A 
ATOM      5  C28 ZIN A   1      19.785   4.282  12.375  0.00  0.00     0.026 A 
ATOM      6  C29 ZIN A   1      19.870   5.286  13.321  0.00  0.00     0.009 A 
ENDROOT
BRANCH   4   7
ATOM      7  S15 ZIN A   1      18.444   2.475  10.829  0.00  0.00     0.287 S 
ATOM      8  O16 ZIN A   1      17.060   2.285  10.571  0.00  0.00    -0.198 OA
ATOM      9  O17 ZIN A   1      19.387   2.799   9.817  0.00  0.00    -0.198 OA
BRANCH   7  10
ATOM     10  N18 ZIN A   1      18.983   1.079  11.540  0.00  0.00    -0.102 NA
ATOM     11  C19 ZIN A   1      18.686  -0.115  10.990  0.00  0.00     0.353 C 
ATOM     12  O20 ZIN A   1      18.023  -0.168   9.972  0.00  0.00    -0.244 OA
ATOM     13  N21 ZIN A   1      19.124  -1.250  11.568  0.00  0.00    -0.336 N 
ATOM     14  H43 ZIN A   1      19.653  -1.209  12.380  0.00  0.00     0.164 HD
BRANCH  13  15
ATOM     15  C22 ZIN A   1      18.802  -2.549  10.970  0.00  0.00     0.086 C 
ATOM     16  C27 ZIN A   1      17.441  -3.023  11.482  0.00  0.00     0.025 C 
ATOM     17  C26 ZIN A   1      17.104  -4.378  10.858  0.00  0.00     0.002 C 
ATOM     18  C25 ZIN A   1      18.178  -5.399  11.244  0.00  0.00     0.000 C 
ATOM     19  C24 ZIN A   1      19.539  -4.924  10.730  0.00  0.00     0.002 C 
ATOM     20  C23 ZIN A   1      19.876  -3.568  11.356  0.00  0.00     0.025 C 
ENDBRANCH  13  15
ENDBRANCH   7  10
ENDBRANCH   4   7
BRANCH   1  21
ATOM     21  C10 ZIN A   1      18.819   6.846  14.971  0.00  0.00     0.058 C 
BRANCH  21  22
ATOM     22  C9  ZIN A   1      19.145   6.229  16.333  0.00  0.00     0.127 C 
BRANCH  22  23
ATOM     23  N8  ZIN A   1      18.709   4.830  16.351  0.00  0.00    -0.355 N 
ATOM     24  C6  ZIN A   1      19.618   3.841  16.465  0.00  0.00     0.271 C 
ATOM     25  O7  ZIN A   1      20.800   4.111  16.552  0.00  0.00    -0.266 OA
ATOM     26  H36 ZIN A   1      17.766   4.615  16.281  0.00  0.00     0.162 HD
BRANCH  24  27
ATOM     27  C5  ZIN A   1      19.178   2.427  16.483  0.00  0.00     0.141 A 
ATOM     28  N4  ZIN A   1      19.498   1.643  17.509  0.00  0.00    -0.252 NA
ATOM     29  C3  ZIN A   1      19.104   0.385  17.522  0.00  0.00     0.144 A 
ATOM     30  C2  ZIN A   1      18.357  -0.122  16.469  0.00  0.00     0.048 A 
ATOM     31  C1  ZIN A   1      17.911  -1.561  16.490  0.00  0.00     0.072 C 
ATOM     32  N31 ZIN A   1      18.041   0.652  15.446  0.00  0.00    -0.262 NA
ATOM     33  C30 ZIN A   1      18.427   1.915  15.426  0.00  0.00     0.154 A 
ENDBRANCH  24  27
ENDBRANCH  22  23
ENDBRANCH  21  22
ENDBRANCH   1  21
TORSDOF 7
ENDMDL
MODEL 7
REMARK VINA RESULT:      -8.7      3.231     11.659
REMARK  7 active torsions:
REMARK  status: ('A' for Active; 'I' for Inactive)
REMARK    1  A    between atoms: C5_5  and  C6_6 
REMARK       I    between atoms: C6_6  and  N8_8 
REMARK    2  A    between atoms: N8_8  and  C9_9 
REMARK    3  A    between atoms: C9_9  and  C10_10 
REMARK    4  A    between atoms: C10_10  and  C11_11 
REMARK    5  A    between atoms: C14_14  and  S15_15 
REMARK    6  A    between atoms: S15_15  and  N18_18 
REMARK       I    between atoms: N18_18  and  C19_19 
REMARK       I    between atoms: C19_19  and  N21_21 
REMARK    7  A    between atoms: N21_21  and  C22_22 
ROOT
ATOM      1  C11 ZIN A   1      17.956  -0.479  15.734  0.00  0.00    -0.057 A 
ATOM      2  C12 ZIN A   1      17.451   0.552  14.964  0.00  0.00     0.009 A 
ATOM      3  C13 ZIN A   1      17.984   0.807  13.715  0.00  0.00     0.026 A 
ATOM      4  C14 ZIN A   1      19.023   0.031  13.234  0.00  0.00     0.081 A 
ATOM      5  C28 ZIN A   1      19.529  -1.000  14.005  0.00  0.00     0.026 A 
ATOM      6  C29 ZIN A   1      18.998  -1.252  15.256  0.00  0.00     0.009 A 
ENDROOT
BRANCH   4   7
ATOM      7  S15 ZIN A   1      19.702   0.356  11.641  0.00  0.00     0.287 S 
ATOM      8  O16 ZIN A   1      19.272   1.661  11.281  0.00  0.00    -0.198 OA
ATOM      9  O17 ZIN A   1      21.069  -0.024  11.703  0.00  0.00    -0.198 OA
BRANCH   7  10
ATOM     10  N18 ZIN A   1      18.976  -0.686  10.577  0.00  0.00    -0.102 NA
ATOM     11  C19 ZIN A   1      19.207  -0.567   9.255  0.00  0.00     0.353 C 
ATOM     12  O20 ZIN A   1      19.948   0.304   8.843  0.00  0.00    -0.244 OA
ATOM     13  N21 ZIN A   1      18.616  -1.414   8.389  0.00  0.00    -0.336 N 
ATOM     14  H43 ZIN A   1      18.025  -2.109   8.718  0.00  0.00     0.164 HD
BRANCH  13  15
ATOM     15  C22 ZIN A   1      18.867  -1.286   6.951  0.00  0.00     0.086 C 
ATOM     16  C27 ZIN A   1      17.797  -0.390   6.324  0.00  0.00     0.025 C 
ATOM     17  C26 ZIN A   1      18.059  -0.255   4.823  0.00  0.00     0.002 C 
ATOM     18  C25 ZIN A   1      18.013  -1.640   4.171  0.00  0.00     0.000 C 
ATOM     19  C24 ZIN A   1      19.084  -2.534   4.798  0.00  0.00     0.002 C 
ATOM     20  C23 ZIN A   1      18.821  -2.669   6.300  0.00  0.00     0.025 C 
ENDBRANCH  13  15
ENDBRANCH   7  10
ENDBRANCH   4   7
BRANCH   1  21
ATOM     21  C10 ZIN A   1      17.375  -0.758  17.096  0.00  0.00     0.058 C 
BRANCH  21  22
ATOM     22  C9  ZIN A   1      18.168   0.011  18.154  0.00  0.00     0.127 C 
BRANCH  22  23
ATOM     23  N8  ZIN A   1      17.711   1.403  18.189  0.00  0.00    -0.355 N 
ATOM     24  C6  ZIN A   1      18.599   2.399  18.383  0.00  0.00     0.271 C 
ATOM     25  O7  ZIN A   1      19.778   2.141  18.528  0.00  0.00    -0.266 OA
ATOM     26  H36 ZIN A   1      16.771   1.609  18.073  0.00  0.00     0.162 HD
BRANCH  24  27
ATOM     27  C5  ZIN A   1      18.139   3.806  18.418  0.00  0.00     0.141 A 
ATOM     28  N4  ZIN A   1      18.447   4.633  17.423  0.00  0.00    -0.252 NA
ATOM     29  C3  ZIN A   1      18.036   5.885  17.458  0.00  0.00     0.144 A 
ATOM     30  C2  ZIN A   1      17.283   6.342  18.529  0.00  0.00     0.048 A 
ATOM     31  C1  ZIN A   1      16.816   7.774  18.564  0.00  0.00     0.072 C 
ATOM     32  N31 ZIN A   1      16.978   5.525  19.523  0.00  0.00    -0.262 NA
ATOM     33  C30 ZIN A   1      17.381   4.267  19.494  0.00  0.00     0.154 A 
ENDBRANCH  24  27
ENDBRANCH  22  23
ENDBRANCH  21  22
ENDBRANCH   1  21
TORSDOF 7
ENDMDL
MODEL 8
REMARK VINA RESULT:      -8.6      3.918      4.625
REMARK  7 active torsions:
REMARK  status: ('A' for Active; 'I' for Inactive)
REMARK    1  A    between atoms: C5_5  and  C6_6 
REMARK       I    between atoms: C6_6  and  N8_8 
REMARK    2  A    between atoms: N8_8  and  C9_9 
REMARK    3  A    between atoms: C9_9  and  C10_10 
REMARK    4  A    between atoms: C10_10  and  C11_11 
REMARK    5  A    between atoms: C14_14  and  S15_15 
REMARK    6  A    between atoms: S15_15  and  N18_18 
REMARK       I    between atoms: N18_18  and  C19_19 
REMARK       I    between atoms: C19_19  and  N21_21 
REMARK    7  A    between atoms: N21_21  and  C22_22 
ROOT
ATOM      1  C11 ZIN A   1      18.622   3.104  10.100  0.00  0.00    -0.057 A 
ATOM      2  C12 ZIN A   1      19.736   3.028  10.914  0.00  0.00     0.009 A 
ATOM      3  C13 ZIN A   1      19.783   3.754  12.089  0.00  0.00     0.026 A 
ATOM      4  C14 ZIN A   1      18.716   4.556  12.451  0.00  0.00     0.081 A 
ATOM      5  C28 ZIN A   1      17.603   4.632  11.635  0.00  0.00     0.026 A 
ATOM      6  C29 ZIN A   1      17.557   3.909  10.458  0.00  0.00     0.009 A 
ENDROOT
BRANCH   4   7
ATOM      7  S15 ZIN A   1      18.776   5.481  13.949  0.00  0.00     0.287 S 
ATOM      8  O16 ZIN A   1      19.744   6.502  13.751  0.00  0.00    -0.198 OA
ATOM      9  O17 ZIN A   1      17.429   5.747  14.311  0.00  0.00    -0.198 OA
BRANCH   7  10
ATOM     10  N18 ZIN A   1      19.386   4.479  15.119  0.00  0.00    -0.102 NA
ATOM     11  C19 ZIN A   1      18.852   3.256  15.303  0.00  0.00     0.353 C 
ATOM     12  O20 ZIN A   1      17.922   2.887  14.611  0.00  0.00    -0.244 OA
ATOM     13  N21 ZIN A   1      19.346   2.441  16.255  0.00  0.00    -0.336 N 
ATOM     14  H43 ZIN A   1      20.088   2.735  16.808  0.00  0.00     0.164 HD
BRANCH  13  15
ATOM     15  C22 ZIN A   1      18.766   1.110  16.456  0.00  0.00     0.086 C 
ATOM     16  C27 ZIN A   1      19.260   0.534  17.784  0.00  0.00     0.025 C 
ATOM     17  C26 ZIN A   1      18.654  -0.855  17.995  0.00  0.00     0.002 C 
ATOM     18  C25 ZIN A   1      19.080  -1.776  16.849  0.00  0.00     0.000 C 
ATOM     19  C24 ZIN A   1      18.585  -1.199  15.521  0.00  0.00     0.002 C 
ATOM     20  C23 ZIN A   1      19.192   0.190  15.311  0.00  0.00     0.025 C 
ENDBRANCH  13  15
ENDBRANCH   7  10
ENDBRANCH   4   7
BRANCH   1  21
ATOM     21  C10 ZIN A   1      18.569   2.312   8.818  0.00  0.00     0.058 C 
BRANCH  21  22
ATOM     22  C9  ZIN A   1      19.658   1.237   8.840  0.00  0.00     0.127 C 
BRANCH  22  23
ATOM     23  N8  ZIN A   1      19.093  -0.019   9.338  0.00  0.00    -0.355 N 
ATOM     24  C6  ZIN A   1      19.748  -0.726  10.282  0.00  0.00     0.271 C 
ATOM     25  O7  ZIN A   1      20.807  -0.319  10.718  0.00  0.00    -0.266 OA
ATOM     26  H36 ZIN A   1      18.248  -0.344   8.991  0.00  0.00     0.162 HD
BRANCH  24  27
ATOM     27  C5  ZIN A   1      19.178  -1.996  10.787  0.00  0.00     0.141 A 
ATOM     28  N4  ZIN A   1      17.872  -2.092  11.025  0.00  0.00    -0.252 NA
ATOM     29  C3  ZIN A   1      17.368  -3.224  11.475  0.00  0.00     0.144 A 
ATOM     30  C2  ZIN A   1      18.195  -4.314  11.699  0.00  0.00     0.048 A 
ATOM     31  C1  ZIN A   1      17.613  -5.605  12.214  0.00  0.00     0.072 C 
ATOM     32  N31 ZIN A   1      19.493  -4.222  11.469  0.00  0.00    -0.262 NA
ATOM     33  C30 ZIN A   1      20.007  -3.094  11.013  0.00  0.00     0.154 A 
ENDBRANCH  24  27
ENDBRANCH  22  23
ENDBRANCH  21  22
ENDBRANCH   1  21
TORSDOF 7
ENDMDL
MODEL 9
REMARK VINA RESULT:      -8.6      3.386     10.652
REMARK  7 active torsions:
REMARK  status: ('A' for Active; 'I' for Inactive)
REMARK    1  A    between atoms: C5_5  and  C6_6 
REMARK       I    between atoms: C6_6  and  N8_8 
REMARK    2  A    between atoms: N8_8  and  C9_9 
REMARK    3  A    between atoms: C9_9  and  C10_10 
REMARK    4  A    between atoms: C10_10  and  C11_11 
REMARK    5  A    between atoms: C14_14  and  S15_15 
REMARK    6  A    between atoms: S15_15  and  N18_18 
REMARK       I    between atoms: N18_18  and  C19_19 
REMARK       I    between atoms: C19_19  and  N21_21 
REMARK    7  A    between atoms: N21_21  and  C22_22 
ROOT
ATOM      1  C11 ZIN A   1      18.992  -0.533  14.285  0.00  0.00    -0.057 A 
ATOM      2  C12 ZIN A   1      20.059   0.267  13.921  0.00  0.00     0.009 A 
ATOM      3  C13 ZIN A   1      19.882   1.272  12.989  0.00  0.00     0.026 A 
ATOM      4  C14 ZIN A   1      18.639   1.479  12.421  0.00  0.00     0.081 A 
ATOM      5  C28 ZIN A   1      17.572   0.678  12.785  0.00  0.00     0.026 A 
ATOM      6  C29 ZIN A   1      17.750  -0.330  13.714  0.00  0.00     0.009 A 
ENDROOT
BRANCH   4   7
ATOM      7  S15 ZIN A   1      18.414   2.761  11.235  0.00  0.00     0.287 S 
ATOM      8  O16 ZIN A   1      17.038   2.743  10.881  0.00  0.00    -0.198 OA
ATOM      9  O17 ZIN A   1      19.068   3.910  11.756  0.00  0.00    -0.198 OA
BRANCH   7  10
ATOM     10  N18 ZIN A   1      19.252   2.323   9.875  0.00  0.00    -0.102 NA
ATOM     11  C19 ZIN A   1      18.703   1.466   8.992  0.00  0.00     0.353 C 
ATOM     12  O20 ZIN A   1      17.592   1.014   9.193  0.00  0.00    -0.244 OA
ATOM     13  N21 ZIN A   1      19.384   1.109   7.886  0.00  0.00    -0.336 N 
ATOM     14  H43 ZIN A   1      20.271   1.470   7.725  0.00  0.00     0.164 HD
BRANCH  13  15
ATOM     15  C22 ZIN A   1      18.787   0.178   6.925  0.00  0.00     0.086 C 
ATOM     16  C27 ZIN A   1      19.259  -1.244   7.233  0.00  0.00     0.025 C 
ATOM     17  C26 ZIN A   1      18.635  -2.218   6.231  0.00  0.00     0.002 C 
ATOM     18  C25 ZIN A   1      19.065  -1.834   4.813  0.00  0.00     0.000 C 
ATOM     19  C24 ZIN A   1      18.592  -0.411   4.505  0.00  0.00     0.002 C 
ATOM     20  C23 ZIN A   1      19.217   0.562   5.508  0.00  0.00     0.025 C 
ENDBRANCH  13  15
ENDBRANCH   7  10
ENDBRANCH   4   7
BRANCH   1  21
ATOM     21  C10 ZIN A   1      19.183  -1.629  15.301  0.00  0.00     0.058 C 
BRANCH  21  22
ATOM     22  C9  ZIN A   1      18.688  -1.149  16.667  0.00  0.00     0.127 C 
BRANCH  22  23
ATOM     23  N8  ZIN A   1      18.427   0.291  16.611  0.00  0.00    -0.355 N 
ATOM     24  C6  ZIN A   1      19.090   1.129  17.434  0.00  0.00     0.271 C 
ATOM     25  O7  ZIN A   1      19.905   0.688  18.220  0.00  0.00    -0.266 OA
ATOM     26  H36 ZIN A   1      17.777   0.643  15.984  0.00  0.00     0.162 HD
BRANCH  24  27
ATOM     27  C5  ZIN A   1      18.826   2.585  17.378  0.00  0.00     0.141 A 
ATOM     28  N4  ZIN A   1      18.356   3.219  18.449  0.00  0.00    -0.252 NA
ATOM     29  C3  ZIN A   1      18.122   4.515  18.396  0.00  0.00     0.144 A 
ATOM     30  C2  ZIN A   1      18.366   5.219  17.226  0.00  0.00     0.048 A 
ATOM     31  C1  ZIN A   1      18.095   6.701  17.172  0.00  0.00     0.072 C 
ATOM     32  N31 ZIN A   1      18.828   4.594  16.158  0.00  0.00    -0.262 NA
ATOM     33  C30 ZIN A   1      19.071   3.296  16.204  0.00  0.00     0.154 A 
ENDBRANCH  24  27
ENDBRANCH  22  23
ENDBRANCH  21  22
ENDBRANCH   1  21
TORSDOF 7
ENDMDL
