MODEL 1
REMARK VINA RESULT:      -8.0      0.000      0.000
REMARK  8 active torsions:
REMARK  status: ('A' for Active; 'I' for Inactive)
REMARK    1  A    between atoms: C2_2  and  C4_4 
REMARK    2  A    between atoms: C4_4  and  O5_5 
REMARK    3  A    between atoms: O5_5  and  C6_6 
REMARK    4  A    between atoms: C6_6  and  C7_7 
REMARK    5  A    between atoms: C7_7  and  N8_8 
REMARK    6  A    between atoms: N11_11  and  C13_13 
REMARK    7  A    between atoms: C13_13  and  C15_14 
REMARK    8  A    between atoms: C13_13  and  C21_20 
ROOT
ATOM      1  N8  <0> d   1      19.029  -2.338   8.805  0.00  0.00     0.093 N 
ATOM      2  C9  <0> d   1      18.093  -2.336   9.939  0.00  0.00     0.300 C 
ATOM      3  C10 <0> d   1      18.667  -1.478  11.068  0.00  0.00     0.266 C 
ATOM      4  N11 <0> d   1      18.878  -0.106  10.583  0.00  0.00    -0.055 N 
ATOM      5  H12 <0> d   1      17.998   0.277  10.269  0.00  0.00     0.281 HD
ATOM      6  C28 <0> d   1      19.832  -0.122   9.467  0.00  0.00     0.266 C 
ATOM      7  C29 <0> d   1      19.268  -0.970   8.324  0.00  0.00     0.300 C 
ENDROOT
BRANCH   4   8
ATOM      8  C13 <0> d   1      19.411   0.722  11.672  0.00  0.00     0.254 C 
BRANCH   8   9
ATOM      9  C15 <0> d   1      18.954   2.146  11.490  0.00  0.00    -0.023 A 
ATOM     10  C20 <0> d   1      17.872   2.425  10.675  0.00  0.00     0.009 A 
ATOM     11  C19 <0> d   1      17.450   3.731  10.511  0.00  0.00     0.001 A 
ATOM     12  C18 <0> d   1      18.115   4.759  11.153  0.00  0.00     0.000 A 
ATOM     13  C17 <0> d   1      19.200   4.480  11.962  0.00  0.00     0.001 A 
ATOM     14  C16 <0> d   1      19.619   3.174  12.131  0.00  0.00     0.009 A 
ENDBRANCH   8   9
BRANCH   8  15
ATOM     15  C21 <0> d   1      18.910   0.199  12.993  0.00  0.00    -0.023 A 
ATOM     16  C27 <0> d   1      17.682   0.609  13.478  0.00  0.00     0.011 A 
ATOM     17  C26 <0> d   1      17.218   0.125  14.687  0.00  0.00     0.024 A 
ATOM     18  C24 <0> d   1      17.988  -0.762  15.417  0.00  0.00     0.034 A 
ATOM     19  C23 <0> d   1      19.220  -1.169  14.934  0.00  0.00     0.024 A 
ATOM     20 Cl25 <0> d   1      17.410  -1.366  16.939  0.00  0.00    -0.084 Cl
ATOM     21  C22 <0> d   1      19.679  -0.688  13.722  0.00  0.00     0.011 A 
ENDBRANCH   8  15
ENDBRANCH   4   8
BRANCH   1  22
ATOM     22  C7  <0> d   1      18.539  -3.199   7.721  0.00  0.00     0.298 C 
BRANCH  22  23
ATOM     23  C6  <0> d   1      19.727  -3.851   7.010  0.00  0.00     0.198 C 
BRANCH  23  24
ATOM     24  O5  <0> d   1      19.976  -3.172   5.778  0.00  0.00    -0.379 OA
BRANCH  24  25
ATOM     25  C4  <0> d   1      18.792  -2.787   5.077  0.00  0.00     0.280 C 
BRANCH  25  26
ATOM     26  C2  <0> d   1      18.947  -1.377   4.565  0.00  0.00     0.197 C 
ATOM     27  O1  <0> d   1      20.035  -0.830   4.607  0.00  0.00    -0.646 OA
ATOM     28  O3  <0> d   1      17.984  -0.787   4.107  0.00  0.00    -0.646 OA
ENDBRANCH  25  26
ENDBRANCH  24  25
ENDBRANCH  23  24
ENDBRANCH  22  23
ENDBRANCH   1  22
TORSDOF 8
ENDMDL
MODEL 2
REMARK VINA RESULT:      -7.7      5.504      8.642
REMARK  8 active torsions:
REMARK  status: ('A' for Active; 'I' for Inactive)
REMARK    1  A    between atoms: C2_2  and  C4_4 
REMARK    2  A    between atoms: C4_4  and  O5_5 
REMARK    3  A    between atoms: O5_5  and  C6_6 
REMARK    4  A    between atoms: C6_6  and  C7_7 
REMARK    5  A    between atoms: C7_7  and  N8_8 
REMARK    6  A    between atoms: N11_11  and  C13_13 
REMARK    7  A    between atoms: C13_13  and  C15_14 
REMARK    8  A    between atoms: C13_13  and  C21_20 
ROOT
ATOM      1  N8  <0> d   1      18.937   0.065  15.946  0.00  0.00     0.093 N 
ATOM      2  C9  <0> d   1      19.244   1.118  14.967  0.00  0.00     0.300 C 
ATOM      3  C10 <0> d   1      19.920   0.493  13.745  0.00  0.00     0.266 C 
ATOM      4  N11 <0> d   1      19.025  -0.508  13.148  0.00  0.00    -0.055 N 
ATOM      5  H12 <0> d   1      18.160  -0.065  12.876  0.00  0.00     0.281 HD
ATOM      6  C28 <0> d   1      18.747  -1.565  14.129  0.00  0.00     0.266 C 
ATOM      7  C29 <0> d   1      18.060  -0.957  15.354  0.00  0.00     0.300 C 
ENDROOT
BRANCH   4   8
ATOM      8  C13 <0> d   1      19.667  -1.096  11.965  0.00  0.00     0.254 C 
BRANCH   8   9
ATOM      9  C15 <0> d   1      19.093  -2.466  11.710  0.00  0.00    -0.023 A 
ATOM     10  C20 <0> d   1      17.730  -2.623  11.541  0.00  0.00     0.009 A 
ATOM     11  C19 <0> d   1      17.204  -3.878  11.303  0.00  0.00     0.001 A 
ATOM     12  C18 <0> d   1      18.040  -4.979  11.244  0.00  0.00     0.000 A 
ATOM     13  C17 <0> d   1      19.402  -4.822  11.419  0.00  0.00     0.001 A 
ATOM     14  C16 <0> d   1      19.928  -3.565  11.652  0.00  0.00     0.009 A 
ENDBRANCH   8   9
BRANCH   8  15
ATOM     15  C21 <0> d   1      19.416  -0.215  10.769  0.00  0.00    -0.023 A 
ATOM     16  C27 <0> d   1      18.611   0.902  10.889  0.00  0.00     0.011 A 
ATOM     17  C26 <0> d   1      18.385   1.715   9.793  0.00  0.00     0.024 A 
ATOM     18  C24 <0> d   1      18.955   1.402   8.572  0.00  0.00     0.034 A 
ATOM     19  C23 <0> d   1      19.757   0.280   8.451  0.00  0.00     0.024 A 
ATOM     20 Cl25 <0> d   1      18.667   2.417   7.194  0.00  0.00    -0.084 Cl
ATOM     21  C22 <0> d   1      19.987  -0.527   9.549  0.00  0.00     0.011 A 
ENDBRANCH   8  15
ENDBRANCH   4   8
BRANCH   1  22
ATOM     22  C7  <0> d   1      18.336   0.635  17.160  0.00  0.00     0.298 C 
BRANCH  22  23
ATOM     23  C6  <0> d   1      19.362   0.616  18.294  0.00  0.00     0.198 C 
BRANCH  23  24
ATOM     24  O5  <0> d   1      19.785   1.950  18.577  0.00  0.00    -0.379 OA
BRANCH  24  25
ATOM     25  C4  <0> d   1      18.772   2.937  18.371  0.00  0.00     0.280 C 
BRANCH  25  26
ATOM     26  C2  <0> d   1      19.255   3.952  17.367  0.00  0.00     0.197 C 
ATOM     27  O1  <0> d   1      18.576   4.932  17.116  0.00  0.00    -0.646 OA
ATOM     28  O3  <0> d   1      20.327   3.794  16.809  0.00  0.00    -0.646 OA
ENDBRANCH  25  26
ENDBRANCH  24  25
ENDBRANCH  23  24
ENDBRANCH  22  23
ENDBRANCH   1  22
TORSDOF 8
ENDMDL
MODEL 3
REMARK VINA RESULT:      -7.6      2.491      4.609
REMARK  8 active torsions:
REMARK  status: ('A' for Active; 'I' for Inactive)
REMARK    1  A    between atoms: C2_2  and  C4_4 
REMARK    2  A    between atoms: C4_4  and  O5_5 
REMARK    3  A    between atoms: O5_5  and  C6_6 
REMARK    4  A    between atoms: C6_6  and  C7_7 
REMARK    5  A    between atoms: C7_7  and  N8_8 
REMARK    6  A    between atoms: N11_11  and  C13_13 
REMARK    7  A    between atoms: C13_13  and  C15_14 
REMARK    8  A    between atoms: C13_13  and  C21_20 
ROOT
ATOM      1  N8  <0> d   1      19.181   1.291   9.420  0.00  0.00     0.093 N 
ATOM      2  C9  <0> d   1      17.990   0.510   9.785  0.00  0.00     0.300 C 
ATOM      3  C10 <0> d   1      18.400  -0.637  10.712  0.00  0.00     0.266 C 
ATOM      4  N11 <0> d   1      19.036  -0.088  11.918  0.00  0.00    -0.055 N 
ATOM      5  H12 <0> d   1      18.386   0.524  12.390  0.00  0.00     0.281 HD
ATOM      6  C28 <0> d   1      20.236   0.669  11.540  0.00  0.00     0.266 C 
ATOM      7  C29 <0> d   1      19.841   1.827  10.620  0.00  0.00     0.300 C 
ENDROOT
BRANCH   4   8
ATOM      8  C13 <0> d   1      19.413  -1.188  12.816  0.00  0.00     0.254 C 
BRANCH   8   9
ATOM      9  C15 <0> d   1      18.798  -0.961  14.173  0.00  0.00    -0.023 A 
ATOM     10  C20 <0> d   1      17.821   0.004  14.336  0.00  0.00     0.009 A 
ATOM     11  C19 <0> d   1      17.254   0.209  15.580  0.00  0.00     0.001 A 
ATOM     12  C18 <0> d   1      17.669  -0.545  16.662  0.00  0.00     0.000 A 
ATOM     13  C17 <0> d   1      18.650  -1.505  16.500  0.00  0.00     0.001 A 
ATOM     14  C16 <0> d   1      19.214  -1.713  15.255  0.00  0.00     0.009 A 
ENDBRANCH   8   9
BRANCH   8  15
ATOM     15  C21 <0> d   1      18.915  -2.492  12.250  0.00  0.00    -0.023 A 
ATOM     16  C27 <0> d   1      19.813  -3.422  11.761  0.00  0.00     0.011 A 
ATOM     17  C26 <0> d   1      19.358  -4.621  11.246  0.00  0.00     0.024 A 
ATOM     18  C24 <0> d   1      18.001  -4.886  11.210  0.00  0.00     0.034 A 
ATOM     19  C23 <0> d   1      17.101  -3.953  11.694  0.00  0.00     0.024 A 
ATOM     20 Cl25 <0> d   1      17.427  -6.389  10.558  0.00  0.00    -0.084 Cl
ATOM     21  C22 <0> d   1      17.559  -2.757  12.214  0.00  0.00     0.011 A 
ENDBRANCH   8  15
ENDBRANCH   4   8
BRANCH   1  22
ATOM     22  C7  <0> d   1      18.836   2.370   8.484  0.00  0.00     0.298 C 
BRANCH  22  23
ATOM     23  C6  <0> d   1      18.842   1.825   7.054  0.00  0.00     0.198 C 
BRANCH  23  24
ATOM     24  O5  <0> d   1      19.284   0.467   7.063  0.00  0.00    -0.379 OA
BRANCH  24  25
ATOM     25  C4  <0> d   1      18.494  -0.407   6.254  0.00  0.00     0.280 C 
BRANCH  25  26
ATOM     26  C2  <0> d   1      19.399  -1.337   5.488  0.00  0.00     0.197 C 
ATOM     27  O1  <0> d   1      19.876  -0.984   4.423  0.00  0.00    -0.646 OA
ATOM     28  O3  <0> d   1      19.657  -2.441   5.935  0.00  0.00    -0.646 OA
ENDBRANCH  25  26
ENDBRANCH  24  25
ENDBRANCH  23  24
ENDBRANCH  22  23
ENDBRANCH   1  22
TORSDOF 8
ENDMDL
MODEL 4
REMARK VINA RESULT:      -7.6      2.247      3.657
REMARK  8 active torsions:
REMARK  status: ('A' for Active; 'I' for Inactive)
REMARK    1  A    between atoms: C2_2  and  C4_4 
REMARK    2  A    between atoms: C4_4  and  O5_5 
REMARK    3  A    between atoms: O5_5  and  C6_6 
REMARK    4  A    between atoms: C6_6  and  C7_7 
REMARK    5  A    between atoms: C7_7  and  N8_8 
REMARK    6  A    between atoms: N11_11  and  C13_13 
REMARK    7  A    between atoms: C13_13  and  C15_14 
REMARK    8  A    between atoms: C13_13  and  C21_20 
ROOT
ATOM      1  N8  <0> d   1      18.814   0.007   6.955  0.00  0.00     0.093 N 
ATOM      2  C9  <0> d   1      17.847  -0.845   7.662  0.00  0.00     0.300 C 
ATOM      3  C10 <0> d   1      18.489  -1.388   8.940  0.00  0.00     0.266 C 
ATOM      4  N11 <0> d   1      18.898  -0.267   9.797  0.00  0.00    -0.055 N 
ATOM      5  H12 <0> d   1      18.090   0.293  10.026  0.00  0.00     0.281 HD
ATOM      6  C28 <0> d   1      19.881   0.561   9.087  0.00  0.00     0.266 C 
ATOM      7  C29 <0> d   1      19.251   1.120   7.810  0.00  0.00     0.300 C 
ENDROOT
BRANCH   4   8
ATOM      8  C13 <0> d   1      19.498  -0.788  11.033  0.00  0.00     0.254 C 
BRANCH   8   9
ATOM      9  C15 <0> d   1      19.122   0.103  12.188  0.00  0.00    -0.023 A 
ATOM     10  C20 <0> d   1      18.090   1.013  12.052  0.00  0.00     0.009 A 
ATOM     11  C19 <0> d   1      17.742   1.827  13.113  0.00  0.00     0.001 A 
ATOM     12  C18 <0> d   1      18.433   1.739  14.308  0.00  0.00     0.000 A 
ATOM     13  C17 <0> d   1      19.469   0.834  14.442  0.00  0.00     0.001 A 
ATOM     14  C16 <0> d   1      19.813   0.016  13.382  0.00  0.00     0.009 A 
ENDBRANCH   8   9
BRANCH   8  15
ATOM     15  C21 <0> d   1      18.990  -2.183  11.288  0.00  0.00    -0.023 A 
ATOM     16  C27 <0> d   1      19.860  -3.257  11.233  0.00  0.00     0.011 A 
ATOM     17  C26 <0> d   1      19.396  -4.537  11.473  0.00  0.00     0.024 A 
ATOM     18  C24 <0> d   1      18.058  -4.745  11.756  0.00  0.00     0.034 A 
ATOM     19  C23 <0> d   1      17.186  -3.670  11.805  0.00  0.00     0.024 A 
ATOM     20 Cl25 <0> d   1      17.473  -6.352  12.051  0.00  0.00    -0.084 Cl
ATOM     21  C22 <0> d   1      17.653  -2.391  11.571  0.00  0.00     0.011 A 
ENDBRANCH   8  15
ENDBRANCH   4   8
BRANCH   1  22
ATOM     22  C7  <0> d   1      18.253   0.502   5.691  0.00  0.00     0.298 C 
BRANCH  22  23
ATOM     23  C6  <0> d   1      19.145   0.062   4.529  0.00  0.00     0.198 C 
BRANCH  23  24
ATOM     24  O5  <0> d   1      19.768  -1.182   4.851  0.00  0.00    -0.379 OA
BRANCH  24  25
ATOM     25  C4  <0> d   1      19.009  -2.330   4.465  0.00  0.00     0.280 C 
BRANCH  25  26
ATOM     26  C2  <0> d   1      19.189  -3.419   5.491  0.00  0.00     0.197 C 
ATOM     27  O1  <0> d   1      18.388  -4.336   5.552  0.00  0.00    -0.646 OA
ATOM     28  O3  <0> d   1      20.137  -3.384   6.256  0.00  0.00    -0.646 OA
ENDBRANCH  25  26
ENDBRANCH  24  25
ENDBRANCH  23  24
ENDBRANCH  22  23
ENDBRANCH   1  22
TORSDOF 8
ENDMDL
MODEL 5
REMARK VINA RESULT:      -7.5      4.131      6.724
REMARK  8 active torsions:
REMARK  status: ('A' for Active; 'I' for Inactive)
REMARK    1  A    between atoms: C2_2  and  C4_4 
REMARK    2  A    between atoms: C4_4  and  O5_5 
REMARK    3  A    between atoms: O5_5  and  C6_6 
REMARK    4  A    between atoms: C6_6  and  C7_7 
REMARK    5  A    between atoms: C7_7  and  N8_8 
REMARK    6  A    between atoms: N11_11  and  C13_13 
REMARK    7  A    between atoms: C13_13  and  C15_14 
REMARK    8  A    between atoms: C13_13  and  C21_20 
ROOT
ATOM      1  N8  <0> d   1      17.942   2.615  10.821  0.00  0.00     0.093 N 
ATOM      2  C9  <0> d   1      18.996   2.234  11.773  0.00  0.00     0.300 C 
ATOM      3  C10 <0> d   1      18.502   1.074  12.640  0.00  0.00     0.266 C 
ATOM      4  N11 <0> d   1      18.158  -0.068  11.781  0.00  0.00    -0.055 N 
ATOM      5  H12 <0> d   1      18.973  -0.350  11.257  0.00  0.00     0.281 HD
ATOM      6  C28 <0> d   1      17.089   0.321  10.852  0.00  0.00     0.266 C 
ATOM      7  C29 <0> d   1      17.571   1.474   9.971  0.00  0.00     0.300 C 
ENDROOT
BRANCH   4   8
ATOM      8  C13 <0> d   1      17.701  -1.187  12.615  0.00  0.00     0.254 C 
BRANCH   8   9
ATOM      9  C15 <0> d   1      18.362  -2.460  12.152  0.00  0.00    -0.023 A 
ATOM     10  C20 <0> d   1      19.702  -2.460  11.813  0.00  0.00     0.009 A 
ATOM     11  C19 <0> d   1      20.309  -3.628  11.392  0.00  0.00     0.001 A 
ATOM     12  C18 <0> d   1      19.573  -4.795  11.301  0.00  0.00     0.000 A 
ATOM     13  C17 <0> d   1      18.232  -4.794  11.633  0.00  0.00     0.001 A 
ATOM     14  C16 <0> d   1      17.626  -3.626  12.059  0.00  0.00     0.009 A 
ENDBRANCH   8   9
BRANCH   8  15
ATOM     15  C21 <0> d   1      18.068  -0.925  14.052  0.00  0.00    -0.023 A 
ATOM     16  C27 <0> d   1      17.302  -0.063  14.815  0.00  0.00     0.011 A 
ATOM     17  C26 <0> d   1      17.634   0.174  16.136  0.00  0.00     0.024 A 
ATOM     18  C24 <0> d   1      18.740  -0.444  16.692  0.00  0.00     0.034 A 
ATOM     19  C23 <0> d   1      19.510  -1.302  15.926  0.00  0.00     0.024 A 
ATOM     20 Cl25 <0> d   1      19.161  -0.142  18.348  0.00  0.00    -0.084 Cl
ATOM     21  C22 <0> d   1      19.173  -1.542  14.607  0.00  0.00     0.011 A 
ENDBRANCH   8  15
ENDBRANCH   4   8
BRANCH   1  22
ATOM     22  C7  <0> d   1      18.358   3.765  10.007  0.00  0.00     0.298 C 
BRANCH  22  23
ATOM     23  C6  <0> d   1      17.407   4.937  10.256  0.00  0.00     0.198 C 
BRANCH  23  24
ATOM     24  O5  <0> d   1      16.537   4.622  11.343  0.00  0.00    -0.379 OA
BRANCH  24  25
ATOM     25  C4  <0> d   1      16.548   5.589  12.396  0.00  0.00     0.280 C 
BRANCH  25  26
ATOM     26  C2  <0> d   1      17.488   5.136  13.484  0.00  0.00     0.197 C 
ATOM     27  O1  <0> d   1      17.051   4.568  14.469  0.00  0.00    -0.646 OA
ATOM     28  O3  <0> d   1      18.686   5.336  13.375  0.00  0.00    -0.646 OA
ENDBRANCH  25  26
ENDBRANCH  24  25
ENDBRANCH  23  24
ENDBRANCH  22  23
ENDBRANCH   1  22
TORSDOF 8
ENDMDL
MODEL 6
REMARK VINA RESULT:      -7.4      5.197      8.599
REMARK  8 active torsions:
REMARK  status: ('A' for Active; 'I' for Inactive)
REMARK    1  A    between atoms: C2_2  and  C4_4 
REMARK    2  A    between atoms: C4_4  and  O5_5 
REMARK    3  A    between atoms: O5_5  and  C6_6 
REMARK    4  A    between atoms: C6_6  and  C7_7 
REMARK    5  A    between atoms: C7_7  and  N8_8 
REMARK    6  A    between atoms: N11_11  and  C13_13 
REMARK    7  A    between atoms: C13_13  and  C15_14 
REMARK    8  A    between atoms: C13_13  and  C21_20 
ROOT
ATOM      1  N8  <0> d   1      18.477   1.399  13.173  0.00  0.00     0.093 N 
ATOM      2  C9  <0> d   1      18.744   1.893  11.815  0.00  0.00     0.300 C 
ATOM      3  C10 <0> d   1      19.425   0.791  10.999  0.00  0.00     0.266 C 
ATOM      4  N11 <0> d   1      18.551  -0.389  10.947  0.00  0.00    -0.055 N 
ATOM      5  H12 <0> d   1      17.671  -0.137  10.521  0.00  0.00     0.281 HD
ATOM      6  C28 <0> d   1      18.312  -0.885  12.308  0.00  0.00     0.266 C 
ATOM      7  C29 <0> d   1      17.623   0.203  13.134  0.00  0.00     0.300 C 
ENDROOT
BRANCH   4   8
ATOM      8  C13 <0> d   1      19.196  -1.440  10.149  0.00  0.00     0.254 C 
BRANCH   8   9
ATOM      9  C15 <0> d   1      18.740  -2.792  10.636  0.00  0.00    -0.023 A 
ATOM     10  C20 <0> d   1      19.667  -3.706  11.102  0.00  0.00     0.009 A 
ATOM     11  C19 <0> d   1      19.248  -4.944  11.553  0.00  0.00     0.001 A 
ATOM     12  C18 <0> d   1      17.905  -5.271  11.530  0.00  0.00     0.000 A 
ATOM     13  C17 <0> d   1      16.980  -4.358  11.059  0.00  0.00     0.001 A 
ATOM     14  C16 <0> d   1      17.398  -3.119  10.612  0.00  0.00     0.009 A 
ENDBRANCH   8   9
BRANCH   8  15
ATOM     15  C21 <0> d   1      18.818  -1.275   8.700  0.00  0.00    -0.023 A 
ATOM     16  C27 <0> d   1      17.838  -0.367   8.341  0.00  0.00     0.011 A 
ATOM     17  C26 <0> d   1      17.494  -0.210   7.011  0.00  0.00     0.024 A 
ATOM     18  C24 <0> d   1      18.122  -0.970   6.040  0.00  0.00     0.034 A 
ATOM     19  C23 <0> d   1      19.099  -1.882   6.401  0.00  0.00     0.024 A 
ATOM     20 Cl25 <0> d   1      17.686  -0.778   4.371  0.00  0.00    -0.084 Cl
ATOM     21  C22 <0> d   1      19.445  -2.033   7.730  0.00  0.00     0.011 A 
ENDBRANCH   8  15
ENDBRANCH   4   8
BRANCH   1  22
ATOM     22  C7  <0> d   1      17.874   2.449  14.006  0.00  0.00     0.298 C 
BRANCH  22  23
ATOM     23  C6  <0> d   1      18.883   2.904  15.062  0.00  0.00     0.198 C 
BRANCH  23  24
ATOM     24  O5  <0> d   1      19.375   1.768  15.772  0.00  0.00    -0.379 OA
BRANCH  24  25
ATOM     25  C4  <0> d   1      18.474   1.265  16.762  0.00  0.00     0.280 C 
BRANCH  25  26
ATOM     26  C2  <0> d   1      19.258   0.773  17.952  0.00  0.00     0.197 C 
ATOM     27  O1  <0> d   1      19.905   1.558  18.622  0.00  0.00    -0.646 OA
ATOM     28  O3  <0> d   1      19.241  -0.410  18.244  0.00  0.00    -0.646 OA
ENDBRANCH  25  26
ENDBRANCH  24  25
ENDBRANCH  23  24
ENDBRANCH  22  23
ENDBRANCH   1  22
TORSDOF 8
ENDMDL
MODEL 7
REMARK VINA RESULT:      -7.3      1.807      2.537
REMARK  8 active torsions:
REMARK  status: ('A' for Active; 'I' for Inactive)
REMARK    1  A    between atoms: C2_2  and  C4_4 
REMARK    2  A    between atoms: C4_4  and  O5_5 
REMARK    3  A    between atoms: O5_5  and  C6_6 
REMARK    4  A    between atoms: C6_6  and  C7_7 
REMARK    5  A    between atoms: C7_7  and  N8_8 
REMARK    6  A    between atoms: N11_11  and  C13_13 
REMARK    7  A    between atoms: C13_13  and  C15_14 
REMARK    8  A    between atoms: C13_13  and  C21_20 
ROOT
ATOM      1  N8  <0> d   1      18.224  -4.597  10.989  0.00  0.00     0.093 N 
ATOM      2  C9  <0> d   1      17.420  -3.430  10.595  0.00  0.00     0.300 C 
ATOM      3  C10 <0> d   1      17.904  -2.198  11.362  0.00  0.00     0.266 C 
ATOM      4  N11 <0> d   1      19.323  -1.960  11.062  0.00  0.00    -0.055 N 
ATOM      5  H12 <0> d   1      19.436  -1.817  10.069  0.00  0.00     0.281 HD
ATOM      6  C28 <0> d   1      20.115  -3.123  11.482  0.00  0.00     0.266 C 
ATOM      7  C29 <0> d   1      19.650  -4.363  10.716  0.00  0.00     0.300 C 
ENDROOT
BRANCH   4   8
ATOM      8  C13 <0> d   1      19.782  -0.766  11.784  0.00  0.00     0.254 C 
BRANCH   8   9
ATOM      9  C15 <0> d   1      19.480   0.462  10.965  0.00  0.00    -0.023 A 
ATOM     10  C20 <0> d   1      18.986   0.332   9.680  0.00  0.00     0.009 A 
ATOM     11  C19 <0> d   1      18.705   1.459   8.931  0.00  0.00     0.001 A 
ATOM     12  C18 <0> d   1      18.927   2.716   9.463  0.00  0.00     0.000 A 
ATOM     13  C17 <0> d   1      19.427   2.846  10.745  0.00  0.00     0.001 A 
ATOM     14  C16 <0> d   1      19.704   1.719  11.496  0.00  0.00     0.009 A 
ENDBRANCH   8   9
BRANCH   8  15
ATOM     15  C21 <0> d   1      19.070  -0.676  13.108  0.00  0.00    -0.023 A 
ATOM     16  C27 <0> d   1      17.908   0.066  13.219  0.00  0.00     0.011 A 
ATOM     17  C26 <0> d   1      17.251   0.145  14.432  0.00  0.00     0.024 A 
ATOM     18  C24 <0> d   1      17.762  -0.509  15.539  0.00  0.00     0.034 A 
ATOM     19  C23 <0> d   1      18.928  -1.246  15.429  0.00  0.00     0.024 A 
ATOM     20 Cl25 <0> d   1      16.941  -0.405  17.065  0.00  0.00    -0.084 Cl
ATOM     21  C22 <0> d   1      19.581  -1.329  14.214  0.00  0.00     0.011 A 
ENDBRANCH   8  15
ENDBRANCH   4   8
BRANCH   1  22
ATOM     22  C7  <0> d   1      17.752  -5.813  10.315  0.00  0.00     0.298 C 
BRANCH  22  23
ATOM     23  C6  <0> d   1      18.676  -6.137   9.139  0.00  0.00     0.198 C 
BRANCH  23  24
ATOM     24  O5  <0> d   1      18.275  -5.381   7.996  0.00  0.00    -0.379 OA
BRANCH  24  25
ATOM     25  C4  <0> d   1      19.330  -5.130   7.065  0.00  0.00     0.280 C 
BRANCH  25  26
ATOM     26  C2  <0> d   1      19.510  -3.643   6.898  0.00  0.00     0.197 C 
ATOM     27  O1  <0> d   1      19.265  -2.892   7.826  0.00  0.00    -0.646 OA
ATOM     28  O3  <0> d   1      19.904  -3.193   5.836  0.00  0.00    -0.646 OA
ENDBRANCH  25  26
ENDBRANCH  24  25
ENDBRANCH  23  24
ENDBRANCH  22  23
ENDBRANCH   1  22
TORSDOF 8
ENDMDL
MODEL 8
REMARK VINA RESULT:      -7.2      3.665      5.488
REMARK  8 active torsions:
REMARK  status: ('A' for Active; 'I' for Inactive)
REMARK    1  A    between atoms: C2_2  and  C4_4 
REMARK    2  A    between atoms: C4_4  and  O5_5 
REMARK    3  A    between atoms: O5_5  and  C6_6 
REMARK    4  A    between atoms: C6_6  and  C7_7 
REMARK    5  A    between atoms: C7_7  and  N8_8 
REMARK    6  A    between atoms: N11_11  and  C13_13 
REMARK    7  A    between atoms: C13_13  and  C15_14 
REMARK    8  A    between atoms: C13_13  and  C21_20 
ROOT
ATOM      1  N8  <0> d   1      18.243  -3.304  11.212  0.00  0.00     0.093 N 
ATOM      2  C9  <0> d   1      19.276  -2.681  10.371  0.00  0.00     0.300 C 
ATOM      3  C10 <0> d   1      18.689  -1.451   9.676  0.00  0.00     0.266 C 
ATOM      4  N11 <0> d   1      18.214  -0.496  10.687  0.00  0.00    -0.055 N 
ATOM      5  H12 <0> d   1      18.985  -0.224  11.279  0.00  0.00     0.281 HD
ATOM      6  C28 <0> d   1      17.168  -1.125  11.503  0.00  0.00     0.266 C 
ATOM      7  C29 <0> d   1      17.742  -2.352  12.214  0.00  0.00     0.300 C 
ENDROOT
BRANCH   4   8
ATOM      8  C13 <0> d   1      17.668   0.693  10.019  0.00  0.00     0.254 C 
BRANCH   8   9
ATOM      9  C15 <0> d   1      18.311   1.930  10.590  0.00  0.00    -0.023 A 
ATOM     10  C20 <0> d   1      17.740   3.170  10.372  0.00  0.00     0.009 A 
ATOM     11  C19 <0> d   1      18.328   4.304  10.899  0.00  0.00     0.001 A 
ATOM     12  C18 <0> d   1      19.492   4.200  11.637  0.00  0.00     0.000 A 
ATOM     13  C17 <0> d   1      20.066   2.961  11.851  0.00  0.00     0.001 A 
ATOM     14  C16 <0> d   1      19.476   1.826  11.327  0.00  0.00     0.009 A 
ENDBRANCH   8   9
BRANCH   8  15
ATOM     15  C21 <0> d   1      17.952   0.614   8.542  0.00  0.00    -0.023 A 
ATOM     16  C27 <0> d   1      19.027   1.300   8.007  0.00  0.00     0.011 A 
ATOM     17  C26 <0> d   1      19.293   1.225   6.653  0.00  0.00     0.024 A 
ATOM     18  C24 <0> d   1      18.476   0.470   5.830  0.00  0.00     0.034 A 
ATOM     19  C23 <0> d   1      17.397  -0.212   6.365  0.00  0.00     0.024 A 
ATOM     20 Cl25 <0> d   1      18.804   0.379   4.128  0.00  0.00    -0.084 Cl
ATOM     21  C22 <0> d   1      17.136  -0.140   7.720  0.00  0.00     0.011 A 
ENDBRANCH   8  15
ENDBRANCH   4   8
BRANCH   1  22
ATOM     22  C7  <0> d   1      18.753  -4.523  11.854  0.00  0.00     0.298 C 
BRANCH  22  23
ATOM     23  C6  <0> d   1      17.643  -5.574  11.909  0.00  0.00     0.198 C 
BRANCH  23  24
ATOM     24  O5  <0> d   1      16.934  -5.583  10.669  0.00  0.00    -0.379 OA
BRANCH  24  25
ATOM     25  C4  <0> d   1      17.375  -6.589   9.754  0.00  0.00     0.280 C 
BRANCH  25  26
ATOM     26  C2  <0> d   1      17.795  -5.941   8.460  0.00  0.00     0.197 C 
ATOM     27  O1  <0> d   1      17.446  -4.801   8.207  0.00  0.00    -0.646 OA
ATOM     28  O3  <0> d   1      18.488  -6.556   7.668  0.00  0.00    -0.646 OA
ENDBRANCH  25  26
ENDBRANCH  24  25
ENDBRANCH  23  24
ENDBRANCH  22  23
ENDBRANCH   1  22
TORSDOF 8
ENDMDL
MODEL 9
REMARK VINA RESULT:      -7.2      2.057      2.856
REMARK  8 active torsions:
REMARK  status: ('A' for Active; 'I' for Inactive)
REMARK    1  A    between atoms: C2_2  and  C4_4 
REMARK    2  A    between atoms: C4_4  and  O5_5 
REMARK    3  A    between atoms: O5_5  and  C6_6 
REMARK    4  A    between atoms: C6_6  and  C7_7 
REMARK    5  A    between atoms: C7_7  and  N8_8 
REMARK    6  A    between atoms: N11_11  and  C13_13 
REMARK    7  A    between atoms: C13_13  and  C15_14 
REMARK    8  A    between atoms: C13_13  and  C21_20 
ROOT
ATOM      1  N8  <0> d   1      18.351  -4.528  10.418  0.00  0.00     0.093 N 
ATOM      2  C9  <0> d   1      19.415  -4.658  11.424  0.00  0.00     0.300 C 
ATOM      3  C10 <0> d   1      20.033  -3.283  11.688  0.00  0.00     0.266 C 
ATOM      4  N11 <0> d   1      18.993  -2.362  12.167  0.00  0.00    -0.055 N 
ATOM      5  H12 <0> d   1      18.586  -2.728  13.015  0.00  0.00     0.281 HD
ATOM      6  C28 <0> d   1      17.949  -2.225  11.143  0.00  0.00     0.266 C 
ATOM      7  C29 <0> d   1      17.314  -3.591  10.874  0.00  0.00     0.300 C 
ENDROOT
BRANCH   4   8
ATOM      8  C13 <0> d   1      19.590  -1.048  12.438  0.00  0.00     0.254 C 
BRANCH   8   9
ATOM      9  C15 <0> d   1      19.110  -0.057  11.409  0.00  0.00    -0.023 A 
ATOM     10  C20 <0> d   1      19.838   0.145  10.252  0.00  0.00     0.009 A 
ATOM     11  C19 <0> d   1      19.396   1.051   9.307  0.00  0.00     0.001 A 
ATOM     12  C18 <0> d   1      18.229   1.761   9.522  0.00  0.00     0.000 A 
ATOM     13  C17 <0> d   1      17.504   1.563  10.682  0.00  0.00     0.001 A 
ATOM     14  C16 <0> d   1      17.944   0.654  11.626  0.00  0.00     0.009 A 
ENDBRANCH   8   9
BRANCH   8  15
ATOM     15  C21 <0> d   1      19.181  -0.584  13.812  0.00  0.00    -0.023 A 
ATOM     16  C27 <0> d   1      19.553   0.671  14.257  0.00  0.00     0.011 A 
ATOM     17  C26 <0> d   1      19.173   1.100  15.515  0.00  0.00     0.024 A 
ATOM     18  C24 <0> d   1      18.431   0.268  16.334  0.00  0.00     0.034 A 
ATOM     19  C23 <0> d   1      18.064  -0.991  15.890  0.00  0.00     0.024 A 
ATOM     20 Cl25 <0> d   1      17.959   0.803  17.917  0.00  0.00    -0.084 Cl
ATOM     21  C22 <0> d   1      18.439  -1.416  14.630  0.00  0.00     0.011 A 
ENDBRANCH   8  15
ENDBRANCH   4   8
BRANCH   1  22
ATOM     22  C7  <0> d   1      17.770  -5.839  10.095  0.00  0.00     0.298 C 
BRANCH  22  23
ATOM     23  C6  <0> d   1      17.853  -6.076   8.586  0.00  0.00     0.198 C 
BRANCH  23  24
ATOM     24  O5  <0> d   1      18.854  -5.226   8.024  0.00  0.00    -0.379 OA
BRANCH  24  25
ATOM     25  C4  <0> d   1      18.378  -4.383   6.972  0.00  0.00     0.280 C 
BRANCH  25  26
ATOM     26  C2  <0> d   1      19.280  -3.183   6.842  0.00  0.00     0.197 C 
ATOM     27  O1  <0> d   1      19.962  -3.039   5.842  0.00  0.00    -0.646 OA
ATOM     28  O3  <0> d   1      19.324  -2.355   7.735  0.00  0.00    -0.646 OA
ENDBRANCH  25  26
ENDBRANCH  24  25
ENDBRANCH  23  24
ENDBRANCH  22  23
ENDBRANCH   1  22
TORSDOF 8
ENDMDL
