MODEL 1
REMARK VINA RESULT:      -6.8      0.000      0.000
REMARK  6 active torsions:
REMARK  status: ('A' for Active; 'I' for Inactive)
REMARK    1  A    between atoms: C11_9  and  O13_10 
REMARK    2  A    between atoms: O13_10  and  C14_11 
REMARK    3  A    between atoms: C14_11  and  C16_13 
REMARK    4  A    between atoms: C16_13  and  C18_14 
REMARK    5  A    between atoms: C16_13  and  C20_16 
REMARK    6  A    between atoms: C18_14  and  O19_15 
ROOT
ATOM      1  C14 ZIN A   1      17.058  -0.500  11.432  0.00  0.00     0.270 C 
ATOM      2  O15 ZIN A   1      16.031   0.133  11.508  0.00  0.00    -0.264 OA
ENDROOT
BRANCH   1   3
ATOM      3  O13 ZIN A   1      17.804  -0.438  10.318  0.00  0.00    -0.315 OA
BRANCH   3   4
ATOM      4  C11 ZIN A   1      17.375   0.492   9.290  0.00  0.00     0.136 C 
ATOM      5  C10 ZIN A   1      17.155  -0.266   7.976  0.00  0.00     0.065 C 
ATOM      6  C8  ZIN A   1      18.507  -0.803   7.480  0.00  0.00     0.190 C 
ATOM      7  N2  ZIN A   1      19.371   0.367   7.172  0.00  0.00    -0.066 N 
ATOM      8  C7  ZIN A   1      19.211  -1.489   8.676  0.00  0.00     0.035 C 
ATOM      9  C1  ZIN A   1      18.626   1.372   6.402  0.00  0.00     0.270 C 
ATOM     10  H3  ZIN A   1      20.197   0.077   6.670  0.00  0.00     0.280 HD
ATOM     11  C4  ZIN A   1      19.734   0.897   8.513  0.00  0.00     0.190 C 
ATOM     12  C26 ZIN A   1      18.483   1.584   9.084  0.00  0.00     0.065 C 
ATOM     13  C6  ZIN A   1      20.022  -0.366   9.356  0.00  0.00     0.035 C 
ENDBRANCH   3   4
ENDBRANCH   1   3
BRANCH   1  14
ATOM     14  C16 ZIN A   1      17.502  -1.358  12.590  0.00  0.00     0.142 C 
BRANCH  14  15
ATOM     15  C18 ZIN A   1      18.452  -0.557  13.482  0.00  0.00     0.183 C 
BRANCH  15  16
ATOM     16  O19 ZIN A   1      18.689   0.725  12.897  0.00  0.00    -0.400 OA
ATOM     17  H38 ZIN A   1      18.776   1.442  13.540  0.00  0.00     0.209 HD
ENDBRANCH  15  16
ENDBRANCH  14  15
BRANCH  14  18
ATOM     18  C20 ZIN A   1      18.215  -2.578  12.066  0.00  0.00    -0.043 A 
ATOM     19  C25 ZIN A   1      17.494  -3.602  11.482  0.00  0.00     0.008 A 
ATOM     20  C24 ZIN A   1      18.148  -4.719  10.997  0.00  0.00     0.001 A 
ATOM     21  C23 ZIN A   1      19.523  -4.816  11.103  0.00  0.00     0.000 A 
ATOM     22  C22 ZIN A   1      20.244  -3.794  11.692  0.00  0.00     0.001 A 
ATOM     23  C21 ZIN A   1      19.590  -2.674  12.173  0.00  0.00     0.008 A 
ENDBRANCH  14  18
ENDBRANCH   1  14
TORSDOF 6
ENDMDL
MODEL 2
REMARK VINA RESULT:      -6.4      1.921      2.989
REMARK  6 active torsions:
REMARK  status: ('A' for Active; 'I' for Inactive)
REMARK    1  A    between atoms: C11_9  and  O13_10 
REMARK    2  A    between atoms: O13_10  and  C14_11 
REMARK    3  A    between atoms: C14_11  and  C16_13 
REMARK    4  A    between atoms: C16_13  and  C18_14 
REMARK    5  A    between atoms: C16_13  and  C20_16 
REMARK    6  A    between atoms: C18_14  and  O19_15 
ROOT
ATOM      1  C14 ZIN A   1      18.400  -2.796  11.721  0.00  0.00     0.270 C 
ATOM      2  O15 ZIN A   1      18.176  -2.364  12.827  0.00  0.00    -0.264 OA
ENDROOT
BRANCH   1   3
ATOM      3  O13 ZIN A   1      18.344  -1.979  10.658  0.00  0.00    -0.315 OA
BRANCH   3   4
ATOM      4  C11 ZIN A   1      18.462  -0.555  10.914  0.00  0.00     0.136 C 
ATOM      5  C10 ZIN A   1      17.322   0.186  10.207  0.00  0.00     0.065 C 
ATOM      6  C8  ZIN A   1      17.504   0.045   8.688  0.00  0.00     0.190 C 
ATOM      7  N2  ZIN A   1      18.769   0.734   8.320  0.00  0.00    -0.066 N 
ATOM      8  C7  ZIN A   1      17.782  -1.447   8.381  0.00  0.00     0.035 C 
ATOM      9  C1  ZIN A   1      18.853   2.046   8.976  0.00  0.00     0.270 C 
ATOM     10  H3  ZIN A   1      18.842   0.832   7.319  0.00  0.00     0.280 HD
ATOM     11  C4  ZIN A   1      19.826  -0.178   8.834  0.00  0.00     0.190 C 
ATOM     12  C26 ZIN A   1      19.839  -0.042  10.365  0.00  0.00     0.065 C 
ATOM     13  C6  ZIN A   1      19.315  -1.592   8.476  0.00  0.00     0.035 C 
ENDBRANCH   3   4
ENDBRANCH   1   3
BRANCH   1  14
ATOM     14  C16 ZIN A   1      18.744  -4.252  11.536  0.00  0.00     0.142 C 
BRANCH  14  15
ATOM     15  C18 ZIN A   1      20.249  -4.394  11.297  0.00  0.00     0.183 C 
BRANCH  15  16
ATOM     16  O19 ZIN A   1      20.887  -3.133  11.515  0.00  0.00    -0.400 OA
ATOM     17  H38 ZIN A   1      20.300  -2.372  11.411  0.00  0.00     0.209 HD
ENDBRANCH  15  16
ENDBRANCH  14  15
BRANCH  14  18
ATOM     18  C20 ZIN A   1      17.995  -4.798  10.348  0.00  0.00    -0.043 A 
ATOM     19  C25 ZIN A   1      16.620  -4.936  10.402  0.00  0.00     0.008 A 
ATOM     20  C24 ZIN A   1      15.931  -5.432   9.311  0.00  0.00     0.001 A 
ATOM     21  C23 ZIN A   1      16.618  -5.798   8.169  0.00  0.00     0.000 A 
ATOM     22  C22 ZIN A   1      17.993  -5.665   8.116  0.00  0.00     0.001 A 
ATOM     23  C21 ZIN A   1      18.681  -5.165   9.206  0.00  0.00     0.008 A 
ENDBRANCH  14  18
ENDBRANCH   1  14
TORSDOF 6
ENDMDL
MODEL 3
REMARK VINA RESULT:      -6.4      2.960      6.119
REMARK  6 active torsions:
REMARK  status: ('A' for Active; 'I' for Inactive)
REMARK    1  A    between atoms: C11_9  and  O13_10 
REMARK    2  A    between atoms: O13_10  and  C14_11 
REMARK    3  A    between atoms: C14_11  and  C16_13 
REMARK    4  A    between atoms: C16_13  and  C18_14 
REMARK    5  A    between atoms: C16_13  and  C20_16 
REMARK    6  A    between atoms: C18_14  and  O19_15 
ROOT
ATOM      1  C14 ZIN A   1      17.785   0.839  10.205  0.00  0.00     0.270 C 
ATOM      2  O15 ZIN A   1      16.982   0.127   9.650  0.00  0.00    -0.264 OA
ENDROOT
BRANCH   1   3
ATOM      3  O13 ZIN A   1      18.388   0.423  11.330  0.00  0.00    -0.315 OA
BRANCH   3   4
ATOM      4  C11 ZIN A   1      17.533   0.144  12.470  0.00  0.00     0.136 C 
ATOM      5  C10 ZIN A   1      17.999   0.974  13.671  0.00  0.00     0.065 C 
ATOM      6  C8  ZIN A   1      19.394   0.490  14.098  0.00  0.00     0.190 C 
ATOM      7  N2  ZIN A   1      19.260  -0.916  14.563  0.00  0.00    -0.066 N 
ATOM      8  C7  ZIN A   1      20.269   0.387  12.826  0.00  0.00     0.035 C 
ATOM      9  C1  ZIN A   1      18.101  -1.059  15.454  0.00  0.00     0.270 C 
ATOM     10  H3  ZIN A   1      20.103  -1.219  15.026  0.00  0.00     0.280 HD
ATOM     11  C4  ZIN A   1      19.050  -1.681  13.305  0.00  0.00     0.190 C 
ATOM     12  C26 ZIN A   1      17.622  -1.382  12.823  0.00  0.00     0.065 C 
ATOM     13  C6  ZIN A   1      20.043  -1.047  12.304  0.00  0.00     0.035 C 
ENDBRANCH   3   4
ENDBRANCH   1   3
BRANCH   1  14
ATOM     14  C16 ZIN A   1      18.113   2.194   9.632  0.00  0.00     0.142 C 
BRANCH  14  15
ATOM     15  C18 ZIN A   1      19.401   2.104   8.812  0.00  0.00     0.183 C 
BRANCH  15  16
ATOM     16  O19 ZIN A   1      19.979   0.806   8.974  0.00  0.00    -0.400 OA
ATOM     17  H38 ZIN A   1      20.934   0.780   8.833  0.00  0.00     0.209 HD
ENDBRANCH  15  16
ENDBRANCH  14  15
BRANCH  14  18
ATOM     18  C20 ZIN A   1      18.301   3.182  10.755  0.00  0.00    -0.043 A 
ATOM     19  C25 ZIN A   1      17.211   3.853  11.274  0.00  0.00     0.008 A 
ATOM     20  C24 ZIN A   1      17.383   4.756  12.307  0.00  0.00     0.001 A 
ATOM     21  C23 ZIN A   1      18.646   4.992  12.816  0.00  0.00     0.000 A 
ATOM     22  C22 ZIN A   1      19.738   4.324  12.292  0.00  0.00     0.001 A 
ATOM     23  C21 ZIN A   1      19.565   3.419  11.262  0.00  0.00     0.008 A 
ENDBRANCH  14  18
ENDBRANCH   1  14
TORSDOF 6
ENDMDL
MODEL 4
REMARK VINA RESULT:      -6.3      1.962      2.926
REMARK  6 active torsions:
REMARK  status: ('A' for Active; 'I' for Inactive)
REMARK    1  A    between atoms: C11_9  and  O13_10 
REMARK    2  A    between atoms: O13_10  and  C14_11 
REMARK    3  A    between atoms: C14_11  and  C16_13 
REMARK    4  A    between atoms: C16_13  and  C18_14 
REMARK    5  A    between atoms: C16_13  and  C20_16 
REMARK    6  A    between atoms: C18_14  and  O19_15 
ROOT
ATOM      1  C14 ZIN A   1      17.254   0.484  11.850  0.00  0.00     0.270 C 
ATOM      2  O15 ZIN A   1      16.114   0.083  11.859  0.00  0.00    -0.264 OA
ENDROOT
BRANCH   1   3
ATOM      3  O13 ZIN A   1      18.035   0.264  10.780  0.00  0.00    -0.315 OA
BRANCH   3   4
ATOM      4  C11 ZIN A   1      17.564   0.777   9.506  0.00  0.00     0.136 C 
ATOM      5  C10 ZIN A   1      17.124  -0.391   8.618  0.00  0.00     0.065 C 
ATOM      6  C8  ZIN A   1      18.355  -1.242   8.268  0.00  0.00     0.190 C 
ATOM      7  N2  ZIN A   1      19.272  -0.397   7.458  0.00  0.00    -0.066 N 
ATOM      8  C7  ZIN A   1      19.138  -1.502   9.578  0.00  0.00     0.035 C 
ATOM      9  C1  ZIN A   1      18.526   0.323   6.416  0.00  0.00     0.270 C 
ATOM     10  H3  ZIN A   1      20.002  -0.958   7.047  0.00  0.00     0.280 HD
ATOM     11  C4  ZIN A   1      19.837   0.556   8.450  0.00  0.00     0.190 C 
ATOM     12  C26 ZIN A   1      18.728   1.560   8.802  0.00  0.00     0.065 C 
ATOM     13  C6  ZIN A   1      20.118  -0.315   9.696  0.00  0.00     0.035 C 
ENDBRANCH   3   4
ENDBRANCH   1   3
BRANCH   1  14
ATOM     14  C16 ZIN A   1      17.800   1.231  13.040  0.00  0.00     0.142 C 
BRANCH  14  15
ATOM     15  C18 ZIN A   1      19.111   1.919  12.653  0.00  0.00     0.183 C 
BRANCH  15  16
ATOM     16  O19 ZIN A   1      18.825   3.093  11.889  0.00  0.00    -0.400 OA
ATOM     17  H38 ZIN A   1      17.946   3.462  12.050  0.00  0.00     0.209 HD
ENDBRANCH  15  16
ENDBRANCH  14  15
BRANCH  14  18
ATOM     18  C20 ZIN A   1      18.055   0.264  14.167  0.00  0.00    -0.043 A 
ATOM     19  C25 ZIN A   1      17.286   0.322  15.315  0.00  0.00     0.008 A 
ATOM     20  C24 ZIN A   1      17.517  -0.568  16.347  0.00  0.00     0.001 A 
ATOM     21  C23 ZIN A   1      18.522  -1.511  16.235  0.00  0.00     0.000 A 
ATOM     22  C22 ZIN A   1      19.295  -1.565  15.090  0.00  0.00     0.001 A 
ATOM     23  C21 ZIN A   1      19.061  -0.677  14.056  0.00  0.00     0.008 A 
ENDBRANCH  14  18
ENDBRANCH   1  14
TORSDOF 6
ENDMDL
MODEL 5
REMARK VINA RESULT:      -6.2      2.551      5.800
REMARK  6 active torsions:
REMARK  status: ('A' for Active; 'I' for Inactive)
REMARK    1  A    between atoms: C11_9  and  O13_10 
REMARK    2  A    between atoms: O13_10  and  C14_11 
REMARK    3  A    between atoms: C14_11  and  C16_13 
REMARK    4  A    between atoms: C16_13  and  C18_14 
REMARK    5  A    between atoms: C16_13  and  C20_16 
REMARK    6  A    between atoms: C18_14  and  O19_15 
ROOT
ATOM      1  C14 ZIN A   1      18.846  -1.809   7.816  0.00  0.00     0.270 C 
ATOM      2  O15 ZIN A   1      19.631  -1.999   6.917  0.00  0.00    -0.264 OA
ENDROOT
BRANCH   1   3
ATOM      3  O13 ZIN A   1      18.946  -2.513   8.955  0.00  0.00    -0.315 OA
BRANCH   3   4
ATOM      4  C11 ZIN A   1      18.378  -3.849   8.954  0.00  0.00     0.136 C 
ATOM      5  C10 ZIN A   1      17.062  -3.844   9.740  0.00  0.00     0.065 C 
ATOM      6  C8  ZIN A   1      17.367  -3.548  11.217  0.00  0.00     0.190 C 
ATOM      7  N2  ZIN A   1      18.187  -4.672  11.742  0.00  0.00    -0.066 N 
ATOM      8  C7  ZIN A   1      18.318  -2.328  11.268  0.00  0.00     0.035 C 
ATOM      9  C1  ZIN A   1      17.621  -5.962  11.328  0.00  0.00     0.270 C 
ATOM     10  H3  ZIN A   1      18.257  -4.621  12.747  0.00  0.00     0.280 HD
ATOM     11  C4  ZIN A   1      19.518  -4.457  11.113  0.00  0.00     0.190 C 
ATOM     12  C26 ZIN A   1      19.388  -4.841   9.631  0.00  0.00     0.065 C 
ATOM     13  C6  ZIN A   1      19.738  -2.929  11.202  0.00  0.00     0.035 C 
ENDBRANCH   3   4
ENDBRANCH   1   3
BRANCH   1  14
ATOM     14  C16 ZIN A   1      17.756  -0.779   7.660  0.00  0.00     0.142 C 
BRANCH  14  15
ATOM     15  C18 ZIN A   1      17.687  -0.327   6.200  0.00  0.00     0.183 C 
BRANCH  15  16
ATOM     16  O19 ZIN A   1      17.036  -1.333   5.421  0.00  0.00    -0.400 OA
ATOM     17  H38 ZIN A   1      17.431  -1.473   4.549  0.00  0.00     0.209 HD
ENDBRANCH  15  16
ENDBRANCH  14  15
BRANCH  14  18
ATOM     18  C20 ZIN A   1      18.057   0.408   8.538  0.00  0.00    -0.043 A 
ATOM     19  C25 ZIN A   1      17.430   0.538   9.763  0.00  0.00     0.008 A 
ATOM     20  C24 ZIN A   1      17.709   1.625  10.571  0.00  0.00     0.001 A 
ATOM     21  C23 ZIN A   1      18.610   2.585  10.151  0.00  0.00     0.000 A 
ATOM     22  C22 ZIN A   1      19.234   2.458   8.924  0.00  0.00     0.001 A 
ATOM     23  C21 ZIN A   1      18.958   1.369   8.118  0.00  0.00     0.008 A 
ENDBRANCH  14  18
ENDBRANCH   1  14
TORSDOF 6
ENDMDL
MODEL 6
REMARK VINA RESULT:      -6.2      2.836      5.752
REMARK  6 active torsions:
REMARK  status: ('A' for Active; 'I' for Inactive)
REMARK    1  A    between atoms: C11_9  and  O13_10 
REMARK    2  A    between atoms: O13_10  and  C14_11 
REMARK    3  A    between atoms: C14_11  and  C16_13 
REMARK    4  A    between atoms: C16_13  and  C18_14 
REMARK    5  A    between atoms: C16_13  and  C20_16 
REMARK    6  A    between atoms: C18_14  and  O19_15 
ROOT
ATOM      1  C14 ZIN A   1      19.508   2.504  11.423  0.00  0.00     0.270 C 
ATOM      2  O15 ZIN A   1      20.553   3.048  11.691  0.00  0.00    -0.264 OA
ENDROOT
BRANCH   1   3
ATOM      3  O13 ZIN A   1      19.095   1.451  12.146  0.00  0.00    -0.315 OA
BRANCH   3   4
ATOM      4  C11 ZIN A   1      19.605   1.341  13.500  0.00  0.00     0.136 C 
ATOM      5  C10 ZIN A   1      20.184  -0.061  13.715  0.00  0.00     0.065 C 
ATOM      6  C8  ZIN A   1      19.042  -1.087  13.642  0.00  0.00     0.190 C 
ATOM      7  N2  ZIN A   1      18.119  -0.816  14.776  0.00  0.00    -0.066 N 
ATOM      8  C7  ZIN A   1      18.200  -0.768  12.383  0.00  0.00     0.035 C 
ATOM      9  C1  ZIN A   1      18.874  -0.609  16.019  0.00  0.00     0.270 C 
ATOM     10  H3  ZIN A   1      17.458  -1.570  14.883  0.00  0.00     0.280 HD
ATOM     11  C4  ZIN A   1      17.424   0.435  14.370  0.00  0.00     0.190 C 
ATOM     12  C26 ZIN A   1      18.434   1.584  14.517  0.00  0.00     0.065 C 
ATOM     13  C6  ZIN A   1      17.131   0.235  12.865  0.00  0.00     0.035 C 
ENDBRANCH   3   4
ENDBRANCH   1   3
BRANCH   1  14
ATOM     14  C16 ZIN A   1      18.667   3.008  10.278  0.00  0.00     0.142 C 
BRANCH  14  15
ATOM     15  C18 ZIN A   1      17.301   3.450  10.805  0.00  0.00     0.183 C 
BRANCH  15  16
ATOM     16  O19 ZIN A   1      17.431   3.885  12.160  0.00  0.00    -0.400 OA
ATOM     17  H38 ZIN A   1      17.276   4.831  12.286  0.00  0.00     0.209 HD
ENDBRANCH  15  16
ENDBRANCH  14  15
BRANCH  14  18
ATOM     18  C20 ZIN A   1      18.483   1.906   9.267  0.00  0.00    -0.043 A 
ATOM     19  C25 ZIN A   1      19.282   1.860   8.140  0.00  0.00     0.008 A 
ATOM     20  C24 ZIN A   1      19.116   0.847   7.215  0.00  0.00     0.001 A 
ATOM     21  C23 ZIN A   1      18.145  -0.117   7.412  0.00  0.00     0.000 A 
ATOM     22  C22 ZIN A   1      17.342  -0.068   8.536  0.00  0.00     0.001 A 
ATOM     23  C21 ZIN A   1      17.511   0.943   9.464  0.00  0.00     0.008 A 
ENDBRANCH  14  18
ENDBRANCH   1  14
TORSDOF 6
ENDMDL
MODEL 7
REMARK VINA RESULT:      -6.2      2.079      5.357
REMARK  6 active torsions:
REMARK  status: ('A' for Active; 'I' for Inactive)
REMARK    1  A    between atoms: C11_9  and  O13_10 
REMARK    2  A    between atoms: O13_10  and  C14_11 
REMARK    3  A    between atoms: C14_11  and  C16_13 
REMARK    4  A    between atoms: C16_13  and  C18_14 
REMARK    5  A    between atoms: C16_13  and  C20_16 
REMARK    6  A    between atoms: C18_14  and  O19_15 
ROOT
ATOM      1  C14 ZIN A   1      19.571  -0.670  10.380  0.00  0.00     0.270 C 
ATOM      2  O15 ZIN A   1      20.682  -0.476  10.813  0.00  0.00    -0.264 OA
ENDROOT
BRANCH   1   3
ATOM      3  O13 ZIN A   1      19.122  -1.925  10.219  0.00  0.00    -0.315 OA
BRANCH   3   4
ATOM      4  C11 ZIN A   1      18.863  -2.691  11.424  0.00  0.00     0.136 C 
ATOM      5  C10 ZIN A   1      19.762  -3.932  11.442  0.00  0.00     0.065 C 
ATOM      6  C8  ZIN A   1      19.350  -4.862  10.289  0.00  0.00     0.190 C 
ATOM      7  N2  ZIN A   1      17.962  -5.323  10.556  0.00  0.00    -0.066 N 
ATOM      8  C7  ZIN A   1      19.224  -4.000   9.009  0.00  0.00     0.035 C 
ATOM      9  C1  ZIN A   1      17.816  -5.741  11.957  0.00  0.00     0.270 C 
ATOM     10  H3  ZIN A   1      17.712  -6.076   9.933  0.00  0.00     0.280 HD
ATOM     11  C4  ZIN A   1      17.134  -4.118  10.280  0.00  0.00     0.190 C 
ATOM     12  C26 ZIN A   1      17.358  -3.136  11.441  0.00  0.00     0.065 C 
ATOM     13  C6  ZIN A   1      17.760  -3.512   9.003  0.00  0.00     0.035 C 
ENDBRANCH   3   4
ENDBRANCH   1   3
BRANCH   1  14
ATOM     14  C16 ZIN A   1      18.686   0.498  10.023  0.00  0.00     0.142 C 
BRANCH  14  15
ATOM     15  C18 ZIN A   1      17.364   0.388  10.785  0.00  0.00     0.183 C 
BRANCH  15  16
ATOM     16  O19 ZIN A   1      17.026   1.662  11.339  0.00  0.00    -0.400 OA
ATOM     17  H38 ZIN A   1      17.362   1.803  12.235  0.00  0.00     0.209 HD
ENDBRANCH  15  16
ENDBRANCH  14  15
BRANCH  14  18
ATOM     18  C20 ZIN A   1      18.414   0.487   8.542  0.00  0.00    -0.043 A 
ATOM     19  C25 ZIN A   1      19.291   1.109   7.673  0.00  0.00     0.008 A 
ATOM     20  C24 ZIN A   1      19.043   1.095   6.313  0.00  0.00     0.001 A 
ATOM     21  C23 ZIN A   1      17.914   0.467   5.822  0.00  0.00     0.000 A 
ATOM     22  C22 ZIN A   1      17.034  -0.151   6.691  0.00  0.00     0.001 A 
ATOM     23  C21 ZIN A   1      17.284  -0.140   8.051  0.00  0.00     0.008 A 
ENDBRANCH  14  18
ENDBRANCH   1  14
TORSDOF 6
ENDMDL
MODEL 8
REMARK VINA RESULT:      -6.2      2.385      4.411
REMARK  6 active torsions:
REMARK  status: ('A' for Active; 'I' for Inactive)
REMARK    1  A    between atoms: C11_9  and  O13_10 
REMARK    2  A    between atoms: O13_10  and  C14_11 
REMARK    3  A    between atoms: C14_11  and  C16_13 
REMARK    4  A    between atoms: C16_13  and  C18_14 
REMARK    5  A    between atoms: C16_13  and  C20_16 
REMARK    6  A    between atoms: C18_14  and  O19_15 
ROOT
ATOM      1  C14 ZIN A   1      19.400   0.770  13.121  0.00  0.00     0.270 C 
ATOM      2  O15 ZIN A   1      20.358   0.253  13.647  0.00  0.00    -0.264 OA
ENDROOT
BRANCH   1   3
ATOM      3  O13 ZIN A   1      19.309   0.811  11.783  0.00  0.00    -0.315 OA
BRANCH   3   4
ATOM      4  C11 ZIN A   1      19.222  -0.462  11.089  0.00  0.00     0.136 C 
ATOM      5  C10 ZIN A   1      20.072  -0.408   9.815  0.00  0.00     0.065 C 
ATOM      6  C8  ZIN A   1      19.451   0.611   8.846  0.00  0.00     0.190 C 
ATOM      7  N2  ZIN A   1      18.110   0.101   8.456  0.00  0.00    -0.066 N 
ATOM      8  C7  ZIN A   1      19.150   1.901   9.646  0.00  0.00     0.035 C 
ATOM      9  C1  ZIN A   1      18.177  -1.326   8.117  0.00  0.00     0.270 C 
ATOM     10  H3  ZIN A   1      17.739   0.633   7.683  0.00  0.00     0.280 HD
ATOM     11  C4  ZIN A   1      17.288   0.311   9.678  0.00  0.00     0.190 C 
ATOM     12  C26 ZIN A   1      17.726  -0.742  10.708  0.00  0.00     0.065 C 
ATOM     13  C6  ZIN A   1      17.720   1.703  10.193  0.00  0.00     0.035 C 
ENDBRANCH   3   4
ENDBRANCH   1   3
BRANCH   1  14
ATOM     14  C16 ZIN A   1      18.306   1.367  13.969  0.00  0.00     0.142 C 
BRANCH  14  15
ATOM     15  C18 ZIN A   1      18.475   2.887  14.023  0.00  0.00     0.183 C 
BRANCH  15  16
ATOM     16  O19 ZIN A   1      19.631   3.264  13.270  0.00  0.00    -0.400 OA
ATOM     17  H38 ZIN A   1      20.385   2.670  13.383  0.00  0.00     0.209 HD
ENDBRANCH  15  16
ENDBRANCH  14  15
BRANCH  14  18
ATOM     18  C20 ZIN A   1      18.387   0.804  15.364  0.00  0.00    -0.043 A 
ATOM     19  C25 ZIN A   1      17.783  -0.404  15.658  0.00  0.00     0.008 A 
ATOM     20  C24 ZIN A   1      17.861  -0.924  16.937  0.00  0.00     0.001 A 
ATOM     21  C23 ZIN A   1      18.537  -0.231  17.924  0.00  0.00     0.000 A 
ATOM     22  C22 ZIN A   1      19.136   0.980  17.632  0.00  0.00     0.001 A 
ATOM     23  C21 ZIN A   1      19.062   1.497  16.352  0.00  0.00     0.008 A 
ENDBRANCH  14  18
ENDBRANCH   1  14
TORSDOF 6
ENDMDL
MODEL 9
REMARK VINA RESULT:      -6.1      2.229      4.199
REMARK  6 active torsions:
REMARK  status: ('A' for Active; 'I' for Inactive)
REMARK    1  A    between atoms: C11_9  and  O13_10 
REMARK    2  A    between atoms: O13_10  and  C14_11 
REMARK    3  A    between atoms: C14_11  and  C16_13 
REMARK    4  A    between atoms: C16_13  and  C18_14 
REMARK    5  A    between atoms: C16_13  and  C20_16 
REMARK    6  A    between atoms: C18_14  and  O19_15 
ROOT
ATOM      1  C14 ZIN A   1      17.192   0.002  12.100  0.00  0.00     0.270 C 
ATOM      2  O15 ZIN A   1      16.010   0.053  11.855  0.00  0.00    -0.264 OA
ENDROOT
BRANCH   1   3
ATOM      3  O13 ZIN A   1      17.979  -0.854  11.430  0.00  0.00    -0.315 OA
BRANCH   3   4
ATOM      4  C11 ZIN A   1      17.519  -2.226  11.322  0.00  0.00     0.136 C 
ATOM      5  C10 ZIN A   1      18.479  -3.148  12.082  0.00  0.00     0.065 C 
ATOM      6  C8  ZIN A   1      19.844  -3.135  11.376  0.00  0.00     0.190 C 
ATOM      7  N2  ZIN A   1      19.656  -3.720  10.022  0.00  0.00    -0.066 N 
ATOM      8  C7  ZIN A   1      20.221  -1.659  11.103  0.00  0.00     0.035 C 
ATOM      9  C1  ZIN A   1      18.851  -4.946  10.095  0.00  0.00     0.270 C 
ATOM     10  H3  ZIN A   1      20.548  -3.906   9.588  0.00  0.00     0.280 HD
ATOM     11  C4  ZIN A   1      18.926  -2.657   9.280  0.00  0.00     0.190 C 
ATOM     12  C26 ZIN A   1      17.483  -2.643   9.809  0.00  0.00     0.065 C 
ATOM     13  C6  ZIN A   1      19.617  -1.345   9.718  0.00  0.00     0.035 C 
ENDBRANCH   3   4
ENDBRANCH   1   3
BRANCH   1  14
ATOM     14  C16 ZIN A   1      17.783   0.899  13.158  0.00  0.00     0.142 C 
BRANCH  14  15
ATOM     15  C18 ZIN A   1      19.130   1.439  12.673  0.00  0.00     0.183 C 
BRANCH  15  16
ATOM     16  O19 ZIN A   1      19.360   2.728  13.247  0.00  0.00    -0.400 OA
ATOM     17  H38 ZIN A   1      19.245   3.461  12.627  0.00  0.00     0.209 HD
ENDBRANCH  15  16
ENDBRANCH  14  15
BRANCH  14  18
ATOM     18  C20 ZIN A   1      17.985   0.113  14.427  0.00  0.00    -0.043 A 
ATOM     19  C25 ZIN A   1      17.081   0.235  15.467  0.00  0.00     0.008 A 
ATOM     20  C24 ZIN A   1      17.264  -0.489  16.630  0.00  0.00     0.001 A 
ATOM     21  C23 ZIN A   1      18.354  -1.329  16.758  0.00  0.00     0.000 A 
ATOM     22  C22 ZIN A   1      19.260  -1.447  15.720  0.00  0.00     0.001 A 
ATOM     23  C21 ZIN A   1      19.075  -0.726  14.555  0.00  0.00     0.008 A 
ENDBRANCH  14  18
ENDBRANCH   1  14
TORSDOF 6
ENDMDL
