MODEL 1
REMARK VINA RESULT:      -8.6      0.000      0.000
REMARK  10 active torsions:
REMARK  status: ('A' for Active; 'I' for Inactive)
REMARK    1  A    between atoms: C2_2  and  C3_3 
REMARK    2  A    between atoms: N5_5  and  C6_6 
REMARK    3  A    between atoms: C6_6  and  C7_7 
REMARK    4  A    between atoms: C7_7  and  C8_8 
REMARK    5  A    between atoms: C8_8  and  N9_9 
REMARK    6  A    between atoms: N13_13  and  C14_14 
REMARK    7  A    between atoms: N25_25  and  C26_26 
REMARK    8  A    between atoms: C26_26  and  C27_27 
REMARK    9  A    between atoms: C27_27  and  O28_28 
REMARK   10  A    between atoms: O28_28  and  C29_29 
ROOT
ATOM      1  C3  ZIN A   1      18.918   0.977  16.729  0.00  0.00     0.130 A 
ATOM      2  N4  ZIN A   1      18.927   2.269  16.772  0.00  0.00    -0.154 NA
ATOM      3  N5  ZIN A   1      18.408   2.751  15.562  0.00  0.00    -0.218 N 
ATOM      4  C23 ZIN A   1      18.092   1.678  14.806  0.00  0.00     0.346 A 
ATOM      5  O24 ZIN A   1      17.614   1.701  13.687  0.00  0.00    -0.245 OA
ATOM      6  N25 ZIN A   1      18.409   0.577  15.516  0.00  0.00    -0.282 N 
ENDROOT
BRANCH   3   7
ATOM      7  C6  ZIN A   1      18.238   4.157  15.188  0.00  0.00     0.158 C 
BRANCH   7   8
ATOM      8  C7  ZIN A   1      19.540   4.684  14.584  0.00  0.00     0.050 C 
BRANCH   8   9
ATOM      9  C8  ZIN A   1      19.277   5.185  13.162  0.00  0.00     0.236 C 
BRANCH   9  10
ATOM     10  N9  ZIN A   1      18.896   4.053  12.307  0.00  0.00    -0.069 N 
ATOM     11  H10 ZIN A   1      18.320   3.413  12.833  0.00  0.00     0.280 HD
ATOM     12  C22 ZIN A   1      18.144   4.548  11.146  0.00  0.00     0.249 C 
ATOM     13  C21 ZIN A   1      17.731   3.366  10.265  0.00  0.00     0.123 C 
ATOM     14  N13 ZIN A   1      18.933   2.646   9.821  0.00  0.00    -0.280 NA
ATOM     15  C12 ZIN A   1      19.709   2.166  10.973  0.00  0.00     0.123 C 
ATOM     16  C11 ZIN A   1      20.106   3.357  11.848  0.00  0.00     0.249 C 
BRANCH  14  17
ATOM     17  C14 ZIN A   1      18.598   1.591   8.969  0.00  0.00     0.012 A 
ATOM     18  C20 ZIN A   1      19.076   1.571   7.665  0.00  0.00     0.047 A 
ATOM     19  C18 ZIN A   1      18.748   0.522   6.827  0.00  0.00     0.035 A 
ATOM     20  C17 ZIN A   1      17.934  -0.501   7.282  0.00  0.00     0.024 A 
ATOM     21 Cl19 ZIN A   1      19.351   0.492   5.199  0.00  0.00    -0.084 Cl
ATOM     22  C16 ZIN A   1      17.453  -0.480   8.578  0.00  0.00     0.003 A 
ATOM     23  C15 ZIN A   1      17.782   0.562   9.422  0.00  0.00     0.024 A 
ENDBRANCH  14  17
ENDBRANCH   9  10
ENDBRANCH   8   9
ENDBRANCH   7   8
ENDBRANCH   3   7
BRANCH   1  24
ATOM     24  C2  ZIN A   1      19.393   0.059  17.825  0.00  0.00     0.076 C 
ATOM     25  C1  ZIN A   1      18.377   0.063  18.970  0.00  0.00     0.013 C 
ENDBRANCH   1  24
BRANCH   6  26
ATOM     26  C26 ZIN A   1      18.233  -0.809  15.075  0.00  0.00     0.162 C 
BRANCH  26  27
ATOM     27  C27 ZIN A   1      19.497  -1.277  14.349  0.00  0.00     0.196 C 
BRANCH  27  28
ATOM     28  O28 ZIN A   1      19.324  -1.114  12.940  0.00  0.00    -0.350 OA
BRANCH  28  29
ATOM     29  C29 ZIN A   1      18.987  -2.222  12.228  0.00  0.00     0.068 A 
ATOM     30  C34 ZIN A   1      17.686  -2.391  11.778  0.00  0.00     0.037 A 
ATOM     31  C33 ZIN A   1      17.348  -3.514  11.050  0.00  0.00     0.003 A 
ATOM     32  C32 ZIN A   1      18.303  -4.477  10.779  0.00  0.00     0.000 A 
ATOM     33  C31 ZIN A   1      19.599  -4.314  11.231  0.00  0.00     0.003 A 
ATOM     34  C30 ZIN A   1      19.945  -3.189  11.954  0.00  0.00     0.037 A 
ENDBRANCH  28  29
ENDBRANCH  27  28
ENDBRANCH  26  27
ENDBRANCH   6  26
TORSDOF 10
ENDMDL
MODEL 2
REMARK VINA RESULT:      -8.2      4.513      9.450
REMARK  10 active torsions:
REMARK  status: ('A' for Active; 'I' for Inactive)
REMARK    1  A    between atoms: C2_2  and  C3_3 
REMARK    2  A    between atoms: N5_5  and  C6_6 
REMARK    3  A    between atoms: C6_6  and  C7_7 
REMARK    4  A    between atoms: C7_7  and  C8_8 
REMARK    5  A    between atoms: C8_8  and  N9_9 
REMARK    6  A    between atoms: N13_13  and  C14_14 
REMARK    7  A    between atoms: N25_25  and  C26_26 
REMARK    8  A    between atoms: C26_26  and  C27_27 
REMARK    9  A    between atoms: C27_27  and  O28_28 
REMARK   10  A    between atoms: O28_28  and  C29_29 
ROOT
ATOM      1  C3  ZIN A   1      17.520  -3.673   4.321  0.00  0.00     0.130 A 
ATOM      2  N4  ZIN A   1      17.399  -4.760   5.012  0.00  0.00    -0.154 NA
ATOM      3  N5  ZIN A   1      18.390  -4.760   6.003  0.00  0.00    -0.218 N 
ATOM      4  C23 ZIN A   1      19.099  -3.620   5.862  0.00  0.00     0.346 A 
ATOM      5  O24 ZIN A   1      20.043  -3.268   6.545  0.00  0.00    -0.245 OA
ATOM      6  N25 ZIN A   1      18.572  -2.944   4.821  0.00  0.00    -0.282 N 
ENDROOT
BRANCH   3   7
ATOM      7  C6  ZIN A   1      18.616  -5.803   7.007  0.00  0.00     0.158 C 
BRANCH   7   8
ATOM      8  C7  ZIN A   1      17.642  -5.610   8.171  0.00  0.00     0.050 C 
BRANCH   8   9
ATOM      9  C8  ZIN A   1      18.223  -6.249   9.433  0.00  0.00     0.236 C 
BRANCH   9  10
ATOM     10  N9  ZIN A   1      18.408  -5.218  10.464  0.00  0.00    -0.069 N 
ATOM     11  H10 ZIN A   1      18.232  -5.617  11.374  0.00  0.00     0.280 HD
ATOM     12  C22 ZIN A   1      19.785  -4.712  10.409  0.00  0.00     0.249 C 
ATOM     13  C21 ZIN A   1      19.983  -3.651  11.494  0.00  0.00     0.123 C 
ATOM     14  N13 ZIN A   1      19.029  -2.553  11.281  0.00  0.00    -0.280 NA
ATOM     15  C12 ZIN A   1      17.647  -3.049  11.309  0.00  0.00     0.123 C 
ATOM     16  C11 ZIN A   1      17.468  -4.114  10.225  0.00  0.00     0.249 C 
BRANCH  14  17
ATOM     17  C14 ZIN A   1      19.216  -1.538  12.223  0.00  0.00     0.012 A 
ATOM     18  C20 ZIN A   1      18.545  -1.586  13.438  0.00  0.00     0.047 A 
ATOM     19  C18 ZIN A   1      18.737  -0.584  14.372  0.00  0.00     0.035 A 
ATOM     20  C17 ZIN A   1      19.587   0.472  14.090  0.00  0.00     0.024 A 
ATOM     21 Cl19 ZIN A   1      17.905  -0.646  15.894  0.00  0.00    -0.084 Cl
ATOM     22  C16 ZIN A   1      20.251   0.523  12.879  0.00  0.00     0.003 A 
ATOM     23  C15 ZIN A   1      20.068  -0.478  11.945  0.00  0.00     0.024 A 
ENDBRANCH  14  17
ENDBRANCH   9  10
ENDBRANCH   8   9
ENDBRANCH   7   8
ENDBRANCH   3   7
BRANCH   1  24
ATOM     24  C2  ZIN A   1      16.652  -3.273   3.155  0.00  0.00     0.076 C 
ATOM     25  C1  ZIN A   1      15.712  -4.427   2.800  0.00  0.00     0.013 C 
ENDBRANCH   1  24
BRANCH   6  26
ATOM     26  C26 ZIN A   1      19.035  -1.649   4.316  0.00  0.00     0.162 C 
BRANCH  26  27
ATOM     27  C27 ZIN A   1      18.322  -0.523   5.068  0.00  0.00     0.196 C 
BRANCH  27  28
ATOM     28  O28 ZIN A   1      19.238   0.100   5.971  0.00  0.00    -0.350 OA
BRANCH  28  29
ATOM     29  C29 ZIN A   1      18.766   0.415   7.206  0.00  0.00     0.068 A 
ATOM     30  C34 ZIN A   1      17.822  -0.396   7.818  0.00  0.00     0.037 A 
ATOM     31  C33 ZIN A   1      17.349  -0.077   9.076  0.00  0.00     0.003 A 
ATOM     32  C32 ZIN A   1      17.806   1.058   9.720  0.00  0.00     0.000 A 
ATOM     33  C31 ZIN A   1      18.741   1.873   9.109  0.00  0.00     0.003 A 
ATOM     34  C30 ZIN A   1      19.224   1.554   7.854  0.00  0.00     0.037 A 
ENDBRANCH  28  29
ENDBRANCH  27  28
ENDBRANCH  26  27
ENDBRANCH   6  26
TORSDOF 10
ENDMDL
MODEL 3
REMARK VINA RESULT:      -8.1      1.577      2.235
REMARK  10 active torsions:
REMARK  status: ('A' for Active; 'I' for Inactive)
REMARK    1  A    between atoms: C2_2  and  C3_3 
REMARK    2  A    between atoms: N5_5  and  C6_6 
REMARK    3  A    between atoms: C6_6  and  C7_7 
REMARK    4  A    between atoms: C7_7  and  C8_8 
REMARK    5  A    between atoms: C8_8  and  N9_9 
REMARK    6  A    between atoms: N13_13  and  C14_14 
REMARK    7  A    between atoms: N25_25  and  C26_26 
REMARK    8  A    between atoms: C26_26  and  C27_27 
REMARK    9  A    between atoms: C27_27  and  O28_28 
REMARK   10  A    between atoms: O28_28  and  C29_29 
ROOT
ATOM      1  C3  ZIN A   1      18.445   0.207  15.390  0.00  0.00     0.130 A 
ATOM      2  N4  ZIN A   1      18.249   1.484  15.332  0.00  0.00    -0.154 NA
ATOM      3  N5  ZIN A   1      18.915   1.978  14.202  0.00  0.00    -0.218 N 
ATOM      4  C23 ZIN A   1      19.511   0.929  13.598  0.00  0.00     0.346 A 
ATOM      5  O24 ZIN A   1      20.182   0.967  12.582  0.00  0.00    -0.245 OA
ATOM      6  N25 ZIN A   1      19.231  -0.169  14.328  0.00  0.00    -0.282 N 
ENDROOT
BRANCH   3   7
ATOM      7  C6  ZIN A   1      18.956   3.373  13.757  0.00  0.00     0.158 C 
BRANCH   7   8
ATOM      8  C7  ZIN A   1      17.759   3.654  12.846  0.00  0.00     0.050 C 
BRANCH   8   9
ATOM      9  C8  ZIN A   1      18.258   4.006  11.443  0.00  0.00     0.236 C 
BRANCH   9  10
ATOM     10  N9  ZIN A   1      18.541   2.771  10.700  0.00  0.00    -0.069 N 
ATOM     11  H10 ZIN A   1      19.332   2.303  11.115  0.00  0.00     0.280 HD
ATOM     12  C22 ZIN A   1      17.368   1.890  10.751  0.00  0.00     0.249 C 
ATOM     13  C21 ZIN A   1      17.669   0.595   9.992  0.00  0.00     0.123 C 
ATOM     14  N13 ZIN A   1      18.003   0.915   8.597  0.00  0.00    -0.280 NA
ATOM     15  C12 ZIN A   1      19.161   1.817   8.531  0.00  0.00     0.123 C 
ATOM     16  C11 ZIN A   1      18.848   3.101   9.301  0.00  0.00     0.249 C 
BRANCH  14  17
ATOM     17  C14 ZIN A   1      18.232  -0.248   7.858  0.00  0.00     0.012 A 
ATOM     18  C20 ZIN A   1      17.757  -0.351   6.556  0.00  0.00     0.047 A 
ATOM     19  C18 ZIN A   1      17.991  -1.500   5.826  0.00  0.00     0.035 A 
ATOM     20  C17 ZIN A   1      18.687  -2.553   6.395  0.00  0.00     0.024 A 
ATOM     21 Cl19 ZIN A   1      17.406  -1.627   4.197  0.00  0.00    -0.084 Cl
ATOM     22  C16 ZIN A   1      19.156  -2.455   7.691  0.00  0.00     0.003 A 
ATOM     23  C15 ZIN A   1      18.930  -1.306   8.424  0.00  0.00     0.024 A 
ENDBRANCH  14  17
ENDBRANCH   9  10
ENDBRANCH   8   9
ENDBRANCH   7   8
ENDBRANCH   3   7
BRANCH   1  24
ATOM     24  C2  ZIN A   1      17.905  -0.716  16.452  0.00  0.00     0.076 C 
ATOM     25  C1  ZIN A   1      18.514  -0.347  17.806  0.00  0.00     0.013 C 
ENDBRANCH   1  24
BRANCH   6  26
ATOM     26  C26 ZIN A   1      19.680  -1.532  14.034  0.00  0.00     0.162 C 
BRANCH  26  27
ATOM     27  C27 ZIN A   1      18.834  -2.115  12.900  0.00  0.00     0.196 C 
BRANCH  27  28
ATOM     28  O28 ZIN A   1      19.634  -3.006  12.120  0.00  0.00    -0.350 OA
BRANCH  28  29
ATOM     29  C29 ZIN A   1      18.979  -3.974  11.425  0.00  0.00     0.068 A 
ATOM     30  C34 ZIN A   1      17.666  -4.289  11.742  0.00  0.00     0.037 A 
ATOM     31  C33 ZIN A   1      17.000  -5.269  11.032  0.00  0.00     0.003 A 
ATOM     32  C32 ZIN A   1      17.646  -5.945  10.014  0.00  0.00     0.000 A 
ATOM     33  C31 ZIN A   1      18.958  -5.639   9.700  0.00  0.00     0.003 A 
ATOM     34  C30 ZIN A   1      19.626  -4.654  10.403  0.00  0.00     0.037 A 
ENDBRANCH  28  29
ENDBRANCH  27  28
ENDBRANCH  26  27
ENDBRANCH   6  26
TORSDOF 10
ENDMDL
MODEL 4
REMARK VINA RESULT:      -8.0      3.004      8.199
REMARK  10 active torsions:
REMARK  status: ('A' for Active; 'I' for Inactive)
REMARK    1  A    between atoms: C2_2  and  C3_3 
REMARK    2  A    between atoms: N5_5  and  C6_6 
REMARK    3  A    between atoms: C6_6  and  C7_7 
REMARK    4  A    between atoms: C7_7  and  C8_8 
REMARK    5  A    between atoms: C8_8  and  N9_9 
REMARK    6  A    between atoms: N13_13  and  C14_14 
REMARK    7  A    between atoms: N25_25  and  C26_26 
REMARK    8  A    between atoms: C26_26  and  C27_27 
REMARK    9  A    between atoms: C27_27  and  O28_28 
REMARK   10  A    between atoms: O28_28  and  C29_29 
ROOT
ATOM      1  C3  ZIN A   1      18.124  -0.581   8.005  0.00  0.00     0.130 A 
ATOM      2  N4  ZIN A   1      18.047  -1.755   8.543  0.00  0.00    -0.154 NA
ATOM      3  N5  ZIN A   1      19.073  -1.869   9.492  0.00  0.00    -0.218 N 
ATOM      4  C23 ZIN A   1      19.755  -0.704   9.486  0.00  0.00     0.346 A 
ATOM      5  O24 ZIN A   1      20.717  -0.429  10.180  0.00  0.00    -0.245 OA
ATOM      6  N25 ZIN A   1      19.179   0.096   8.566  0.00  0.00    -0.282 N 
ENDROOT
BRANCH   3   7
ATOM      7  C6  ZIN A   1      19.353  -3.034  10.334  0.00  0.00     0.158 C 
BRANCH   7   8
ATOM      8  C7  ZIN A   1      19.043  -2.695  11.793  0.00  0.00     0.050 C 
BRANCH   8   9
ATOM      9  C8  ZIN A   1      17.712  -1.944  11.871  0.00  0.00     0.236 C 
BRANCH   9  10
ATOM     10  N9  ZIN A   1      17.684  -1.121  13.088  0.00  0.00    -0.069 N 
ATOM     11  H10 ZIN A   1      16.785  -1.213  13.535  0.00  0.00     0.280 HD
ATOM     12  C22 ZIN A   1      18.737  -1.572  14.008  0.00  0.00     0.249 C 
ATOM     13  C21 ZIN A   1      18.696  -0.728  15.283  0.00  0.00     0.123 C 
ATOM     14  N13 ZIN A   1      18.897   0.687  14.937  0.00  0.00    -0.280 NA
ATOM     15  C12 ZIN A   1      17.864   1.146  13.997  0.00  0.00     0.123 C 
ATOM     16  C11 ZIN A   1      17.912   0.286  12.732  0.00  0.00     0.249 C 
BRANCH  14  17
ATOM     17  C14 ZIN A   1      18.919   1.484  16.084  0.00  0.00     0.012 A 
ATOM     18  C20 ZIN A   1      18.760   2.861  15.977  0.00  0.00     0.047 A 
ATOM     19  C18 ZIN A   1      18.775   3.646  17.115  0.00  0.00     0.035 A 
ATOM     20  C17 ZIN A   1      18.962   3.064  18.357  0.00  0.00     0.024 A 
ATOM     21 Cl19 ZIN A   1      18.568   5.364  16.985  0.00  0.00    -0.084 Cl
ATOM     22  C16 ZIN A   1      19.127   1.696  18.464  0.00  0.00     0.003 A 
ATOM     23  C15 ZIN A   1      19.105   0.905  17.331  0.00  0.00     0.024 A 
ENDBRANCH  14  17
ENDBRANCH   9  10
ENDBRANCH   8   9
ENDBRANCH   7   8
ENDBRANCH   3   7
BRANCH   1  24
ATOM     24  C2  ZIN A   1      17.208  -0.046   6.935  0.00  0.00     0.076 C 
ATOM     25  C1  ZIN A   1      17.847  -0.265   5.561  0.00  0.00     0.013 C 
ENDBRANCH   1  24
BRANCH   6  26
ATOM     26  C26 ZIN A   1      19.601   1.457   8.229  0.00  0.00     0.162 C 
BRANCH  26  27
ATOM     27  C27 ZIN A   1      18.791   2.461   9.053  0.00  0.00     0.196 C 
BRANCH  27  28
ATOM     28  O28 ZIN A   1      19.374   2.591  10.351  0.00  0.00    -0.350 OA
BRANCH  28  29
ATOM     29  C29 ZIN A   1      18.805   3.492  11.195  0.00  0.00     0.068 A 
ATOM     30  C34 ZIN A   1      17.486   3.878  11.012  0.00  0.00     0.037 A 
ATOM     31  C33 ZIN A   1      16.908   4.789  11.874  0.00  0.00     0.003 A 
ATOM     32  C32 ZIN A   1      17.647   5.326  12.912  0.00  0.00     0.000 A 
ATOM     33  C31 ZIN A   1      18.965   4.948  13.093  0.00  0.00     0.003 A 
ATOM     34  C30 ZIN A   1      19.546   4.031  12.238  0.00  0.00     0.037 A 
ENDBRANCH  28  29
ENDBRANCH  27  28
ENDBRANCH  26  27
ENDBRANCH   6  26
TORSDOF 10
ENDMDL
MODEL 5
REMARK VINA RESULT:      -7.9      3.358      7.509
REMARK  10 active torsions:
REMARK  status: ('A' for Active; 'I' for Inactive)
REMARK    1  A    between atoms: C2_2  and  C3_3 
REMARK    2  A    between atoms: N5_5  and  C6_6 
REMARK    3  A    between atoms: C6_6  and  C7_7 
REMARK    4  A    between atoms: C7_7  and  C8_8 
REMARK    5  A    between atoms: C8_8  and  N9_9 
REMARK    6  A    between atoms: N13_13  and  C14_14 
REMARK    7  A    between atoms: N25_25  and  C26_26 
REMARK    8  A    between atoms: C26_26  and  C27_27 
REMARK    9  A    between atoms: C27_27  and  O28_28 
REMARK   10  A    between atoms: O28_28  and  C29_29 
ROOT
ATOM      1  C3  ZIN A   1      18.928  -1.482   5.954  0.00  0.00     0.130 A 
ATOM      2  N4  ZIN A   1      18.859  -0.196   6.082  0.00  0.00    -0.154 NA
ATOM      3  N5  ZIN A   1      19.186   0.129   7.405  0.00  0.00    -0.218 N 
ATOM      4  C23 ZIN A   1      19.452  -1.027   8.048  0.00  0.00     0.346 A 
ATOM      5  O24 ZIN A   1      19.774  -1.145   9.217  0.00  0.00    -0.245 OA
ATOM      6  N25 ZIN A   1      19.289  -2.029   7.161  0.00  0.00    -0.282 N 
ENDROOT
BRANCH   3   7
ATOM      7  C6  ZIN A   1      19.233   1.474   7.983  0.00  0.00     0.158 C 
BRANCH   7   8
ATOM      8  C7  ZIN A   1      18.422   1.500   9.280  0.00  0.00     0.050 C 
BRANCH   8   9
ATOM      9  C8  ZIN A   1      18.721   2.792  10.043  0.00  0.00     0.236 C 
BRANCH   9  10
ATOM     10  N9  ZIN A   1      18.999   2.477  11.450  0.00  0.00    -0.069 N 
ATOM     11  H10 ZIN A   1      19.738   3.075  11.789  0.00  0.00     0.280 HD
ATOM     12  C22 ZIN A   1      17.788   2.695  12.250  0.00  0.00     0.249 C 
ATOM     13  C21 ZIN A   1      18.083   2.384  13.720  0.00  0.00     0.123 C 
ATOM     14  N13 ZIN A   1      18.527   0.988  13.842  0.00  0.00    -0.280 NA
ATOM     15  C12 ZIN A   1      19.726   0.749  13.027  0.00  0.00     0.123 C 
ATOM     16  C11 ZIN A   1      19.417   1.072  11.564  0.00  0.00     0.249 C 
BRANCH  14  17
ATOM     17  C14 ZIN A   1      18.755   0.651  15.179  0.00  0.00     0.012 A 
ATOM     18  C20 ZIN A   1      18.865   1.650  16.138  0.00  0.00     0.047 A 
ATOM     19  C18 ZIN A   1      19.084   1.313  17.461  0.00  0.00     0.035 A 
ATOM     20  C17 ZIN A   1      19.207  -0.017  17.827  0.00  0.00     0.024 A 
ATOM     21 Cl19 ZIN A   1      19.214   2.559  18.663  0.00  0.00    -0.084 Cl
ATOM     22  C16 ZIN A   1      19.104  -1.011  16.872  0.00  0.00     0.003 A 
ATOM     23  C15 ZIN A   1      18.878  -0.681  15.550  0.00  0.00     0.024 A 
ENDBRANCH  14  17
ENDBRANCH   9  10
ENDBRANCH   8   9
ENDBRANCH   7   8
ENDBRANCH   3   7
BRANCH   1  24
ATOM     24  C2  ZIN A   1      18.651  -2.253   4.689  0.00  0.00     0.076 C 
ATOM     25  C1  ZIN A   1      17.248  -1.914   4.180  0.00  0.00     0.013 C 
ENDBRANCH   1  24
BRANCH   6  26
ATOM     26  C26 ZIN A   1      19.475  -3.456   7.434  0.00  0.00     0.162 C 
BRANCH  26  27
ATOM     27  C27 ZIN A   1      18.122  -4.093   7.761  0.00  0.00     0.196 C 
BRANCH  27  28
ATOM     28  O28 ZIN A   1      18.231  -4.848   8.969  0.00  0.00    -0.350 OA
BRANCH  28  29
ATOM     29  C29 ZIN A   1      18.508  -4.156  10.106  0.00  0.00     0.068 A 
ATOM     30  C34 ZIN A   1      17.552  -3.318  10.660  0.00  0.00     0.037 A 
ATOM     31  C33 ZIN A   1      17.833  -2.620  11.818  0.00  0.00     0.003 A 
ATOM     32  C32 ZIN A   1      19.072  -2.747  12.419  0.00  0.00     0.000 A 
ATOM     33  C31 ZIN A   1      20.030  -3.576  11.865  0.00  0.00     0.003 A 
ATOM     34  C30 ZIN A   1      19.751  -4.282  10.710  0.00  0.00     0.037 A 
ENDBRANCH  28  29
ENDBRANCH  27  28
ENDBRANCH  26  27
ENDBRANCH   6  26
TORSDOF 10
ENDMDL
MODEL 6
REMARK VINA RESULT:      -7.8      4.206      8.391
REMARK  10 active torsions:
REMARK  status: ('A' for Active; 'I' for Inactive)
REMARK    1  A    between atoms: C2_2  and  C3_3 
REMARK    2  A    between atoms: N5_5  and  C6_6 
REMARK    3  A    between atoms: C6_6  and  C7_7 
REMARK    4  A    between atoms: C7_7  and  C8_8 
REMARK    5  A    between atoms: C8_8  and  N9_9 
REMARK    6  A    between atoms: N13_13  and  C14_14 
REMARK    7  A    between atoms: N25_25  and  C26_26 
REMARK    8  A    between atoms: C26_26  and  C27_27 
REMARK    9  A    between atoms: C27_27  and  O28_28 
REMARK   10  A    between atoms: O28_28  and  C29_29 
ROOT
ATOM      1  C3  ZIN A   1      17.388  -3.695   4.487  0.00  0.00     0.130 A 
ATOM      2  N4  ZIN A   1      17.558  -2.418   4.375  0.00  0.00    -0.154 NA
ATOM      3  N5  ZIN A   1      18.698  -2.062   5.108  0.00  0.00    -0.218 N 
ATOM      4  C23 ZIN A   1      19.191  -3.192   5.657  0.00  0.00     0.346 A 
ATOM      5  O24 ZIN A   1      20.179  -3.280   6.364  0.00  0.00    -0.245 OA
ATOM      6  N25 ZIN A   1      18.385  -4.206   5.283  0.00  0.00    -0.282 N 
ENDROOT
BRANCH   3   7
ATOM      7  C6  ZIN A   1      19.253  -0.714   5.253  0.00  0.00     0.158 C 
BRANCH   7   8
ATOM      8  C7  ZIN A   1      18.294   0.146   6.079  0.00  0.00     0.050 C 
BRANCH   8   9
ATOM      9  C8  ZIN A   1      19.099   1.086   6.979  0.00  0.00     0.236 C 
BRANCH   9  10
ATOM     10  N9  ZIN A   1      18.826   0.770   8.387  0.00  0.00    -0.069 N 
ATOM     11  H10 ZIN A   1      17.841   0.587   8.505  0.00  0.00     0.280 HD
ATOM     12  C22 ZIN A   1      19.596  -0.417   8.781  0.00  0.00     0.249 C 
ATOM     13  C21 ZIN A   1      19.297  -0.758  10.242  0.00  0.00     0.123 C 
ATOM     14  N13 ZIN A   1      19.658   0.386  11.093  0.00  0.00    -0.280 NA
ATOM     15  C12 ZIN A   1      18.913   1.588  10.694  0.00  0.00     0.123 C 
ATOM     16  C11 ZIN A   1      19.215   1.910   9.229  0.00  0.00     0.249 C 
BRANCH  14  17
ATOM     17  C14 ZIN A   1      19.448   0.092  12.442  0.00  0.00     0.012 A 
ATOM     18  C20 ZIN A   1      19.466   1.111  13.387  0.00  0.00     0.047 A 
ATOM     19  C18 ZIN A   1      19.252   0.817  14.720  0.00  0.00     0.035 A 
ATOM     20  C17 ZIN A   1      19.032  -0.491  15.116  0.00  0.00     0.024 A 
ATOM     21 Cl19 ZIN A   1      19.265   2.090  15.901  0.00  0.00    -0.084 Cl
ATOM     22  C16 ZIN A   1      19.020  -1.506  14.178  0.00  0.00     0.003 A 
ATOM     23  C15 ZIN A   1      19.227  -1.219  12.843  0.00  0.00     0.024 A 
ENDBRANCH  14  17
ENDBRANCH   9  10
ENDBRANCH   8   9
ENDBRANCH   7   8
ENDBRANCH   3   7
BRANCH   1  24
ATOM     24  C2  ZIN A   1      16.277  -4.492   3.854  0.00  0.00     0.076 C 
ATOM     25  C1  ZIN A   1      16.141  -4.097   2.381  0.00  0.00     0.013 C 
ENDBRANCH   1  24
BRANCH   6  26
ATOM     26  C26 ZIN A   1      18.548  -5.614   5.654  0.00  0.00     0.162 C 
BRANCH  26  27
ATOM     27  C27 ZIN A   1      17.911  -5.858   7.024  0.00  0.00     0.196 C 
BRANCH  27  28
ATOM     28  O28 ZIN A   1      18.935  -5.955   8.015  0.00  0.00    -0.350 OA
BRANCH  28  29
ATOM     29  C29 ZIN A   1      18.616  -5.552   9.274  0.00  0.00     0.068 A 
ATOM     30  C34 ZIN A   1      17.329  -5.737   9.757  0.00  0.00     0.037 A 
ATOM     31  C33 ZIN A   1      17.008  -5.332  11.038  0.00  0.00     0.003 A 
ATOM     32  C32 ZIN A   1      17.966  -4.731  11.834  0.00  0.00     0.000 A 
ATOM     33  C31 ZIN A   1      19.248  -4.539  11.353  0.00  0.00     0.003 A 
ATOM     34  C30 ZIN A   1      19.576  -4.949  10.074  0.00  0.00     0.037 A 
ENDBRANCH  28  29
ENDBRANCH  27  28
ENDBRANCH  26  27
ENDBRANCH   6  26
TORSDOF 10
ENDMDL
MODEL 7
REMARK VINA RESULT:      -7.6      2.685      5.643
REMARK  10 active torsions:
REMARK  status: ('A' for Active; 'I' for Inactive)
REMARK    1  A    between atoms: C2_2  and  C3_3 
REMARK    2  A    between atoms: N5_5  and  C6_6 
REMARK    3  A    between atoms: C6_6  and  C7_7 
REMARK    4  A    between atoms: C7_7  and  C8_8 
REMARK    5  A    between atoms: C8_8  and  N9_9 
REMARK    6  A    between atoms: N13_13  and  C14_14 
REMARK    7  A    between atoms: N25_25  and  C26_26 
REMARK    8  A    between atoms: C26_26  and  C27_27 
REMARK    9  A    between atoms: C27_27  and  O28_28 
REMARK   10  A    between atoms: O28_28  and  C29_29 
ROOT
ATOM      1  C3  ZIN A   1      18.362   3.234  12.810  0.00  0.00     0.130 A 
ATOM      2  N4  ZIN A   1      18.431   2.494  13.868  0.00  0.00    -0.154 NA
ATOM      3  N5  ZIN A   1      17.941   1.221  13.544  0.00  0.00    -0.218 N 
ATOM      4  C23 ZIN A   1      17.581   1.249  12.244  0.00  0.00     0.346 A 
ATOM      5  O24 ZIN A   1      17.112   0.324  11.605  0.00  0.00    -0.245 OA
ATOM      6  N25 ZIN A   1      17.832   2.491  11.783  0.00  0.00    -0.282 N 
ENDROOT
BRANCH   3   7
ATOM      7  C6  ZIN A   1      17.839   0.073  14.448  0.00  0.00     0.158 C 
BRANCH   7   8
ATOM      8  C7  ZIN A   1      19.009  -0.880  14.197  0.00  0.00     0.050 C 
BRANCH   8   9
ATOM      9  C8  ZIN A   1      18.471  -2.255  13.797  0.00  0.00     0.236 C 
BRANCH   9  10
ATOM     10  N9  ZIN A   1      18.333  -2.320  12.336  0.00  0.00    -0.069 N 
ATOM     11  H10 ZIN A   1      17.708  -1.592  12.024  0.00  0.00     0.280 HD
ATOM     12  C22 ZIN A   1      19.650  -2.134  11.711  0.00  0.00     0.249 C 
ATOM     13  C21 ZIN A   1      19.504  -2.183  10.188  0.00  0.00     0.123 C 
ATOM     14  N13 ZIN A   1      18.934  -3.480   9.795  0.00  0.00    -0.280 NA
ATOM     15  C12 ZIN A   1      17.627  -3.691  10.433  0.00  0.00     0.123 C 
ATOM     16  C11 ZIN A   1      17.788  -3.630  11.953  0.00  0.00     0.249 C 
BRANCH  14  17
ATOM     17  C14 ZIN A   1      18.836  -3.583   8.406  0.00  0.00     0.012 A 
ATOM     18  C20 ZIN A   1      17.974  -4.512   7.836  0.00  0.00     0.047 A 
ATOM     19  C18 ZIN A   1      17.874  -4.607   6.461  0.00  0.00     0.035 A 
ATOM     20  C17 ZIN A   1      18.640  -3.785   5.652  0.00  0.00     0.024 A 
ATOM     21 Cl19 ZIN A   1      16.792  -5.762   5.747  0.00  0.00    -0.084 Cl
ATOM     22  C16 ZIN A   1      19.502  -2.864   6.217  0.00  0.00     0.003 A 
ATOM     23  C15 ZIN A   1      19.602  -2.760   7.591  0.00  0.00     0.024 A 
ENDBRANCH  14  17
ENDBRANCH   9  10
ENDBRANCH   8   9
ENDBRANCH   7   8
ENDBRANCH   3   7
BRANCH   1  24
ATOM     24  C2  ZIN A   1      18.787   4.677  12.719  0.00  0.00     0.076 C 
ATOM     25  C1  ZIN A   1      17.643   5.576  13.192  0.00  0.00     0.013 C 
ENDBRANCH   1  24
BRANCH   6  26
ATOM     26  C26 ZIN A   1      17.590   2.964  10.418  0.00  0.00     0.162 C 
BRANCH  26  27
ATOM     27  C27 ZIN A   1      18.867   2.804   9.589  0.00  0.00     0.196 C 
BRANCH  27  28
ATOM     28  O28 ZIN A   1      19.079   1.420   9.304  0.00  0.00    -0.350 OA
BRANCH  28  29
ATOM     29  C29 ZIN A   1      18.554   0.941   8.146  0.00  0.00     0.068 A 
ATOM     30  C34 ZIN A   1      19.137   1.268   6.931  0.00  0.00     0.037 A 
ATOM     31  C33 ZIN A   1      18.605   0.775   5.755  0.00  0.00     0.003 A 
ATOM     32  C32 ZIN A   1      17.484  -0.033   5.788  0.00  0.00     0.000 A 
ATOM     33  C31 ZIN A   1      16.896  -0.355   6.997  0.00  0.00     0.003 A 
ATOM     34  C30 ZIN A   1      17.428   0.130   8.177  0.00  0.00     0.037 A 
ENDBRANCH  28  29
ENDBRANCH  27  28
ENDBRANCH  26  27
ENDBRANCH   6  26
TORSDOF 10
ENDMDL
MODEL 8
REMARK VINA RESULT:      -7.5      4.198      8.079
REMARK  10 active torsions:
REMARK  status: ('A' for Active; 'I' for Inactive)
REMARK    1  A    between atoms: C2_2  and  C3_3 
REMARK    2  A    between atoms: N5_5  and  C6_6 
REMARK    3  A    between atoms: C6_6  and  C7_7 
REMARK    4  A    between atoms: C7_7  and  C8_8 
REMARK    5  A    between atoms: C8_8  and  N9_9 
REMARK    6  A    between atoms: N13_13  and  C14_14 
REMARK    7  A    between atoms: N25_25  and  C26_26 
REMARK    8  A    between atoms: C26_26  and  C27_27 
REMARK    9  A    between atoms: C27_27  and  O28_28 
REMARK   10  A    between atoms: O28_28  and  C29_29 
ROOT
ATOM      1  C3  ZIN A   1      16.497  -6.002   7.780  0.00  0.00     0.130 A 
ATOM      2  N4  ZIN A   1      16.190  -6.040   9.036  0.00  0.00    -0.154 NA
ATOM      3  N5  ZIN A   1      17.332  -5.699   9.775  0.00  0.00    -0.218 N 
ATOM      4  C23 ZIN A   1      18.324  -5.459   8.892  0.00  0.00     0.346 A 
ATOM      5  O24 ZIN A   1      19.466  -5.134   9.162  0.00  0.00    -0.245 OA
ATOM      6  N25 ZIN A   1      17.819  -5.649   7.657  0.00  0.00    -0.282 N 
ENDROOT
BRANCH   3   7
ATOM      7  C6  ZIN A   1      17.430  -5.618  11.235  0.00  0.00     0.158 C 
BRANCH   7   8
ATOM      8  C7  ZIN A   1      17.102  -4.195  11.690  0.00  0.00     0.050 C 
BRANCH   8   9
ATOM      9  C8  ZIN A   1      18.384  -3.499  12.152  0.00  0.00     0.236 C 
BRANCH   9  10
ATOM     10  N9  ZIN A   1      18.165  -2.046  12.191  0.00  0.00    -0.069 N 
ATOM     11  H10 ZIN A   1      17.442  -1.833  12.862  0.00  0.00     0.280 HD
ATOM     12  C22 ZIN A   1      19.410  -1.374  12.584  0.00  0.00     0.249 C 
ATOM     13  C21 ZIN A   1      19.178   0.137  12.643  0.00  0.00     0.123 C 
ATOM     14  N13 ZIN A   1      18.739   0.614  11.324  0.00  0.00    -0.280 NA
ATOM     15  C12 ZIN A   1      17.506  -0.068  10.907  0.00  0.00     0.123 C 
ATOM     16  C11 ZIN A   1      17.752  -1.577  10.862  0.00  0.00     0.249 C 
BRANCH  14  17
ATOM     17  C14 ZIN A   1      18.568   2.001  11.325  0.00  0.00     0.012 A 
ATOM     18  C20 ZIN A   1      19.200   2.779  12.287  0.00  0.00     0.047 A 
ATOM     19  C18 ZIN A   1      19.034   4.151  12.281  0.00  0.00     0.035 A 
ATOM     20  C17 ZIN A   1      18.229   4.748  11.326  0.00  0.00     0.024 A 
ATOM     21 Cl19 ZIN A   1      19.829   5.126  13.477  0.00  0.00    -0.084 Cl
ATOM     22  C16 ZIN A   1      17.594   3.974  10.372  0.00  0.00     0.003 A 
ATOM     23  C15 ZIN A   1      17.762   2.603  10.369  0.00  0.00     0.024 A 
ENDBRANCH  14  17
ENDBRANCH   9  10
ENDBRANCH   8   9
ENDBRANCH   7   8
ENDBRANCH   3   7
BRANCH   1  24
ATOM     24  C2  ZIN A   1      15.560  -6.303   6.639  0.00  0.00     0.076 C 
ATOM     25  C1  ZIN A   1      14.120  -6.333   7.156  0.00  0.00     0.013 C 
ENDBRANCH   1  24
BRANCH   6  26
ATOM     26  C26 ZIN A   1      18.552  -5.496   6.398  0.00  0.00     0.162 C 
BRANCH  26  27
ATOM     27  C27 ZIN A   1      18.335  -4.084   5.850  0.00  0.00     0.196 C 
BRANCH  27  28
ATOM     28  O28 ZIN A   1      19.462  -3.268   6.178  0.00  0.00    -0.350 OA
BRANCH  28  29
ATOM     29  C29 ZIN A   1      19.274  -1.922   6.158  0.00  0.00     0.068 A 
ATOM     30  C34 ZIN A   1      19.375  -1.224   4.964  0.00  0.00     0.037 A 
ATOM     31  C33 ZIN A   1      19.179   0.143   4.945  0.00  0.00     0.003 A 
ATOM     32  C32 ZIN A   1      18.895   0.818   6.118  0.00  0.00     0.000 A 
ATOM     33  C31 ZIN A   1      18.800   0.126   7.311  0.00  0.00     0.003 A 
ATOM     34  C30 ZIN A   1      18.989  -1.243   7.334  0.00  0.00     0.037 A 
ENDBRANCH  28  29
ENDBRANCH  27  28
ENDBRANCH  26  27
ENDBRANCH   6  26
TORSDOF 10
ENDMDL
MODEL 9
REMARK VINA RESULT:      -7.4      2.898      6.572
REMARK  10 active torsions:
REMARK  status: ('A' for Active; 'I' for Inactive)
REMARK    1  A    between atoms: C2_2  and  C3_3 
REMARK    2  A    between atoms: N5_5  and  C6_6 
REMARK    3  A    between atoms: C6_6  and  C7_7 
REMARK    4  A    between atoms: C7_7  and  C8_8 
REMARK    5  A    between atoms: C8_8  and  N9_9 
REMARK    6  A    between atoms: N13_13  and  C14_14 
REMARK    7  A    between atoms: N25_25  and  C26_26 
REMARK    8  A    between atoms: C26_26  and  C27_27 
REMARK    9  A    between atoms: C27_27  and  O28_28 
REMARK   10  A    between atoms: O28_28  and  C29_29 
ROOT
ATOM      1  C3  ZIN A   1      18.970  -2.348  10.655  0.00  0.00     0.130 A 
ATOM      2  N4  ZIN A   1      19.108  -1.742   9.520  0.00  0.00    -0.154 NA
ATOM      3  N5  ZIN A   1      18.270  -0.619   9.519  0.00  0.00    -0.218 N 
ATOM      4  C23 ZIN A   1      17.632  -0.594  10.708  0.00  0.00     0.346 A 
ATOM      5  O24 ZIN A   1      16.821   0.238  11.073  0.00  0.00    -0.245 OA
ATOM      6  N25 ZIN A   1      18.054  -1.661  11.414  0.00  0.00    -0.282 N 
ENDROOT
BRANCH   3   7
ATOM      7  C6  ZIN A   1      18.114   0.349   8.430  0.00  0.00     0.158 C 
BRANCH   7   8
ATOM      8  C7  ZIN A   1      19.190   1.430   8.550  0.00  0.00     0.050 C 
BRANCH   8   9
ATOM      9  C8  ZIN A   1      18.523   2.798   8.701  0.00  0.00     0.236 C 
BRANCH   9  10
ATOM     10  N9  ZIN A   1      18.674   3.266  10.086  0.00  0.00    -0.069 N 
ATOM     11  H10 ZIN A   1      19.086   4.187  10.087  0.00  0.00     0.280 HD
ATOM     12  C22 ZIN A   1      17.355   3.320  10.730  0.00  0.00     0.249 C 
ATOM     13  C21 ZIN A   1      17.509   3.825  12.167  0.00  0.00     0.123 C 
ATOM     14  N13 ZIN A   1      18.400   2.920  12.908  0.00  0.00    -0.280 NA
ATOM     15  C12 ZIN A   1      19.716   2.837  12.260  0.00  0.00     0.123 C 
ATOM     16  C11 ZIN A   1      19.544   2.340  10.824  0.00  0.00     0.249 C 
BRANCH  14  17
ATOM     17  C14 ZIN A   1      18.522   3.320  14.241  0.00  0.00     0.012 A 
ATOM     18  C20 ZIN A   1      17.840   4.441  14.696  0.00  0.00     0.047 A 
ATOM     19  C18 ZIN A   1      17.958   4.830  16.017  0.00  0.00     0.035 A 
ATOM     20  C17 ZIN A   1      18.765   4.111  16.882  0.00  0.00     0.024 A 
ATOM     21 Cl19 ZIN A   1      17.101   6.227  16.590  0.00  0.00    -0.084 Cl
ATOM     22  C16 ZIN A   1      19.449   2.998  16.430  0.00  0.00     0.003 A 
ATOM     23  C15 ZIN A   1      19.330   2.601  15.112  0.00  0.00     0.024 A 
ENDBRANCH  14  17
ENDBRANCH   9  10
ENDBRANCH   8   9
ENDBRANCH   7   8
ENDBRANCH   3   7
BRANCH   1  24
ATOM     24  C2  ZIN A   1      19.690  -3.604  11.072  0.00  0.00     0.076 C 
ATOM     25  C1  ZIN A   1      19.232  -4.770  10.195  0.00  0.00     0.013 C 
ENDBRANCH   1  24
BRANCH   6  26
ATOM     26  C26 ZIN A   1      17.617  -2.023  12.765  0.00  0.00     0.162 C 
BRANCH  26  27
ATOM     27  C27 ZIN A   1      18.171  -1.009  13.769  0.00  0.00     0.196 C 
BRANCH  27  28
ATOM     28  O28 ZIN A   1      18.563  -1.687  14.963  0.00  0.00    -0.350 OA
BRANCH  28  29
ATOM     29  C29 ZIN A   1      18.425  -1.007  16.133  0.00  0.00     0.068 A 
ATOM     30  C34 ZIN A   1      17.267  -0.286  16.384  0.00  0.00     0.037 A 
ATOM     31  C33 ZIN A   1      17.126   0.399  17.575  0.00  0.00     0.003 A 
ATOM     32  C32 ZIN A   1      18.143   0.377  18.511  0.00  0.00     0.000 A 
ATOM     33  C31 ZIN A   1      19.301  -0.335  18.260  0.00  0.00     0.003 A 
ATOM     34  C30 ZIN A   1      19.445  -1.029  17.074  0.00  0.00     0.037 A 
ENDBRANCH  28  29
ENDBRANCH  27  28
ENDBRANCH  26  27
ENDBRANCH   6  26
TORSDOF 10
ENDMDL
