MODEL 1
REMARK VINA RESULT:      -9.3      0.000      0.000
REMARK  7 active torsions:
REMARK  status: ('A' for Active; 'I' for Inactive)
REMARK    1  A    between atoms: C2_2  and  O4_3 
REMARK    2  A    between atoms: C2_2  and  C25_24 
REMARK    3  A    between atoms: O4_3  and  C5_4 
REMARK    4  A    between atoms: C5_4  and  C6_5 
REMARK    5  A    between atoms: C6_5  and  C7_6 
REMARK    6  A    between atoms: C27_26  and  C28_27 
REMARK    7  A    between atoms: C33_32  and  C34_33 
ROOT
ATOM      1  C6  ZIN A   1      18.726   0.392  10.335  0.00  0.00     0.174 C 
ATOM      2  C13 ZIN A   1      17.549  -0.402   9.764  0.00  0.00     0.049 C 
ATOM      3  C14 ZIN A   1      17.212   0.132   8.368  0.00  0.00     0.035 C 
ATOM      4  C15 ZIN A   1      18.459   0.057   7.489  0.00  0.00     0.057 C 
ATOM      5  C16 ZIN A   1      18.858  -1.417   7.275  0.00  0.00     0.042 C 
ATOM      6  C17 ZIN A   1      19.383  -1.391   5.821  0.00  0.00     0.105 C 
ATOM      7  C18 ZIN A   1      18.690  -0.199   5.197  0.00  0.00     0.218 C 
ATOM      8  O19 ZIN A   1      18.607   0.010   4.005  0.00  0.00    -0.274 OA
ATOM      9  N20 ZIN A   1      18.180   0.593   6.156  0.00  0.00    -0.350 N 
ATOM     10  C21 ZIN A   1      19.611   0.815   8.142  0.00  0.00     0.264 C 
ATOM     11  N22 ZIN A   1      19.896   0.239   9.463  0.00  0.00    -0.058 N 
ATOM     12  H23 ZIN A   1      20.685   0.716   9.873  0.00  0.00     0.278 HD
ATOM     13  H24 ZIN A   1      20.112  -0.741   9.361  0.00  0.00     0.278 HD
ATOM     14  H57 ZIN A   1      17.690   1.414   5.986  0.00  0.00     0.163 HD
ENDROOT
BRANCH   1  15
ATOM     15  C5  ZIN A   1      18.347   1.872  10.423  0.00  0.00     0.212 C 
BRANCH  15  16
ATOM     16  O4  ZIN A   1      17.450   2.068  11.518  0.00  0.00    -0.379 OA
BRANCH  16  17
ATOM     17  C2  ZIN A   1      17.397   3.416  11.991  0.00  0.00     0.150 C 
ATOM     18  C1  ZIN A   1      18.148   4.327  11.019  0.00  0.00     0.045 C 
BRANCH  17  19
ATOM     19  C25 ZIN A   1      18.039   3.495  13.352  0.00  0.00    -0.028 A 
ATOM     20  C38 ZIN A   1      18.805   4.595  13.691  0.00  0.00     0.025 A 
ATOM     21  C33 ZIN A   1      19.390   4.670  14.942  0.00  0.00     0.049 A 
ATOM     22  C32 ZIN A   1      19.218   3.642  15.849  0.00  0.00     0.032 A 
ATOM     23  C27 ZIN A   1      18.455   2.540  15.508  0.00  0.00     0.049 A 
ATOM     24  C26 ZIN A   1      17.867   2.467  14.260  0.00  0.00     0.025 A 
BRANCH  21  25
ATOM     25  C34 ZIN A   1      20.220   5.872  15.315  0.00  0.00     0.417 C 
ATOM     26  F35 ZIN A   1      21.482   5.452  15.748  0.00  0.00    -0.166 F 
ATOM     27  F36 ZIN A   1      20.364   6.703  14.199  0.00  0.00    -0.166 F 
ATOM     28  F37 ZIN A   1      19.585   6.577  16.342  0.00  0.00    -0.166 F 
ENDBRANCH  21  25
BRANCH  23  29
ATOM     29  C28 ZIN A   1      18.267   1.419  16.497  0.00  0.00     0.417 C 
ATOM     30  F29 ZIN A   1      19.503   0.813  16.756  0.00  0.00    -0.166 F 
ATOM     31  F30 ZIN A   1      17.740   1.929  17.688  0.00  0.00    -0.166 F 
ATOM     32  F31 ZIN A   1      17.386   0.470  15.965  0.00  0.00    -0.166 F 
ENDBRANCH  23  29
ENDBRANCH  17  19
ENDBRANCH  16  17
ENDBRANCH  15  16
ENDBRANCH   1  15
BRANCH   1  33
ATOM     33  C7  ZIN A   1      19.057  -0.124  11.712  0.00  0.00    -0.020 A 
ATOM     34  C12 ZIN A   1      20.128   0.402  12.408  0.00  0.00     0.010 A 
ATOM     35  C11 ZIN A   1      20.429  -0.068  13.673  0.00  0.00     0.001 A 
ATOM     36  C10 ZIN A   1      19.664  -1.072  14.237  0.00  0.00     0.000 A 
ATOM     37  C9  ZIN A   1      18.596  -1.602  13.538  0.00  0.00     0.001 A 
ATOM     38  C8  ZIN A   1      18.291  -1.128  12.276  0.00  0.00     0.010 A 
ENDBRANCH   1  33
TORSDOF 7
ENDMDL
MODEL 2
REMARK VINA RESULT:      -9.2      0.029      3.009
REMARK  7 active torsions:
REMARK  status: ('A' for Active; 'I' for Inactive)
REMARK    1  A    between atoms: C2_2  and  O4_3 
REMARK    2  A    between atoms: C2_2  and  C25_24 
REMARK    3  A    between atoms: O4_3  and  C5_4 
REMARK    4  A    between atoms: C5_4  and  C6_5 
REMARK    5  A    between atoms: C6_5  and  C7_6 
REMARK    6  A    between atoms: C27_26  and  C28_27 
REMARK    7  A    between atoms: C33_32  and  C34_33 
ROOT
ATOM      1  C6  ZIN A   1      18.750   0.392  10.339  0.00  0.00     0.174 C 
ATOM      2  C13 ZIN A   1      17.559  -0.382   9.771  0.00  0.00     0.049 C 
ATOM      3  C14 ZIN A   1      17.225   0.162   8.377  0.00  0.00     0.035 C 
ATOM      4  C15 ZIN A   1      18.467   0.069   7.494  0.00  0.00     0.057 C 
ATOM      5  C16 ZIN A   1      18.841  -1.410   7.275  0.00  0.00     0.042 C 
ATOM      6  C17 ZIN A   1      19.362  -1.390   5.818  0.00  0.00     0.105 C 
ATOM      7  C18 ZIN A   1      18.686  -0.184   5.200  0.00  0.00     0.218 C 
ATOM      8  O19 ZIN A   1      18.603   0.029   4.009  0.00  0.00    -0.274 OA
ATOM      9  N20 ZIN A   1      18.193   0.613   6.163  0.00  0.00    -0.350 N 
ATOM     10  C21 ZIN A   1      19.634   0.807   8.145  0.00  0.00     0.264 C 
ATOM     11  N22 ZIN A   1      19.915   0.223   9.463  0.00  0.00    -0.058 N 
ATOM     12  H23 ZIN A   1      20.713   0.686   9.871  0.00  0.00     0.278 HD
ATOM     13  H24 ZIN A   1      20.114  -0.761   9.357  0.00  0.00     0.278 HD
ATOM     14  H57 ZIN A   1      17.716   1.442   5.997  0.00  0.00     0.163 HD
ENDROOT
BRANCH   1  15
ATOM     15  C5  ZIN A   1      18.396   1.877  10.433  0.00  0.00     0.212 C 
BRANCH  15  16
ATOM     16  O4  ZIN A   1      17.454   2.076  11.489  0.00  0.00    -0.379 OA
BRANCH  16  17
ATOM     17  C2  ZIN A   1      17.397   3.420  11.972  0.00  0.00     0.150 C 
ATOM     18  C1  ZIN A   1      18.143   4.341  11.004  0.00  0.00     0.045 C 
BRANCH  17  19
ATOM     19  C25 ZIN A   1      18.043   3.493  13.332  0.00  0.00    -0.028 A 
ATOM     20  C38 ZIN A   1      17.858   2.467  14.240  0.00  0.00     0.025 A 
ATOM     21  C33 ZIN A   1      18.454   2.532  15.486  0.00  0.00     0.049 A 
ATOM     22  C32 ZIN A   1      19.225   3.627  15.827  0.00  0.00     0.032 A 
ATOM     23  C27 ZIN A   1      19.406   4.655  14.921  0.00  0.00     0.049 A 
ATOM     24  C26 ZIN A   1      18.814   4.588  13.674  0.00  0.00     0.025 A 
BRANCH  21  25
ATOM     25  C34 ZIN A   1      18.258   1.410  16.474  0.00  0.00     0.417 C 
ATOM     26  F35 ZIN A   1      19.491   0.806  16.745  0.00  0.00    -0.166 F 
ATOM     27  F36 ZIN A   1      17.720   1.923  17.659  0.00  0.00    -0.166 F 
ATOM     28  F37 ZIN A   1      17.383   0.462  15.936  0.00  0.00    -0.166 F 
ENDBRANCH  21  25
BRANCH  23  29
ATOM     29  C28 ZIN A   1      20.247   5.848  15.293  0.00  0.00     0.417 C 
ATOM     30  F29 ZIN A   1      20.405   6.676  14.175  0.00  0.00    -0.166 F 
ATOM     31  F30 ZIN A   1      19.616   6.564  16.316  0.00  0.00    -0.166 F 
ATOM     32  F31 ZIN A   1      21.503   5.415  15.733  0.00  0.00    -0.166 F 
ENDBRANCH  23  29
ENDBRANCH  17  19
ENDBRANCH  16  17
ENDBRANCH  15  16
ENDBRANCH   1  15
BRANCH   1  33
ATOM     33  C7  ZIN A   1      19.077  -0.133  11.714  0.00  0.00    -0.020 A 
ATOM     34  C12 ZIN A   1      18.314  -1.143  12.267  0.00  0.00     0.010 A 
ATOM     35  C11 ZIN A   1      18.616  -1.628  13.526  0.00  0.00     0.001 A 
ATOM     36  C10 ZIN A   1      19.676  -1.096  14.235  0.00  0.00     0.000 A 
ATOM     37  C9  ZIN A   1      20.436  -0.082  13.684  0.00  0.00     0.001 A 
ATOM     38  C8  ZIN A   1      20.138   0.400  12.423  0.00  0.00     0.010 A 
ENDBRANCH   1  33
TORSDOF 7
ENDMDL
MODEL 3
REMARK VINA RESULT:      -9.2      5.283      9.150
REMARK  7 active torsions:
REMARK  status: ('A' for Active; 'I' for Inactive)
REMARK    1  A    between atoms: C2_2  and  O4_3 
REMARK    2  A    between atoms: C2_2  and  C25_24 
REMARK    3  A    between atoms: O4_3  and  C5_4 
REMARK    4  A    between atoms: C5_4  and  C6_5 
REMARK    5  A    between atoms: C6_5  and  C7_6 
REMARK    6  A    between atoms: C27_26  and  C28_27 
REMARK    7  A    between atoms: C33_32  and  C34_33 
ROOT
ATOM      1  C6  ZIN A   1      18.637   0.922  10.150  0.00  0.00     0.174 C 
ATOM      2  C13 ZIN A   1      17.343   1.372  10.834  0.00  0.00     0.049 C 
ATOM      3  C14 ZIN A   1      17.609   1.570  12.331  0.00  0.00     0.035 C 
ATOM      4  C15 ZIN A   1      18.751   2.569  12.507  0.00  0.00     0.057 C 
ATOM      5  C16 ZIN A   1      18.319   3.953  11.984  0.00  0.00     0.042 C 
ATOM      6  C17 ZIN A   1      19.027   4.900  12.981  0.00  0.00     0.105 C 
ATOM      7  C18 ZIN A   1      19.217   4.056  14.223  0.00  0.00     0.218 C 
ATOM      8  O19 ZIN A   1      19.479   4.492  15.325  0.00  0.00    -0.274 OA
ATOM      9  N20 ZIN A   1      19.054   2.755  13.928  0.00  0.00    -0.350 N 
ATOM     10  C21 ZIN A   1      19.989   2.093  11.753  0.00  0.00     0.264 C 
ATOM     11  N22 ZIN A   1      19.672   1.947  10.326  0.00  0.00    -0.058 N 
ATOM     12  H23 ZIN A   1      20.504   1.673   9.824  0.00  0.00     0.278 HD
ATOM     13  H24 ZIN A   1      19.337   2.827   9.965  0.00  0.00     0.278 HD
ATOM     14  H57 ZIN A   1      19.127   2.033  14.572  0.00  0.00     0.163 HD
ENDROOT
BRANCH   1  15
ATOM     15  C5  ZIN A   1      19.111  -0.393  10.772  0.00  0.00     0.212 C 
BRANCH  15  16
ATOM     16  O4  ZIN A   1      17.984  -1.238  11.014  0.00  0.00    -0.379 OA
BRANCH  16  17
ATOM     17  C2  ZIN A   1      18.319  -2.617  11.188  0.00  0.00     0.150 C 
ATOM     18  C1  ZIN A   1      19.780  -2.735  11.627  0.00  0.00     0.045 C 
BRANCH  17  19
ATOM     19  C25 ZIN A   1      18.125  -3.349   9.885  0.00  0.00    -0.028 A 
ATOM     20  C38 ZIN A   1      17.117  -4.286   9.763  0.00  0.00     0.025 A 
ATOM     21  C33 ZIN A   1      16.936  -4.954   8.567  0.00  0.00     0.049 A 
ATOM     22  C32 ZIN A   1      17.769  -4.692   7.495  0.00  0.00     0.032 A 
ATOM     23  C27 ZIN A   1      18.780  -3.757   7.619  0.00  0.00     0.049 A 
ATOM     24  C26 ZIN A   1      18.958  -3.086   8.814  0.00  0.00     0.025 A 
BRANCH  21  25
ATOM     25  C34 ZIN A   1      15.832  -5.973   8.431  0.00  0.00     0.417 C 
ATOM     26  F35 ZIN A   1      14.721  -5.559   9.173  0.00  0.00    -0.166 F 
ATOM     27  F36 ZIN A   1      15.475  -6.095   7.084  0.00  0.00    -0.166 F 
ATOM     28  F37 ZIN A   1      16.278  -7.209   8.910  0.00  0.00    -0.166 F 
ENDBRANCH  21  25
BRANCH  23  29
ATOM     29  C28 ZIN A   1      19.688  -3.471   6.451  0.00  0.00     0.417 C 
ATOM     30  F29 ZIN A   1      19.073  -3.893   5.267  0.00  0.00    -0.166 F 
ATOM     31  F30 ZIN A   1      19.939  -2.096   6.381  0.00  0.00    -0.166 F 
ATOM     32  F31 ZIN A   1      20.896  -4.157   6.619  0.00  0.00    -0.166 F 
ENDBRANCH  23  29
ENDBRANCH  17  19
ENDBRANCH  16  17
ENDBRANCH  15  16
ENDBRANCH   1  15
BRANCH   1  33
ATOM     33  C7  ZIN A   1      18.379   0.718   8.679  0.00  0.00    -0.020 A 
ATOM     34  C12 ZIN A   1      19.201   1.317   7.744  0.00  0.00     0.010 A 
ATOM     35  C11 ZIN A   1      18.968   1.126   6.395  0.00  0.00     0.001 A 
ATOM     36  C10 ZIN A   1      17.906   0.344   5.981  0.00  0.00     0.000 A 
ATOM     37  C9  ZIN A   1      17.080  -0.251   6.917  0.00  0.00     0.001 A 
ATOM     38  C8  ZIN A   1      17.316  -0.064   8.266  0.00  0.00     0.010 A 
ENDBRANCH   1  33
TORSDOF 7
ENDMDL
MODEL 4
REMARK VINA RESULT:      -9.2      5.287      8.819
REMARK  7 active torsions:
REMARK  status: ('A' for Active; 'I' for Inactive)
REMARK    1  A    between atoms: C2_2  and  O4_3 
REMARK    2  A    between atoms: C2_2  and  C25_24 
REMARK    3  A    between atoms: O4_3  and  C5_4 
REMARK    4  A    between atoms: C5_4  and  C6_5 
REMARK    5  A    between atoms: C6_5  and  C7_6 
REMARK    6  A    between atoms: C27_26  and  C28_27 
REMARK    7  A    between atoms: C33_32  and  C34_33 
ROOT
ATOM      1  C6  ZIN A   1      18.634   0.920  10.163  0.00  0.00     0.174 C 
ATOM      2  C13 ZIN A   1      17.342   1.376  10.845  0.00  0.00     0.049 C 
ATOM      3  C14 ZIN A   1      17.603   1.562  12.344  0.00  0.00     0.035 C 
ATOM      4  C15 ZIN A   1      18.752   2.549  12.531  0.00  0.00     0.057 C 
ATOM      5  C16 ZIN A   1      18.334   3.940  12.016  0.00  0.00     0.042 C 
ATOM      6  C17 ZIN A   1      19.046   4.875  13.021  0.00  0.00     0.105 C 
ATOM      7  C18 ZIN A   1      19.225   4.021  14.259  0.00  0.00     0.218 C 
ATOM      8  O19 ZIN A   1      19.485   4.447  15.364  0.00  0.00    -0.274 OA
ATOM      9  N20 ZIN A   1      19.052   2.723  13.954  0.00  0.00    -0.350 N 
ATOM     10  C21 ZIN A   1      19.990   2.069  11.778  0.00  0.00     0.264 C 
ATOM     11  N22 ZIN A   1      19.677   1.934  10.349  0.00  0.00    -0.058 N 
ATOM     12  H23 ZIN A   1      20.508   1.657   9.849  0.00  0.00     0.278 HD
ATOM     13  H24 ZIN A   1      19.350   2.820   9.993  0.00  0.00     0.278 HD
ATOM     14  H57 ZIN A   1      19.117   1.997  14.594  0.00  0.00     0.163 HD
ENDROOT
BRANCH   1  15
ATOM     15  C5  ZIN A   1      19.095  -0.403  10.777  0.00  0.00     0.212 C 
BRANCH  15  16
ATOM     16  O4  ZIN A   1      17.961  -1.245  10.998  0.00  0.00    -0.379 OA
BRANCH  16  17
ATOM     17  C2  ZIN A   1      18.289  -2.625  11.177  0.00  0.00     0.150 C 
ATOM     18  C1  ZIN A   1      19.746  -2.749  11.628  0.00  0.00     0.045 C 
BRANCH  17  19
ATOM     19  C25 ZIN A   1      18.102  -3.359   9.874  0.00  0.00    -0.028 A 
ATOM     20  C38 ZIN A   1      18.937  -3.092   8.805  0.00  0.00     0.025 A 
ATOM     21  C33 ZIN A   1      18.768  -3.769   7.612  0.00  0.00     0.049 A 
ATOM     22  C32 ZIN A   1      17.759  -4.705   7.484  0.00  0.00     0.032 A 
ATOM     23  C27 ZIN A   1      16.921  -4.969   8.552  0.00  0.00     0.049 A 
ATOM     24  C26 ZIN A   1      17.093  -4.295   9.747  0.00  0.00     0.025 A 
BRANCH  21  25
ATOM     25  C34 ZIN A   1      19.682  -3.483   6.447  0.00  0.00     0.417 C 
ATOM     26  F35 ZIN A   1      19.076  -3.913   5.262  0.00  0.00    -0.166 F 
ATOM     27  F36 ZIN A   1      19.925  -2.108   6.374  0.00  0.00    -0.166 F 
ATOM     28  F37 ZIN A   1      20.891  -4.163   6.626  0.00  0.00    -0.166 F 
ENDBRANCH  21  25
BRANCH  23  29
ATOM     29  C28 ZIN A   1      15.821  -5.989   8.413  0.00  0.00     0.417 C 
ATOM     30  F29 ZIN A   1      16.274  -7.229   8.878  0.00  0.00    -0.166 F 
ATOM     31  F30 ZIN A   1      14.712  -5.586   9.165  0.00  0.00    -0.166 F 
ATOM     32  F31 ZIN A   1      15.456  -6.100   7.067  0.00  0.00    -0.166 F 
ENDBRANCH  23  29
ENDBRANCH  17  19
ENDBRANCH  16  17
ENDBRANCH  15  16
ENDBRANCH   1  15
BRANCH   1  33
ATOM     33  C7  ZIN A   1      18.380   0.727   8.689  0.00  0.00    -0.020 A 
ATOM     34  C12 ZIN A   1      17.317  -0.049   8.267  0.00  0.00     0.010 A 
ATOM     35  C11 ZIN A   1      17.081  -0.222   6.916  0.00  0.00     0.001 A 
ATOM     36  C10 ZIN A   1      17.914   0.373   5.987  0.00  0.00     0.000 A 
ATOM     37  C9  ZIN A   1      18.981   1.145   6.410  0.00  0.00     0.001 A 
ATOM     38  C8  ZIN A   1      19.214   1.322   7.761  0.00  0.00     0.010 A 
ENDBRANCH   1  33
TORSDOF 7
ENDMDL
MODEL 5
REMARK VINA RESULT:      -9.1      1.728      3.633
REMARK  7 active torsions:
REMARK  status: ('A' for Active; 'I' for Inactive)
REMARK    1  A    between atoms: C2_2  and  O4_3 
REMARK    2  A    between atoms: C2_2  and  C25_24 
REMARK    3  A    between atoms: O4_3  and  C5_4 
REMARK    4  A    between atoms: C5_4  and  C6_5 
REMARK    5  A    between atoms: C6_5  and  C7_6 
REMARK    6  A    between atoms: C27_26  and  C28_27 
REMARK    7  A    between atoms: C33_32  and  C34_33 
ROOT
ATOM      1  C6  ZIN A   1      18.361   1.198   9.867  0.00  0.00     0.174 C 
ATOM      2  C13 ZIN A   1      19.737   1.290   9.204  0.00  0.00     0.049 C 
ATOM      3  C14 ZIN A   1      20.132  -0.092   8.672  0.00  0.00     0.035 C 
ATOM      4  C15 ZIN A   1      19.046  -0.590   7.719  0.00  0.00     0.057 C 
ATOM      5  C16 ZIN A   1      18.985   0.321   6.478  0.00  0.00     0.042 C 
ATOM      6  C17 ZIN A   1      18.652  -0.695   5.359  0.00  0.00     0.105 C 
ATOM      7  C18 ZIN A   1      19.162  -2.016   5.895  0.00  0.00     0.218 C 
ATOM      8  O19 ZIN A   1      19.350  -3.010   5.226  0.00  0.00    -0.274 OA
ATOM      9  N20 ZIN A   1      19.376  -1.926   7.219  0.00  0.00    -0.350 N 
ATOM     10  C21 ZIN A   1      17.691  -0.599   8.422  0.00  0.00     0.264 C 
ATOM     11  N22 ZIN A   1      17.365   0.756   8.885  0.00  0.00    -0.058 N 
ATOM     12  H23 ZIN A   1      16.450   0.753   9.311  0.00  0.00     0.278 HD
ATOM     13  H24 ZIN A   1      17.367   1.388   8.098  0.00  0.00     0.278 HD
ATOM     14  H57 ZIN A   1      19.706  -2.652   7.772  0.00  0.00     0.163 HD
ENDROOT
BRANCH   1  15
ATOM     15  C5  ZIN A   1      18.417   0.195  11.021  0.00  0.00     0.212 C 
BRANCH  15  16
ATOM     16  O4  ZIN A   1      19.709   0.245  11.632  0.00  0.00    -0.379 OA
BRANCH  16  17
ATOM     17  C2  ZIN A   1      19.837  -0.585  12.788  0.00  0.00     0.150 C 
ATOM     18  C1  ZIN A   1      19.055  -1.882  12.574  0.00  0.00     0.045 C 
BRANCH  17  19
ATOM     19  C25 ZIN A   1      19.288   0.140  13.990  0.00  0.00    -0.028 A 
ATOM     20  C38 ZIN A   1      19.491   1.500  14.129  0.00  0.00     0.025 A 
ATOM     21  C33 ZIN A   1      18.984   2.165  15.229  0.00  0.00     0.049 A 
ATOM     22  C32 ZIN A   1      18.281   1.470  16.195  0.00  0.00     0.032 A 
ATOM     23  C27 ZIN A   1      18.080   0.108  16.058  0.00  0.00     0.049 A 
ATOM     24  C26 ZIN A   1      18.585  -0.556  14.956  0.00  0.00     0.025 A 
BRANCH  21  25
ATOM     25  C34 ZIN A   1      19.200   3.650  15.379  0.00  0.00     0.417 C 
ATOM     26  F35 ZIN A   1      18.000   4.261  15.756  0.00  0.00    -0.166 F 
ATOM     27  F36 ZIN A   1      20.170   3.882  16.359  0.00  0.00    -0.166 F 
ATOM     28  F37 ZIN A   1      19.632   4.183  14.160  0.00  0.00    -0.166 F 
ENDBRANCH  21  25
BRANCH  23  29
ATOM     29  C28 ZIN A   1      17.315  -0.650  17.110  0.00  0.00     0.417 C 
ATOM     30  F29 ZIN A   1      16.010  -0.149  17.190  0.00  0.00    -0.166 F 
ATOM     31  F30 ZIN A   1      17.273  -2.007  16.771  0.00  0.00    -0.166 F 
ATOM     32  F31 ZIN A   1      17.948  -0.499  18.349  0.00  0.00    -0.166 F 
ENDBRANCH  23  29
ENDBRANCH  17  19
ENDBRANCH  16  17
ENDBRANCH  15  16
ENDBRANCH   1  15
BRANCH   1  33
ATOM     33  C7  ZIN A   1      17.971   2.554  10.400  0.00  0.00    -0.020 A 
ATOM     34  C12 ZIN A   1      17.500   2.679  11.693  0.00  0.00     0.010 A 
ATOM     35  C11 ZIN A   1      17.147   3.923  12.182  0.00  0.00     0.001 A 
ATOM     36  C10 ZIN A   1      17.256   5.040  11.376  0.00  0.00     0.000 A 
ATOM     37  C9  ZIN A   1      17.722   4.913  10.080  0.00  0.00     0.001 A 
ATOM     38  C8  ZIN A   1      18.080   3.671   9.592  0.00  0.00     0.010 A 
ENDBRANCH   1  33
TORSDOF 7
ENDMDL
MODEL 6
REMARK VINA RESULT:      -9.0      1.698      4.395
REMARK  7 active torsions:
REMARK  status: ('A' for Active; 'I' for Inactive)
REMARK    1  A    between atoms: C2_2  and  O4_3 
REMARK    2  A    between atoms: C2_2  and  C25_24 
REMARK    3  A    between atoms: O4_3  and  C5_4 
REMARK    4  A    between atoms: C5_4  and  C6_5 
REMARK    5  A    between atoms: C6_5  and  C7_6 
REMARK    6  A    between atoms: C27_26  and  C28_27 
REMARK    7  A    between atoms: C33_32  and  C34_33 
ROOT
ATOM      1  C6  ZIN A   1      18.397   1.172  10.078  0.00  0.00     0.174 C 
ATOM      2  C13 ZIN A   1      19.796   1.219   9.458  0.00  0.00     0.049 C 
ATOM      3  C14 ZIN A   1      20.211  -0.198   9.048  0.00  0.00     0.035 C 
ATOM      4  C15 ZIN A   1      19.161  -0.772   8.099  0.00  0.00     0.057 C 
ATOM      5  C16 ZIN A   1      19.142   0.040   6.790  0.00  0.00     0.042 C 
ATOM      6  C17 ZIN A   1      18.851  -1.060   5.742  0.00  0.00     0.105 C 
ATOM      7  C18 ZIN A   1      19.344  -2.334   6.396  0.00  0.00     0.218 C 
ATOM      8  O19 ZIN A   1      19.557  -3.375   5.812  0.00  0.00    -0.274 OA
ATOM      9  N20 ZIN A   1      19.511  -2.141   7.716  0.00  0.00    -0.350 N 
ATOM     10  C21 ZIN A   1      17.782  -0.734   8.753  0.00  0.00     0.264 C 
ATOM     11  N22 ZIN A   1      17.438   0.651   9.098  0.00  0.00    -0.058 N 
ATOM     12  H23 ZIN A   1      16.508   0.677   9.491  0.00  0.00     0.278 HD
ATOM     13  H24 ZIN A   1      17.466   1.221   8.266  0.00  0.00     0.278 HD
ATOM     14  H57 ZIN A   1      19.823  -2.822   8.334  0.00  0.00     0.163 HD
ENDROOT
BRANCH   1  15
ATOM     15  C5  ZIN A   1      18.415   0.261  11.307  0.00  0.00     0.212 C 
BRANCH  15  16
ATOM     16  O4  ZIN A   1      19.611   0.493  12.054  0.00  0.00    -0.379 OA
BRANCH  16  17
ATOM     17  C2  ZIN A   1      19.721  -0.303  13.236  0.00  0.00     0.150 C 
ATOM     18  C1  ZIN A   1      18.784  -1.507  13.129  0.00  0.00     0.045 C 
BRANCH  17  19
ATOM     19  C25 ZIN A   1      19.341   0.525  14.436  0.00  0.00    -0.028 A 
ATOM     20  C38 ZIN A   1      18.957  -0.096  15.610  0.00  0.00     0.025 A 
ATOM     21  C33 ZIN A   1      18.613   0.664  16.712  0.00  0.00     0.049 A 
ATOM     22  C32 ZIN A   1      18.642   2.044  16.638  0.00  0.00     0.032 A 
ATOM     23  C27 ZIN A   1      19.022   2.665  15.463  0.00  0.00     0.049 A 
ATOM     24  C26 ZIN A   1      19.370   1.905  14.362  0.00  0.00     0.025 A 
BRANCH  21  25
ATOM     25  C34 ZIN A   1      18.200  -0.013  17.995  0.00  0.00     0.417 C 
ATOM     26  F35 ZIN A   1      17.279  -1.028  17.712  0.00  0.00    -0.166 F 
ATOM     27  F36 ZIN A   1      19.327  -0.565  18.613  0.00  0.00    -0.166 F 
ATOM     28  F37 ZIN A   1      17.612   0.925  18.849  0.00  0.00    -0.166 F 
ENDBRANCH  21  25
BRANCH  23  29
ATOM     29  C28 ZIN A   1      19.054   4.169  15.382  0.00  0.00     0.417 C 
ATOM     30  F29 ZIN A   1      19.796   4.678  16.454  0.00  0.00    -0.166 F 
ATOM     31  F30 ZIN A   1      19.648   4.559  14.176  0.00  0.00    -0.166 F 
ATOM     32  F31 ZIN A   1      17.747   4.667  15.441  0.00  0.00    -0.166 F 
ENDBRANCH  23  29
ENDBRANCH  17  19
ENDBRANCH  16  17
ENDBRANCH  15  16
ENDBRANCH   1  15
BRANCH   1  33
ATOM     33  C7  ZIN A   1      17.987   2.563  10.490  0.00  0.00    -0.020 A 
ATOM     34  C12 ZIN A   1      18.142   3.618   9.611  0.00  0.00     0.010 A 
ATOM     35  C11 ZIN A   1      17.762   4.893   9.987  0.00  0.00     0.001 A 
ATOM     36  C10 ZIN A   1      17.235   5.114  11.246  0.00  0.00     0.000 A 
ATOM     37  C9  ZIN A   1      17.085   4.060  12.127  0.00  0.00     0.001 A 
ATOM     38  C8  ZIN A   1      17.461   2.784  11.750  0.00  0.00     0.010 A 
ENDBRANCH   1  33
TORSDOF 7
ENDMDL
MODEL 7
REMARK VINA RESULT:      -9.0      5.061      8.836
REMARK  7 active torsions:
REMARK  status: ('A' for Active; 'I' for Inactive)
REMARK    1  A    between atoms: C2_2  and  O4_3 
REMARK    2  A    between atoms: C2_2  and  C25_24 
REMARK    3  A    between atoms: O4_3  and  C5_4 
REMARK    4  A    between atoms: C5_4  and  C6_5 
REMARK    5  A    between atoms: C6_5  and  C7_6 
REMARK    6  A    between atoms: C27_26  and  C28_27 
REMARK    7  A    between atoms: C33_32  and  C34_33 
ROOT
ATOM      1  C6  ZIN A   1      18.745   0.540  12.360  0.00  0.00     0.174 C 
ATOM      2  C13 ZIN A   1      17.445   0.852  13.104  0.00  0.00     0.049 C 
ATOM      3  C14 ZIN A   1      17.402   0.038  14.402  0.00  0.00     0.035 C 
ATOM      4  C15 ZIN A   1      18.647   0.349  15.229  0.00  0.00     0.057 C 
ATOM      5  C16 ZIN A   1      18.623   1.824  15.674  0.00  0.00     0.042 C 
ATOM      6  C17 ZIN A   1      19.261   1.739  17.080  0.00  0.00     0.105 C 
ATOM      7  C18 ZIN A   1      18.999   0.314  17.520  0.00  0.00     0.218 C 
ATOM      8  O19 ZIN A   1      19.086  -0.087  18.662  0.00  0.00    -0.274 OA
ATOM      9  N20 ZIN A   1      18.655  -0.440  16.462  0.00  0.00    -0.350 N 
ATOM     10  C21 ZIN A   1      19.906   0.076  14.410  0.00  0.00     0.264 C 
ATOM     11  N22 ZIN A   1      19.895   0.903  13.196  0.00  0.00    -0.058 N 
ATOM     12  H23 ZIN A   1      20.748   0.750  12.679  0.00  0.00     0.278 HD
ATOM     13  H24 ZIN A   1      19.828   1.876  13.455  0.00  0.00     0.278 HD
ATOM     14  H57 ZIN A   1      18.439  -1.385  16.510  0.00  0.00     0.163 HD
ENDROOT
BRANCH   1  15
ATOM     15  C5  ZIN A   1      18.802  -0.954  12.037  0.00  0.00     0.212 C 
BRANCH  15  16
ATOM     16  O4  ZIN A   1      17.591  -1.346  11.386  0.00  0.00    -0.379 OA
BRANCH  16  17
ATOM     17  C2  ZIN A   1      17.574  -2.712  10.966  0.00  0.00     0.150 C 
ATOM     18  C1  ZIN A   1      18.467  -3.542  11.891  0.00  0.00     0.045 C 
BRANCH  17  19
ATOM     19  C25 ZIN A   1      18.087  -2.810   9.552  0.00  0.00    -0.028 A 
ATOM     20  C38 ZIN A   1      17.834  -1.790   8.654  0.00  0.00     0.025 A 
ATOM     21  C33 ZIN A   1      18.309  -1.877   7.359  0.00  0.00     0.049 A 
ATOM     22  C32 ZIN A   1      19.027  -2.989   6.959  0.00  0.00     0.032 A 
ATOM     23  C27 ZIN A   1      19.276  -4.011   7.857  0.00  0.00     0.049 A 
ATOM     24  C26 ZIN A   1      18.805  -3.921   9.152  0.00  0.00     0.025 A 
BRANCH  21  25
ATOM     25  C34 ZIN A   1      18.039  -0.762   6.380  0.00  0.00     0.417 C 
ATOM     26  F35 ZIN A   1      19.223  -0.059   6.136  0.00  0.00    -0.166 F 
ATOM     27  F36 ZIN A   1      17.561  -1.301   5.182  0.00  0.00    -0.166 F 
ATOM     28  F37 ZIN A   1      17.083   0.106   6.916  0.00  0.00    -0.166 F 
ENDBRANCH  21  25
BRANCH  23  29
ATOM     29  C28 ZIN A   1      20.059  -5.221   7.421  0.00  0.00     0.417 C 
ATOM     30  F29 ZIN A   1      21.322  -4.823   6.968  0.00  0.00    -0.166 F 
ATOM     31  F30 ZIN A   1      20.207  -6.096   8.503  0.00  0.00    -0.166 F 
ATOM     32  F31 ZIN A   1      19.377  -5.871   6.386  0.00  0.00    -0.166 F 
ENDBRANCH  23  29
ENDBRANCH  17  19
ENDBRANCH  16  17
ENDBRANCH  15  16
ENDBRANCH   1  15
BRANCH   1  33
ATOM     33  C7  ZIN A   1      18.789   1.333  11.078  0.00  0.00    -0.020 A 
ATOM     34  C12 ZIN A   1      19.512   0.861   9.998  0.00  0.00     0.010 A 
ATOM     35  C11 ZIN A   1      19.548   1.585   8.821  0.00  0.00     0.001 A 
ATOM     36  C10 ZIN A   1      18.870   2.786   8.727  0.00  0.00     0.000 A 
ATOM     37  C9  ZIN A   1      18.153   3.260   9.809  0.00  0.00     0.001 A 
ATOM     38  C8  ZIN A   1      18.111   2.534  10.984  0.00  0.00     0.010 A 
ENDBRANCH   1  33
TORSDOF 7
ENDMDL
MODEL 8
REMARK VINA RESULT:      -9.0      5.038      9.161
REMARK  7 active torsions:
REMARK  status: ('A' for Active; 'I' for Inactive)
REMARK    1  A    between atoms: C2_2  and  O4_3 
REMARK    2  A    between atoms: C2_2  and  C25_24 
REMARK    3  A    between atoms: O4_3  and  C5_4 
REMARK    4  A    between atoms: C5_4  and  C6_5 
REMARK    5  A    between atoms: C6_5  and  C7_6 
REMARK    6  A    between atoms: C27_26  and  C28_27 
REMARK    7  A    between atoms: C33_32  and  C34_33 
ROOT
ATOM      1  C6  ZIN A   1      18.808   0.629  12.317  0.00  0.00     0.174 C 
ATOM      2  C13 ZIN A   1      17.526   1.000  13.067  0.00  0.00     0.049 C 
ATOM      3  C14 ZIN A   1      17.497   0.260  14.409  0.00  0.00     0.035 C 
ATOM      4  C15 ZIN A   1      18.762   0.598  15.194  0.00  0.00     0.057 C 
ATOM      5  C16 ZIN A   1      18.766   2.096  15.556  0.00  0.00     0.042 C 
ATOM      6  C17 ZIN A   1      19.429   2.079  16.954  0.00  0.00     0.105 C 
ATOM      7  C18 ZIN A   1      19.156   0.685  17.477  0.00  0.00     0.218 C 
ATOM      8  O19 ZIN A   1      19.260   0.347  18.637  0.00  0.00    -0.274 OA
ATOM      9  N20 ZIN A   1      18.782  -0.122  16.469  0.00  0.00    -0.350 N 
ATOM     10  C21 ZIN A   1      20.001   0.262  14.369  0.00  0.00     0.264 C 
ATOM     11  N22 ZIN A   1      19.978   1.020  13.111  0.00  0.00    -0.058 N 
ATOM     12  H23 ZIN A   1      20.819   0.827  12.588  0.00  0.00     0.278 HD
ATOM     13  H24 ZIN A   1      19.929   2.007  13.316  0.00  0.00     0.278 HD
ATOM     14  H57 ZIN A   1      18.555  -1.060  16.573  0.00  0.00     0.163 HD
ENDROOT
BRANCH   1  15
ATOM     15  C5  ZIN A   1      18.838  -0.882  12.077  0.00  0.00     0.212 C 
BRANCH  15  16
ATOM     16  O4  ZIN A   1      17.655  -1.276  11.379  0.00  0.00    -0.379 OA
BRANCH  16  17
ATOM     17  C2  ZIN A   1      17.636  -2.654  11.000  0.00  0.00     0.150 C 
ATOM     18  C1  ZIN A   1      18.560  -3.450  11.924  0.00  0.00     0.045 C 
BRANCH  17  19
ATOM     19  C25 ZIN A   1      18.110  -2.791   9.576  0.00  0.00    -0.028 A 
ATOM     20  C38 ZIN A   1      18.811  -3.917   9.187  0.00  0.00     0.025 A 
ATOM     21  C33 ZIN A   1      19.242  -4.043   7.879  0.00  0.00     0.049 A 
ATOM     22  C32 ZIN A   1      18.981  -3.041   6.965  0.00  0.00     0.032 A 
ATOM     23  C27 ZIN A   1      18.283  -1.913   7.355  0.00  0.00     0.049 A 
ATOM     24  C26 ZIN A   1      17.849  -1.788   8.661  0.00  0.00     0.025 A 
BRANCH  21  25
ATOM     25  C34 ZIN A   1      20.002  -5.274   7.452  0.00  0.00     0.417 C 
ATOM     26  F35 ZIN A   1      20.005  -6.206   8.495  0.00  0.00    -0.166 F 
ATOM     27  F36 ZIN A   1      19.385  -5.834   6.328  0.00  0.00    -0.166 F 
ATOM     28  F37 ZIN A   1      21.318  -4.923   7.136  0.00  0.00    -0.166 F 
ENDBRANCH  21  25
BRANCH  23  29
ATOM     29  C28 ZIN A   1      17.999  -0.820   6.358  0.00  0.00     0.417 C 
ATOM     30  F29 ZIN A   1      19.196  -0.185   6.007  0.00  0.00    -0.166 F 
ATOM     31  F30 ZIN A   1      17.411  -1.372   5.215  0.00  0.00    -0.166 F 
ATOM     32  F31 ZIN A   1      17.125   0.115   6.927  0.00  0.00    -0.166 F 
ENDBRANCH  23  29
ENDBRANCH  17  19
ENDBRANCH  16  17
ENDBRANCH  15  16
ENDBRANCH   1  15
BRANCH   1  33
ATOM     33  C7  ZIN A   1      18.838   1.348  10.992  0.00  0.00    -0.020 A 
ATOM     34  C12 ZIN A   1      18.117   2.515  10.824  0.00  0.00     0.010 A 
ATOM     35  C11 ZIN A   1      18.148   3.177   9.611  0.00  0.00     0.001 A 
ATOM     36  C10 ZIN A   1      18.893   2.668   8.564  0.00  0.00     0.000 A 
ATOM     37  C9  ZIN A   1      19.610   1.498   8.731  0.00  0.00     0.001 A 
ATOM     38  C8  ZIN A   1      19.583   0.838   9.946  0.00  0.00     0.010 A 
ENDBRANCH   1  33
TORSDOF 7
ENDMDL
MODEL 9
REMARK VINA RESULT:      -9.0      4.293      8.336
REMARK  7 active torsions:
REMARK  status: ('A' for Active; 'I' for Inactive)
REMARK    1  A    between atoms: C2_2  and  O4_3 
REMARK    2  A    between atoms: C2_2  and  C25_24 
REMARK    3  A    between atoms: O4_3  and  C5_4 
REMARK    4  A    between atoms: C5_4  and  C6_5 
REMARK    5  A    between atoms: C6_5  and  C7_6 
REMARK    6  A    between atoms: C27_26  and  C28_27 
REMARK    7  A    between atoms: C33_32  and  C34_33 
ROOT
ATOM      1  C6  ZIN A   1      18.786   2.980  14.774  0.00  0.00     0.174 C 
ATOM      2  C13 ZIN A   1      19.789   3.500  15.806  0.00  0.00     0.049 C 
ATOM      3  C14 ZIN A   1      19.860   5.028  15.712  0.00  0.00     0.035 C 
ATOM      4  C15 ZIN A   1      18.460   5.606  15.904  0.00  0.00     0.057 C 
ATOM      5  C16 ZIN A   1      17.964   5.308  17.333  0.00  0.00     0.042 C 
ATOM      6  C17 ZIN A   1      17.158   6.588  17.658  0.00  0.00     0.105 C 
ATOM      7  C18 ZIN A   1      17.760   7.645  16.757  0.00  0.00     0.218 C 
ATOM      8  O19 ZIN A   1      17.609   8.841  16.893  0.00  0.00    -0.274 OA
ATOM      9  N20 ZIN A   1      18.486   7.065  15.785  0.00  0.00    -0.350 N 
ATOM     10  C21 ZIN A   1      17.496   5.002  14.886  0.00  0.00     0.264 C 
ATOM     11  N22 ZIN A   1      17.459   3.542  15.046  0.00  0.00    -0.058 N 
ATOM     12  H23 ZIN A   1      16.789   3.152  14.400  0.00  0.00     0.278 HD
ATOM     13  H24 ZIN A   1      17.186   3.316  15.990  0.00  0.00     0.278 HD
ATOM     14  H57 ZIN A   1      18.965   7.550  15.095  0.00  0.00     0.163 HD
ENDROOT
BRANCH   1  15
ATOM     15  C5  ZIN A   1      19.237   3.393  13.372  0.00  0.00     0.212 C 
BRANCH  15  16
ATOM     16  O4  ZIN A   1      18.232   3.030  12.423  0.00  0.00    -0.379 OA
BRANCH  16  17
ATOM     17  C2  ZIN A   1      18.638   3.180  11.061  0.00  0.00     0.150 C 
ATOM     18  C1  ZIN A   1      17.775   4.249  10.386  0.00  0.00     0.045 C 
BRANCH  17  19
ATOM     19  C25 ZIN A   1      18.469   1.868  10.338  0.00  0.00    -0.028 A 
ATOM     20  C38 ZIN A   1      18.236   0.710  11.056  0.00  0.00     0.025 A 
ATOM     21  C33 ZIN A   1      18.077  -0.493  10.393  0.00  0.00     0.049 A 
ATOM     22  C32 ZIN A   1      18.160  -0.539   9.014  0.00  0.00     0.032 A 
ATOM     23  C27 ZIN A   1      18.397   0.620   8.297  0.00  0.00     0.049 A 
ATOM     24  C26 ZIN A   1      18.552   1.822   8.959  0.00  0.00     0.025 A 
BRANCH  21  25
ATOM     25  C34 ZIN A   1      17.816  -1.756  11.174  0.00  0.00     0.417 C 
ATOM     26  F35 ZIN A   1      19.019  -2.228  11.712  0.00  0.00    -0.166 F 
ATOM     27  F36 ZIN A   1      16.917  -1.484  12.211  0.00  0.00    -0.166 F 
ATOM     28  F37 ZIN A   1      17.272  -2.725  10.326  0.00  0.00    -0.166 F 
ENDBRANCH  21  25
BRANCH  23  29
ATOM     29  C28 ZIN A   1      18.487   0.569   6.794  0.00  0.00     0.417 C 
ATOM     30  F29 ZIN A   1      17.213   0.353   6.256  0.00  0.00    -0.166 F 
ATOM     31  F30 ZIN A   1      18.995   1.783   6.316  0.00  0.00    -0.166 F 
ATOM     32  F31 ZIN A   1      19.338  -0.474   6.412  0.00  0.00    -0.166 F 
ENDBRANCH  23  29
ENDBRANCH  17  19
ENDBRANCH  16  17
ENDBRANCH  15  16
ENDBRANCH   1  15
BRANCH   1  33
ATOM     33  C7  ZIN A   1      18.719   1.476  14.856  0.00  0.00    -0.020 A 
ATOM     34  C12 ZIN A   1      17.687   0.867  15.545  0.00  0.00     0.010 A 
ATOM     35  C11 ZIN A   1      17.622  -0.512  15.617  0.00  0.00     0.001 A 
ATOM     36  C10 ZIN A   1      18.596  -1.282  15.009  0.00  0.00     0.000 A 
ATOM     37  C9  ZIN A   1      19.631  -0.673  14.325  0.00  0.00     0.001 A 
ATOM     38  C8  ZIN A   1      19.693   0.706  14.248  0.00  0.00     0.010 A 
ENDBRANCH   1  33
TORSDOF 7
ENDMDL
