MODEL 1
REMARK VINA RESULT:      -8.8      0.000      0.000
REMARK  7 active torsions:
REMARK  status: ('A' for Active; 'I' for Inactive)
REMARK    1  A    between atoms: O2_2  and  C3_3 
REMARK    2  A    between atoms: C6_6  and  N7_7 
REMARK       I    between atoms: N7_7  and  C8_8 
REMARK    3  A    between atoms: C8_8  and  C10_10 
REMARK    4  A    between atoms: C13_13  and  C14_14 
REMARK    5  A    between atoms: C14_14  and  N18_18 
REMARK    6  A    between atoms: C23_23  and  C24_24 
REMARK       I    between atoms: C24_24  and  N26_26 
REMARK    7  A    between atoms: N26_26  and  C27_27 
ROOT
ATOM      1  C3  ZIN A   1      19.592  -5.027   8.113  0.00  0.00     0.069 A 
ATOM      2  C4  ZIN A   1      19.943  -5.599   9.331  0.00  0.00     0.039 A 
ATOM      3  C5  ZIN A   1      19.897  -4.854  10.490  0.00  0.00     0.033 A 
ATOM      4  C6  ZIN A   1      19.500  -3.524  10.450  0.00  0.00     0.051 A 
ATOM      5  C23 ZIN A   1      19.145  -2.940   9.224  0.00  0.00     0.061 A 
ATOM      6  C34 ZIN A   1      19.200  -3.702   8.055  0.00  0.00     0.056 A 
ENDROOT
BRANCH   4   7
ATOM      7  N7  ZIN A   1      19.454  -2.772  11.622  0.00  0.00    -0.322 N 
ATOM      8  C8  ZIN A   1      18.272  -2.527  12.220  0.00  0.00     0.256 C 
ATOM      9  O9  ZIN A   1      17.260  -3.061  11.807  0.00  0.00    -0.267 OA
ATOM     10  H40 ZIN A   1      20.274  -2.425  12.008  0.00  0.00     0.169 HD
BRANCH   8  11
ATOM     11  C10 ZIN A   1      18.203  -1.609  13.376  0.00  0.00     0.032 A 
ATOM     12  C22 ZIN A   1      18.951  -1.875  14.526  0.00  0.00     0.018 A 
ATOM     13  C21 ZIN A   1      18.891  -1.015  15.600  0.00  0.00     0.016 A 
ATOM     14  C13 ZIN A   1      18.077   0.116  15.545  0.00  0.00     0.007 A 
ATOM     15  C12 ZIN A   1      17.326   0.380  14.399  0.00  0.00     0.016 A 
ATOM     16  C11 ZIN A   1      17.388  -0.476  13.321  0.00  0.00     0.018 A 
BRANCH  14  17
ATOM     17  C14 ZIN A   1      18.009   1.037  16.703  0.00  0.00     0.106 C 
ATOM     18  N15 ZIN A   1      17.169   0.806  17.670  0.00  0.00    -0.385 N 
ATOM     19  H16 ZIN A   1      17.124   1.409  18.428  0.00  0.00     0.157 HD
ATOM     20  H17 ZIN A   1      16.587   0.031  17.632  0.00  0.00     0.157 HD
BRANCH  17  21
ATOM     21  N18 ZIN A   1      18.835   2.138  16.756  0.00  0.00    -0.376 N 
ATOM     22  C19 ZIN A   1      19.223   2.701  18.053  0.00  0.00     0.150 C 
ATOM     23  C20 ZIN A   1      19.326   2.748  15.518  0.00  0.00     0.150 C 
ENDBRANCH  17  21
ENDBRANCH  14  17
ENDBRANCH   8  11
ENDBRANCH   4   7
BRANCH   5  24
ATOM     24  C24 ZIN A   1      18.723  -1.529   9.170  0.00  0.00     0.259 C 
ATOM     25  O25 ZIN A   1      17.593  -1.245   8.823  0.00  0.00    -0.267 OA
ATOM     26  N26 ZIN A   1      19.589  -0.552   9.506  0.00  0.00    -0.307 N 
ATOM     27  H51 ZIN A   1      20.515  -0.771   9.698  0.00  0.00     0.170 HD
BRANCH  26  28
ATOM     28  C27 ZIN A   1      19.156   0.770   9.576  0.00  0.00     0.130 A 
ATOM     29  N33 ZIN A   1      18.643   1.233  10.705  0.00  0.00    -0.242 NA
ATOM     30  C32 ZIN A   1      18.225   2.480  10.816  0.00  0.00     0.142 A 
ATOM     31  C30 ZIN A   1      18.300   3.350   9.743  0.00  0.00     0.051 A 
ATOM     32  C29 ZIN A   1      18.828   2.901   8.540  0.00  0.00     0.029 A 
ATOM     33 Cl31 ZIN A   1      17.741   4.986   9.901  0.00  0.00    -0.083 Cl
ATOM     34  C28 ZIN A   1      19.262   1.589   8.457  0.00  0.00     0.052 A 
ENDBRANCH  26  28
ENDBRANCH   5  24
BRANCH   1  35
ATOM     35  O2  ZIN A   1      19.642  -5.770   6.976  0.00  0.00    -0.356 OA
ATOM     36  C1  ZIN A   1      18.429  -5.899   6.232  0.00  0.00     0.210 C 
ENDBRANCH   1  35
TORSDOF 7
ENDMDL
MODEL 2
REMARK VINA RESULT:      -8.8      3.491      8.786
REMARK  7 active torsions:
REMARK  status: ('A' for Active; 'I' for Inactive)
REMARK    1  A    between atoms: O2_2  and  C3_3 
REMARK    2  A    between atoms: C6_6  and  N7_7 
REMARK       I    between atoms: N7_7  and  C8_8 
REMARK    3  A    between atoms: C8_8  and  C10_10 
REMARK    4  A    between atoms: C13_13  and  C14_14 
REMARK    5  A    between atoms: C14_14  and  N18_18 
REMARK    6  A    between atoms: C23_23  and  C24_24 
REMARK       I    between atoms: C24_24  and  N26_26 
REMARK    7  A    between atoms: N26_26  and  C27_27 
ROOT
ATOM      1  C3  ZIN A   1      18.691   3.511  15.199  0.00  0.00     0.069 A 
ATOM      2  C4  ZIN A   1      19.102   4.377  14.192  0.00  0.00     0.039 A 
ATOM      3  C5  ZIN A   1      19.268   3.918  12.902  0.00  0.00     0.033 A 
ATOM      4  C6  ZIN A   1      19.027   2.584  12.600  0.00  0.00     0.051 A 
ATOM      5  C23 ZIN A   1      18.613   1.705  13.611  0.00  0.00     0.061 A 
ATOM      6  C34 ZIN A   1      18.452   2.178  14.915  0.00  0.00     0.056 A 
ENDROOT
BRANCH   4   7
ATOM      7  N7  ZIN A   1      19.195   2.121  11.296  0.00  0.00    -0.322 N 
ATOM      8  C8  ZIN A   1      18.135   2.035  10.470  0.00  0.00     0.256 C 
ATOM      9  O9  ZIN A   1      17.056   2.473  10.818  0.00  0.00    -0.267 OA
ATOM     10  H40 ZIN A   1      20.077   1.862  10.984  0.00  0.00     0.169 HD
BRANCH   8  11
ATOM     11  C10 ZIN A   1      18.284   1.407   9.139  0.00  0.00     0.032 A 
ATOM     12  C22 ZIN A   1      19.160   1.955   8.201  0.00  0.00     0.018 A 
ATOM     13  C21 ZIN A   1      19.303   1.365   6.965  0.00  0.00     0.016 A 
ATOM     14  C13 ZIN A   1      18.564   0.227   6.645  0.00  0.00     0.007 A 
ATOM     15  C12 ZIN A   1      17.683  -0.319   7.580  0.00  0.00     0.016 A 
ATOM     16  C11 ZIN A   1      17.544   0.266   8.819  0.00  0.00     0.018 A 
BRANCH  14  17
ATOM     17  C14 ZIN A   1      18.713  -0.403   5.313  0.00  0.00     0.106 C 
ATOM     18  N15 ZIN A   1      19.228   0.273   4.327  0.00  0.00    -0.385 N 
ATOM     19  H16 ZIN A   1      19.326  -0.140   3.454  0.00  0.00     0.157 HD
ATOM     20  H17 ZIN A   1      19.514   1.189   4.464  0.00  0.00     0.157 HD
BRANCH  17  21
ATOM     21  N18 ZIN A   1      18.305  -1.705   5.117  0.00  0.00    -0.376 N 
ATOM     22  C19 ZIN A   1      17.082  -1.984   4.360  0.00  0.00     0.150 C 
ATOM     23  C20 ZIN A   1      19.094  -2.810   5.665  0.00  0.00     0.150 C 
ENDBRANCH  17  21
ENDBRANCH  14  17
ENDBRANCH   8  11
ENDBRANCH   4   7
BRANCH   5  24
ATOM     24  C24 ZIN A   1      18.354   0.287  13.301  0.00  0.00     0.259 C 
ATOM     25  O25 ZIN A   1      17.402  -0.282  13.799  0.00  0.00    -0.267 OA
ATOM     26  N26 ZIN A   1      19.174  -0.380  12.464  0.00  0.00    -0.307 N 
ATOM     27  H51 ZIN A   1      19.982   0.045  12.135  0.00  0.00     0.170 HD
BRANCH  26  28
ATOM     28  C27 ZIN A   1      18.861  -1.681  12.072  0.00  0.00     0.130 A 
ATOM     29  N33 ZIN A   1      17.642  -1.959  11.638  0.00  0.00    -0.242 NA
ATOM     30  C32 ZIN A   1      17.306  -3.176  11.252  0.00  0.00     0.142 A 
ATOM     31  C30 ZIN A   1      18.220  -4.212  11.299  0.00  0.00     0.051 A 
ATOM     32  C29 ZIN A   1      19.509  -3.961  11.753  0.00  0.00     0.029 A 
ATOM     33 Cl31 ZIN A   1      17.762  -5.809  10.795  0.00  0.00    -0.083 Cl
ATOM     34  C28 ZIN A   1      19.832  -2.673  12.145  0.00  0.00     0.052 A 
ENDBRANCH  26  28
ENDBRANCH   5  24
BRANCH   1  35
ATOM     35  O2  ZIN A   1      18.531   3.973  16.467  0.00  0.00    -0.356 OA
ATOM     36  C1  ZIN A   1      19.199   3.256  17.508  0.00  0.00     0.210 C 
ENDBRANCH   1  35
TORSDOF 7
ENDMDL
MODEL 3
REMARK VINA RESULT:      -8.8      2.144      3.063
REMARK  7 active torsions:
REMARK  status: ('A' for Active; 'I' for Inactive)
REMARK    1  A    between atoms: O2_2  and  C3_3 
REMARK    2  A    between atoms: C6_6  and  N7_7 
REMARK       I    between atoms: N7_7  and  C8_8 
REMARK    3  A    between atoms: C8_8  and  C10_10 
REMARK    4  A    between atoms: C13_13  and  C14_14 
REMARK    5  A    between atoms: C14_14  and  N18_18 
REMARK    6  A    between atoms: C23_23  and  C24_24 
REMARK       I    between atoms: C24_24  and  N26_26 
REMARK    7  A    between atoms: N26_26  and  C27_27 
ROOT
ATOM      1  C3  ZIN A   1      18.498  -1.256   7.277  0.00  0.00     0.069 A 
ATOM      2  C4  ZIN A   1      19.210  -2.214   7.989  0.00  0.00     0.039 A 
ATOM      3  C5  ZIN A   1      19.430  -2.056   9.342  0.00  0.00     0.033 A 
ATOM      4  C6  ZIN A   1      18.941  -0.938  10.003  0.00  0.00     0.051 A 
ATOM      5  C23 ZIN A   1      18.221   0.033   9.290  0.00  0.00     0.061 A 
ATOM      6  C34 ZIN A   1      18.009  -0.133   7.919  0.00  0.00     0.056 A 
ENDROOT
BRANCH   4   7
ATOM      7  N7  ZIN A   1      19.164  -0.780  11.369  0.00  0.00    -0.322 N 
ATOM      8  C8  ZIN A   1      18.190  -1.083  12.250  0.00  0.00     0.256 C 
ATOM      9  O9  ZIN A   1      17.163  -1.607  11.865  0.00  0.00    -0.267 OA
ATOM     10  H40 ZIN A   1      20.020  -0.452  11.686  0.00  0.00     0.169 HD
BRANCH   8  11
ATOM     11  C10 ZIN A   1      18.370  -0.777  13.685  0.00  0.00     0.032 A 
ATOM     12  C22 ZIN A   1      17.727   0.326  14.251  0.00  0.00     0.018 A 
ATOM     13  C21 ZIN A   1      17.890   0.606  15.590  0.00  0.00     0.016 A 
ATOM     14  C13 ZIN A   1      18.705  -0.205  16.379  0.00  0.00     0.007 A 
ATOM     15  C12 ZIN A   1      19.353  -1.304  15.813  0.00  0.00     0.016 A 
ATOM     16  C11 ZIN A   1      19.187  -1.589  14.475  0.00  0.00     0.018 A 
BRANCH  14  17
ATOM     17  C14 ZIN A   1      18.885   0.101  17.817  0.00  0.00     0.106 C 
ATOM     18  N15 ZIN A   1      19.401  -0.791  18.613  0.00  0.00    -0.385 N 
ATOM     19  H16 ZIN A   1      19.519  -0.591  19.554  0.00  0.00     0.157 HD
ATOM     20  H17 ZIN A   1      19.668  -1.656  18.264  0.00  0.00     0.157 HD
BRANCH  17  21
ATOM     21  N18 ZIN A   1      18.505   1.329  18.312  0.00  0.00    -0.376 N 
ATOM     22  C19 ZIN A   1      17.191   1.492  18.940  0.00  0.00     0.150 C 
ATOM     23  C20 ZIN A   1      19.415   2.473  18.212  0.00  0.00     0.150 C 
ENDBRANCH  17  21
ENDBRANCH  14  17
ENDBRANCH   8  11
ENDBRANCH   4   7
BRANCH   5  24
ATOM     24  C24 ZIN A   1      17.698   1.225   9.982  0.00  0.00     0.259 C 
ATOM     25  O25 ZIN A   1      16.546   1.247  10.369  0.00  0.00    -0.267 OA
ATOM     26  N26 ZIN A   1      18.498   2.291  10.187  0.00  0.00    -0.307 N 
ATOM     27  H51 ZIN A   1      19.389   2.310   9.802  0.00  0.00     0.170 HD
BRANCH  26  28
ATOM     28  C27 ZIN A   1      18.044   3.366  10.948  0.00  0.00     0.130 A 
ATOM     29  N33 ZIN A   1      18.212   3.356  12.261  0.00  0.00    -0.242 NA
ATOM     30  C32 ZIN A   1      17.802   4.356  13.019  0.00  0.00     0.142 A 
ATOM     31  C30 ZIN A   1      17.169   5.452  12.464  0.00  0.00     0.051 A 
ATOM     32  C29 ZIN A   1      16.970   5.498  11.091  0.00  0.00     0.029 A 
ATOM     33 Cl31 ZIN A   1      16.629   6.757  13.474  0.00  0.00    -0.083 Cl
ATOM     34  C28 ZIN A   1      17.416   4.437  10.323  0.00  0.00     0.052 A 
ENDBRANCH  26  28
ENDBRANCH   5  24
BRANCH   1  35
ATOM     35  O2  ZIN A   1      18.287  -1.420   5.945  0.00  0.00    -0.356 OA
ATOM     36  C1  ZIN A   1      19.190  -0.755   5.059  0.00  0.00     0.210 C 
ENDBRANCH   1  35
TORSDOF 7
ENDMDL
MODEL 4
REMARK VINA RESULT:      -8.6      0.921      1.314
REMARK  7 active torsions:
REMARK  status: ('A' for Active; 'I' for Inactive)
REMARK    1  A    between atoms: O2_2  and  C3_3 
REMARK    2  A    between atoms: C6_6  and  N7_7 
REMARK       I    between atoms: N7_7  and  C8_8 
REMARK    3  A    between atoms: C8_8  and  C10_10 
REMARK    4  A    between atoms: C13_13  and  C14_14 
REMARK    5  A    between atoms: C14_14  and  N18_18 
REMARK    6  A    between atoms: C23_23  and  C24_24 
REMARK       I    between atoms: C24_24  and  N26_26 
REMARK    7  A    between atoms: N26_26  and  C27_27 
ROOT
ATOM      1  C3  ZIN A   1      19.211  -5.595   7.644  0.00  0.00     0.069 A 
ATOM      2  C4  ZIN A   1      19.607  -6.138   8.860  0.00  0.00     0.039 A 
ATOM      3  C5  ZIN A   1      19.699  -5.342   9.983  0.00  0.00     0.033 A 
ATOM      4  C6  ZIN A   1      19.396  -3.989   9.906  0.00  0.00     0.051 A 
ATOM      5  C23 ZIN A   1      18.995  -3.434   8.681  0.00  0.00     0.061 A 
ATOM      6  C34 ZIN A   1      18.911  -4.248   7.549  0.00  0.00     0.056 A 
ENDROOT
BRANCH   4   7
ATOM      7  N7  ZIN A   1      19.488  -3.186  11.041  0.00  0.00    -0.322 N 
ATOM      8  C8  ZIN A   1      18.375  -2.846  11.718  0.00  0.00     0.256 C 
ATOM      9  O9  ZIN A   1      17.304  -3.336  11.414  0.00  0.00    -0.267 OA
ATOM     10  H40 ZIN A   1      20.355  -2.873  11.344  0.00  0.00     0.169 HD
BRANCH   8  11
ATOM     11  C10 ZIN A   1      18.453  -1.876  12.832  0.00  0.00     0.032 A 
ATOM     12  C22 ZIN A   1      19.385  -2.061  13.855  0.00  0.00     0.018 A 
ATOM     13  C21 ZIN A   1      19.462  -1.153  14.888  0.00  0.00     0.016 A 
ATOM     14  C13 ZIN A   1      18.602  -0.055  14.919  0.00  0.00     0.007 A 
ATOM     15  C12 ZIN A   1      17.667   0.127  13.899  0.00  0.00     0.016 A 
ATOM     16  C11 ZIN A   1      17.593  -0.777  12.862  0.00  0.00     0.018 A 
BRANCH  14  17
ATOM     17  C14 ZIN A   1      18.681   0.917  16.033  0.00  0.00     0.106 C 
ATOM     18  N15 ZIN A   1      19.161   2.109  15.825  0.00  0.00    -0.385 N 
ATOM     19  H16 ZIN A   1      19.213   2.746  16.555  0.00  0.00     0.157 HD
ATOM     20  H17 ZIN A   1      19.467   2.361  14.940  0.00  0.00     0.157 HD
BRANCH  17  21
ATOM     21  N18 ZIN A   1      18.248   0.559  17.291  0.00  0.00    -0.376 N 
ATOM     22  C19 ZIN A   1      16.899   0.016  17.474  0.00  0.00     0.150 C 
ATOM     23  C20 ZIN A   1      19.134   0.721  18.446  0.00  0.00     0.150 C 
ENDBRANCH  17  21
ENDBRANCH  14  17
ENDBRANCH   8  11
ENDBRANCH   4   7
BRANCH   5  24
ATOM     24  C24 ZIN A   1      18.671  -1.999   8.589  0.00  0.00     0.259 C 
ATOM     25  O25 ZIN A   1      17.571  -1.647   8.211  0.00  0.00    -0.267 OA
ATOM     26  N26 ZIN A   1      19.596  -1.076   8.922  0.00  0.00    -0.307 N 
ATOM     27  H51 ZIN A   1      20.501  -1.353   9.138  0.00  0.00     0.170 HD
BRANCH  26  28
ATOM     28  C27 ZIN A   1      19.253   0.274   8.955  0.00  0.00     0.130 A 
ATOM     29  N33 ZIN A   1      18.930   0.840  10.107  0.00  0.00    -0.242 NA
ATOM     30  C32 ZIN A   1      18.604   2.116  10.184  0.00  0.00     0.142 A 
ATOM     31  C30 ZIN A   1      18.577   2.910   9.052  0.00  0.00     0.051 A 
ATOM     32  C29 ZIN A   1      18.905   2.352   7.823  0.00  0.00     0.029 A 
ATOM     33 Cl31 ZIN A   1      18.140   4.586   9.166  0.00  0.00    -0.083 Cl
ATOM     34  C28 ZIN A   1      19.248   1.012   7.777  0.00  0.00     0.052 A 
ENDBRANCH  26  28
ENDBRANCH   5  24
BRANCH   1  35
ATOM     35  O2  ZIN A   1      19.125  -6.387   6.543  0.00  0.00    -0.356 OA
ATOM     36  C1  ZIN A   1      17.887  -6.373   5.829  0.00  0.00     0.210 C 
ENDBRANCH   1  35
TORSDOF 7
ENDMDL
MODEL 5
REMARK VINA RESULT:      -8.2      4.633     10.144
REMARK  7 active torsions:
REMARK  status: ('A' for Active; 'I' for Inactive)
REMARK    1  A    between atoms: O2_2  and  C3_3 
REMARK    2  A    between atoms: C6_6  and  N7_7 
REMARK       I    between atoms: N7_7  and  C8_8 
REMARK    3  A    between atoms: C8_8  and  C10_10 
REMARK    4  A    between atoms: C13_13  and  C14_14 
REMARK    5  A    between atoms: C14_14  and  N18_18 
REMARK    6  A    between atoms: C23_23  and  C24_24 
REMARK       I    between atoms: C24_24  and  N26_26 
REMARK    7  A    between atoms: N26_26  and  C27_27 
ROOT
ATOM      1  C3  ZIN A   1      17.755   7.811  16.878  0.00  0.00     0.069 A 
ATOM      2  C4  ZIN A   1      17.682   8.289  15.574  0.00  0.00     0.039 A 
ATOM      3  C5  ZIN A   1      18.021   7.475  14.513  0.00  0.00     0.033 A 
ATOM      4  C6  ZIN A   1      18.438   6.170  14.740  0.00  0.00     0.051 A 
ATOM      5  C23 ZIN A   1      18.514   5.682  16.053  0.00  0.00     0.061 A 
ATOM      6  C34 ZIN A   1      18.174   6.516  17.121  0.00  0.00     0.056 A 
ENDROOT
BRANCH   4   7
ATOM      7  N7  ZIN A   1      18.780   5.349  13.668  0.00  0.00    -0.322 N 
ATOM      8  C8  ZIN A   1      17.833   4.617  13.050  0.00  0.00     0.256 C 
ATOM      9  O9  ZIN A   1      16.663   4.763  13.347  0.00  0.00    -0.267 OA
ATOM     10  H40 ZIN A   1      19.701   5.305  13.365  0.00  0.00     0.169 HD
BRANCH   8  11
ATOM     11  C10 ZIN A   1      18.215   3.636  12.013  0.00  0.00     0.032 A 
ATOM     12  C22 ZIN A   1      18.635   2.356  12.382  0.00  0.00     0.018 A 
ATOM     13  C21 ZIN A   1      18.984   1.441  11.413  0.00  0.00     0.016 A 
ATOM     14  C13 ZIN A   1      18.930   1.794  10.066  0.00  0.00     0.007 A 
ATOM     15  C12 ZIN A   1      18.516   3.074   9.696  0.00  0.00     0.016 A 
ATOM     16  C11 ZIN A   1      18.160   3.990  10.663  0.00  0.00     0.018 A 
BRANCH  14  17
ATOM     17  C14 ZIN A   1      19.312   0.811   9.026  0.00  0.00     0.106 C 
ATOM     18  N15 ZIN A   1      20.386   0.091   9.174  0.00  0.00    -0.385 N 
ATOM     19  H16 ZIN A   1      20.637  -0.553   8.493  0.00  0.00     0.157 HD
ATOM     20  H17 ZIN A   1      20.936   0.198   9.966  0.00  0.00     0.157 HD
BRANCH  17  21
ATOM     21  N18 ZIN A   1      18.531   0.659   7.901  0.00  0.00    -0.376 N 
ATOM     22  C19 ZIN A   1      18.960   1.242   6.627  0.00  0.00     0.150 C 
ATOM     23  C20 ZIN A   1      17.271  -0.084   7.978  0.00  0.00     0.150 C 
ENDBRANCH  17  21
ENDBRANCH  14  17
ENDBRANCH   8  11
ENDBRANCH   4   7
BRANCH   5  24
ATOM     24  C24 ZIN A   1      18.957   4.298  16.305  0.00  0.00     0.259 C 
ATOM     25  O25 ZIN A   1      20.139   4.056  16.457  0.00  0.00    -0.267 OA
ATOM     26  N26 ZIN A   1      18.052   3.301  16.366  0.00  0.00    -0.307 N 
ATOM     27  H51 ZIN A   1      17.121   3.479  16.157  0.00  0.00     0.170 HD
BRANCH  26  28
ATOM     28  C27 ZIN A   1      18.453   2.016  16.726  0.00  0.00     0.130 A 
ATOM     29  N33 ZIN A   1      18.533   1.072  15.803  0.00  0.00    -0.242 NA
ATOM     30  C32 ZIN A   1      18.914  -0.157  16.101  0.00  0.00     0.142 A 
ATOM     31  C30 ZIN A   1      19.233  -0.504  17.400  0.00  0.00     0.051 A 
ATOM     32  C29 ZIN A   1      19.157   0.458  18.399  0.00  0.00     0.029 A 
ATOM     33 Cl31 ZIN A   1      19.726  -2.125  17.779  0.00  0.00    -0.083 Cl
ATOM     34  C28 ZIN A   1      18.760   1.738  18.054  0.00  0.00     0.052 A 
ENDBRANCH  26  28
ENDBRANCH   5  24
BRANCH   1  35
ATOM     35  O2  ZIN A   1      17.419   8.621  17.916  0.00  0.00    -0.356 OA
ATOM     36  C1  ZIN A   1      17.136   7.989  19.166  0.00  0.00     0.210 C 
ENDBRANCH   1  35
TORSDOF 7
ENDMDL
MODEL 6
REMARK VINA RESULT:      -8.1      1.815      2.510
REMARK  7 active torsions:
REMARK  status: ('A' for Active; 'I' for Inactive)
REMARK    1  A    between atoms: O2_2  and  C3_3 
REMARK    2  A    between atoms: C6_6  and  N7_7 
REMARK       I    between atoms: N7_7  and  C8_8 
REMARK    3  A    between atoms: C8_8  and  C10_10 
REMARK    4  A    between atoms: C13_13  and  C14_14 
REMARK    5  A    between atoms: C14_14  and  N18_18 
REMARK    6  A    between atoms: C23_23  and  C24_24 
REMARK       I    between atoms: C24_24  and  N26_26 
REMARK    7  A    between atoms: N26_26  and  C27_27 
ROOT
ATOM      1  C3  ZIN A   1      18.822  -3.250   5.311  0.00  0.00     0.069 A 
ATOM      2  C4  ZIN A   1      19.388  -4.189   6.165  0.00  0.00     0.039 A 
ATOM      3  C5  ZIN A   1      19.568  -3.897   7.501  0.00  0.00     0.033 A 
ATOM      4  C6  ZIN A   1      19.183  -2.661   8.003  0.00  0.00     0.051 A 
ATOM      5  C23 ZIN A   1      18.611  -1.709   7.146  0.00  0.00     0.061 A 
ATOM      6  C34 ZIN A   1      18.439  -2.012   5.794  0.00  0.00     0.056 A 
ENDROOT
BRANCH   4   7
ATOM      7  N7  ZIN A   1      19.365  -2.367   9.353  0.00  0.00    -0.322 N 
ATOM      8  C8  ZIN A   1      18.369  -2.594  10.232  0.00  0.00     0.256 C 
ATOM      9  O9  ZIN A   1      17.359  -3.166   9.872  0.00  0.00    -0.267 OA
ATOM     10  H40 ZIN A   1      20.209  -1.999   9.660  0.00  0.00     0.169 HD
BRANCH   8  11
ATOM     11  C10 ZIN A   1      18.505  -2.147  11.635  0.00  0.00     0.032 A 
ATOM     12  C22 ZIN A   1      17.493  -1.387  12.227  0.00  0.00     0.018 A 
ATOM     13  C21 ZIN A   1      17.618  -0.977  13.536  0.00  0.00     0.016 A 
ATOM     14  C13 ZIN A   1      18.758  -1.310  14.267  0.00  0.00     0.007 A 
ATOM     15  C12 ZIN A   1      19.771  -2.064  13.675  0.00  0.00     0.016 A 
ATOM     16  C11 ZIN A   1      19.646  -2.480  12.367  0.00  0.00     0.018 A 
BRANCH  14  17
ATOM     17  C14 ZIN A   1      18.893  -0.863  15.673  0.00  0.00     0.106 C 
ATOM     18  N15 ZIN A   1      19.175  -1.726  16.607  0.00  0.00    -0.385 N 
ATOM     19  H16 ZIN A   1      19.263  -1.433  17.527  0.00  0.00     0.157 HD
ATOM     20  H17 ZIN A   1      19.295  -2.661  16.382  0.00  0.00     0.157 HD
BRANCH  17  21
ATOM     21  N18 ZIN A   1      18.721   0.466  15.992  0.00  0.00    -0.376 N 
ATOM     22  C19 ZIN A   1      18.031   0.839  17.230  0.00  0.00     0.150 C 
ATOM     23  C20 ZIN A   1      19.227   1.507  15.095  0.00  0.00     0.150 C 
ENDBRANCH  17  21
ENDBRANCH  14  17
ENDBRANCH   8  11
ENDBRANCH   4   7
BRANCH   5  24
ATOM     24  C24 ZIN A   1      18.200  -0.393   7.669  0.00  0.00     0.259 C 
ATOM     25  O25 ZIN A   1      17.097   0.049   7.407  0.00  0.00    -0.267 OA
ATOM     26  N26 ZIN A   1      19.046   0.322   8.438  0.00  0.00    -0.307 N 
ATOM     27  H51 ZIN A   1      19.955   0.012   8.575  0.00  0.00     0.170 HD
BRANCH  26  28
ATOM     28  C27 ZIN A   1      18.615   1.505   9.035  0.00  0.00     0.130 A 
ATOM     29  N33 ZIN A   1      18.811   2.659   8.418  0.00  0.00    -0.242 NA
ATOM     30  C32 ZIN A   1      18.415   3.802   8.945  0.00  0.00     0.142 A 
ATOM     31  C30 ZIN A   1      17.786   3.834  10.176  0.00  0.00     0.051 A 
ATOM     32  C29 ZIN A   1      17.565   2.644  10.857  0.00  0.00     0.029 A 
ATOM     33 Cl31 ZIN A   1      17.275   5.345  10.860  0.00  0.00    -0.083 Cl
ATOM     34  C28 ZIN A   1      17.988   1.462  10.275  0.00  0.00     0.052 A 
ENDBRANCH  26  28
ENDBRANCH   5  24
BRANCH   1  35
ATOM     35  O2  ZIN A   1      18.650  -3.547   3.996  0.00  0.00    -0.356 OA
ATOM     36  C1  ZIN A   1      17.575  -4.428   3.665  0.00  0.00     0.210 C 
ENDBRANCH   1  35
TORSDOF 7
ENDMDL
MODEL 7
REMARK VINA RESULT:      -8.1      4.145      9.540
REMARK  7 active torsions:
REMARK  status: ('A' for Active; 'I' for Inactive)
REMARK    1  A    between atoms: O2_2  and  C3_3 
REMARK    2  A    between atoms: C6_6  and  N7_7 
REMARK       I    between atoms: N7_7  and  C8_8 
REMARK    3  A    between atoms: C8_8  and  C10_10 
REMARK    4  A    between atoms: C13_13  and  C14_14 
REMARK    5  A    between atoms: C14_14  and  N18_18 
REMARK    6  A    between atoms: C23_23  and  C24_24 
REMARK       I    between atoms: C24_24  and  N26_26 
REMARK    7  A    between atoms: N26_26  and  C27_27 
ROOT
ATOM      1  C3  ZIN A   1      17.013   6.526  14.702  0.00  0.00     0.069 A 
ATOM      2  C4  ZIN A   1      16.607   6.628  13.377  0.00  0.00     0.039 A 
ATOM      3  C5  ZIN A   1      16.763   5.562  12.515  0.00  0.00     0.033 A 
ATOM      4  C6  ZIN A   1      17.328   4.377  12.967  0.00  0.00     0.051 A 
ATOM      5  C23 ZIN A   1      17.740   4.267  14.303  0.00  0.00     0.061 A 
ATOM      6  C34 ZIN A   1      17.583   5.354  15.166  0.00  0.00     0.056 A 
ENDROOT
BRANCH   4   7
ATOM      7  N7  ZIN A   1      17.485   3.301  12.096  0.00  0.00    -0.322 N 
ATOM      8  C8  ZIN A   1      18.575   3.225  11.307  0.00  0.00     0.256 C 
ATOM      9  O9  ZIN A   1      19.478   4.028  11.440  0.00  0.00    -0.267 OA
ATOM     10  H40 ZIN A   1      16.809   2.605  12.058  0.00  0.00     0.169 HD
BRANCH   8  11
ATOM     11  C10 ZIN A   1      18.672   2.167  10.280  0.00  0.00     0.032 A 
ATOM     12  C22 ZIN A   1      18.150   0.896  10.533  0.00  0.00     0.018 A 
ATOM     13  C21 ZIN A   1      18.235  -0.087   9.572  0.00  0.00     0.016 A 
ATOM     14  C13 ZIN A   1      18.853   0.182   8.351  0.00  0.00     0.007 A 
ATOM     15  C12 ZIN A   1      19.379   1.449   8.099  0.00  0.00     0.016 A 
ATOM     16  C11 ZIN A   1      19.290   2.436   9.056  0.00  0.00     0.018 A 
BRANCH  14  17
ATOM     17  C14 ZIN A   1      18.950  -0.878   7.321  0.00  0.00     0.106 C 
ATOM     18  N15 ZIN A   1      19.496  -2.023   7.614  0.00  0.00    -0.385 N 
ATOM     19  H16 ZIN A   1      19.559  -2.717   6.939  0.00  0.00     0.157 HD
ATOM     20  H17 ZIN A   1      19.839  -2.182   8.507  0.00  0.00     0.157 HD
BRANCH  17  21
ATOM     21  N18 ZIN A   1      18.463  -0.652   6.052  0.00  0.00    -0.376 N 
ATOM     22  C19 ZIN A   1      19.346  -0.795   4.891  0.00  0.00     0.150 C 
ATOM     23  C20 ZIN A   1      17.062  -0.268   5.862  0.00  0.00     0.150 C 
ENDBRANCH  17  21
ENDBRANCH  14  17
ENDBRANCH   8  11
ENDBRANCH   4   7
BRANCH   5  24
ATOM     24  C24 ZIN A   1      18.342   3.013  14.792  0.00  0.00     0.259 C 
ATOM     25  O25 ZIN A   1      19.530   2.807  14.634  0.00  0.00    -0.267 OA
ATOM     26  N26 ZIN A   1      17.576   2.095  15.415  0.00  0.00    -0.307 N 
ATOM     27  H51 ZIN A   1      16.615   2.219  15.463  0.00  0.00     0.170 HD
BRANCH  26  28
ATOM     28  C27 ZIN A   1      18.164   0.969  15.987  0.00  0.00     0.130 A 
ATOM     29  N33 ZIN A   1      18.714   1.056  17.188  0.00  0.00    -0.242 NA
ATOM     30  C32 ZIN A   1      19.277   0.013  17.768  0.00  0.00     0.142 A 
ATOM     31  C30 ZIN A   1      19.321  -1.214  17.131  0.00  0.00     0.051 A 
ATOM     32  C29 ZIN A   1      18.759  -1.344  15.868  0.00  0.00     0.029 A 
ATOM     33 Cl31 ZIN A   1      20.071  -2.576  17.903  0.00  0.00    -0.083 Cl
ATOM     34  C28 ZIN A   1      18.172  -0.233  15.289  0.00  0.00     0.052 A 
ENDBRANCH  26  28
ENDBRANCH   5  24
BRANCH   1  35
ATOM     35  O2  ZIN A   1      16.856   7.582  15.543  0.00  0.00    -0.356 OA
ATOM     36  C1  ZIN A   1      17.233   8.868  15.046  0.00  0.00     0.210 C 
ENDBRANCH   1  35
TORSDOF 7
ENDMDL
MODEL 8
REMARK VINA RESULT:      -8.0      3.652      9.040
REMARK  7 active torsions:
REMARK  status: ('A' for Active; 'I' for Inactive)
REMARK    1  A    between atoms: O2_2  and  C3_3 
REMARK    2  A    between atoms: C6_6  and  N7_7 
REMARK       I    between atoms: N7_7  and  C8_8 
REMARK    3  A    between atoms: C8_8  and  C10_10 
REMARK    4  A    between atoms: C13_13  and  C14_14 
REMARK    5  A    between atoms: C14_14  and  N18_18 
REMARK    6  A    between atoms: C23_23  and  C24_24 
REMARK       I    between atoms: C24_24  and  N26_26 
REMARK    7  A    between atoms: N26_26  and  C27_27 
ROOT
ATOM      1  C3  ZIN A   1      17.016   5.808  12.986  0.00  0.00     0.069 A 
ATOM      2  C4  ZIN A   1      16.673   5.685  11.645  0.00  0.00     0.039 A 
ATOM      3  C5  ZIN A   1      16.854   4.486  10.986  0.00  0.00     0.033 A 
ATOM      4  C6  ZIN A   1      17.381   3.392  11.659  0.00  0.00     0.051 A 
ATOM      5  C23 ZIN A   1      17.729   3.510  13.013  0.00  0.00     0.061 A 
ATOM      6  C34 ZIN A   1      17.547   4.729  13.669  0.00  0.00     0.056 A 
ENDROOT
BRANCH   4   7
ATOM      7  N7  ZIN A   1      17.563   2.182  10.992  0.00  0.00    -0.322 N 
ATOM      8  C8  ZIN A   1      18.595   2.031  10.139  0.00  0.00     0.256 C 
ATOM      9  O9  ZIN A   1      19.435   2.904  10.041  0.00  0.00    -0.267 OA
ATOM     10  H40 ZIN A   1      16.947   1.448  11.143  0.00  0.00     0.169 HD
BRANCH   8  11
ATOM     11  C10 ZIN A   1      18.705   0.805   9.321  0.00  0.00     0.032 A 
ATOM     12  C22 ZIN A   1      19.760  -0.085   9.534  0.00  0.00     0.018 A 
ATOM     13  C21 ZIN A   1      19.858  -1.231   8.776  0.00  0.00     0.016 A 
ATOM     14  C13 ZIN A   1      18.910  -1.498   7.788  0.00  0.00     0.007 A 
ATOM     15  C12 ZIN A   1      17.858  -0.607   7.572  0.00  0.00     0.016 A 
ATOM     16  C11 ZIN A   1      17.755   0.537   8.333  0.00  0.00     0.018 A 
BRANCH  14  17
ATOM     17  C14 ZIN A   1      19.020  -2.727   6.969  0.00  0.00     0.106 C 
ATOM     18  N15 ZIN A   1      19.227  -2.639   5.687  0.00  0.00    -0.385 N 
ATOM     19  H16 ZIN A   1      19.299  -3.444   5.151  0.00  0.00     0.157 HD
ATOM     20  H17 ZIN A   1      19.309  -1.768   5.268  0.00  0.00     0.157 HD
BRANCH  17  21
ATOM     21  N18 ZIN A   1      18.902  -3.964   7.565  0.00  0.00    -0.376 N 
ATOM     22  C19 ZIN A   1      19.925  -4.988   7.334  0.00  0.00     0.150 C 
ATOM     23  C20 ZIN A   1      17.755  -4.256   8.427  0.00  0.00     0.150 C 
ENDBRANCH  17  21
ENDBRANCH  14  17
ENDBRANCH   8  11
ENDBRANCH   4   7
BRANCH   5  24
ATOM     24  C24 ZIN A   1      18.290   2.354  13.737  0.00  0.00     0.259 C 
ATOM     25  O25 ZIN A   1      19.410   1.958  13.476  0.00  0.00    -0.267 OA
ATOM     26  N26 ZIN A   1      17.562   1.736  14.688  0.00  0.00    -0.307 N 
ATOM     27  H51 ZIN A   1      16.638   1.995  14.836  0.00  0.00     0.170 HD
BRANCH  26  28
ATOM     28  C27 ZIN A   1      18.135   0.726  15.458  0.00  0.00     0.130 A 
ATOM     29  N33 ZIN A   1      18.702   1.026  16.616  0.00  0.00    -0.242 NA
ATOM     30  C32 ZIN A   1      19.252   0.100  17.378  0.00  0.00     0.142 A 
ATOM     31  C30 ZIN A   1      19.264  -1.226  16.985  0.00  0.00     0.051 A 
ATOM     32  C29 ZIN A   1      18.683  -1.581  15.774  0.00  0.00     0.029 A 
ATOM     33 Cl31 ZIN A   1      19.996  -2.433  17.994  0.00  0.00    -0.083 Cl
ATOM     34  C28 ZIN A   1      18.110  -0.587  15.000  0.00  0.00     0.052 A 
ENDBRANCH  26  28
ENDBRANCH   5  24
BRANCH   1  35
ATOM     35  O2  ZIN A   1      16.835   6.993  13.626  0.00  0.00    -0.356 OA
ATOM     36  C1  ZIN A   1      16.149   6.955  14.879  0.00  0.00     0.210 C 
ENDBRANCH   1  35
TORSDOF 7
ENDMDL
MODEL 9
REMARK VINA RESULT:      -7.7      3.449      8.504
REMARK  7 active torsions:
REMARK  status: ('A' for Active; 'I' for Inactive)
REMARK    1  A    between atoms: O2_2  and  C3_3 
REMARK    2  A    between atoms: C6_6  and  N7_7 
REMARK       I    between atoms: N7_7  and  C8_8 
REMARK    3  A    between atoms: C8_8  and  C10_10 
REMARK    4  A    between atoms: C13_13  and  C14_14 
REMARK    5  A    between atoms: C14_14  and  N18_18 
REMARK    6  A    between atoms: C23_23  and  C24_24 
REMARK       I    between atoms: C24_24  and  N26_26 
REMARK    7  A    between atoms: N26_26  and  C27_27 
ROOT
ATOM      1  C3  ZIN A   1      18.240   0.494  16.073  0.00  0.00     0.069 A 
ATOM      2  C4  ZIN A   1      18.477   1.730  15.484  0.00  0.00     0.039 A 
ATOM      3  C5  ZIN A   1      18.742   1.820  14.133  0.00  0.00     0.033 A 
ATOM      4  C6  ZIN A   1      18.776   0.673  13.351  0.00  0.00     0.051 A 
ATOM      5  C23 ZIN A   1      18.538  -0.578  13.939  0.00  0.00     0.061 A 
ATOM      6  C34 ZIN A   1      18.276  -0.658  15.309  0.00  0.00     0.056 A 
ENDROOT
BRANCH   4   7
ATOM      7  N7  ZIN A   1      19.044   0.765  11.987  0.00  0.00    -0.322 N 
ATOM      8  C8  ZIN A   1      18.029   0.822  11.103  0.00  0.00     0.256 C 
ATOM      9  O9  ZIN A   1      16.883   0.917  11.498  0.00  0.00    -0.267 OA
ATOM     10  H40 ZIN A   1      19.962   0.788  11.674  0.00  0.00     0.169 HD
BRANCH   8  11
ATOM     11  C10 ZIN A   1      18.308   0.769   9.652  0.00  0.00     0.032 A 
ATOM     12  C22 ZIN A   1      19.270   1.614   9.093  0.00  0.00     0.018 A 
ATOM     13  C21 ZIN A   1      19.533   1.559   7.743  0.00  0.00     0.016 A 
ATOM     14  C13 ZIN A   1      18.833   0.669   6.930  0.00  0.00     0.007 A 
ATOM     15  C12 ZIN A   1      17.868  -0.172   7.486  0.00  0.00     0.016 A 
ATOM     16  C11 ZIN A   1      17.606  -0.123   8.838  0.00  0.00     0.018 A 
BRANCH  14  17
ATOM     17  C14 ZIN A   1      19.112   0.615   5.476  0.00  0.00     0.106 C 
ATOM     18  N15 ZIN A   1      19.627   1.648   4.874  0.00  0.00    -0.385 N 
ATOM     19  H16 ZIN A   1      19.810   1.613   3.922  0.00  0.00     0.157 HD
ATOM     20  H17 ZIN A   1      19.826   2.453   5.377  0.00  0.00     0.157 HD
BRANCH  17  21
ATOM     21  N18 ZIN A   1      18.828  -0.528   4.762  0.00  0.00    -0.376 N 
ATOM     22  C19 ZIN A   1      17.742  -0.526   3.777  0.00  0.00     0.150 C 
ATOM     23  C20 ZIN A   1      19.609  -1.747   4.987  0.00  0.00     0.150 C 
ENDBRANCH  17  21
ENDBRANCH  14  17
ENDBRANCH   8  11
ENDBRANCH   4   7
BRANCH   5  24
ATOM     24  C24 ZIN A   1      18.572  -1.802  13.118  0.00  0.00     0.259 C 
ATOM     25  O25 ZIN A   1      19.454  -2.622  13.285  0.00  0.00    -0.267 OA
ATOM     26  N26 ZIN A   1      17.626  -2.012  12.181  0.00  0.00    -0.307 N 
ATOM     27  H51 ZIN A   1      16.974  -1.319  11.986  0.00  0.00     0.170 HD
BRANCH  26  28
ATOM     28  C27 ZIN A   1      17.583  -3.222  11.491  0.00  0.00     0.130 A 
ATOM     29  N33 ZIN A   1      16.701  -4.145  11.841  0.00  0.00    -0.242 NA
ATOM     30  C32 ZIN A   1      16.624  -5.302  11.212  0.00  0.00     0.142 A 
ATOM     31  C30 ZIN A   1      17.477  -5.597  10.164  0.00  0.00     0.051 A 
ATOM     32  C29 ZIN A   1      18.420  -4.656   9.770  0.00  0.00     0.029 A 
ATOM     33 Cl31 ZIN A   1      17.369  -7.126   9.349  0.00  0.00    -0.083 Cl
ATOM     34  C28 ZIN A   1      18.472  -3.450  10.447  0.00  0.00     0.052 A 
ENDBRANCH  26  28
ENDBRANCH   5  24
BRANCH   1  35
ATOM     35  O2  ZIN A   1      17.980   0.416  17.404  0.00  0.00    -0.356 OA
ATOM     36  C1  ZIN A   1      18.701   1.307  18.259  0.00  0.00     0.210 C 
ENDBRANCH   1  35
TORSDOF 7
ENDMDL
