MODEL 1
REMARK VINA RESULT:      -6.4      0.000      0.000
REMARK  4 active torsions:
REMARK  status: ('A' for Active; 'I' for Inactive)
REMARK    1  A    between atoms: C3_3  and  C4_4 
REMARK    2  A    between atoms: C4_4  and  N5_5 
REMARK    3  A    between atoms: C25_25  and  C26_26 
REMARK    4  A    between atoms: C26_26  and  N27_27 
ROOT
ATOM      1  C1  ZIN A   1      18.305  -0.812   8.670  0.00  0.00     0.009 A 
ATOM      2  C2  ZIN A   1      17.996  -1.991   8.016  0.00  0.00     0.009 A 
ATOM      3  C3  ZIN A   1      17.720  -3.133   8.744  0.00  0.00    -0.030 A 
ATOM      4  C23 ZIN A   1      17.751  -3.097  10.126  0.00  0.00     0.009 A 
ATOM      5  C24 ZIN A   1      18.060  -1.919  10.779  0.00  0.00     0.009 A 
ATOM      6  C25 ZIN A   1      18.337  -0.776  10.051  0.00  0.00    -0.030 A 
ENDROOT
BRANCH   3   7
ATOM      7  C4  ZIN A   1      17.382  -4.418   8.032  0.00  0.00     0.311 C 
BRANCH   7   8
ATOM      8  N5  ZIN A   1      18.494  -5.367   8.182  0.00  0.00     0.094 N 
ATOM      9  C22 ZIN A   1      19.345  -5.375   6.985  0.00  0.00     0.300 C 
ATOM     10  C21 ZIN A   1      19.033  -4.146   6.128  0.00  0.00     0.262 C 
ATOM     11  N18 ZIN A   1      18.810  -4.562   4.738  0.00  0.00    -0.073 N 
ATOM     12  C17 ZIN A   1      17.552  -3.982   4.249  0.00  0.00     0.234 C 
ATOM     13  H19 ZIN A   1      18.755  -5.570   4.693  0.00  0.00     0.277 HD
ATOM     14  H20 ZIN A   1      19.574  -4.241   4.163  0.00  0.00     0.277 HD
ATOM     15  C16 ZIN A   1      16.775  -5.038   3.459  0.00  0.00     0.057 C 
ATOM     16  C15 ZIN A   1      15.290  -4.952   3.815  0.00  0.00     0.271 C 
ATOM     17  N14 ZIN A   1      14.774  -6.299   4.093  0.00  0.00     0.085 N 
ATOM     18  C13 ZIN A   1      13.955  -6.307   5.312  0.00  0.00     0.297 C 
ATOM     19  H59 ZIN A   1      15.527  -6.968   4.158  0.00  0.00     0.315 HD
ATOM     20  C12 ZIN A   1      14.353  -7.499   6.186  0.00  0.00     0.262 C 
ATOM     21  N9  ZIN A   1      14.521  -7.054   7.575  0.00  0.00    -0.073 N 
ATOM     22  C8  ZIN A   1      15.717  -7.684   8.150  0.00  0.00     0.234 C 
ATOM     23  H10 ZIN A   1      13.710  -7.317   8.114  0.00  0.00     0.277 HD
ATOM     24  H11 ZIN A   1      14.627  -6.050   7.596  0.00  0.00     0.277 HD
ATOM     25  C7  ZIN A   1      16.530  -6.635   8.912  0.00  0.00     0.057 C 
ATOM     26  C6  ZIN A   1      17.997  -6.715   8.484  0.00  0.00     0.274 C 
ENDBRANCH   7   8
ENDBRANCH   3   7
BRANCH   6  27
ATOM     27  C26 ZIN A   1      18.674   0.509  10.763  0.00  0.00     0.311 C 
BRANCH  27  28
ATOM     28  N27 ZIN A   1      19.993   0.980  10.324  0.00  0.00     0.094 N 
ATOM     29  C44 ZIN A   1      21.010   0.734  11.355  0.00  0.00     0.300 C 
ATOM     30  C43 ZIN A   1      20.463  -0.255  12.386  0.00  0.00     0.262 C 
ATOM     31  N40 ZIN A   1      20.674   0.278  13.737  0.00  0.00    -0.073 N 
ATOM     32  C39 ZIN A   1      19.414   0.218  14.491  0.00  0.00     0.234 C 
ATOM     33  H41 ZIN A   1      20.984   1.236  13.677  0.00  0.00     0.277 HD
ATOM     34  H42 ZIN A   1      21.376  -0.274  14.210  0.00  0.00     0.277 HD
ATOM     35  C38 ZIN A   1      19.226   1.520  15.273  0.00  0.00     0.057 C 
ATOM     36  C37 ZIN A   1      17.765   1.964  15.180  0.00  0.00     0.271 C 
ATOM     37  N36 ZIN A   1      17.707   3.391  14.839  0.00  0.00     0.085 N 
ATOM     38  C35 ZIN A   1      16.721   3.641  13.779  0.00  0.00     0.297 C 
ATOM     39  H84 ZIN A   1      18.617   3.737  14.575  0.00  0.00     0.315 HD
ATOM     40  C34 ZIN A   1      17.330   4.564  12.723  0.00  0.00     0.262 C 
ATOM     41  N31 ZIN A   1      17.058   4.024  11.385  0.00  0.00    -0.073 N 
ATOM     42  C30 ZIN A   1      18.262   4.147  10.552  0.00  0.00     0.234 C 
ATOM     43  H32 ZIN A   1      16.302   4.540  10.961  0.00  0.00     0.277 HD
ATOM     44  H33 ZIN A   1      16.801   3.051  11.460  0.00  0.00     0.277 HD
ATOM     45  C29 ZIN A   1      18.492   2.841   9.790  0.00  0.00     0.057 C 
ATOM     46  C28 ZIN A   1      19.949   2.403   9.957  0.00  0.00     0.274 C 
ENDBRANCH  27  28
ENDBRANCH   6  27
TORSDOF 4
ENDMDL
MODEL 2
REMARK VINA RESULT:      -6.4      0.111     10.235
REMARK  4 active torsions:
REMARK  status: ('A' for Active; 'I' for Inactive)
REMARK    1  A    between atoms: C3_3  and  C4_4 
REMARK    2  A    between atoms: C4_4  and  N5_5 
REMARK    3  A    between atoms: C25_25  and  C26_26 
REMARK    4  A    between atoms: C26_26  and  N27_27 
ROOT
ATOM      1  C1  ZIN A   1      18.048  -1.908   8.020  0.00  0.00     0.009 A 
ATOM      2  C2  ZIN A   1      18.349  -0.731   8.680  0.00  0.00     0.009 A 
ATOM      3  C3  ZIN A   1      18.351  -0.695  10.061  0.00  0.00    -0.030 A 
ATOM      4  C23 ZIN A   1      18.054  -1.836  10.784  0.00  0.00     0.009 A 
ATOM      5  C24 ZIN A   1      17.753  -3.012  10.124  0.00  0.00     0.009 A 
ATOM      6  C25 ZIN A   1      17.751  -3.049   8.741  0.00  0.00    -0.030 A 
ENDROOT
BRANCH   3   7
ATOM      7  C4  ZIN A   1      18.680   0.588  10.782  0.00  0.00     0.311 C 
BRANCH   7   8
ATOM      8  N5  ZIN A   1      20.003   1.063  10.354  0.00  0.00     0.094 N 
ATOM      9  C22 ZIN A   1      21.022   0.775  11.373  0.00  0.00     0.300 C 
ATOM     10  C21 ZIN A   1      20.469  -0.245  12.371  0.00  0.00     0.262 C 
ATOM     11  N18 ZIN A   1      20.690   0.240  13.739  0.00  0.00    -0.073 N 
ATOM     12  C17 ZIN A   1      19.432   0.166  14.495  0.00  0.00     0.234 C 
ATOM     13  H19 ZIN A   1      21.007   1.199  13.710  0.00  0.00     0.277 HD
ATOM     14  H20 ZIN A   1      21.387  -0.331  14.191  0.00  0.00     0.277 HD
ATOM     15  C16 ZIN A   1      19.255   1.442  15.321  0.00  0.00     0.057 C 
ATOM     16  C15 ZIN A   1      17.797   1.899  15.247  0.00  0.00     0.271 C 
ATOM     17  N14 ZIN A   1      17.750   3.339  14.956  0.00  0.00     0.085 N 
ATOM     18  C13 ZIN A   1      16.763   3.631  13.909  0.00  0.00     0.297 C 
ATOM     19  H59 ZIN A   1      18.662   3.685  14.701  0.00  0.00     0.315 HD
ATOM     20  C12 ZIN A   1      17.376   4.585  12.881  0.00  0.00     0.262 C 
ATOM     21  N9  ZIN A   1      17.096   4.092  11.526  0.00  0.00    -0.073 N 
ATOM     22  C8  ZIN A   1      18.298   4.235  10.694  0.00  0.00     0.234 C 
ATOM     23  H10 ZIN A   1      16.342   4.627  11.122  0.00  0.00     0.277 HD
ATOM     24  H11 ZIN A   1      16.831   3.119  11.570  0.00  0.00     0.277 HD
ATOM     25  C7  ZIN A   1      18.515   2.952   9.888  0.00  0.00     0.057 C 
ATOM     26  C6  ZIN A   1      19.969   2.497  10.036  0.00  0.00     0.274 C 
ENDBRANCH   7   8
ENDBRANCH   3   7
BRANCH   6  27
ATOM     27  C26 ZIN A   1      17.422  -4.331   8.021  0.00  0.00     0.311 C 
BRANCH  27  28
ATOM     28  N27 ZIN A   1      18.533  -5.278   8.177  0.00  0.00     0.094 N 
ATOM     29  C44 ZIN A   1      19.395  -5.280   6.987  0.00  0.00     0.300 C 
ATOM     30  C43 ZIN A   1      19.088  -4.047   6.134  0.00  0.00     0.262 C 
ATOM     31  N40 ZIN A   1      18.877  -4.457   4.740  0.00  0.00    -0.073 N 
ATOM     32  C39 ZIN A   1      17.622  -3.877   4.242  0.00  0.00     0.234 C 
ATOM     33  H41 ZIN A   1      18.825  -5.463   4.688  0.00  0.00     0.277 HD
ATOM     34  H42 ZIN A   1      19.646  -4.131   4.173  0.00  0.00     0.277 HD
ATOM     35  C38 ZIN A   1      16.855  -4.930   3.440  0.00  0.00     0.057 C 
ATOM     36  C37 ZIN A   1      15.367  -4.848   3.783  0.00  0.00     0.271 C 
ATOM     37  N36 ZIN A   1      14.851  -6.197   4.051  0.00  0.00     0.085 N 
ATOM     38  C35 ZIN A   1      14.021  -6.214   5.263  0.00  0.00     0.297 C 
ATOM     39  H84 ZIN A   1      15.604  -6.866   4.119  0.00  0.00     0.315 HD
ATOM     40  C34 ZIN A   1      14.413  -7.409   6.133  0.00  0.00     0.262 C 
ATOM     41  N31 ZIN A   1      14.569  -6.970   7.526  0.00  0.00    -0.073 N 
ATOM     42  C30 ZIN A   1      15.761  -7.600   8.108  0.00  0.00     0.234 C 
ATOM     43  H32 ZIN A   1      13.754  -7.238   8.057  0.00  0.00     0.277 HD
ATOM     44  H33 ZIN A   1      14.672  -5.967   7.553  0.00  0.00     0.277 HD
ATOM     45  C29 ZIN A   1      16.565  -6.554   8.883  0.00  0.00     0.057 C 
ATOM     46  C28 ZIN A   1      18.036  -6.630   8.467  0.00  0.00     0.274 C 
ENDBRANCH  27  28
ENDBRANCH   6  27
TORSDOF 4
ENDMDL
MODEL 3
REMARK VINA RESULT:      -6.4      3.999      7.962
REMARK  4 active torsions:
REMARK  status: ('A' for Active; 'I' for Inactive)
REMARK    1  A    between atoms: C3_3  and  C4_4 
REMARK    2  A    between atoms: C4_4  and  N5_5 
REMARK    3  A    between atoms: C25_25  and  C26_26 
REMARK    4  A    between atoms: C26_26  and  N27_27 
ROOT
ATOM      1  C1  ZIN A   1      17.680   3.696  15.576  0.00  0.00     0.009 A 
ATOM      2  C2  ZIN A   1      18.228   2.710  14.775  0.00  0.00     0.009 A 
ATOM      3  C3  ZIN A   1      18.068   2.767  13.404  0.00  0.00    -0.030 A 
ATOM      4  C23 ZIN A   1      17.362   3.808  12.832  0.00  0.00     0.009 A 
ATOM      5  C24 ZIN A   1      16.814   4.793  13.632  0.00  0.00     0.009 A 
ATOM      6  C25 ZIN A   1      16.974   4.738  15.005  0.00  0.00    -0.030 A 
ENDROOT
BRANCH   3   7
ATOM      7  C4  ZIN A   1      18.666   1.693  12.531  0.00  0.00     0.311 C 
BRANCH   7   8
ATOM      8  N5  ZIN A   1      20.130   1.726  12.649  0.00  0.00     0.094 N 
ATOM      9  C22 ZIN A   1      20.753   2.110  11.375  0.00  0.00     0.300 C 
ATOM     10  C21 ZIN A   1      19.691   2.710  10.449  0.00  0.00     0.262 C 
ATOM     11  N18 ZIN A   1      19.769   2.065   9.132  0.00  0.00    -0.073 N 
ATOM     12  C17 ZIN A   1      18.430   1.615   8.727  0.00  0.00     0.234 C 
ATOM     13  H19 ZIN A   1      20.389   1.270   9.183  0.00  0.00     0.277 HD
ATOM     14  H20 ZIN A   1      20.121   2.724   8.455  0.00  0.00     0.277 HD
ATOM     15  C16 ZIN A   1      18.524   0.214   8.120  0.00  0.00     0.057 C 
ATOM     16  C15 ZIN A   1      17.356  -0.638   8.621  0.00  0.00     0.271 C 
ATOM     17  N14 ZIN A   1      17.860  -1.943   9.069  0.00  0.00     0.085 N 
ATOM     18  C13 ZIN A   1      17.273  -2.316  10.363  0.00  0.00     0.297 C 
ATOM     19  H59 ZIN A   1      18.867  -1.946   9.114  0.00  0.00     0.315 HD
ATOM     20  C12 ZIN A   1      18.374  -2.831  11.293  0.00  0.00     0.262 C 
ATOM     21  N9  ZIN A   1      18.236  -2.200  12.612  0.00  0.00    -0.073 N 
ATOM     22  C8  ZIN A   1      19.562  -1.816  13.113  0.00  0.00     0.234 C 
ATOM     23  H10 ZIN A   1      17.809  -2.851  13.254  0.00  0.00     0.277 HD
ATOM     24  H11 ZIN A   1      17.656  -1.378  12.533  0.00  0.00     0.277 HD
ATOM     25  C7  ZIN A   1      19.500  -0.400  13.690  0.00  0.00     0.057 C 
ATOM     26  C6  ZIN A   1      20.649   0.435  13.119  0.00  0.00     0.274 C 
ENDBRANCH   7   8
ENDBRANCH   3   7
BRANCH   6  27
ATOM     27  C26 ZIN A   1      16.377   5.811  15.877  0.00  0.00     0.311 C 
BRANCH  27  28
ATOM     28  N27 ZIN A   1      16.936   7.116  15.501  0.00  0.00     0.094 N 
ATOM     29  C44 ZIN A   1      17.849   7.616  16.536  0.00  0.00     0.300 C 
ATOM     30  C43 ZIN A   1      18.217   6.475  17.487  0.00  0.00     0.262 C 
ATOM     31  N40 ZIN A   1      18.022   6.911  18.875  0.00  0.00    -0.073 N 
ATOM     32  C39 ZIN A   1      17.217   5.914  19.594  0.00  0.00     0.234 C 
ATOM     33  H41 ZIN A   1      17.544   7.799  18.885  0.00  0.00     0.277 HD
ATOM     34  H42 ZIN A   1      18.920   7.007  19.327  0.00  0.00     0.277 HD
ATOM     35  C38 ZIN A   1      16.173   6.626  20.456  0.00  0.00     0.057 C 
ATOM     36  C37 ZIN A   1      14.839   5.884  20.359  0.00  0.00     0.271 C 
ATOM     37  N36 ZIN A   1      13.758   6.847  20.112  0.00  0.00     0.085 N 
ATOM     38  C35 ZIN A   1      12.863   6.374  19.048  0.00  0.00     0.297 C 
ATOM     39  H84 ZIN A   1      14.131   7.759  19.892  0.00  0.00     0.315 HD
ATOM     40  C34 ZIN A   1      12.585   7.516  18.069  0.00  0.00     0.262 C 
ATOM     41  N31 ZIN A   1      12.744   7.030  16.692  0.00  0.00    -0.073 N 
ATOM     42  C30 ZIN A   1      13.461   8.036  15.898  0.00  0.00     0.234 C 
ATOM     43  H32 ZIN A   1      11.835   6.867  16.286  0.00  0.00     0.277 HD
ATOM     44  H33 ZIN A   1      13.270   6.169  16.698  0.00  0.00     0.277 HD
ATOM     45  C29 ZIN A   1      14.538   7.348  15.056  0.00  0.00     0.057 C 
ATOM     46  C28 ZIN A   1      15.868   8.088  15.228  0.00  0.00     0.274 C 
ENDBRANCH  27  28
ENDBRANCH   6  27
TORSDOF 4
ENDMDL
MODEL 4
REMARK VINA RESULT:      -6.3      3.093     11.358
REMARK  4 active torsions:
REMARK  status: ('A' for Active; 'I' for Inactive)
REMARK    1  A    between atoms: C3_3  and  C4_4 
REMARK    2  A    between atoms: C4_4  and  N5_5 
REMARK    3  A    between atoms: C25_25  and  C26_26 
REMARK    4  A    between atoms: C26_26  and  N27_27 
ROOT
ATOM      1  C1  ZIN A   1      16.480  -6.195   5.545  0.00  0.00     0.009 A 
ATOM      2  C2  ZIN A   1      17.169  -5.175   6.175  0.00  0.00     0.009 A 
ATOM      3  C3  ZIN A   1      17.135  -5.066   7.552  0.00  0.00    -0.030 A 
ATOM      4  C23 ZIN A   1      16.411  -5.975   8.300  0.00  0.00     0.009 A 
ATOM      5  C24 ZIN A   1      15.722  -6.994   7.671  0.00  0.00     0.009 A 
ATOM      6  C25 ZIN A   1      15.756  -7.105   6.293  0.00  0.00    -0.030 A 
ENDROOT
BRANCH   3   7
ATOM      7  C4  ZIN A   1      17.887  -3.954   8.239  0.00  0.00     0.311 C 
BRANCH   7   8
ATOM      8  N5  ZIN A   1      19.276  -3.936   7.761  0.00  0.00     0.094 N 
ATOM      9  C22 ZIN A   1      20.211  -4.269   8.845  0.00  0.00     0.300 C 
ATOM     10  C21 ZIN A   1      19.437  -4.885  10.013  0.00  0.00     0.262 C 
ATOM     11  N18 ZIN A   1      19.813  -4.208  11.261  0.00  0.00    -0.073 N 
ATOM     12  C17 ZIN A   1      18.599  -3.798  11.980  0.00  0.00     0.234 C 
ATOM     13  H19 ZIN A   1      20.368  -3.392  11.048  0.00  0.00     0.277 HD
ATOM     14  H20 ZIN A   1      20.349  -4.838  11.838  0.00  0.00     0.277 HD
ATOM     15  C16 ZIN A   1      18.783  -2.381  12.527  0.00  0.00     0.057 C 
ATOM     16  C15 ZIN A   1      17.493  -1.584  12.321  0.00  0.00     0.271 C 
ATOM     17  N14 ZIN A   1      17.816  -0.271  11.744  0.00  0.00     0.085 N 
ATOM     18  C13 ZIN A   1      16.912   0.051  10.632  0.00  0.00     0.297 C 
ATOM     19  H59 ZIN A   1      18.780  -0.233  11.450  0.00  0.00     0.315 HD
ATOM     20  C12 ZIN A   1      17.726   0.583   9.451  0.00  0.00     0.262 C 
ATOM     21  N9  ZIN A   1      17.292  -0.083   8.216  0.00  0.00    -0.073 N 
ATOM     22  C8  ZIN A   1      18.467  -0.429   7.407  0.00  0.00     0.234 C 
ATOM     23  H10 ZIN A   1      16.693   0.538   7.691  0.00  0.00     0.277 HD
ATOM     24  H11 ZIN A   1      16.783  -0.923   8.448  0.00  0.00     0.277 HD
ATOM     25  C7  ZIN A   1      18.322  -1.860   6.882  0.00  0.00     0.057 C 
ATOM     26  C6  ZIN A   1      19.609  -2.639   7.160  0.00  0.00     0.274 C 
ENDBRANCH   7   8
ENDBRANCH   3   7
BRANCH   6  27
ATOM     27  C26 ZIN A   1      15.005  -8.215   5.606  0.00  0.00     0.311 C 
BRANCH  27  28
ATOM     28  N27 ZIN A   1      14.904  -9.370   6.508  0.00  0.00     0.094 N 
ATOM     29  C44 ZIN A   1      15.920 -10.380   6.186  0.00  0.00     0.300 C 
ATOM     30  C43 ZIN A   1      16.983  -9.763   5.275  0.00  0.00     0.262 C 
ATOM     31  N40 ZIN A   1      17.201 -10.635   4.115  0.00  0.00    -0.073 N 
ATOM     32  C39 ZIN A   1      17.118  -9.840   2.881  0.00  0.00     0.234 C 
ATOM     33  H41 ZIN A   1      16.495 -11.355   4.097  0.00  0.00     0.277 HD
ATOM     34  H42 ZIN A   1      18.115 -11.060   4.180  0.00  0.00     0.277 HD
ATOM     35  C38 ZIN A   1      16.311 -10.608   1.833  0.00  0.00     0.057 C 
ATOM     36  C37 ZIN A   1      15.374  -9.643   1.103  0.00  0.00     0.271 C 
ATOM     37  N36 ZIN A   1      14.026 -10.223   1.038  0.00  0.00     0.085 N 
ATOM     38  C35 ZIN A   1      13.007  -9.230   1.399  0.00  0.00     0.297 C 
ATOM     39  H84 ZIN A   1      13.957 -11.042   1.623  0.00  0.00     0.315 HD
ATOM     40  C34 ZIN A   1      12.009  -9.855   2.376  0.00  0.00     0.262 C 
ATOM     41  N31 ZIN A   1      11.781  -8.935   3.498  0.00  0.00    -0.073 N 
ATOM     42  C30 ZIN A   1      11.757  -9.693   4.756  0.00  0.00     0.234 C 
ATOM     43  H32 ZIN A   1      10.898  -8.463   3.373  0.00  0.00     0.277 HD
ATOM     44  H33 ZIN A   1      12.525  -8.254   3.531  0.00  0.00     0.277 HD
ATOM     45  C29 ZIN A   1      12.592  -8.962   5.809  0.00  0.00     0.057 C 
ATOM     46  C28 ZIN A   1      13.555  -9.950   6.473  0.00  0.00     0.274 C 
ENDBRANCH  27  28
ENDBRANCH   6  27
TORSDOF 4
ENDMDL
MODEL 5
REMARK VINA RESULT:      -6.2      3.986     12.333
REMARK  4 active torsions:
REMARK  status: ('A' for Active; 'I' for Inactive)
REMARK    1  A    between atoms: C3_3  and  C4_4 
REMARK    2  A    between atoms: C4_4  and  N5_5 
REMARK    3  A    between atoms: C25_25  and  C26_26 
REMARK    4  A    between atoms: C26_26  and  N27_27 
ROOT
ATOM      1  C1  ZIN A   1      18.281   2.764  14.692  0.00  0.00     0.009 A 
ATOM      2  C2  ZIN A   1      17.727   3.727  15.516  0.00  0.00     0.009 A 
ATOM      3  C3  ZIN A   1      17.000   4.767  14.971  0.00  0.00    -0.030 A 
ATOM      4  C23 ZIN A   1      16.824   4.846  13.602  0.00  0.00     0.009 A 
ATOM      5  C24 ZIN A   1      17.377   3.884  12.778  0.00  0.00     0.009 A 
ATOM      6  C25 ZIN A   1      18.105   2.842  13.323  0.00  0.00    -0.030 A 
ENDROOT
BRANCH   3   7
ATOM      7  C4  ZIN A   1      16.396   5.816  15.870  0.00  0.00     0.311 C 
BRANCH   7   8
ATOM      8  N5  ZIN A   1      16.885   7.143  15.470  0.00  0.00     0.094 N 
ATOM      9  C22 ZIN A   1      17.817   7.684  16.468  0.00  0.00     0.300 C 
ATOM     10  C21 ZIN A   1      18.269   6.561  17.405  0.00  0.00     0.262 C 
ATOM     11  N18 ZIN A   1      18.111   6.992  18.799  0.00  0.00    -0.073 N 
ATOM     12  C17 ZIN A   1      17.377   5.964  19.550  0.00  0.00     0.234 C 
ATOM     13  H19 ZIN A   1      17.595   7.860  18.827  0.00  0.00     0.277 HD
ATOM     14  H20 ZIN A   1      19.019   7.128  19.215  0.00  0.00     0.277 HD
ATOM     15  C16 ZIN A   1      16.338   6.635  20.451  0.00  0.00     0.057 C 
ATOM     16  C15 ZIN A   1      15.033   5.836  20.406  0.00  0.00     0.271 C 
ATOM     17  N14 ZIN A   1      13.904   6.754  20.202  0.00  0.00     0.085 N 
ATOM     18  C13 ZIN A   1      12.989   6.240  19.175  0.00  0.00     0.297 C 
ATOM     19  H59 ZIN A   1      14.229   7.679  19.967  0.00  0.00     0.315 HD
ATOM     20  C12 ZIN A   1      12.625   7.367  18.206  0.00  0.00     0.262 C 
ATOM     21  N9  ZIN A   1      12.750   6.884  16.824  0.00  0.00    -0.073 N 
ATOM     22  C8  ZIN A   1      13.393   7.918  16.001  0.00  0.00     0.234 C 
ATOM     23  H10 ZIN A   1      11.834   6.681  16.454  0.00  0.00     0.277 HD
ATOM     24  H11 ZIN A   1      13.312   6.046  16.810  0.00  0.00     0.277 HD
ATOM     25  C7  ZIN A   1      14.465   7.274  15.119  0.00  0.00     0.057 C 
ATOM     26  C6  ZIN A   1      15.768   8.067  15.238  0.00  0.00     0.274 C 
ENDBRANCH   7   8
ENDBRANCH   3   7
BRANCH   6  27
ATOM     27  C26 ZIN A   1      18.709   1.793  12.425  0.00  0.00     0.311 C 
BRANCH  27  28
ATOM     28  N27 ZIN A   1      20.173   1.877  12.490  0.00  0.00     0.094 N 
ATOM     29  C44 ZIN A   1      20.738   2.249  11.187  0.00  0.00     0.300 C 
ATOM     30  C43 ZIN A   1      19.627   2.790  10.285  0.00  0.00     0.262 C 
ATOM     31  N40 ZIN A   1      19.681   2.115   8.982  0.00  0.00    -0.073 N 
ATOM     32  C39 ZIN A   1      18.344   1.611   8.635  0.00  0.00     0.234 C 
ATOM     33  H41 ZIN A   1      20.328   1.343   9.029  0.00  0.00     0.277 HD
ATOM     34  H42 ZIN A   1      19.987   2.769   8.277  0.00  0.00     0.277 HD
ATOM     35  C38 ZIN A   1      18.465   0.200   8.058  0.00  0.00     0.057 C 
ATOM     36  C37 ZIN A   1      17.344  -0.678   8.620  0.00  0.00     0.271 C 
ATOM     37  N36 ZIN A   1      17.906  -1.954   9.082  0.00  0.00     0.085 N 
ATOM     38  C35 ZIN A   1      17.377  -2.313  10.405  0.00  0.00     0.297 C 
ATOM     39  H84 ZIN A   1      18.914  -1.922   9.092  0.00  0.00     0.315 HD
ATOM     40  C34 ZIN A   1      18.526  -2.768  11.307  0.00  0.00     0.262 C 
ATOM     41  N31 ZIN A   1      18.412  -2.109  12.615  0.00  0.00    -0.073 N 
ATOM     42  C30 ZIN A   1      19.741  -1.669  13.058  0.00  0.00     0.234 C 
ATOM     43  H32 ZIN A   1      18.031  -2.757  13.286  0.00  0.00     0.277 HD
ATOM     44  H33 ZIN A   1      17.802  -1.309  12.536  0.00  0.00     0.277 HD
ATOM     45  C29 ZIN A   1      19.651  -0.242  13.604  0.00  0.00     0.057 C 
ATOM     46  C28 ZIN A   1      20.752   0.615  12.973  0.00  0.00     0.274 C 
ENDBRANCH  27  28
ENDBRANCH   6  27
TORSDOF 4
ENDMDL
MODEL 6
REMARK VINA RESULT:      -6.1      2.893      5.601
REMARK  4 active torsions:
REMARK  status: ('A' for Active; 'I' for Inactive)
REMARK    1  A    between atoms: C3_3  and  C4_4 
REMARK    2  A    between atoms: C4_4  and  N5_5 
REMARK    3  A    between atoms: C25_25  and  C26_26 
REMARK    4  A    between atoms: C26_26  and  N27_27 
ROOT
ATOM      1  C1  ZIN A   1      17.731   2.795  12.500  0.00  0.00     0.009 A 
ATOM      2  C2  ZIN A   1      18.017   1.602  11.862  0.00  0.00     0.009 A 
ATOM      3  C3  ZIN A   1      18.265   0.464  12.604  0.00  0.00    -0.030 A 
ATOM      4  C23 ZIN A   1      18.226   0.516  13.985  0.00  0.00     0.009 A 
ATOM      5  C24 ZIN A   1      17.940   1.708  14.623  0.00  0.00     0.009 A 
ATOM      6  C25 ZIN A   1      17.691   2.848  13.881  0.00  0.00    -0.030 A 
ENDROOT
BRANCH   3   7
ATOM      7  C4  ZIN A   1      18.577  -0.837  11.908  0.00  0.00     0.311 C 
BRANCH   7   8
ATOM      8  N5  ZIN A   1      19.895  -1.320  12.341  0.00  0.00     0.094 N 
ATOM      9  C22 ZIN A   1      20.938  -0.938  11.379  0.00  0.00     0.300 C 
ATOM     10  C21 ZIN A   1      20.395   0.143  10.441  0.00  0.00     0.262 C 
ATOM     11  N18 ZIN A   1      20.666  -0.236   9.048  0.00  0.00    -0.073 N 
ATOM     12  C17 ZIN A   1      19.430  -0.128   8.262  0.00  0.00     0.234 C 
ATOM     13  H19 ZIN A   1      21.002  -1.188   9.018  0.00  0.00     0.277 HD
ATOM     14  H20 ZIN A   1      21.366   0.379   8.662  0.00  0.00     0.277 HD
ATOM     15  C16 ZIN A   1      19.304  -1.342   7.339  0.00  0.00     0.057 C 
ATOM     16  C15 ZIN A   1      17.854  -1.830   7.333  0.00  0.00     0.271 C 
ATOM     17  N14 ZIN A   1      17.827  -3.288   7.516  0.00  0.00     0.085 N 
ATOM     18  C13 ZIN A   1      16.815  -3.674   8.508  0.00  0.00     0.297 C 
ATOM     19  H59 ZIN A   1      18.738  -3.636   7.774  0.00  0.00     0.315 HD
ATOM     20  C12 ZIN A   1      17.416  -4.690   9.481  0.00  0.00     0.262 C 
ATOM     21  N9  ZIN A   1      17.085  -4.304  10.859  0.00  0.00    -0.073 N 
ATOM     22  C8  ZIN A   1      18.265  -4.486  11.716  0.00  0.00     0.234 C 
ATOM     23  H10 ZIN A   1      16.330  -4.881  11.199  0.00  0.00     0.277 HD
ATOM     24  H11 ZIN A   1      16.803  -3.335  10.879  0.00  0.00     0.277 HD
ATOM     25  C7  ZIN A   1      18.432  -3.264  12.621  0.00  0.00     0.057 C 
ATOM     26  C6  ZIN A   1      19.880  -2.773  12.552  0.00  0.00     0.274 C 
ENDBRANCH   7   8
ENDBRANCH   3   7
BRANCH   6  27
ATOM     27  C26 ZIN A   1      17.380   4.148  14.576  0.00  0.00     0.311 C 
BRANCH  27  28
ATOM     28  N27 ZIN A   1      18.379   5.156  14.200  0.00  0.00     0.094 N 
ATOM     29  C44 ZIN A   1      19.458   5.224  15.195  0.00  0.00     0.300 C 
ATOM     30  C43 ZIN A   1      19.400   3.989  16.096  0.00  0.00     0.262 C 
ATOM     31  N40 ZIN A   1      19.445   4.406  17.503  0.00  0.00    -0.073 N 
ATOM     32  C39 ZIN A   1      18.351   3.761  18.242  0.00  0.00     0.234 C 
ATOM     33  H41 ZIN A   1      19.344   5.407  17.561  0.00  0.00     0.277 HD
ATOM     34  H42 ZIN A   1      20.330   4.133  17.907  0.00  0.00     0.277 HD
ATOM     35  C38 ZIN A   1      17.696   4.779  19.177  0.00  0.00     0.057 C 
ATOM     36  C37 ZIN A   1      16.177   4.606  19.136  0.00  0.00     0.271 C 
ATOM     37  N36 ZIN A   1      15.538   5.919  18.973  0.00  0.00     0.085 N 
ATOM     38  C35 ZIN A   1      14.486   5.869  17.949  0.00  0.00     0.297 C 
ATOM     39  H84 ZIN A   1      16.222   6.629  18.755  0.00  0.00     0.315 HD
ATOM     40  C34 ZIN A   1      14.625   7.073  17.015  0.00  0.00     0.262 C 
ATOM     41  N31 ZIN A   1      14.528   6.623  15.620  0.00  0.00    -0.073 N 
ATOM     42  C30 ZIN A   1      15.542   7.313  14.812  0.00  0.00     0.234 C 
ATOM     43  H32 ZIN A   1      13.610   6.836  15.261  0.00  0.00     0.277 HD
ATOM     44  H33 ZIN A   1      14.684   5.627  15.576  0.00  0.00     0.277 HD
ATOM     45  C29 ZIN A   1      16.237   6.304  13.895  0.00  0.00     0.057 C 
ATOM     46  C28 ZIN A   1      17.755   6.472  14.011  0.00  0.00     0.274 C 
ENDBRANCH  27  28
ENDBRANCH   6  27
TORSDOF 4
ENDMDL
MODEL 7
REMARK VINA RESULT:      -6.1      1.498      1.959
REMARK  4 active torsions:
REMARK  status: ('A' for Active; 'I' for Inactive)
REMARK    1  A    between atoms: C3_3  and  C4_4 
REMARK    2  A    between atoms: C4_4  and  N5_5 
REMARK    3  A    between atoms: C25_25  and  C26_26 
REMARK    4  A    between atoms: C26_26  and  N27_27 
ROOT
ATOM      1  C1  ZIN A   1      18.046  -2.597   8.422  0.00  0.00     0.009 A 
ATOM      2  C2  ZIN A   1      17.487  -3.637   7.703  0.00  0.00     0.009 A 
ATOM      3  C3  ZIN A   1      16.873  -4.683   8.364  0.00  0.00    -0.030 A 
ATOM      4  C23 ZIN A   1      16.818  -4.691   9.746  0.00  0.00     0.009 A 
ATOM      5  C24 ZIN A   1      17.377  -3.652  10.465  0.00  0.00     0.009 A 
ATOM      6  C25 ZIN A   1      17.991  -2.603   9.804  0.00  0.00    -0.030 A 
ENDROOT
BRANCH   3   7
ATOM      7  C4  ZIN A   1      16.263  -5.816   7.580  0.00  0.00     0.311 C 
BRANCH   7   8
ATOM      8  N5  ZIN A   1      16.980  -7.062   7.882  0.00  0.00     0.094 N 
ATOM      9  C22 ZIN A   1      18.126  -7.243   6.981  0.00  0.00     0.300 C 
ATOM     10  C21 ZIN A   1      18.431  -5.921   6.273  0.00  0.00     0.262 C 
ATOM     11  N18 ZIN A   1      18.548  -6.154   4.828  0.00  0.00    -0.073 N 
ATOM     12  C17 ZIN A   1      17.704  -5.191   4.106  0.00  0.00     0.234 C 
ATOM     13  H19 ZIN A   1      18.245  -7.093   4.613  0.00  0.00     0.277 HD
ATOM     14  H20 ZIN A   1      19.509  -6.037   4.544  0.00  0.00     0.277 HD
ATOM     15  C16 ZIN A   1      16.960  -5.910   2.979  0.00  0.00     0.057 C 
ATOM     16  C15 ZIN A   1      15.516  -5.408   2.920  0.00  0.00     0.271 C 
ATOM     17  N14 ZIN A   1      14.602  -6.555   2.831  0.00  0.00     0.085 N 
ATOM     18  C13 ZIN A   1      13.474  -6.402   3.759  0.00  0.00     0.297 C 
ATOM     19  H59 ZIN A   1      15.093  -7.421   2.996  0.00  0.00     0.315 HD
ATOM     20  C12 ZIN A   1      13.252  -7.715   4.512  0.00  0.00     0.262 C 
ATOM     21  N9  ZIN A   1      13.093  -7.437   5.946  0.00  0.00    -0.073 N 
ATOM     22  C8  ZIN A   1      13.841  -8.434   6.723  0.00  0.00     0.234 C 
ATOM     23  H10 ZIN A   1      12.116  -7.483   6.192  0.00  0.00     0.277 HD
ATOM     24  H11 ZIN A   1      13.449  -6.515   6.151  0.00  0.00     0.277 HD
ATOM     25  C7  ZIN A   1      14.625  -7.732   7.834  0.00  0.00     0.057 C 
ATOM     26  C6  ZIN A   1      16.076  -8.218   7.821  0.00  0.00     0.274 C 
ENDBRANCH   7   8
ENDBRANCH   3   7
BRANCH   6  27
ATOM     27  C26 ZIN A   1      18.601  -1.471  10.587  0.00  0.00     0.311 C 
BRANCH  27  28
ATOM     28  N27 ZIN A   1      20.049  -1.432  10.346  0.00  0.00     0.094 N 
ATOM     29  C44 ZIN A   1      20.796  -1.735  11.574  0.00  0.00     0.300 C 
ATOM     30  C43 ZIN A   1      19.850  -2.352  12.607  0.00  0.00     0.262 C 
ATOM     31  N40 ZIN A   1      20.002  -1.654  13.890  0.00  0.00    -0.073 N 
ATOM     32  C39 ZIN A   1      18.679  -1.258  14.392  0.00  0.00     0.234 C 
ATOM     33  H41 ZIN A   1      20.571  -0.831  13.760  0.00  0.00     0.277 HD
ATOM     34  H42 ZIN A   1      20.445  -2.268  14.557  0.00  0.00     0.277 HD
ATOM     35  C38 ZIN A   1      18.747   0.168  14.942  0.00  0.00     0.057 C 
ATOM     36  C37 ZIN A   1      17.497   0.940  14.515  0.00  0.00     0.271 C 
ATOM     37  N36 ZIN A   1      17.889   2.250  13.979  0.00  0.00     0.085 N 
ATOM     38  C35 ZIN A   1      17.177   2.543  12.728  0.00  0.00     0.297 C 
ATOM     39  H84 ZIN A   1      18.888   2.303  13.848  0.00  0.00     0.315 HD
ATOM     40  C34 ZIN A   1      18.167   3.077  11.691  0.00  0.00     0.262 C 
ATOM     41  N31 ZIN A   1      17.953   2.389  10.411  0.00  0.00    -0.073 N 
ATOM     42  C30 ZIN A   1      19.253   2.055   9.813  0.00  0.00     0.234 C 
ATOM     43  H32 ZIN A   1      17.441   2.993   9.786  0.00  0.00     0.277 HD
ATOM     44  H33 ZIN A   1      17.428   1.542  10.568  0.00  0.00     0.277 HD
ATOM     45  C29 ZIN A   1      19.219   0.616   9.291  0.00  0.00     0.057 C 
ATOM     46  C28 ZIN A   1      20.456  -0.135   9.789  0.00  0.00     0.274 C 
ENDBRANCH  27  28
ENDBRANCH   6  27
TORSDOF 4
ENDMDL
MODEL 8
REMARK VINA RESULT:      -5.7      1.065      1.772
REMARK  4 active torsions:
REMARK  status: ('A' for Active; 'I' for Inactive)
REMARK    1  A    between atoms: C3_3  and  C4_4 
REMARK    2  A    between atoms: C4_4  and  N5_5 
REMARK    3  A    between atoms: C25_25  and  C26_26 
REMARK    4  A    between atoms: C26_26  and  N27_27 
ROOT
ATOM      1  C1  ZIN A   1      17.918  -1.643   9.357  0.00  0.00     0.009 A 
ATOM      2  C2  ZIN A   1      17.556  -2.651   8.482  0.00  0.00     0.009 A 
ATOM      3  C3  ZIN A   1      17.745  -3.973   8.834  0.00  0.00    -0.030 A 
ATOM      4  C23 ZIN A   1      18.297  -4.290  10.061  0.00  0.00     0.009 A 
ATOM      5  C24 ZIN A   1      18.660  -3.283  10.936  0.00  0.00     0.009 A 
ATOM      6  C25 ZIN A   1      18.470  -1.959  10.584  0.00  0.00    -0.030 A 
ENDROOT
BRANCH   3   7
ATOM      7  C4  ZIN A   1      17.349  -5.071   7.880  0.00  0.00     0.311 C 
BRANCH   7   8
ATOM      8  N5  ZIN A   1      18.421  -6.074   7.817  0.00  0.00     0.094 N 
ATOM      9  C22 ZIN A   1      19.173  -5.963   6.560  0.00  0.00     0.300 C 
ATOM     10  C21 ZIN A   1      18.855  -4.623   5.892  0.00  0.00     0.262 C 
ATOM     11  N18 ZIN A   1      18.502  -4.849   4.485  0.00  0.00    -0.073 N 
ATOM     12  C17 ZIN A   1      17.239  -4.163   4.180  0.00  0.00     0.234 C 
ATOM     13  H19 ZIN A   1      18.394  -5.840   4.319  0.00  0.00     0.277 HD
ATOM     14  H20 ZIN A   1      19.233  -4.488   3.892  0.00  0.00     0.277 HD
ATOM     15  C16 ZIN A   1      16.352  -5.079   3.334  0.00  0.00     0.057 C 
ATOM     16  C15 ZIN A   1      14.905  -4.981   3.823  0.00  0.00     0.271 C 
ATOM     17  N14 ZIN A   1      14.347  -6.332   3.974  0.00  0.00     0.085 N 
ATOM     18  C13 ZIN A   1      13.628  -6.463   5.248  0.00  0.00     0.297 C 
ATOM     19  H59 ZIN A   1      15.069  -7.031   3.891  0.00  0.00     0.315 HD
ATOM     20  C12 ZIN A   1      14.034  -7.772   5.930  0.00  0.00     0.262 C 
ATOM     21  N9  ZIN A   1      14.334  -7.514   7.345  0.00  0.00    -0.073 N 
ATOM     22  C8  ZIN A   1      15.539  -8.258   7.733  0.00  0.00     0.234 C 
ATOM     23  H10 ZIN A   1      13.556  -7.813   7.914  0.00  0.00     0.277 HD
ATOM     24  H11 ZIN A   1      14.491  -6.526   7.481  0.00  0.00     0.277 HD
ATOM     25  C7  ZIN A   1      16.461  -7.348   8.548  0.00  0.00     0.057 C 
ATOM     26  C6  ZIN A   1      17.883  -7.430   7.990  0.00  0.00     0.274 C 
ENDBRANCH   7   8
ENDBRANCH   3   7
BRANCH   6  27
ATOM     27  C26 ZIN A   1      18.866  -0.862  11.537  0.00  0.00     0.311 C 
BRANCH  27  28
ATOM     28  N27 ZIN A   1      20.324  -0.862  11.706  0.00  0.00     0.094 N 
ATOM     29  C44 ZIN A   1      20.699  -0.405  13.050  0.00  0.00     0.300 C 
ATOM     30  C43 ZIN A   1      19.469  -0.433  13.960  0.00  0.00     0.262 C 
ATOM     31  N40 ZIN A   1      19.345   0.854  14.656  0.00  0.00    -0.073 N 
ATOM     32  C39 ZIN A   1      17.977   1.367  14.499  0.00  0.00     0.234 C 
ATOM     33  H41 ZIN A   1      19.999   1.514  14.263  0.00  0.00     0.277 HD
ATOM     34  H42 ZIN A   1      19.545   0.726  15.638  0.00  0.00     0.277 HD
ATOM     35  C38 ZIN A   1      18.027   2.866  14.196  0.00  0.00     0.057 C 
ATOM     36  C37 ZIN A   1      17.002   3.201  13.110  0.00  0.00     0.271 C 
ATOM     37  N36 ZIN A   1      17.632   4.041  12.084  0.00  0.00     0.085 N 
ATOM     38  C35 ZIN A   1      17.296   3.567  10.735  0.00  0.00     0.297 C 
ATOM     39  H84 ZIN A   1      18.632   4.083  12.214  0.00  0.00     0.315 HD
ATOM     40  C34 ZIN A   1      18.563   3.526   9.878  0.00  0.00     0.262 C 
ATOM     41  N31 ZIN A   1      18.627   2.245   9.162  0.00  0.00    -0.073 N 
ATOM     42  C30 ZIN A   1      20.003   1.729   9.203  0.00  0.00     0.234 C 
ATOM     43  H32 ZIN A   1      18.349   2.382   8.202  0.00  0.00     0.277 HD
ATOM     44  H33 ZIN A   1      18.007   1.582   9.601  0.00  0.00     0.277 HD
ATOM     45  C29 ZIN A   1      19.978   0.238   9.544  0.00  0.00     0.057 C 
ATOM     46  C28 ZIN A   1      20.974  -0.043  10.673  0.00  0.00     0.274 C 
ENDBRANCH  27  28
ENDBRANCH   6  27
TORSDOF 4
ENDMDL
MODEL 9
REMARK VINA RESULT:      -5.5      1.964      3.026
REMARK  4 active torsions:
REMARK  status: ('A' for Active; 'I' for Inactive)
REMARK    1  A    between atoms: C3_3  and  C4_4 
REMARK    2  A    between atoms: C4_4  and  N5_5 
REMARK    3  A    between atoms: C25_25  and  C26_26 
REMARK    4  A    between atoms: C26_26  and  N27_27 
ROOT
ATOM      1  C1  ZIN A   1      18.464  -2.901   7.926  0.00  0.00     0.009 A 
ATOM      2  C2  ZIN A   1      17.968  -3.935   7.153  0.00  0.00     0.009 A 
ATOM      3  C3  ZIN A   1      17.107  -4.861   7.710  0.00  0.00    -0.030 A 
ATOM      4  C23 ZIN A   1      16.741  -4.755   9.038  0.00  0.00     0.009 A 
ATOM      5  C24 ZIN A   1      17.237  -3.722   9.811  0.00  0.00     0.009 A 
ATOM      6  C25 ZIN A   1      18.098  -2.794   9.255  0.00  0.00    -0.030 A 
ENDROOT
BRANCH   3   7
ATOM      7  C4  ZIN A   1      16.565  -5.988   6.867  0.00  0.00     0.311 C 
BRANCH   7   8
ATOM      8  N5  ZIN A   1      17.498  -6.267   5.766  0.00  0.00     0.094 N 
ATOM      9  C22 ZIN A   1      16.823  -6.161   4.465  0.00  0.00     0.300 C 
ATOM     10  C21 ZIN A   1      15.485  -5.439   4.642  0.00  0.00     0.262 C 
ATOM     11  N18 ZIN A   1      14.420  -6.216   3.994  0.00  0.00    -0.073 N 
ATOM     12  C17 ZIN A   1      13.306  -6.399   4.934  0.00  0.00     0.234 C 
ATOM     13  H19 ZIN A   1      14.781  -7.119   3.721  0.00  0.00     0.277 HD
ATOM     14  H20 ZIN A   1      14.094  -5.724   3.177  0.00  0.00     0.277 HD
ATOM     15  C16 ZIN A   1      12.801  -7.842   4.853  0.00  0.00     0.057 C 
ATOM     16  C15 ZIN A   1      12.510  -8.360   6.263  0.00  0.00     0.271 C 
ATOM     17  N14 ZIN A   1      13.109  -9.691   6.428  0.00  0.00     0.085 N 
ATOM     18  C13 ZIN A   1      13.820  -9.792   7.709  0.00  0.00     0.297 C 
ATOM     19  H59 ZIN A   1      13.719  -9.911   5.656  0.00  0.00     0.315 HD
ATOM     20  C12 ZIN A   1      15.188 -10.438   7.483  0.00  0.00     0.262 C 
ATOM     21  N9  ZIN A   1      16.220  -9.661   8.183  0.00  0.00    -0.073 N 
ATOM     22  C8  ZIN A   1      17.402  -9.530   7.322  0.00  0.00     0.234 C 
ATOM     23  H10 ZIN A   1      16.476 -10.133   9.037  0.00  0.00     0.277 HD
ATOM     24  H11 ZIN A   1      15.859  -8.744   8.401  0.00  0.00     0.277 HD
ATOM     25  C7  ZIN A   1      17.902  -8.083   7.358  0.00  0.00     0.057 C 
ATOM     26  C6  ZIN A   1      18.124  -7.585   5.928  0.00  0.00     0.274 C 
ENDBRANCH   7   8
ENDBRANCH   3   7
BRANCH   6  27
ATOM     27  C26 ZIN A   1      18.640  -1.668  10.096  0.00  0.00     0.311 C 
BRANCH  27  28
ATOM     28  N27 ZIN A   1      20.087  -1.548   9.882  0.00  0.00     0.094 N 
ATOM     29  C44 ZIN A   1      20.830  -1.895  11.101  0.00  0.00     0.300 C 
ATOM     30  C43 ZIN A   1      19.901  -2.619  12.076  0.00  0.00     0.262 C 
ATOM     31  N40 ZIN A   1      20.002  -1.999  13.403  0.00  0.00    -0.073 N 
ATOM     32  C39 ZIN A   1      18.656  -1.697  13.908  0.00  0.00     0.234 C 
ATOM     33  H41 ZIN A   1      20.535  -1.145  13.335  0.00  0.00     0.277 HD
ATOM     34  H42 ZIN A   1      20.465  -2.634  14.037  0.00  0.00     0.277 HD
ATOM     35  C38 ZIN A   1      18.651  -0.307  14.548  0.00  0.00     0.057 C 
ATOM     36  C37 ZIN A   1      17.372   0.433  14.150  0.00  0.00     0.271 C 
ATOM     37  N36 ZIN A   1      17.710   1.791  13.706  0.00  0.00     0.085 N 
ATOM     38  C35 ZIN A   1      17.002   2.131  12.464  0.00  0.00     0.297 C 
ATOM     39  H84 ZIN A   1      18.707   1.898  13.595  0.00  0.00     0.315 HD
ATOM     40  C34 ZIN A   1      17.980   2.776  11.480  0.00  0.00     0.262 C 
ATOM     41  N31 ZIN A   1      17.816   2.163  10.155  0.00  0.00    -0.073 N 
ATOM     42  C30 ZIN A   1      19.138   1.926   9.559  0.00  0.00     0.234 C 
ATOM     43  H32 ZIN A   1      17.285   2.781   9.562  0.00  0.00     0.277 HD
ATOM     44  H33 ZIN A   1      17.329   1.284  10.249  0.00  0.00     0.277 HD
ATOM     45  C29 ZIN A   1      19.178   0.525   8.946  0.00  0.00     0.057 C 
ATOM     46  C28 ZIN A   1      20.442  -0.200   9.416  0.00  0.00     0.274 C 
ENDBRANCH  27  28
ENDBRANCH   6  27
TORSDOF 4
ENDMDL
