MODEL 1
REMARK VINA RESULT:      -9.1      0.000      0.000
REMARK  7 active torsions:
REMARK  status: ('A' for Active; 'I' for Inactive)
REMARK    1  A    between atoms: C4_4  and  C6_5 
REMARK    2  A    between atoms: C6_5  and  O8_7 
REMARK    3  A    between atoms: O8_7  and  C9_8 
REMARK    4  A    between atoms: C9_8  and  C10_9 
REMARK    5  A    between atoms: C14_13  and  O15_14 
REMARK    6  A    between atoms: O15_14  and  C16_15 
REMARK    7  A    between atoms: C23_22  and  C25_23 
ROOT
ATOM      1  C10 <0> d   1      17.820   3.907  12.699  0.00  0.00    -0.031 A 
ATOM      2  C11 <0> d   1      17.023   4.858  12.089  0.00  0.00     0.009 A 
ATOM      3  C12 <0> d   1      17.035   4.993  10.712  0.00  0.00     0.003 A 
ATOM      4  C13 <0> d   1      17.843   4.179   9.945  0.00  0.00     0.037 A 
ATOM      5  C14 <0> d   1      18.645   3.224  10.554  0.00  0.00     0.076 A 
ATOM      6  C22 <0> d   1      18.635   3.093  11.935  0.00  0.00     0.046 A 
ENDROOT
BRANCH   1   7
ATOM      7  C9  <0> d   1      17.805   3.762  14.198  0.00  0.00     0.217 C 
BRANCH   7   8
ATOM      8  O8  <0> d   1      17.772   2.353  14.548  0.00  0.00    -0.317 OA
BRANCH   8   9
ATOM      9  C6  <0> d   1      18.631   1.939  15.493  0.00  0.00     0.264 C 
ATOM     10  O7  <0> d   1      18.958   2.690  16.381  0.00  0.00    -0.265 OA
BRANCH   9  11
ATOM     11  C4  <0> d   1      19.184   0.537  15.449  0.00  0.00     0.102 A 
ATOM     12  C2  <0> d   1      18.372  -0.564  16.133  0.00  0.00    -0.027 A 
ATOM     13  C1  <0> d   1      19.149  -1.691  16.817  0.00  0.00     0.016 C 
ATOM     14  C23 <0> d   1      18.431  -0.493  14.605  0.00  0.00     0.034 A 
ATOM     15  C3  <0> d   1      17.061  -0.160  16.808  0.00  0.00     0.016 C 
BRANCH  14  16
ATOM     16  C25 <0> d   1      19.249  -1.538  13.891  0.00  0.00     0.016 C 
ATOM     17  C26 <0> d   1      18.845  -2.011  12.735  0.00  0.00     0.100 C 
ATOM     18 Cl27 <0> d   1      17.367  -1.434  12.029  0.00  0.00    -0.071 Cl
ATOM     19 Cl28 <0> d   1      19.786  -3.215  11.912  0.00  0.00    -0.071 Cl
ENDBRANCH  14  16
ENDBRANCH   9  11
ENDBRANCH   8   9
ENDBRANCH   7   8
ENDBRANCH   1   7
BRANCH   5  20
ATOM     20  O15 <0> d   1      19.442   2.423   9.800  0.00  0.00    -0.311 OA
BRANCH  20  21
ATOM     21  C16 <0> d   1      18.849   1.619   8.878  0.00  0.00     0.076 A 
ATOM     22  C21 <0> d   1      17.883   0.704   9.272  0.00  0.00     0.037 A 
ATOM     23  C20 <0> d   1      17.276  -0.106   8.333  0.00  0.00     0.003 A 
ATOM     24  C19 <0> d   1      17.641  -0.015   7.002  0.00  0.00     0.000 A 
ATOM     25  C18 <0> d   1      18.608   0.891   6.608  0.00  0.00     0.003 A 
ATOM     26  C17 <0> d   1      19.212   1.709   7.542  0.00  0.00     0.037 A 
ENDBRANCH  20  21
ENDBRANCH   5  20
TORSDOF 7
ENDMDL
MODEL 2
REMARK VINA RESULT:      -8.5      2.782      5.908
REMARK  7 active torsions:
REMARK  status: ('A' for Active; 'I' for Inactive)
REMARK    1  A    between atoms: C4_4  and  C6_5 
REMARK    2  A    between atoms: C6_5  and  O8_7 
REMARK    3  A    between atoms: O8_7  and  C9_8 
REMARK    4  A    between atoms: C9_8  and  C10_9 
REMARK    5  A    between atoms: C14_13  and  O15_14 
REMARK    6  A    between atoms: O15_14  and  C16_15 
REMARK    7  A    between atoms: C23_22  and  C25_23 
ROOT
ATOM      1  C10 <0> d   1      19.554   1.247  12.800  0.00  0.00    -0.031 A 
ATOM      2  C11 <0> d   1      18.616   1.718  13.699  0.00  0.00     0.009 A 
ATOM      3  C12 <0> d   1      17.936   0.837  14.519  0.00  0.00     0.003 A 
ATOM      4  C13 <0> d   1      18.193  -0.518  14.442  0.00  0.00     0.037 A 
ATOM      5  C14 <0> d   1      19.135  -0.995  13.540  0.00  0.00     0.076 A 
ATOM      6  C22 <0> d   1      19.812  -0.108  12.715  0.00  0.00     0.046 A 
ENDROOT
BRANCH   1   7
ATOM      7  C9  <0> d   1      20.293   2.210  11.908  0.00  0.00     0.217 C 
BRANCH   7   8
ATOM      8  O8  <0> d   1      19.373   3.224  11.423  0.00  0.00    -0.317 OA
BRANCH   8   9
ATOM      9  C6  <0> d   1      18.747   2.975  10.262  0.00  0.00     0.264 C 
ATOM     10  O7  <0> d   1      17.776   3.622   9.950  0.00  0.00    -0.265 OA
BRANCH   9  11
ATOM     11  C4  <0> d   1      19.255   1.889   9.349  0.00  0.00     0.102 A 
ATOM     12  C2  <0> d   1      18.498   0.560   9.342  0.00  0.00    -0.027 A 
ATOM     13  C1  <0> d   1      19.319  -0.718   9.152  0.00  0.00     0.016 C 
ATOM     14  C23 <0> d   1      18.386   1.511   8.148  0.00  0.00     0.034 A 
ATOM     15  C3  <0> d   1      17.283   0.434  10.262  0.00  0.00     0.016 C 
BRANCH  14  16
ATOM     16  C25 <0> d   1      19.091   1.117   6.876  0.00  0.00     0.016 C 
ATOM     17  C26 <0> d   1      18.447   0.445   5.950  0.00  0.00     0.100 C 
ATOM     18 Cl27 <0> d   1      16.783   0.010   6.191  0.00  0.00    -0.071 Cl
ATOM     19 Cl28 <0> d   1      19.258  -0.009   4.484  0.00  0.00    -0.071 Cl
ENDBRANCH  14  16
ENDBRANCH   9  11
ENDBRANCH   8   9
ENDBRANCH   7   8
ENDBRANCH   1   7
BRANCH   5  20
ATOM     20  O15 <0> d   1      19.389  -2.327  13.463  0.00  0.00    -0.311 OA
BRANCH  20  21
ATOM     21  C16 <0> d   1      19.066  -2.972  12.311  0.00  0.00     0.076 A 
ATOM     22  C21 <0> d   1      17.766  -2.925  11.829  0.00  0.00     0.037 A 
ATOM     23  C20 <0> d   1      17.443  -3.575  10.655  0.00  0.00     0.003 A 
ATOM     24  C19 <0> d   1      18.410  -4.285   9.967  0.00  0.00     0.000 A 
ATOM     25  C18 <0> d   1      19.704  -4.339  10.449  0.00  0.00     0.003 A 
ATOM     26  C17 <0> d   1      20.035  -3.684  11.619  0.00  0.00     0.037 A 
ENDBRANCH  20  21
ENDBRANCH   5  20
TORSDOF 7
ENDMDL
MODEL 3
REMARK VINA RESULT:      -8.5      2.586      4.953
REMARK  7 active torsions:
REMARK  status: ('A' for Active; 'I' for Inactive)
REMARK    1  A    between atoms: C4_4  and  C6_5 
REMARK    2  A    between atoms: C6_5  and  O8_7 
REMARK    3  A    between atoms: O8_7  and  C9_8 
REMARK    4  A    between atoms: C9_8  and  C10_9 
REMARK    5  A    between atoms: C14_13  and  O15_14 
REMARK    6  A    between atoms: O15_14  and  C16_15 
REMARK    7  A    between atoms: C23_22  and  C25_23 
ROOT
ATOM      1  C10 <0> d   1      18.773  -1.307   9.258  0.00  0.00    -0.031 A 
ATOM      2  C11 <0> d   1      17.994  -1.427   8.122  0.00  0.00     0.009 A 
ATOM      3  C12 <0> d   1      17.747  -0.321   7.330  0.00  0.00     0.003 A 
ATOM      4  C13 <0> d   1      18.278   0.907   7.672  0.00  0.00     0.037 A 
ATOM      5  C14 <0> d   1      19.060   1.031   8.812  0.00  0.00     0.076 A 
ATOM      6  C22 <0> d   1      19.303  -0.080   9.608  0.00  0.00     0.046 A 
ENDROOT
BRANCH   1   7
ATOM      7  C9  <0> d   1      19.040  -2.514  10.119  0.00  0.00     0.217 C 
BRANCH   7   8
ATOM      8  O8  <0> d   1      19.769  -2.109  11.308  0.00  0.00    -0.317 OA
BRANCH   8   9
ATOM      9  C6  <0> d   1      19.147  -2.265  12.487  0.00  0.00     0.264 C 
ATOM     10  O7  <0> d   1      18.315  -3.132  12.621  0.00  0.00    -0.265 OA
BRANCH   9  11
ATOM     11  C4  <0> d   1      19.487  -1.362  13.645  0.00  0.00     0.102 A 
ATOM     12  C2  <0> d   1      18.635  -0.106  13.834  0.00  0.00    -0.027 A 
ATOM     13  C1  <0> d   1      19.336   1.150  14.357  0.00  0.00     0.016 C 
ATOM     14  C23 <0> d   1      18.486  -1.284  14.799  0.00  0.00     0.034 A 
ATOM     15  C3  <0> d   1      17.502   0.136  12.836  0.00  0.00     0.016 C 
BRANCH  14  16
ATOM     16  C25 <0> d   1      19.041  -1.119  16.191  0.00  0.00     0.016 C 
ATOM     17  C26 <0> d   1      18.277  -0.650  17.150  0.00  0.00     0.100 C 
ATOM     18 Cl27 <0> d   1      16.629  -0.220  16.816  0.00  0.00    -0.071 Cl
ATOM     19 Cl28 <0> d   1      18.915  -0.459  18.753  0.00  0.00    -0.071 Cl
ENDBRANCH  14  16
ENDBRANCH   9  11
ENDBRANCH   8   9
ENDBRANCH   7   8
ENDBRANCH   1   7
BRANCH   5  20
ATOM     20  O15 <0> d   1      19.583   2.238   9.151  0.00  0.00    -0.311 OA
BRANCH  20  21
ATOM     21  C16 <0> d   1      19.080   2.868  10.245  0.00  0.00     0.076 A 
ATOM     22  C21 <0> d   1      17.728   3.177  10.309  0.00  0.00     0.037 A 
ATOM     23  C20 <0> d   1      17.218   3.810  11.425  0.00  0.00     0.003 A 
ATOM     24  C19 <0> d   1      18.055   4.148  12.472  0.00  0.00     0.000 A 
ATOM     25  C18 <0> d   1      19.402   3.847  12.408  0.00  0.00     0.003 A 
ATOM     26  C17 <0> d   1      19.917   3.207  11.298  0.00  0.00     0.037 A 
ENDBRANCH  20  21
ENDBRANCH   5  20
TORSDOF 7
ENDMDL
MODEL 4
REMARK VINA RESULT:      -8.3      1.445      2.579
REMARK  7 active torsions:
REMARK  status: ('A' for Active; 'I' for Inactive)
REMARK    1  A    between atoms: C4_4  and  C6_5 
REMARK    2  A    between atoms: C6_5  and  O8_7 
REMARK    3  A    between atoms: O8_7  and  C9_8 
REMARK    4  A    between atoms: C9_8  and  C10_9 
REMARK    5  A    between atoms: C14_13  and  O15_14 
REMARK    6  A    between atoms: O15_14  and  C16_15 
REMARK    7  A    between atoms: C23_22  and  C25_23 
ROOT
ATOM      1  C10 <0> d   1      18.789   1.755  11.508  0.00  0.00    -0.031 A 
ATOM      2  C11 <0> d   1      20.006   1.109  11.619  0.00  0.00     0.009 A 
ATOM      3  C12 <0> d   1      20.396   0.194  10.659  0.00  0.00     0.003 A 
ATOM      4  C13 <0> d   1      19.571  -0.076   9.585  0.00  0.00     0.037 A 
ATOM      5  C14 <0> d   1      18.349   0.571   9.470  0.00  0.00     0.076 A 
ATOM      6  C22 <0> d   1      17.957   1.485  10.437  0.00  0.00     0.046 A 
ENDROOT
BRANCH   1   7
ATOM      7  C9  <0> d   1      18.366   2.751  12.556  0.00  0.00     0.217 C 
BRANCH   7   8
ATOM      8  O8  <0> d   1      17.697   2.057  13.642  0.00  0.00    -0.317 OA
BRANCH   8   9
ATOM      9  C6  <0> d   1      18.433   1.768  14.726  0.00  0.00     0.264 C 
ATOM     10  O7  <0> d   1      18.586   2.598  15.590  0.00  0.00    -0.265 OA
BRANCH   9  11
ATOM     11  C4  <0> d   1      19.067   0.407  14.867  0.00  0.00     0.102 A 
ATOM     12  C2  <0> d   1      18.344  -0.622  15.738  0.00  0.00    -0.027 A 
ATOM     13  C1  <0> d   1      19.208  -1.589  16.550  0.00  0.00     0.016 C 
ATOM     14  C23 <0> d   1      18.351  -0.777  14.216  0.00  0.00     0.034 A 
ATOM     15  C3  <0> d   1      17.034  -0.192  16.399  0.00  0.00     0.016 C 
BRANCH  14  16
ATOM     16  C25 <0> d   1      19.206  -1.872  13.631  0.00  0.00     0.016 C 
ATOM     17  C26 <0> d   1      18.843  -2.465  12.518  0.00  0.00     0.100 C 
ATOM     18 Cl27 <0> d   1      17.377  -1.988  11.718  0.00  0.00    -0.071 Cl
ATOM     19 Cl28 <0> d   1      19.827  -3.726  11.844  0.00  0.00    -0.071 Cl
ENDBRANCH  14  16
ENDBRANCH   9  11
ENDBRANCH   8   9
ENDBRANCH   7   8
ENDBRANCH   1   7
BRANCH   5  20
ATOM     20  O15 <0> d   1      17.536   0.306   8.414  0.00  0.00    -0.311 OA
BRANCH  20  21
ATOM     21  C16 <0> d   1      18.115  -0.009   7.226  0.00  0.00     0.076 A 
ATOM     22  C21 <0> d   1      18.666   0.990   6.435  0.00  0.00     0.037 A 
ATOM     23  C20 <0> d   1      19.260   0.666   5.232  0.00  0.00     0.003 A 
ATOM     24  C19 <0> d   1      19.294  -0.649   4.808  0.00  0.00     0.000 A 
ATOM     25  C18 <0> d   1      18.740  -1.645   5.591  0.00  0.00     0.003 A 
ATOM     26  C17 <0> d   1      18.151  -1.328   6.799  0.00  0.00     0.037 A 
ENDBRANCH  20  21
ENDBRANCH   5  20
TORSDOF 7
ENDMDL
MODEL 5
REMARK VINA RESULT:      -8.3      3.292      7.049
REMARK  7 active torsions:
REMARK  status: ('A' for Active; 'I' for Inactive)
REMARK    1  A    between atoms: C4_4  and  C6_5 
REMARK    2  A    between atoms: C6_5  and  O8_7 
REMARK    3  A    between atoms: O8_7  and  C9_8 
REMARK    4  A    between atoms: C9_8  and  C10_9 
REMARK    5  A    between atoms: C14_13  and  O15_14 
REMARK    6  A    between atoms: O15_14  and  C16_15 
REMARK    7  A    between atoms: C23_22  and  C25_23 
ROOT
ATOM      1  C10 <0> d   1      18.299   0.504   7.978  0.00  0.00    -0.031 A 
ATOM      2  C11 <0> d   1      19.037   1.668   8.085  0.00  0.00     0.009 A 
ATOM      3  C12 <0> d   1      18.990   2.416   9.247  0.00  0.00     0.003 A 
ATOM      4  C13 <0> d   1      18.207   2.000  10.305  0.00  0.00     0.037 A 
ATOM      5  C14 <0> d   1      17.464   0.832  10.202  0.00  0.00     0.076 A 
ATOM      6  C22 <0> d   1      17.509   0.086   9.032  0.00  0.00     0.046 A 
ENDROOT
BRANCH   1   7
ATOM      7  C9  <0> d   1      18.352  -0.308   6.710  0.00  0.00     0.217 C 
BRANCH   7   8
ATOM      8  O8  <0> d   1      19.411  -1.296   6.812  0.00  0.00    -0.317 OA
BRANCH   8   9
ATOM      9  C6  <0> d   1      19.184  -2.494   6.251  0.00  0.00     0.264 C 
ATOM     10  O7  <0> d   1      19.613  -2.734   5.147  0.00  0.00    -0.265 OA
BRANCH   9  11
ATOM     11  C4  <0> d   1      18.396  -3.539   6.998  0.00  0.00     0.102 A 
ATOM     12  C2  <0> d   1      19.141  -4.799   7.445  0.00  0.00    -0.027 A 
ATOM     13  C1  <0> d   1      18.367  -6.118   7.429  0.00  0.00     0.016 C 
ATOM     14  C23 <0> d   1      18.724  -3.749   8.477  0.00  0.00     0.034 A 
ATOM     15  C3  <0> d   1      20.627  -4.900   7.102  0.00  0.00     0.016 C 
BRANCH  14  16
ATOM     16  C25 <0> d   1      17.584  -4.094   9.400  0.00  0.00     0.016 C 
ATOM     17  C26 <0> d   1      17.829  -4.489  10.628  0.00  0.00     0.100 C 
ATOM     18 Cl27 <0> d   1      19.468  -4.615  11.188  0.00  0.00    -0.071 Cl
ATOM     19 Cl28 <0> d   1      16.517  -4.887  11.692  0.00  0.00    -0.071 Cl
ENDBRANCH  14  16
ENDBRANCH   9  11
ENDBRANCH   8   9
ENDBRANCH   7   8
ENDBRANCH   1   7
BRANCH   5  20
ATOM     20  O15 <0> d   1      16.692   0.421  11.241  0.00  0.00    -0.311 OA
BRANCH  20  21
ATOM     21  C16 <0> d   1      17.315  -0.091  12.335  0.00  0.00     0.076 A 
ATOM     22  C21 <0> d   1      17.343   0.631  13.520  0.00  0.00     0.037 A 
ATOM     23  C20 <0> d   1      17.970   0.105  14.633  0.00  0.00     0.003 A 
ATOM     24  C19 <0> d   1      18.582  -1.133  14.563  0.00  0.00     0.000 A 
ATOM     25  C18 <0> d   1      18.560  -1.851  13.381  0.00  0.00     0.003 A 
ATOM     26  C17 <0> d   1      17.928  -1.334  12.268  0.00  0.00     0.037 A 
ENDBRANCH  20  21
ENDBRANCH   5  20
TORSDOF 7
ENDMDL
MODEL 6
REMARK VINA RESULT:      -8.2      2.478      7.754
REMARK  7 active torsions:
REMARK  status: ('A' for Active; 'I' for Inactive)
REMARK    1  A    between atoms: C4_4  and  C6_5 
REMARK    2  A    between atoms: C6_5  and  O8_7 
REMARK    3  A    between atoms: O8_7  and  C9_8 
REMARK    4  A    between atoms: C9_8  and  C10_9 
REMARK    5  A    between atoms: C14_13  and  O15_14 
REMARK    6  A    between atoms: O15_14  and  C16_15 
REMARK    7  A    between atoms: C23_22  and  C25_23 
ROOT
ATOM      1  C10 <0> d   1      19.414  -1.581  11.355  0.00  0.00    -0.031 A 
ATOM      2  C11 <0> d   1      20.469  -0.693  11.255  0.00  0.00     0.009 A 
ATOM      3  C12 <0> d   1      20.620   0.314  12.191  0.00  0.00     0.003 A 
ATOM      4  C13 <0> d   1      19.718   0.434  13.229  0.00  0.00     0.037 A 
ATOM      5  C14 <0> d   1      18.657  -0.455  13.332  0.00  0.00     0.076 A 
ATOM      6  C22 <0> d   1      18.505  -1.462  12.389  0.00  0.00     0.046 A 
ENDROOT
BRANCH   1   7
ATOM      7  C9  <0> d   1      19.252  -2.676  10.334  0.00  0.00     0.217 C 
BRANCH   7   8
ATOM      8  O8  <0> d   1      18.373  -2.221   9.272  0.00  0.00    -0.317 OA
BRANCH   8   9
ATOM      9  C6  <0> d   1      18.955  -1.790   8.141  0.00  0.00     0.264 C 
ATOM     10  O7  <0> d   1      19.245  -2.578   7.273  0.00  0.00    -0.265 OA
BRANCH   9  11
ATOM     11  C4  <0> d   1      19.245  -0.322   7.955  0.00  0.00     0.102 A 
ATOM     12  C2  <0> d   1      18.312   0.471   7.037  0.00  0.00    -0.027 A 
ATOM     13  C1  <0> d   1      18.932   1.589   6.198  0.00  0.00     0.016 C 
ATOM     14  C23 <0> d   1      18.252   0.676   8.553  0.00  0.00     0.034 A 
ATOM     15  C3  <0> d   1      17.156  -0.285   6.381  0.00  0.00     0.016 C 
BRANCH  14  16
ATOM     16  C25 <0> d   1      18.807   1.964   9.103  0.00  0.00     0.016 C 
ATOM     17  C26 <0> d   1      18.354   2.443  10.239  0.00  0.00     0.100 C 
ATOM     18 Cl27 <0> d   1      17.114   1.591  11.107  0.00  0.00    -0.071 Cl
ATOM     19 Cl28 <0> d   1      18.993   3.927  10.873  0.00  0.00    -0.071 Cl
ENDBRANCH  14  16
ENDBRANCH   9  11
ENDBRANCH   8   9
ENDBRANCH   7   8
ENDBRANCH   1   7
BRANCH   5  20
ATOM     20  O15 <0> d   1      17.768  -0.338  14.353  0.00  0.00    -0.311 OA
BRANCH  20  21
ATOM     21  C16 <0> d   1      18.255  -0.276  15.620  0.00  0.00     0.076 A 
ATOM     22  C21 <0> d   1      18.123   0.891  16.359  0.00  0.00     0.037 A 
ATOM     23  C20 <0> d   1      18.612   0.948  17.649  0.00  0.00     0.003 A 
ATOM     24  C19 <0> d   1      19.245  -0.151  18.200  0.00  0.00     0.000 A 
ATOM     25  C18 <0> d   1      19.383  -1.312  17.463  0.00  0.00     0.003 A 
ATOM     26  C17 <0> d   1      18.889  -1.378  16.175  0.00  0.00     0.037 A 
ENDBRANCH  20  21
ENDBRANCH   5  20
TORSDOF 7
ENDMDL
MODEL 7
REMARK VINA RESULT:      -8.1      2.587      6.012
REMARK  7 active torsions:
REMARK  status: ('A' for Active; 'I' for Inactive)
REMARK    1  A    between atoms: C4_4  and  C6_5 
REMARK    2  A    between atoms: C6_5  and  O8_7 
REMARK    3  A    between atoms: O8_7  and  C9_8 
REMARK    4  A    between atoms: C9_8  and  C10_9 
REMARK    5  A    between atoms: C14_13  and  O15_14 
REMARK    6  A    between atoms: O15_14  and  C16_15 
REMARK    7  A    between atoms: C23_22  and  C25_23 
ROOT
ATOM      1  C10 <0> d   1      18.087   0.214   8.344  0.00  0.00    -0.031 A 
ATOM      2  C11 <0> d   1      19.014   1.094   7.817  0.00  0.00     0.009 A 
ATOM      3  C12 <0> d   1      19.318   2.265   8.488  0.00  0.00     0.003 A 
ATOM      4  C13 <0> d   1      18.697   2.557   9.685  0.00  0.00     0.037 A 
ATOM      5  C14 <0> d   1      17.766   1.676  10.217  0.00  0.00     0.076 A 
ATOM      6  C22 <0> d   1      17.458   0.504   9.540  0.00  0.00     0.046 A 
ENDROOT
BRANCH   1   7
ATOM      7  C9  <0> d   1      17.757  -1.060   7.611  0.00  0.00     0.217 C 
BRANCH   7   8
ATOM      8  O8  <0> d   1      18.653  -2.116   8.049  0.00  0.00    -0.317 OA
BRANCH   8   9
ATOM      9  C6  <0> d   1      18.089  -3.250   8.493  0.00  0.00     0.264 C 
ATOM     10  O7  <0> d   1      17.903  -4.170   7.731  0.00  0.00    -0.265 OA
BRANCH   9  11
ATOM     11  C4  <0> d   1      17.690  -3.378   9.941  0.00  0.00     0.102 A 
ATOM     12  C2  <0> d   1      18.554  -4.268  10.836  0.00  0.00    -0.027 A 
ATOM     13  C1  <0> d   1      17.846  -5.061  11.936  0.00  0.00     0.016 C 
ATOM     14  C23 <0> d   1      18.610  -2.746  10.986  0.00  0.00     0.034 A 
ATOM     15  C3  <0> d   1      19.758  -4.959  10.194  0.00  0.00     0.016 C 
BRANCH  14  16
ATOM     16  C25 <0> d   1      17.965  -2.143  12.208  0.00  0.00     0.016 C 
ATOM     17  C26 <0> d   1      18.497  -1.087  12.778  0.00  0.00     0.100 C 
ATOM     18 Cl27 <0> d   1      19.945  -0.385  12.125  0.00  0.00    -0.071 Cl
ATOM     19 Cl28 <0> d   1      17.755  -0.392  14.184  0.00  0.00    -0.071 Cl
ENDBRANCH  14  16
ENDBRANCH   9  11
ENDBRANCH   8   9
ENDBRANCH   7   8
ENDBRANCH   1   7
BRANCH   5  20
ATOM     20  O15 <0> d   1      17.153   1.962  11.395  0.00  0.00    -0.311 OA
BRANCH  20  21
ATOM     21  C16 <0> d   1      17.590   3.042  12.096  0.00  0.00     0.076 A 
ATOM     22  C21 <0> d   1      17.029   4.290  11.870  0.00  0.00     0.037 A 
ATOM     23  C20 <0> d   1      17.470   5.384  12.589  0.00  0.00     0.003 A 
ATOM     24  C19 <0> d   1      18.479   5.238  13.523  0.00  0.00     0.000 A 
ATOM     25  C18 <0> d   1      19.044   3.996  13.745  0.00  0.00     0.003 A 
ATOM     26  C17 <0> d   1      18.602   2.897  13.035  0.00  0.00     0.037 A 
ENDBRANCH  20  21
ENDBRANCH   5  20
TORSDOF 7
ENDMDL
MODEL 8
REMARK VINA RESULT:      -8.0      3.630      7.274
REMARK  7 active torsions:
REMARK  status: ('A' for Active; 'I' for Inactive)
REMARK    1  A    between atoms: C4_4  and  C6_5 
REMARK    2  A    between atoms: C6_5  and  O8_7 
REMARK    3  A    between atoms: O8_7  and  C9_8 
REMARK    4  A    between atoms: C9_8  and  C10_9 
REMARK    5  A    between atoms: C14_13  and  O15_14 
REMARK    6  A    between atoms: O15_14  and  C16_15 
REMARK    7  A    between atoms: C23_22  and  C25_23 
ROOT
ATOM      1  C10 <0> d   1      18.430   1.212  11.347  0.00  0.00    -0.031 A 
ATOM      2  C11 <0> d   1      19.802   1.380  11.329  0.00  0.00     0.009 A 
ATOM      3  C12 <0> d   1      20.594   0.720  12.251  0.00  0.00     0.003 A 
ATOM      4  C13 <0> d   1      20.015  -0.108  13.192  0.00  0.00     0.037 A 
ATOM      5  C14 <0> d   1      18.638  -0.278  13.213  0.00  0.00     0.076 A 
ATOM      6  C22 <0> d   1      17.845   0.388  12.290  0.00  0.00     0.046 A 
ENDROOT
BRANCH   1   7
ATOM      7  C9  <0> d   1      17.570   1.932  10.341  0.00  0.00     0.217 C 
BRANCH   7   8
ATOM      8  O8  <0> d   1      18.185   3.202   9.999  0.00  0.00    -0.317 OA
BRANCH   8   9
ATOM      9  C6  <0> d   1      17.645   4.307  10.538  0.00  0.00     0.264 C 
ATOM     10  O7  <0> d   1      17.578   5.324   9.888  0.00  0.00    -0.265 OA
BRANCH   9  11
ATOM     11  C4  <0> d   1      17.121   4.278  11.951  0.00  0.00     0.102 A 
ATOM     12  C2  <0> d   1      18.127   4.504  13.081  0.00  0.00    -0.027 A 
ATOM     13  C1  <0> d   1      17.908   3.732  14.384  0.00  0.00     0.016 C 
ATOM     14  C23 <0> d   1      17.113   5.595  12.729  0.00  0.00     0.034 A 
ATOM     15  C3  <0> d   1      19.586   4.743  12.691  0.00  0.00     0.016 C 
BRANCH  14  16
ATOM     16  C25 <0> d   1      15.978   5.827  13.692  0.00  0.00     0.016 C 
ATOM     17  C26 <0> d   1      16.038   6.817  14.552  0.00  0.00     0.100 C 
ATOM     18 Cl27 <0> d   1      17.427   7.859  14.581  0.00  0.00    -0.071 Cl
ATOM     19 Cl28 <0> d   1      14.730   7.086  15.661  0.00  0.00    -0.071 Cl
ENDBRANCH  14  16
ENDBRANCH   9  11
ENDBRANCH   8   9
ENDBRANCH   7   8
ENDBRANCH   1   7
BRANCH   5  20
ATOM     20  O15 <0> d   1      18.067  -1.093  14.138  0.00  0.00    -0.311 OA
BRANCH  20  21
ATOM     21  C16 <0> d   1      18.215  -0.771  15.451  0.00  0.00     0.076 A 
ATOM     22  C21 <0> d   1      19.102  -1.483  16.245  0.00  0.00     0.037 A 
ATOM     23  C20 <0> d   1      19.256  -1.149  17.576  0.00  0.00     0.003 A 
ATOM     24  C19 <0> d   1      18.518  -0.115  18.120  0.00  0.00     0.000 A 
ATOM     25  C18 <0> d   1      17.630   0.593  17.332  0.00  0.00     0.003 A 
ATOM     26  C17 <0> d   1      17.477   0.269  15.998  0.00  0.00     0.037 A 
ENDBRANCH  20  21
ENDBRANCH   5  20
TORSDOF 7
ENDMDL
MODEL 9
REMARK VINA RESULT:      -8.0      4.327      6.945
REMARK  7 active torsions:
REMARK  status: ('A' for Active; 'I' for Inactive)
REMARK    1  A    between atoms: C4_4  and  C6_5 
REMARK    2  A    between atoms: C6_5  and  O8_7 
REMARK    3  A    between atoms: O8_7  and  C9_8 
REMARK    4  A    between atoms: C9_8  and  C10_9 
REMARK    5  A    between atoms: C14_13  and  O15_14 
REMARK    6  A    between atoms: O15_14  and  C16_15 
REMARK    7  A    between atoms: C23_22  and  C25_23 
ROOT
ATOM      1  C10 <0> d   1      18.377  -5.436   8.489  0.00  0.00    -0.031 A 
ATOM      2  C11 <0> d   1      19.741  -5.655   8.517  0.00  0.00     0.009 A 
ATOM      3  C12 <0> d   1      20.559  -5.064   7.571  0.00  0.00     0.003 A 
ATOM      4  C13 <0> d   1      20.014  -4.253   6.596  0.00  0.00     0.037 A 
ATOM      5  C14 <0> d   1      18.644  -4.031   6.564  0.00  0.00     0.076 A 
ATOM      6  C22 <0> d   1      17.825  -4.629   7.511  0.00  0.00     0.046 A 
ENDROOT
BRANCH   1   7
ATOM      7  C9  <0> d   1      17.489  -6.081   9.520  0.00  0.00     0.217 C 
BRANCH   7   8
ATOM      8  O8  <0> d   1      16.770  -5.053  10.251  0.00  0.00    -0.317 OA
BRANCH   8   9
ATOM      9  C6  <0> d   1      17.214  -4.755  11.482  0.00  0.00     0.264 C 
ATOM     10  O7  <0> d   1      17.401  -5.638  12.286  0.00  0.00    -0.265 OA
BRANCH   9  11
ATOM     11  C4  <0> d   1      17.482  -3.321  11.862  0.00  0.00     0.102 A 
ATOM     12  C2  <0> d   1      18.943  -2.875  11.950  0.00  0.00    -0.027 A 
ATOM     13  C1  <0> d   1      19.303  -1.848  13.025  0.00  0.00     0.016 C 
ATOM     14  C23 <0> d   1      18.067  -2.403  10.788  0.00  0.00     0.034 A 
ATOM     15  C3  <0> d   1      20.020  -3.917  11.645  0.00  0.00     0.016 C 
BRANCH  14  16
ATOM     16  C25 <0> d   1      17.626  -0.962  10.789  0.00  0.00     0.016 C 
ATOM     17  C26 <0> d   1      18.405  -0.036  10.279  0.00  0.00     0.100 C 
ATOM     18 Cl27 <0> d   1      19.944  -0.472   9.603  0.00  0.00    -0.071 Cl
ATOM     19 Cl28 <0> d   1      17.897   1.623  10.280  0.00  0.00    -0.071 Cl
ENDBRANCH  14  16
ENDBRANCH   9  11
ENDBRANCH   8   9
ENDBRANCH   7   8
ENDBRANCH   1   7
BRANCH   5  20
ATOM     20  O15 <0> d   1      18.106  -3.233   5.605  0.00  0.00    -0.311 OA
BRANCH  20  21
ATOM     21  C16 <0> d   1      18.349  -1.898   5.675  0.00  0.00     0.076 A 
ATOM     22  C21 <0> d   1      17.810  -1.147   6.710  0.00  0.00     0.037 A 
ATOM     23  C20 <0> d   1      18.065   0.208   6.784  0.00  0.00     0.003 A 
ATOM     24  C19 <0> d   1      18.844   0.820   5.819  0.00  0.00     0.000 A 
ATOM     25  C18 <0> d   1      19.377   0.074   4.783  0.00  0.00     0.003 A 
ATOM     26  C17 <0> d   1      19.132  -1.283   4.709  0.00  0.00     0.037 A 
ENDBRANCH  20  21
ENDBRANCH   5  20
TORSDOF 7
ENDMDL
