MODEL 1
REMARK VINA RESULT:      -6.6      0.000      0.000
REMARK  9 active torsions:
REMARK  status: ('A' for Active; 'I' for Inactive)
REMARK    1  A    between atoms: C2_2  and  O4_4 
REMARK    2  A    between atoms: O4_4  and  C5_5 
REMARK    3  A    between atoms: C9_9  and  O10_10 
REMARK    4  A    between atoms: O10_10  and  C11_11 
REMARK    5  A    between atoms: C11_11  and  C12_12 
REMARK    6  A    between atoms: C12_12  and  O14_13 
REMARK    7  A    between atoms: C12_12  and  C15_14 
REMARK    8  A    between atoms: C15_14  and  N16_15 
REMARK    9  A    between atoms: N16_15  and  C19_18 
ROOT
ATOM      1  C5  ZIN A   1      19.224  -2.094   5.717  0.00  0.00     0.091 A 
ATOM      2  C6  ZIN A   1      19.365  -2.883   6.848  0.00  0.00    -0.025 A 
ATOM      3  C7  ZIN A   1      19.509  -4.378   6.711  0.00  0.00     0.051 C 
ATOM      4  C8  ZIN A   1      19.374  -2.301   8.100  0.00  0.00     0.047 A 
ATOM      5  C9  ZIN A   1      19.242  -0.926   8.227  0.00  0.00     0.075 A 
ATOM      6  C22 ZIN A   1      19.101  -0.136   7.096  0.00  0.00    -0.020 A 
ATOM      7  C23 ZIN A   1      18.957   1.358   7.232  0.00  0.00     0.052 C 
ATOM      8  C24 ZIN A   1      19.098  -0.718   5.843  0.00  0.00    -0.019 A 
ATOM      9  C25 ZIN A   1      18.944   0.140   4.614  0.00  0.00     0.052 C 
ENDROOT
BRANCH   5  10
ATOM     10  O10 ZIN A   1      19.251  -0.353   9.460  0.00  0.00    -0.348 OA
BRANCH  10  11
ATOM     11  C11 ZIN A   1      20.518  -0.230  10.109  0.00  0.00     0.209 C 
BRANCH  11  12
ATOM     12  C12 ZIN A   1      20.310   0.265  11.542  0.00  0.00     0.168 C 
BRANCH  12  13
ATOM     13  O14 ZIN A   1      21.580   0.507  12.151  0.00  0.00    -0.392 OA
ATOM     14  H35 ZIN A   1      21.529   0.994  12.985  0.00  0.00     0.210 HD
ENDBRANCH  12  13
BRANCH  12  15
ATOM     15  C15 ZIN A   1      19.555  -0.798  12.343  0.00  0.00     0.266 C 
BRANCH  15  16
ATOM     16  N16 ZIN A   1      20.080  -2.128  12.007  0.00  0.00    -0.069 N 
ATOM     17  H17 ZIN A   1      20.460  -2.113  11.073  0.00  0.00     0.277 HD
ATOM     18  H18 ZIN A   1      20.805  -2.380  12.661  0.00  0.00     0.277 HD
BRANCH  16  19
ATOM     19  C19 ZIN A   1      18.993  -3.115  12.076  0.00  0.00     0.178 C 
ATOM     20  C20 ZIN A   1      17.689  -2.472  11.601  0.00  0.00     0.039 C 
ATOM     21  C21 ZIN A   1      19.330  -4.308  11.179  0.00  0.00     0.039 C 
ENDBRANCH  16  19
ENDBRANCH  15  16
ENDBRANCH  12  15
ENDBRANCH  11  12
ENDBRANCH  10  11
ENDBRANCH   5  10
BRANCH   1  22
ATOM     22  O4  ZIN A   1      19.217  -2.667   4.484  0.00  0.00    -0.278 OA
BRANCH  22  23
ATOM     23  C2  ZIN A   1      18.053  -3.182   4.057  0.00  0.00     0.260 C 
ATOM     24  C1  ZIN A   1      18.031  -4.512   3.349  0.00  0.00     0.126 C 
ATOM     25  O3  ZIN A   1      17.023  -2.579   4.241  0.00  0.00    -0.265 OA
ENDBRANCH  22  23
ENDBRANCH   1  22
TORSDOF 9
ENDMDL
MODEL 2
REMARK VINA RESULT:      -6.5      1.473      1.993
REMARK  9 active torsions:
REMARK  status: ('A' for Active; 'I' for Inactive)
REMARK    1  A    between atoms: C2_2  and  O4_4 
REMARK    2  A    between atoms: O4_4  and  C5_5 
REMARK    3  A    between atoms: C9_9  and  O10_10 
REMARK    4  A    between atoms: O10_10  and  C11_11 
REMARK    5  A    between atoms: C11_11  and  C12_12 
REMARK    6  A    between atoms: C12_12  and  O14_13 
REMARK    7  A    between atoms: C12_12  and  C15_14 
REMARK    8  A    between atoms: C15_14  and  N16_15 
REMARK    9  A    between atoms: N16_15  and  C19_18 
ROOT
ATOM      1  C5  ZIN A   1      19.289  -1.825   6.154  0.00  0.00     0.091 A 
ATOM      2  C6  ZIN A   1      19.151  -2.666   7.248  0.00  0.00    -0.025 A 
ATOM      3  C7  ZIN A   1      19.260  -4.159   7.070  0.00  0.00     0.051 C 
ATOM      4  C8  ZIN A   1      18.915  -2.136   8.501  0.00  0.00     0.047 A 
ATOM      5  C9  ZIN A   1      18.816  -0.762   8.666  0.00  0.00     0.075 A 
ATOM      6  C22 ZIN A   1      18.954   0.079   7.572  0.00  0.00    -0.020 A 
ATOM      7  C23 ZIN A   1      18.845   1.572   7.750  0.00  0.00     0.052 C 
ATOM      8  C24 ZIN A   1      19.196  -0.451   6.320  0.00  0.00    -0.019 A 
ATOM      9  C25 ZIN A   1      19.345   0.463   5.131  0.00  0.00     0.052 C 
ENDROOT
BRANCH   5  10
ATOM     10  O10 ZIN A   1      18.584  -0.240   9.901  0.00  0.00    -0.348 OA
BRANCH  10  11
ATOM     11  C11 ZIN A   1      19.313  -0.806  10.992  0.00  0.00     0.209 C 
BRANCH  11  12
ATOM     12  C12 ZIN A   1      20.508   0.089  11.323  0.00  0.00     0.168 C 
BRANCH  12  13
ATOM     13  O14 ZIN A   1      21.721  -0.606  11.025  0.00  0.00    -0.392 OA
ATOM     14  H35 ZIN A   1      22.518  -0.165  11.350  0.00  0.00     0.210 HD
ENDBRANCH  12  13
BRANCH  12  15
ATOM     15  C15 ZIN A   1      20.480   0.448  12.810  0.00  0.00     0.266 C 
BRANCH  15  16
ATOM     16  N16 ZIN A   1      20.001  -0.707  13.583  0.00  0.00    -0.069 N 
ATOM     17  H17 ZIN A   1      19.432  -1.294  12.992  0.00  0.00     0.277 HD
ATOM     18  H18 ZIN A   1      20.790  -1.236  13.923  0.00  0.00     0.277 HD
BRANCH  16  19
ATOM     19  C19 ZIN A   1      19.200  -0.236  14.720  0.00  0.00     0.178 C 
ATOM     20  C20 ZIN A   1      17.828   0.225  14.224  0.00  0.00     0.039 C 
ATOM     21  C21 ZIN A   1      19.021  -1.376  15.726  0.00  0.00     0.039 C 
ENDBRANCH  16  19
ENDBRANCH  15  16
ENDBRANCH  12  15
ENDBRANCH  11  12
ENDBRANCH  10  11
ENDBRANCH   5  10
BRANCH   1  22
ATOM     22  O4  ZIN A   1      19.523  -2.347   4.921  0.00  0.00    -0.278 OA
BRANCH  22  23
ATOM     23  C2  ZIN A   1      18.471  -2.866   4.268  0.00  0.00     0.260 C 
ATOM     24  C1  ZIN A   1      17.166  -2.113   4.224  0.00  0.00     0.126 C 
ATOM     25  O3  ZIN A   1      18.571  -3.936   3.716  0.00  0.00    -0.265 OA
ENDBRANCH  22  23
ENDBRANCH   1  22
TORSDOF 9
ENDMDL
MODEL 3
REMARK VINA RESULT:      -6.3      2.495      6.649
REMARK  9 active torsions:
REMARK  status: ('A' for Active; 'I' for Inactive)
REMARK    1  A    between atoms: C2_2  and  O4_4 
REMARK    2  A    between atoms: O4_4  and  C5_5 
REMARK    3  A    between atoms: C9_9  and  O10_10 
REMARK    4  A    between atoms: O10_10  and  C11_11 
REMARK    5  A    between atoms: C11_11  and  C12_12 
REMARK    6  A    between atoms: C12_12  and  O14_13 
REMARK    7  A    between atoms: C12_12  and  C15_14 
REMARK    8  A    between atoms: C15_14  and  N16_15 
REMARK    9  A    between atoms: N16_15  and  C19_18 
ROOT
ATOM      1  C5  ZIN A   1      18.875  -0.461  10.929  0.00  0.00     0.091 A 
ATOM      2  C6  ZIN A   1      19.127  -0.357   9.569  0.00  0.00    -0.025 A 
ATOM      3  C7  ZIN A   1      19.268   1.001   8.930  0.00  0.00     0.051 C 
ATOM      4  C8  ZIN A   1      19.251  -1.498   8.801  0.00  0.00     0.047 A 
ATOM      5  C9  ZIN A   1      19.122  -2.748   9.388  0.00  0.00     0.075 A 
ATOM      6  C22 ZIN A   1      18.870  -2.852  10.748  0.00  0.00    -0.020 A 
ATOM      7  C23 ZIN A   1      18.729  -4.210  11.387  0.00  0.00     0.052 C 
ATOM      8  C24 ZIN A   1      18.752  -1.711  11.517  0.00  0.00    -0.019 A 
ATOM      9  C25 ZIN A   1      18.477  -1.824  12.995  0.00  0.00     0.052 C 
ENDROOT
BRANCH   5  10
ATOM     10  O10 ZIN A   1      19.244  -3.871   8.631  0.00  0.00    -0.348 OA
BRANCH  10  11
ATOM     11  C11 ZIN A   1      18.432  -3.954   7.458  0.00  0.00     0.209 C 
BRANCH  11  12
ATOM     12  C12 ZIN A   1      19.326  -4.158   6.233  0.00  0.00     0.168 C 
BRANCH  12  13
ATOM     13  O14 ZIN A   1      20.691  -3.947   6.599  0.00  0.00    -0.392 OA
ATOM     14  H35 ZIN A   1      20.886  -3.046   6.892  0.00  0.00     0.210 HD
ENDBRANCH  12  13
BRANCH  12  15
ATOM     15  C15 ZIN A   1      18.931  -3.159   5.143  0.00  0.00     0.266 C 
BRANCH  15  16
ATOM     16  N16 ZIN A   1      17.790  -2.357   5.605  0.00  0.00    -0.069 N 
ATOM     17  H17 ZIN A   1      16.935  -2.747   5.238  0.00  0.00     0.277 HD
ATOM     18  H18 ZIN A   1      17.758  -2.365   6.613  0.00  0.00     0.277 HD
BRANCH  16  19
ATOM     19  C19 ZIN A   1      17.939  -0.975   5.130  0.00  0.00     0.178 C 
ATOM     20  C20 ZIN A   1      17.195  -0.028   6.073  0.00  0.00     0.039 C 
ATOM     21  C21 ZIN A   1      19.423  -0.603   5.099  0.00  0.00     0.039 C 
ENDBRANCH  16  19
ENDBRANCH  15  16
ENDBRANCH  12  15
ENDBRANCH  11  12
ENDBRANCH  10  11
ENDBRANCH   5  10
BRANCH   1  22
ATOM     22  O4  ZIN A   1      18.755   0.662  11.686  0.00  0.00    -0.278 OA
BRANCH  22  23
ATOM     23  C2  ZIN A   1      17.583   1.314  11.629  0.00  0.00     0.260 C 
ATOM     24  C1  ZIN A   1      17.557   2.821  11.627  0.00  0.00     0.126 C 
ATOM     25  O3  ZIN A   1      16.548   0.692  11.579  0.00  0.00    -0.265 OA
ENDBRANCH  22  23
ENDBRANCH   1  22
TORSDOF 9
ENDMDL
MODEL 4
REMARK VINA RESULT:      -6.3      3.107      4.131
REMARK  9 active torsions:
REMARK  status: ('A' for Active; 'I' for Inactive)
REMARK    1  A    between atoms: C2_2  and  O4_4 
REMARK    2  A    between atoms: O4_4  and  C5_5 
REMARK    3  A    between atoms: C9_9  and  O10_10 
REMARK    4  A    between atoms: O10_10  and  C11_11 
REMARK    5  A    between atoms: C11_11  and  C12_12 
REMARK    6  A    between atoms: C12_12  and  O14_13 
REMARK    7  A    between atoms: C12_12  and  C15_14 
REMARK    8  A    between atoms: C15_14  and  N16_15 
REMARK    9  A    between atoms: N16_15  and  C19_18 
ROOT
ATOM      1  C5  ZIN A   1      18.587  -0.220   8.438  0.00  0.00     0.091 A 
ATOM      2  C6  ZIN A   1      18.022  -1.144   9.303  0.00  0.00    -0.025 A 
ATOM      3  C7  ZIN A   1      18.011  -2.608   8.942  0.00  0.00     0.051 C 
ATOM      4  C8  ZIN A   1      17.469  -0.724  10.497  0.00  0.00     0.047 A 
ATOM      5  C9  ZIN A   1      17.479   0.622  10.830  0.00  0.00     0.075 A 
ATOM      6  C22 ZIN A   1      18.044   1.547   9.965  0.00  0.00    -0.020 A 
ATOM      7  C23 ZIN A   1      18.055   3.010  10.327  0.00  0.00     0.052 C 
ATOM      8  C24 ZIN A   1      18.602   1.126   8.774  0.00  0.00    -0.019 A 
ATOM      9  C25 ZIN A   1      19.216   2.131   7.833  0.00  0.00     0.052 C 
ENDROOT
BRANCH   5  10
ATOM     10  O10 ZIN A   1      16.934   1.035  12.006  0.00  0.00    -0.348 OA
BRANCH  10  11
ATOM     11  C11 ZIN A   1      17.568   0.589  13.207  0.00  0.00     0.209 C 
BRANCH  11  12
ATOM     12  C12 ZIN A   1      18.558   1.653  13.685  0.00  0.00     0.168 C 
BRANCH  12  13
ATOM     13  O14 ZIN A   1      19.893   1.172  13.513  0.00  0.00    -0.392 OA
ATOM     14  H35 ZIN A   1      20.416   1.683  12.880  0.00  0.00     0.210 HD
ENDBRANCH  12  13
BRANCH  12  15
ATOM     15  C15 ZIN A   1      18.310   1.950  15.166  0.00  0.00     0.266 C 
BRANCH  15  16
ATOM     16  N16 ZIN A   1      17.686   0.782  15.802  0.00  0.00    -0.069 N 
ATOM     17  H17 ZIN A   1      16.889   1.080  16.344  0.00  0.00     0.277 HD
ATOM     18  H18 ZIN A   1      17.385   0.132  15.091  0.00  0.00     0.277 HD
BRANCH  16  19
ATOM     19  C19 ZIN A   1      18.660   0.126  16.685  0.00  0.00     0.178 C 
ATOM     20  C20 ZIN A   1      18.204   0.262  18.139  0.00  0.00     0.039 C 
ATOM     21  C21 ZIN A   1      18.763  -1.356  16.319  0.00  0.00     0.039 C 
ENDBRANCH  16  19
ENDBRANCH  15  16
ENDBRANCH  12  15
ENDBRANCH  11  12
ENDBRANCH  10  11
ENDBRANCH   5  10
BRANCH   1  22
ATOM     22  O4  ZIN A   1      19.133  -0.634   7.263  0.00  0.00    -0.278 OA
BRANCH  22  23
ATOM     23  C2  ZIN A   1      18.436  -0.381   6.144  0.00  0.00     0.260 C 
ATOM     24  C1  ZIN A   1      19.160  -0.089   4.855  0.00  0.00     0.126 C 
ATOM     25  O3  ZIN A   1      17.229  -0.388   6.171  0.00  0.00    -0.265 OA
ENDBRANCH  22  23
ENDBRANCH   1  22
TORSDOF 9
ENDMDL
MODEL 5
REMARK VINA RESULT:      -6.3      3.741      8.871
REMARK  9 active torsions:
REMARK  status: ('A' for Active; 'I' for Inactive)
REMARK    1  A    between atoms: C2_2  and  O4_4 
REMARK    2  A    between atoms: O4_4  and  C5_5 
REMARK    3  A    between atoms: C9_9  and  O10_10 
REMARK    4  A    between atoms: O10_10  and  C11_11 
REMARK    5  A    between atoms: C11_11  and  C12_12 
REMARK    6  A    between atoms: C12_12  and  O14_13 
REMARK    7  A    between atoms: C12_12  and  C15_14 
REMARK    8  A    between atoms: C15_14  and  N16_15 
REMARK    9  A    between atoms: N16_15  and  C19_18 
ROOT
ATOM      1  C5  ZIN A   1      18.518   0.613  15.887  0.00  0.00     0.091 A 
ATOM      2  C6  ZIN A   1      18.525  -0.752  15.648  0.00  0.00    -0.025 A 
ATOM      3  C7  ZIN A   1      18.073  -1.709  16.722  0.00  0.00     0.051 C 
ATOM      4  C8  ZIN A   1      18.946  -1.237  14.425  0.00  0.00     0.047 A 
ATOM      5  C9  ZIN A   1      19.362  -0.357  13.436  0.00  0.00     0.075 A 
ATOM      6  C22 ZIN A   1      19.355   1.009  13.675  0.00  0.00    -0.020 A 
ATOM      7  C23 ZIN A   1      19.807   1.965  12.602  0.00  0.00     0.052 C 
ATOM      8  C24 ZIN A   1      18.928   1.493  14.896  0.00  0.00    -0.019 A 
ATOM      9  C25 ZIN A   1      18.921   2.978  15.157  0.00  0.00     0.052 C 
ENDROOT
BRANCH   5  10
ATOM     10  O10 ZIN A   1      19.776  -0.835  12.232  0.00  0.00    -0.348 OA
BRANCH  10  11
ATOM     11  C11 ZIN A   1      19.167  -2.042  11.768  0.00  0.00     0.209 C 
BRANCH  11  12
ATOM     12  C12 ZIN A   1      19.074  -2.012  10.242  0.00  0.00     0.168 C 
BRANCH  12  13
ATOM     13  O14 ZIN A   1      19.730  -3.160   9.701  0.00  0.00    -0.392 OA
ATOM     14  H35 ZIN A   1      19.402  -4.001  10.049  0.00  0.00     0.210 HD
ENDBRANCH  12  13
BRANCH  12  15
ATOM     15  C15 ZIN A   1      19.751  -0.744   9.715  0.00  0.00     0.266 C 
BRANCH  15  16
ATOM     16  N16 ZIN A   1      18.772   0.351   9.674  0.00  0.00    -0.069 N 
ATOM     17  H17 ZIN A   1      17.911   0.017   9.271  0.00  0.00     0.277 HD
ATOM     18  H18 ZIN A   1      18.599   0.684  10.611  0.00  0.00     0.277 HD
BRANCH  16  19
ATOM     19  C19 ZIN A   1      19.301   1.450   8.855  0.00  0.00     0.178 C 
ATOM     20  C20 ZIN A   1      19.013   1.171   7.379  0.00  0.00     0.039 C 
ATOM     21  C21 ZIN A   1      18.632   2.763   9.267  0.00  0.00     0.039 C 
ENDBRANCH  16  19
ENDBRANCH  15  16
ENDBRANCH  12  15
ENDBRANCH  11  12
ENDBRANCH  10  11
ENDBRANCH   5  10
BRANCH   1  22
ATOM     22  O4  ZIN A   1      18.102   1.090  17.091  0.00  0.00    -0.278 OA
BRANCH  22  23
ATOM     23  C2  ZIN A   1      19.054   1.457  17.964  0.00  0.00     0.260 C 
ATOM     24  C1  ZIN A   1      19.035   2.839  18.564  0.00  0.00     0.126 C 
ATOM     25  O3  ZIN A   1      19.925   0.678  18.268  0.00  0.00    -0.265 OA
ENDBRANCH  22  23
ENDBRANCH   1  22
TORSDOF 9
ENDMDL
MODEL 6
REMARK VINA RESULT:      -6.3      3.821      6.306
REMARK  9 active torsions:
REMARK  status: ('A' for Active; 'I' for Inactive)
REMARK    1  A    between atoms: C2_2  and  O4_4 
REMARK    2  A    between atoms: O4_4  and  C5_5 
REMARK    3  A    between atoms: C9_9  and  O10_10 
REMARK    4  A    between atoms: O10_10  and  C11_11 
REMARK    5  A    between atoms: C11_11  and  C12_12 
REMARK    6  A    between atoms: C12_12  and  O14_13 
REMARK    7  A    between atoms: C12_12  and  C15_14 
REMARK    8  A    between atoms: C15_14  and  N16_15 
REMARK    9  A    between atoms: N16_15  and  C19_18 
ROOT
ATOM      1  C5  ZIN A   1      19.162   0.722  10.686  0.00  0.00     0.091 A 
ATOM      2  C6  ZIN A   1      18.925   2.037  11.057  0.00  0.00    -0.025 A 
ATOM      3  C7  ZIN A   1      18.665   3.082  10.002  0.00  0.00     0.051 C 
ATOM      4  C8  ZIN A   1      18.925   2.389  12.392  0.00  0.00     0.047 A 
ATOM      5  C9  ZIN A   1      19.163   1.427  13.363  0.00  0.00     0.075 A 
ATOM      6  C22 ZIN A   1      19.400   0.112  12.993  0.00  0.00    -0.020 A 
ATOM      7  C23 ZIN A   1      19.660  -0.933  14.047  0.00  0.00     0.052 C 
ATOM      8  C24 ZIN A   1      19.394  -0.241  11.658  0.00  0.00    -0.019 A 
ATOM      9  C25 ZIN A   1      19.653  -1.670  11.255  0.00  0.00     0.052 C 
ENDROOT
BRANCH   5  10
ATOM     10  O10 ZIN A   1      19.162   1.775  14.678  0.00  0.00    -0.348 OA
BRANCH  10  11
ATOM     11  C11 ZIN A   1      18.841   3.131  14.991  0.00  0.00     0.209 C 
BRANCH  11  12
ATOM     12  C12 ZIN A   1      19.259   3.435  16.431  0.00  0.00     0.168 C 
BRANCH  12  13
ATOM     13  O14 ZIN A   1      20.600   3.929  16.443  0.00  0.00    -0.392 OA
ATOM     14  H35 ZIN A   1      20.977   4.067  15.563  0.00  0.00     0.210 HD
ENDBRANCH  12  13
BRANCH  12  15
ATOM     15  C15 ZIN A   1      19.181   2.154  17.264  0.00  0.00     0.266 C 
BRANCH  15  16
ATOM     16  N16 ZIN A   1      17.833   1.581  17.154  0.00  0.00    -0.069 N 
ATOM     17  H17 ZIN A   1      17.175   2.174  17.636  0.00  0.00     0.277 HD
ATOM     18  H18 ZIN A   1      17.574   1.511  16.182  0.00  0.00     0.277 HD
BRANCH  16  19
ATOM     19  C19 ZIN A   1      17.818   0.243  17.761  0.00  0.00     0.178 C 
ATOM     20  C20 ZIN A   1      17.153  -0.746  16.802  0.00  0.00     0.039 C 
ATOM     21  C21 ZIN A   1      19.254  -0.206  18.043  0.00  0.00     0.039 C 
ENDBRANCH  16  19
ENDBRANCH  15  16
ENDBRANCH  12  15
ENDBRANCH  11  12
ENDBRANCH  10  11
ENDBRANCH   5  10
BRANCH   1  22
ATOM     22  O4  ZIN A   1      19.161   0.375   9.371  0.00  0.00    -0.278 OA
BRANCH  22  23
ATOM     23  C2  ZIN A   1      17.967   0.137   8.805  0.00  0.00     0.260 C 
ATOM     24  C1  ZIN A   1      17.836   0.118   7.304  0.00  0.00     0.126 C 
ATOM     25  O3  ZIN A   1      16.999  -0.062   9.499  0.00  0.00    -0.265 OA
ENDBRANCH  22  23
ENDBRANCH   1  22
TORSDOF 9
ENDMDL
MODEL 7
REMARK VINA RESULT:      -6.2      3.198      7.213
REMARK  9 active torsions:
REMARK  status: ('A' for Active; 'I' for Inactive)
REMARK    1  A    between atoms: C2_2  and  O4_4 
REMARK    2  A    between atoms: O4_4  and  C5_5 
REMARK    3  A    between atoms: C9_9  and  O10_10 
REMARK    4  A    between atoms: O10_10  and  C11_11 
REMARK    5  A    between atoms: C11_11  and  C12_12 
REMARK    6  A    between atoms: C12_12  and  O14_13 
REMARK    7  A    between atoms: C12_12  and  C15_14 
REMARK    8  A    between atoms: C15_14  and  N16_15 
REMARK    9  A    between atoms: N16_15  and  C19_18 
ROOT
ATOM      1  C5  ZIN A   1      17.757   2.344  11.596  0.00  0.00     0.091 A 
ATOM      2  C6  ZIN A   1      17.915   1.061  12.100  0.00  0.00    -0.025 A 
ATOM      3  C7  ZIN A   1      17.471   0.743  13.505  0.00  0.00     0.051 C 
ATOM      4  C8  ZIN A   1      18.479   0.075  11.313  0.00  0.00     0.047 A 
ATOM      5  C9  ZIN A   1      18.887   0.368  10.020  0.00  0.00     0.075 A 
ATOM      6  C22 ZIN A   1      18.729   1.650   9.517  0.00  0.00    -0.020 A 
ATOM      7  C23 ZIN A   1      19.173   1.969   8.112  0.00  0.00     0.052 C 
ATOM      8  C24 ZIN A   1      18.160   2.634  10.301  0.00  0.00    -0.019 A 
ATOM      9  C25 ZIN A   1      17.989   4.029   9.754  0.00  0.00     0.052 C 
ENDROOT
BRANCH   5  10
ATOM     10  O10 ZIN A   1      19.441  -0.604   9.247  0.00  0.00    -0.348 OA
BRANCH  10  11
ATOM     11  C11 ZIN A   1      19.066  -1.953   9.530  0.00  0.00     0.209 C 
BRANCH  11  12
ATOM     12  C12 ZIN A   1      18.823  -2.701   8.218  0.00  0.00     0.168 C 
BRANCH  12  13
ATOM     13  O14 ZIN A   1      19.727  -3.804   8.124  0.00  0.00    -0.392 OA
ATOM     14  H35 ZIN A   1      19.298  -4.647   7.920  0.00  0.00     0.210 HD
ENDBRANCH  12  13
BRANCH  12  15
ATOM     15  C15 ZIN A   1      19.055  -1.751   7.041  0.00  0.00     0.266 C 
BRANCH  15  16
ATOM     16  N16 ZIN A   1      17.789  -1.097   6.684  0.00  0.00    -0.069 N 
ATOM     17  H17 ZIN A   1      17.035  -1.763   6.755  0.00  0.00     0.277 HD
ATOM     18  H18 ZIN A   1      17.618  -0.326   7.312  0.00  0.00     0.277 HD
BRANCH  16  19
ATOM     19  C19 ZIN A   1      17.868  -0.596   5.305  0.00  0.00     0.178 C 
ATOM     20  C20 ZIN A   1      19.310  -0.191   4.991  0.00  0.00     0.039 C 
ATOM     21  C21 ZIN A   1      17.424  -1.694   4.336  0.00  0.00     0.039 C 
ENDBRANCH  16  19
ENDBRANCH  15  16
ENDBRANCH  12  15
ENDBRANCH  11  12
ENDBRANCH  10  11
ENDBRANCH   5  10
BRANCH   1  22
ATOM     22  O4  ZIN A   1      17.201   3.314  12.370  0.00  0.00    -0.278 OA
BRANCH  22  23
ATOM     23  C2  ZIN A   1      18.037   4.051  13.119  0.00  0.00     0.260 C 
ATOM     24  C1  ZIN A   1      17.495   5.159  13.985  0.00  0.00     0.126 C 
ATOM     25  O3  ZIN A   1      19.223   3.826  13.098  0.00  0.00    -0.265 OA
ENDBRANCH  22  23
ENDBRANCH   1  22
TORSDOF 9
ENDMDL
MODEL 8
REMARK VINA RESULT:      -6.2      3.916      5.865
REMARK  9 active torsions:
REMARK  status: ('A' for Active; 'I' for Inactive)
REMARK    1  A    between atoms: C2_2  and  O4_4 
REMARK    2  A    between atoms: O4_4  and  C5_5 
REMARK    3  A    between atoms: C9_9  and  O10_10 
REMARK    4  A    between atoms: O10_10  and  C11_11 
REMARK    5  A    between atoms: C11_11  and  C12_12 
REMARK    6  A    between atoms: C12_12  and  O14_13 
REMARK    7  A    between atoms: C12_12  and  C15_14 
REMARK    8  A    between atoms: C15_14  and  N16_15 
REMARK    9  A    between atoms: N16_15  and  C19_18 
ROOT
ATOM      1  C5  ZIN A   1      17.960   0.739  10.430  0.00  0.00     0.091 A 
ATOM      2  C6  ZIN A   1      17.679   0.007  11.574  0.00  0.00    -0.025 A 
ATOM      3  C7  ZIN A   1      17.350  -1.460  11.467  0.00  0.00     0.051 C 
ATOM      4  C8  ZIN A   1      17.703   0.621  12.810  0.00  0.00     0.047 A 
ATOM      5  C9  ZIN A   1      18.006   1.971  12.909  0.00  0.00     0.075 A 
ATOM      6  C22 ZIN A   1      18.286   2.704  11.765  0.00  0.00    -0.020 A 
ATOM      7  C23 ZIN A   1      18.615   4.171  11.871  0.00  0.00     0.052 C 
ATOM      8  C24 ZIN A   1      18.269   2.088  10.529  0.00  0.00    -0.019 A 
ATOM      9  C25 ZIN A   1      18.573   2.884   9.286  0.00  0.00     0.052 C 
ENDROOT
BRANCH   5  10
ATOM     10  O10 ZIN A   1      18.029   2.575  14.127  0.00  0.00    -0.348 OA
BRANCH  10  11
ATOM     11  C11 ZIN A   1      19.124   2.258  14.989  0.00  0.00     0.209 C 
BRANCH  11  12
ATOM     12  C12 ZIN A   1      19.026   3.095  16.265  0.00  0.00     0.168 C 
BRANCH  12  13
ATOM     13  O14 ZIN A   1      20.317   3.609  16.599  0.00  0.00    -0.392 OA
ATOM     14  H35 ZIN A   1      21.021   2.947  16.578  0.00  0.00     0.210 HD
ENDBRANCH  12  13
BRANCH  12  15
ATOM     15  C15 ZIN A   1      18.515   2.217  17.411  0.00  0.00     0.266 C 
BRANCH  15  16
ATOM     16  N16 ZIN A   1      17.626   1.179  16.873  0.00  0.00    -0.069 N 
ATOM     17  H17 ZIN A   1      16.666   1.442  17.036  0.00  0.00     0.277 HD
ATOM     18  H18 ZIN A   1      17.784   1.080  15.881  0.00  0.00     0.277 HD
BRANCH  16  19
ATOM     19  C19 ZIN A   1      17.903  -0.098  17.543  0.00  0.00     0.178 C 
ATOM     20  C20 ZIN A   1      17.871  -1.232  16.516  0.00  0.00     0.039 C 
ATOM     21  C21 ZIN A   1      19.285  -0.042  18.198  0.00  0.00     0.039 C 
ENDBRANCH  16  19
ENDBRANCH  15  16
ENDBRANCH  12  15
ENDBRANCH  11  12
ENDBRANCH  10  11
ENDBRANCH   5  10
BRANCH   1  22
ATOM     22  O4  ZIN A   1      17.938   0.134   9.213  0.00  0.00    -0.278 OA
BRANCH  22  23
ATOM     23  C2  ZIN A   1      19.074  -0.452   8.802  0.00  0.00     0.260 C 
ATOM     24  C1  ZIN A   1      19.069  -1.335   7.582  0.00  0.00     0.126 C 
ATOM     25  O3  ZIN A   1      20.101  -0.270   9.413  0.00  0.00    -0.265 OA
ENDBRANCH  22  23
ENDBRANCH   1  22
TORSDOF 9
ENDMDL
MODEL 9
REMARK VINA RESULT:      -6.1      3.076      4.717
REMARK  9 active torsions:
REMARK  status: ('A' for Active; 'I' for Inactive)
REMARK    1  A    between atoms: C2_2  and  O4_4 
REMARK    2  A    between atoms: O4_4  and  C5_5 
REMARK    3  A    between atoms: C9_9  and  O10_10 
REMARK    4  A    between atoms: O10_10  and  C11_11 
REMARK    5  A    between atoms: C11_11  and  C12_12 
REMARK    6  A    between atoms: C12_12  and  O14_13 
REMARK    7  A    between atoms: C12_12  and  C15_14 
REMARK    8  A    between atoms: C15_14  and  N16_15 
REMARK    9  A    between atoms: N16_15  and  C19_18 
ROOT
ATOM      1  C5  ZIN A   1      18.852  -0.176   8.697  0.00  0.00     0.091 A 
ATOM      2  C6  ZIN A   1      18.732   1.169   9.012  0.00  0.00    -0.025 A 
ATOM      3  C7  ZIN A   1      19.166   2.218   8.020  0.00  0.00     0.051 C 
ATOM      4  C8  ZIN A   1      18.213   1.548  10.235  0.00  0.00     0.047 A 
ATOM      5  C9  ZIN A   1      17.813   0.584  11.148  0.00  0.00     0.075 A 
ATOM      6  C22 ZIN A   1      17.933  -0.761  10.833  0.00  0.00    -0.020 A 
ATOM      7  C23 ZIN A   1      17.498  -1.810  11.825  0.00  0.00     0.052 C 
ATOM      8  C24 ZIN A   1      18.446  -1.140   9.608  0.00  0.00    -0.019 A 
ATOM      9  C25 ZIN A   1      18.577  -2.602   9.266  0.00  0.00     0.052 C 
ENDROOT
BRANCH   5  10
ATOM     10  O10 ZIN A   1      17.302   0.958  12.351  0.00  0.00    -0.348 OA
BRANCH  10  11
ATOM     11  C11 ZIN A   1      17.913   2.076  12.998  0.00  0.00     0.209 C 
BRANCH  11  12
ATOM     12  C12 ZIN A   1      18.576   1.614  14.296  0.00  0.00     0.168 C 
BRANCH  12  13
ATOM     13  O14 ZIN A   1      19.896   1.143  14.016  0.00  0.00    -0.392 OA
ATOM     14  H35 ZIN A   1      20.180   0.410  14.579  0.00  0.00     0.210 HD
ENDBRANCH  12  13
BRANCH  12  15
ATOM     15  C15 ZIN A   1      17.752   0.482  14.914  0.00  0.00     0.266 C 
BRANCH  15  16
ATOM     16  N16 ZIN A   1      17.477   0.790  16.323  0.00  0.00    -0.069 N 
ATOM     17  H17 ZIN A   1      18.006   1.603  16.599  0.00  0.00     0.277 HD
ATOM     18  H18 ZIN A   1      16.492   0.974  16.442  0.00  0.00     0.277 HD
BRANCH  16  19
ATOM     19  C19 ZIN A   1      17.866  -0.353  17.160  0.00  0.00     0.178 C 
ATOM     20  C20 ZIN A   1      18.263  -1.529  16.266  0.00  0.00     0.039 C 
ATOM     21  C21 ZIN A   1      19.052   0.041  18.043  0.00  0.00     0.039 C 
ENDBRANCH  16  19
ENDBRANCH  15  16
ENDBRANCH  12  15
ENDBRANCH  11  12
ENDBRANCH  10  11
ENDBRANCH   5  10
BRANCH   1  22
ATOM     22  O4  ZIN A   1      19.361  -0.549   7.493  0.00  0.00    -0.278 OA
BRANCH  22  23
ATOM     23  C2  ZIN A   1      18.567  -0.398   6.421  0.00  0.00     0.260 C 
ATOM     24  C1  ZIN A   1      19.167  -0.076   5.077  0.00  0.00     0.126 C 
ATOM     25  O3  ZIN A   1      17.371  -0.520   6.535  0.00  0.00    -0.265 OA
ENDBRANCH  22  23
ENDBRANCH   1  22
TORSDOF 9
ENDMDL
