MODEL 1
REMARK VINA RESULT:      -5.0      0.000      0.000
REMARK  7 active torsions:
REMARK  status: ('A' for Active; 'I' for Inactive)
REMARK    1  A    between atoms: S2_2  and  O5_5 
REMARK    2  A    between atoms: O5_5  and  C6_6 
REMARK    3  A    between atoms: C6_6  and  C7_7 
REMARK    4  A    between atoms: C7_7  and  C8_8 
REMARK    5  A    between atoms: C8_8  and  C9_9 
REMARK    6  A    between atoms: C9_9  and  O10_10 
REMARK    7  A    between atoms: O10_10  and  S11_11 
ROOT
ATOM      1  C7  <0> d   1      18.913   1.158   7.542  0.00  0.00     0.030 C 
ENDROOT
BRANCH   1   2
ATOM      2  C6  <0> d   1      18.284  -0.187   7.175  0.00  0.00     0.190 C 
BRANCH   2   3
ATOM      3  O5  <0> d   1      19.310  -1.105   6.791  0.00  0.00    -0.276 OA
BRANCH   3   4
ATOM      4  S2  <0> d   1      19.225  -1.559   5.341  0.00  0.00     0.261 S 
ATOM      5  C1  <0> d   1      17.475  -1.360   4.907  0.00  0.00     0.194 C 
ATOM      6  O3  <0> d   1      19.574  -2.937   5.385  0.00  0.00    -0.199 OA
ATOM      7  O4  <0> d   1      20.025  -0.624   4.633  0.00  0.00    -0.199 OA
ENDBRANCH   3   4
ENDBRANCH   2   3
ENDBRANCH   1   2
BRANCH   1   8
ATOM      8  C8  <0> d   1      18.843   1.356   9.057  0.00  0.00     0.030 C 
BRANCH   8   9
ATOM      9  C9  <0> d   1      17.729   0.482   9.636  0.00  0.00     0.190 C 
BRANCH   9  10
ATOM     10  O10 <0> d   1      18.224  -0.235  10.767  0.00  0.00    -0.276 OA
BRANCH  10  11
ATOM     11  S11 <0> d   1      17.144  -0.657  11.754  0.00  0.00     0.261 S 
ATOM     12  C12 <0> d   1      17.804  -0.180  13.376  0.00  0.00     0.194 C 
ATOM     13  O13 <0> d   1      16.025   0.151  11.415  0.00  0.00    -0.199 OA
ATOM     14  O14 <0> d   1      17.091  -2.071  11.633  0.00  0.00    -0.199 OA
ENDBRANCH  10  11
ENDBRANCH   9  10
ENDBRANCH   8   9
ENDBRANCH   1   8
TORSDOF 7
ENDMDL
MODEL 2
REMARK VINA RESULT:      -4.9      1.272      6.107
REMARK  7 active torsions:
REMARK  status: ('A' for Active; 'I' for Inactive)
REMARK    1  A    between atoms: S2_2  and  O5_5 
REMARK    2  A    between atoms: O5_5  and  C6_6 
REMARK    3  A    between atoms: C6_6  and  C7_7 
REMARK    4  A    between atoms: C7_7  and  C8_8 
REMARK    5  A    between atoms: C8_8  and  C9_9 
REMARK    6  A    between atoms: C9_9  and  O10_10 
REMARK    7  A    between atoms: O10_10  and  S11_11 
ROOT
ATOM      1  C7  <0> d   1      19.149   1.952   8.445  0.00  0.00     0.030 C 
ENDROOT
BRANCH   1   2
ATOM      2  C6  <0> d   1      18.268   2.183   9.674  0.00  0.00     0.190 C 
BRANCH   2   3
ATOM      3  O5  <0> d   1      17.525   0.996   9.959  0.00  0.00    -0.276 OA
BRANCH   3   4
ATOM      4  S2  <0> d   1      17.264   0.768  11.440  0.00  0.00     0.261 S 
ATOM      5  C1  <0> d   1      18.670  -0.232  12.000  0.00  0.00     0.194 C 
ATOM      6  O3  <0> d   1      16.065   0.004  11.471  0.00  0.00    -0.199 OA
ATOM      7  O4  <0> d   1      17.318   2.068  12.010  0.00  0.00    -0.199 OA
ENDBRANCH   3   4
ENDBRANCH   2   3
ENDBRANCH   1   2
BRANCH   1   8
ATOM      8  C8  <0> d   1      19.197   0.457   8.126  0.00  0.00     0.030 C 
BRANCH   8   9
ATOM      9  C9  <0> d   1      18.910   0.242   6.639  0.00  0.00     0.190 C 
BRANCH   9  10
ATOM     10  O10 <0> d   1      18.398  -1.076   6.438  0.00  0.00    -0.276 OA
BRANCH  10  11
ATOM     11  S11 <0> d   1      19.156  -1.882   5.392  0.00  0.00     0.261 S 
ATOM     12  C12 <0> d   1      17.858  -2.683   4.410  0.00  0.00     0.194 C 
ATOM     13  O13 <0> d   1      19.832  -0.900   4.617  0.00  0.00    -0.199 OA
ATOM     14  O14 <0> d   1      19.878  -2.844   6.146  0.00  0.00    -0.199 OA
ENDBRANCH  10  11
ENDBRANCH   9  10
ENDBRANCH   8   9
ENDBRANCH   1   8
TORSDOF 7
ENDMDL
MODEL 3
REMARK VINA RESULT:      -4.8      1.112      6.152
REMARK  7 active torsions:
REMARK  status: ('A' for Active; 'I' for Inactive)
REMARK    1  A    between atoms: S2_2  and  O5_5 
REMARK    2  A    between atoms: O5_5  and  C6_6 
REMARK    3  A    between atoms: C6_6  and  C7_7 
REMARK    4  A    between atoms: C7_7  and  C8_8 
REMARK    5  A    between atoms: C8_8  and  C9_9 
REMARK    6  A    between atoms: C9_9  and  O10_10 
REMARK    7  A    between atoms: O10_10  and  S11_11 
ROOT
ATOM      1  C7  <0> d   1      18.258   1.216   9.082  0.00  0.00     0.030 C 
ENDROOT
BRANCH   1   2
ATOM      2  C6  <0> d   1      18.745   0.215  10.131  0.00  0.00     0.190 C 
BRANCH   2   3
ATOM      3  O5  <0> d   1      18.222   0.574  11.412  0.00  0.00    -0.276 OA
BRANCH   3   4
ATOM      4  S2  <0> d   1      17.223  -0.426  11.976  0.00  0.00     0.261 S 
ATOM      5  C1  <0> d   1      17.607  -1.980  11.121  0.00  0.00     0.194 C 
ATOM      6  O3  <0> d   1      15.958   0.071  11.562  0.00  0.00    -0.199 OA
ATOM      7  O4  <0> d   1      17.559  -0.519  13.353  0.00  0.00    -0.199 OA
ENDBRANCH   3   4
ENDBRANCH   2   3
ENDBRANCH   1   2
BRANCH   1   8
ATOM      8  C8  <0> d   1      19.100   1.075   7.813  0.00  0.00     0.030 C 
BRANCH   8   9
ATOM      9  C9  <0> d   1      18.384   0.152   6.825  0.00  0.00     0.190 C 
BRANCH   9  10
ATOM     10  O10 <0> d   1      19.117  -1.067   6.695  0.00  0.00    -0.276 OA
BRANCH  10  11
ATOM     11  S11 <0> d   1      19.191  -1.595   5.269  0.00  0.00     0.261 S 
ATOM     12  C12 <0> d   1      17.480  -1.525   4.672  0.00  0.00     0.194 C 
ATOM     13  O13 <0> d   1      19.997  -0.644   4.584  0.00  0.00    -0.199 OA
ATOM     14  O14 <0> d   1      19.615  -2.943   5.416  0.00  0.00    -0.199 OA
ENDBRANCH  10  11
ENDBRANCH   9  10
ENDBRANCH   8   9
ENDBRANCH   1   8
TORSDOF 7
ENDMDL
MODEL 4
REMARK VINA RESULT:      -4.8      1.403      1.679
REMARK  7 active torsions:
REMARK  status: ('A' for Active; 'I' for Inactive)
REMARK    1  A    between atoms: S2_2  and  O5_5 
REMARK    2  A    between atoms: O5_5  and  C6_6 
REMARK    3  A    between atoms: C6_6  and  C7_7 
REMARK    4  A    between atoms: C7_7  and  C8_8 
REMARK    5  A    between atoms: C8_8  and  C9_9 
REMARK    6  A    between atoms: C9_9  and  O10_10 
REMARK    7  A    between atoms: O10_10  and  S11_11 
ROOT
ATOM      1  C7  <0> d   1      19.132   1.486   7.976  0.00  0.00     0.030 C 
ENDROOT
BRANCH   1   2
ATOM      2  C6  <0> d   1      18.768   0.806   6.655  0.00  0.00     0.190 C 
BRANCH   2   3
ATOM      3  O5  <0> d   1      19.162  -0.567   6.701  0.00  0.00    -0.276 OA
BRANCH   3   4
ATOM      4  S2  <0> d   1      18.940  -1.320   5.397  0.00  0.00     0.261 S 
ATOM      5  C1  <0> d   1      19.189  -3.063   5.833  0.00  0.00     0.194 C 
ATOM      6  O3  <0> d   1      19.985  -0.865   4.547  0.00  0.00    -0.199 OA
ATOM      7  O4  <0> d   1      17.578  -1.075   5.078  0.00  0.00    -0.199 OA
ENDBRANCH   3   4
ENDBRANCH   2   3
ENDBRANCH   1   2
BRANCH   1   8
ATOM      8  C8  <0> d   1      19.615   0.433   8.975  0.00  0.00     0.030 C 
BRANCH   8   9
ATOM      9  C9  <0> d   1      19.324   0.910  10.400  0.00  0.00     0.190 C 
BRANCH   9  10
ATOM     10  O10 <0> d   1      18.337   0.065  10.993  0.00  0.00    -0.276 OA
BRANCH  10  11
ATOM     11  S11 <0> d   1      17.221   0.820  11.702  0.00  0.00     0.261 S 
ATOM     12  C12 <0> d   1      17.756   0.896  13.433  0.00  0.00     0.194 C 
ATOM     13  O13 <0> d   1      17.246   2.114  11.115  0.00  0.00    -0.199 OA
ATOM     14  O14 <0> d   1      16.086  -0.024  11.566  0.00  0.00    -0.199 OA
ENDBRANCH  10  11
ENDBRANCH   9  10
ENDBRANCH   8   9
ENDBRANCH   1   8
TORSDOF 7
ENDMDL
MODEL 5
REMARK VINA RESULT:      -4.8      1.874      6.310
REMARK  7 active torsions:
REMARK  status: ('A' for Active; 'I' for Inactive)
REMARK    1  A    between atoms: S2_2  and  O5_5 
REMARK    2  A    between atoms: O5_5  and  C6_6 
REMARK    3  A    between atoms: C6_6  and  C7_7 
REMARK    4  A    between atoms: C7_7  and  C8_8 
REMARK    5  A    between atoms: C8_8  and  C9_9 
REMARK    6  A    between atoms: C9_9  and  O10_10 
REMARK    7  A    between atoms: O10_10  and  S11_11 
ROOT
ATOM      1  C7  <0> d   1      19.110   1.363   8.235  0.00  0.00     0.030 C 
ENDROOT
BRANCH   1   2
ATOM      2  C6  <0> d   1      18.858   2.389   9.342  0.00  0.00     0.190 C 
BRANCH   2   3
ATOM      3  O5  <0> d   1      19.152   1.803  10.612  0.00  0.00    -0.276 OA
BRANCH   3   4
ATOM      4  S2  <0> d   1      18.047   1.973  11.644  0.00  0.00     0.261 S 
ATOM      5  C1  <0> d   1      17.315   0.320  11.800  0.00  0.00     0.194 C 
ATOM      6  O3  <0> d   1      17.129   2.868  11.030  0.00  0.00    -0.199 OA
ATOM      7  O4  <0> d   1      18.732   2.329  12.836  0.00  0.00    -0.199 OA
ENDBRANCH   3   4
ENDBRANCH   2   3
ENDBRANCH   1   2
BRANCH   1   8
ATOM      8  C8  <0> d   1      17.925   0.400   8.154  0.00  0.00     0.030 C 
BRANCH   8   9
ATOM      9  C9  <0> d   1      17.877  -0.234   6.761  0.00  0.00     0.190 C 
BRANCH   9  10
ATOM     10  O10 <0> d   1      18.952  -1.165   6.625  0.00  0.00    -0.276 OA
BRANCH  10  11
ATOM     11  S11 <0> d   1      19.165  -1.660   5.200  0.00  0.00     0.261 S 
ATOM     12  C12 <0> d   1      17.507  -1.643   4.464  0.00  0.00     0.194 C 
ATOM     13  O13 <0> d   1      19.986  -0.665   4.603  0.00  0.00    -0.199 OA
ATOM     14  O14 <0> d   1      19.627  -2.993   5.359  0.00  0.00    -0.199 OA
ENDBRANCH  10  11
ENDBRANCH   9  10
ENDBRANCH   8   9
ENDBRANCH   1   8
TORSDOF 7
ENDMDL
MODEL 6
REMARK VINA RESULT:      -4.8      4.473      8.857
REMARK  7 active torsions:
REMARK  status: ('A' for Active; 'I' for Inactive)
REMARK    1  A    between atoms: S2_2  and  O5_5 
REMARK    2  A    between atoms: O5_5  and  C6_6 
REMARK    3  A    between atoms: C6_6  and  C7_7 
REMARK    4  A    between atoms: C7_7  and  C8_8 
REMARK    5  A    between atoms: C8_8  and  C9_9 
REMARK    6  A    between atoms: C9_9  and  O10_10 
REMARK    7  A    between atoms: O10_10  and  S11_11 
ROOT
ATOM      1  C7  <0> d   1      18.090  -1.233  15.917  0.00  0.00     0.030 C 
ENDROOT
BRANCH   1   2
ATOM      2  C6  <0> d   1      18.556  -0.383  17.101  0.00  0.00     0.190 C 
BRANCH   2   3
ATOM      3  O5  <0> d   1      18.324   0.998  16.817  0.00  0.00    -0.276 OA
BRANCH   3   4
ATOM      4  S2  <0> d   1      19.131   1.953  17.684  0.00  0.00     0.261 S 
ATOM      5  C1  <0> d   1      17.882   2.878  18.621  0.00  0.00     0.194 C 
ATOM      6  O3  <0> d   1      19.787   2.804  16.753  0.00  0.00    -0.199 OA
ATOM      7  O4  <0> d   1      19.872   1.102  18.547  0.00  0.00    -0.199 OA
ENDBRANCH   3   4
ENDBRANCH   2   3
ENDBRANCH   1   2
BRANCH   1   8
ATOM      8  C8  <0> d   1      18.839  -0.804  14.655  0.00  0.00     0.030 C 
BRANCH   8   9
ATOM      9  C9  <0> d   1      17.854  -0.693  13.489  0.00  0.00     0.190 C 
BRANCH   9  10
ATOM     10  O10 <0> d   1      17.825   0.654  13.016  0.00  0.00    -0.276 OA
BRANCH  10  11
ATOM     11  S11 <0> d   1      17.268   0.803  11.607  0.00  0.00     0.261 S 
ATOM     12  C12 <0> d   1      18.538   0.071  10.538  0.00  0.00     0.194 C 
ATOM     13  O13 <0> d   1      16.094   0.002  11.608  0.00  0.00    -0.199 OA
ATOM     14  O14 <0> d   1      17.195   2.208  11.406  0.00  0.00    -0.199 OA
ENDBRANCH  10  11
ENDBRANCH   9  10
ENDBRANCH   8   9
ENDBRANCH   1   8
TORSDOF 7
ENDMDL
MODEL 7
REMARK VINA RESULT:      -4.8      2.116      2.395
REMARK  7 active torsions:
REMARK  status: ('A' for Active; 'I' for Inactive)
REMARK    1  A    between atoms: S2_2  and  O5_5 
REMARK    2  A    between atoms: O5_5  and  C6_6 
REMARK    3  A    between atoms: C6_6  and  C7_7 
REMARK    4  A    between atoms: C7_7  and  C8_8 
REMARK    5  A    between atoms: C8_8  and  C9_9 
REMARK    6  A    between atoms: C9_9  and  O10_10 
REMARK    7  A    between atoms: O10_10  and  S11_11 
ROOT
ATOM      1  C7  <0> d   1      19.648   0.084   8.692  0.00  0.00     0.030 C 
ENDROOT
BRANCH   1   2
ATOM      2  C6  <0> d   1      19.284  -1.132   7.839  0.00  0.00     0.190 C 
BRANCH   2   3
ATOM      3  O5  <0> d   1      18.738  -0.694   6.593  0.00  0.00    -0.276 OA
BRANCH   3   4
ATOM      4  S2  <0> d   1      19.183  -1.522   5.396  0.00  0.00     0.261 S 
ATOM      5  C1  <0> d   1      17.644  -1.914   4.519  0.00  0.00     0.194 C 
ATOM      6  O3  <0> d   1      19.742  -2.696   5.971  0.00  0.00    -0.199 OA
ATOM      7  O4  <0> d   1      19.980  -0.631   4.630  0.00  0.00    -0.199 OA
ENDBRANCH   3   4
ENDBRANCH   2   3
ENDBRANCH   1   2
BRANCH   1   8
ATOM      8  C8  <0> d   1      19.200   1.360   7.977  0.00  0.00     0.030 C 
BRANCH   8   9
ATOM      9  C9  <0> d   1      18.899   2.447   9.012  0.00  0.00     0.190 C 
BRANCH   9  10
ATOM     10  O10 <0> d   1      19.102   1.922  10.326  0.00  0.00    -0.276 OA
BRANCH  10  11
ATOM     11  S11 <0> d   1      18.034   2.338  11.329  0.00  0.00     0.261 S 
ATOM     12  C12 <0> d   1      17.450   3.946  10.727  0.00  0.00     0.194 C 
ATOM     13  O13 <0> d   1      17.018   1.354  11.187  0.00  0.00    -0.199 OA
ATOM     14  O14 <0> d   1      18.742   2.488  12.551  0.00  0.00    -0.199 OA
ENDBRANCH  10  11
ENDBRANCH   9  10
ENDBRANCH   8   9
ENDBRANCH   1   8
TORSDOF 7
ENDMDL
MODEL 8
REMARK VINA RESULT:      -4.6      4.712      6.594
REMARK  7 active torsions:
REMARK  status: ('A' for Active; 'I' for Inactive)
REMARK    1  A    between atoms: S2_2  and  O5_5 
REMARK    2  A    between atoms: O5_5  and  C6_6 
REMARK    3  A    between atoms: C6_6  and  C7_7 
REMARK    4  A    between atoms: C7_7  and  C8_8 
REMARK    5  A    between atoms: C8_8  and  C9_9 
REMARK    6  A    between atoms: C9_9  and  O10_10 
REMARK    7  A    between atoms: O10_10  and  S11_11 
ROOT
ATOM      1  C7  <0> d   1      17.657  -0.596  13.296  0.00  0.00     0.030 C 
ENDROOT
BRANCH   1   2
ATOM      2  C6  <0> d   1      17.870   0.890  13.002  0.00  0.00     0.190 C 
BRANCH   2   3
ATOM      3  O5  <0> d   1      17.089   1.269  11.867  0.00  0.00    -0.276 OA
BRANCH   3   4
ATOM      4  S2  <0> d   1      17.747   2.320  10.985  0.00  0.00     0.261 S 
ATOM      5  C1  <0> d   1      19.376   2.587  11.736  0.00  0.00     0.194 C 
ATOM      6  O3  <0> d   1      16.930   3.472  11.145  0.00  0.00    -0.199 OA
ATOM      7  O4  <0> d   1      17.878   1.685   9.721  0.00  0.00    -0.199 OA
ENDBRANCH   3   4
ENDBRANCH   2   3
ENDBRANCH   1   2
BRANCH   1   8
ATOM      8  C8  <0> d   1      18.640  -1.047  14.378  0.00  0.00     0.030 C 
BRANCH   8   9
ATOM      9  C9  <0> d   1      19.069   0.161  15.214  0.00  0.00     0.190 C 
BRANCH   9  10
ATOM     10  O10 <0> d   1      18.994  -0.170  16.602  0.00  0.00    -0.276 OA
BRANCH  10  11
ATOM     11  S11 <0> d   1      18.826   1.036  17.517  0.00  0.00     0.261 S 
ATOM     12  C12 <0> d   1      19.017   2.467  16.419  0.00  0.00     0.194 C 
ATOM     13  O13 <0> d   1      17.487   0.939  17.982  0.00  0.00    -0.199 OA
ATOM     14  O14 <0> d   1      19.922   0.947  18.416  0.00  0.00    -0.199 OA
ENDBRANCH  10  11
ENDBRANCH   9  10
ENDBRANCH   8   9
ENDBRANCH   1   8
TORSDOF 7
ENDMDL
MODEL 9
REMARK VINA RESULT:      -4.5      4.324      6.717
REMARK  7 active torsions:
REMARK  status: ('A' for Active; 'I' for Inactive)
REMARK    1  A    between atoms: S2_2  and  O5_5 
REMARK    2  A    between atoms: O5_5  and  C6_6 
REMARK    3  A    between atoms: C6_6  and  C7_7 
REMARK    4  A    between atoms: C7_7  and  C8_8 
REMARK    5  A    between atoms: C8_8  and  C9_9 
REMARK    6  A    between atoms: C9_9  and  O10_10 
REMARK    7  A    between atoms: O10_10  and  S11_11 
ROOT
ATOM      1  C7  <0> d   1      18.930  -1.206  14.257  0.00  0.00     0.030 C 
ENDROOT
BRANCH   1   2
ATOM      2  C6  <0> d   1      17.806  -0.939  13.253  0.00  0.00     0.190 C 
BRANCH   2   3
ATOM      3  O5  <0> d   1      18.278  -0.055  12.234  0.00  0.00    -0.276 OA
BRANCH   3   4
ATOM      4  S2  <0> d   1      17.364   0.034  11.020  0.00  0.00     0.261 S 
ATOM      5  C1  <0> d   1      17.780   1.627  10.257  0.00  0.00     0.194 C 
ATOM      6  O3  <0> d   1      16.054   0.072  11.569  0.00  0.00    -0.199 OA
ATOM      7  O4  <0> d   1      17.780  -1.040  10.188  0.00  0.00    -0.199 OA
ENDBRANCH   3   4
ENDBRANCH   2   3
ENDBRANCH   1   2
BRANCH   1   8
ATOM      8  C8  <0> d   1      18.339  -1.323  15.663  0.00  0.00     0.030 C 
BRANCH   8   9
ATOM      9  C9  <0> d   1      19.033  -0.325  16.592  0.00  0.00     0.190 C 
BRANCH   9  10
ATOM     10  O10 <0> d   1      18.067   0.588  17.117  0.00  0.00    -0.276 OA
BRANCH  10  11
ATOM     11  S11 <0> d   1      18.662   1.683  17.991  0.00  0.00     0.261 S 
ATOM     12  C12 <0> d   1      19.043   3.028  16.834  0.00  0.00     0.194 C 
ATOM     13  O13 <0> d   1      17.598   2.057  18.856  0.00  0.00    -0.199 OA
ATOM     14  O14 <0> d   1      19.857   1.112  18.504  0.00  0.00    -0.199 OA
ENDBRANCH  10  11
ENDBRANCH   9  10
ENDBRANCH   8   9
ENDBRANCH   1   8
TORSDOF 7
ENDMDL
