MODEL 1
REMARK VINA RESULT:      -6.5      0.000      0.000
REMARK  8 active torsions:
REMARK  status: ('A' for Active; 'I' for Inactive)
REMARK    1  A    between atoms: C2_2  and  N5_5 
REMARK    2  A    between atoms: N5_5  and  C8_8 
REMARK    3  A    between atoms: C8_8  and  C9_9 
REMARK    4  A    between atoms: C9_9  and  O11_10 
REMARK    5  A    between atoms: C9_9  and  C12_11 
REMARK    6  A    between atoms: C12_11  and  O13_12 
REMARK    7  A    between atoms: O13_12  and  C14_13 
REMARK    8  A    between atoms: C18_17  and  N19_18 
ROOT
ATOM      1  C12 ZIN A   1      19.427  -0.786  12.175  0.00  0.00     0.210 C 
ENDROOT
BRANCH   1   2
ATOM      2  C9  ZIN A   1      20.467  -0.976  11.069  0.00  0.00     0.168 C 
BRANCH   2   3
ATOM      3  C8  ZIN A   1      19.858  -0.577   9.723  0.00  0.00     0.267 C 
BRANCH   3   4
ATOM      4  N5  ZIN A   1      20.010   0.871   9.529  0.00  0.00    -0.065 N 
ATOM      5  H6  ZIN A   1      20.839   1.053   8.983  0.00  0.00     0.278 HD
ATOM      6  H7  ZIN A   1      20.091   1.325  10.426  0.00  0.00     0.278 HD
BRANCH   4   7
ATOM      7  C2  ZIN A   1      18.834   1.396   8.820  0.00  0.00     0.115 C 
ATOM      8  C1  ZIN A   1      18.586   2.845   9.246  0.00  0.00     0.045 C 
ATOM      9  C3  ZIN A   1      17.609   0.546   9.165  0.00  0.00     0.045 C 
ATOM     10  C4  ZIN A   1      19.082   1.343   7.312  0.00  0.00     0.045 C 
ENDBRANCH   4   7
ENDBRANCH   3   4
ENDBRANCH   2   3
BRANCH   2  11
ATOM     11  O11 ZIN A   1      21.605  -0.155  11.339  0.00  0.00    -0.392 OA
ATOM     12  H36 ZIN A   1      22.438  -0.643  11.394  0.00  0.00     0.210 HD
ENDBRANCH   2  11
ENDBRANCH   1   2
BRANCH   1  13
ATOM     13  O13 ZIN A   1      19.991  -0.002  13.229  0.00  0.00    -0.329 OA
BRANCH  13  14
ATOM     14  C14 ZIN A   1      19.481   1.246  13.411  0.00  0.00     0.215 A 
ATOM     15  C18 ZIN A   1      18.955   1.657  14.623  0.00  0.00     0.169 A 
ATOM     16  N17 ZIN A   1      18.504   2.885  14.657  0.00  0.00    -0.176 NA
ATOM     17  S16 ZIN A   1      18.746   3.528  13.106  0.00  0.00     0.120 SA
ATOM     18  N15 ZIN A   1      19.453   2.132  12.451  0.00  0.00    -0.165 NA
BRANCH  15  19
ATOM     19  N19 ZIN A   1      18.916   0.817  15.742  0.00  0.00    -0.260 NA
ATOM     20  C24 ZIN A   1      19.251   1.555  16.969  0.00  0.00     0.123 C 
ATOM     21  C23 ZIN A   1      19.254   0.589  18.156  0.00  0.00     0.182 C 
ATOM     22  O22 ZIN A   1      17.981  -0.055  18.244  0.00  0.00    -0.389 OA
ATOM     23  C21 ZIN A   1      17.622  -0.784  17.066  0.00  0.00     0.182 C 
ATOM     24  C20 ZIN A   1      17.603   0.168  15.868  0.00  0.00     0.123 C 
ENDBRANCH  15  19
ENDBRANCH  13  14
ENDBRANCH   1  13
TORSDOF 8
ENDMDL
MODEL 2
REMARK VINA RESULT:      -6.5      2.179      3.078
REMARK  8 active torsions:
REMARK  status: ('A' for Active; 'I' for Inactive)
REMARK    1  A    between atoms: C2_2  and  N5_5 
REMARK    2  A    between atoms: N5_5  and  C8_8 
REMARK    3  A    between atoms: C8_8  and  C9_9 
REMARK    4  A    between atoms: C9_9  and  O11_10 
REMARK    5  A    between atoms: C9_9  and  C12_11 
REMARK    6  A    between atoms: C12_11  and  O13_12 
REMARK    7  A    between atoms: O13_12  and  C14_13 
REMARK    8  A    between atoms: C18_17  and  N19_18 
ROOT
ATOM      1  C12 ZIN A   1      19.832   0.442  12.083  0.00  0.00     0.210 C 
ENDROOT
BRANCH   1   2
ATOM      2  C9  ZIN A   1      20.333  -0.723  11.227  0.00  0.00     0.168 C 
BRANCH   2   3
ATOM      3  C8  ZIN A   1      19.582  -0.735   9.894  0.00  0.00     0.267 C 
BRANCH   3   4
ATOM      4  N5  ZIN A   1      20.041   0.388   9.065  0.00  0.00    -0.065 N 
ATOM      5  H6  ZIN A   1      20.593   0.038   8.298  0.00  0.00     0.278 HD
ATOM      6  H7  ZIN A   1      20.601   1.013   9.625  0.00  0.00     0.278 HD
BRANCH   4   7
ATOM      7  C2  ZIN A   1      18.877   1.115   8.538  0.00  0.00     0.115 C 
ATOM      8  C1  ZIN A   1      19.031   1.296   7.027  0.00  0.00     0.045 C 
ATOM      9  C3  ZIN A   1      18.784   2.486   9.210  0.00  0.00     0.045 C 
ATOM     10  C4  ZIN A   1      17.604   0.318   8.829  0.00  0.00     0.045 C 
ENDBRANCH   4   7
ENDBRANCH   3   4
ENDBRANCH   2   3
BRANCH   2  11
ATOM     11  O11 ZIN A   1      21.732  -0.569  10.985  0.00  0.00    -0.392 OA
ATOM     12  H36 ZIN A   1      21.960   0.232  10.493  0.00  0.00     0.210 HD
ENDBRANCH   2  11
ENDBRANCH   1   2
BRANCH   1  13
ATOM     13  O13 ZIN A   1      20.416   0.362  13.385  0.00  0.00    -0.329 OA
BRANCH  13  14
ATOM     14  C14 ZIN A   1      19.605  -0.033  14.404  0.00  0.00     0.215 A 
ATOM     15  C18 ZIN A   1      19.032   0.871  15.281  0.00  0.00     0.169 A 
ATOM     16  N17 ZIN A   1      18.270   0.353  16.210  0.00  0.00    -0.176 NA
ATOM     17  S16 ZIN A   1      18.291  -1.325  15.967  0.00  0.00     0.120 SA
ATOM     18  N15 ZIN A   1      19.320  -1.290  14.618  0.00  0.00    -0.165 NA
BRANCH  15  19
ATOM     19  N19 ZIN A   1      19.247   2.251  15.177  0.00  0.00    -0.260 NA
ATOM     20  C24 ZIN A   1      18.150   2.903  14.447  0.00  0.00     0.123 C 
ATOM     21  C23 ZIN A   1      18.455   4.396  14.305  0.00  0.00     0.182 C 
ATOM     22  O22 ZIN A   1      18.652   4.963  15.603  0.00  0.00    -0.389 OA
ATOM     23  C21 ZIN A   1      19.714   4.352  16.342  0.00  0.00     0.182 C 
ATOM     24  C20 ZIN A   1      19.423   2.858  16.504  0.00  0.00     0.123 C 
ENDBRANCH  15  19
ENDBRANCH  13  14
ENDBRANCH   1  13
TORSDOF 8
ENDMDL
MODEL 3
REMARK VINA RESULT:      -6.4      2.818      3.932
REMARK  8 active torsions:
REMARK  status: ('A' for Active; 'I' for Inactive)
REMARK    1  A    between atoms: C2_2  and  N5_5 
REMARK    2  A    between atoms: N5_5  and  C8_8 
REMARK    3  A    between atoms: C8_8  and  C9_9 
REMARK    4  A    between atoms: C9_9  and  O11_10 
REMARK    5  A    between atoms: C9_9  and  C12_11 
REMARK    6  A    between atoms: C12_11  and  O13_12 
REMARK    7  A    between atoms: O13_12  and  C14_13 
REMARK    8  A    between atoms: C18_17  and  N19_18 
ROOT
ATOM      1  C12 ZIN A   1      19.900   0.146  13.829  0.00  0.00     0.210 C 
ENDROOT
BRANCH   1   2
ATOM      2  C9  ZIN A   1      20.283   0.504  12.392  0.00  0.00     0.168 C 
BRANCH   2   3
ATOM      3  C8  ZIN A   1      19.592   1.808  11.990  0.00  0.00     0.267 C 
BRANCH   3   4
ATOM      4  N5  ZIN A   1      19.950   2.145  10.606  0.00  0.00    -0.065 N 
ATOM      5  H6  ZIN A   1      20.503   1.400  10.210  0.00  0.00     0.278 HD
ATOM      6  H7  ZIN A   1      20.483   3.002  10.595  0.00  0.00     0.278 HD
BRANCH   4   7
ATOM      7  C2  ZIN A   1      18.726   2.320   9.812  0.00  0.00     0.115 C 
ATOM      8  C1  ZIN A   1      17.649   1.357  10.316  0.00  0.00     0.045 C 
ATOM      9  C3  ZIN A   1      19.026   2.027   8.340  0.00  0.00     0.045 C 
ATOM     10  C4  ZIN A   1      18.228   3.760   9.954  0.00  0.00     0.045 C 
ENDBRANCH   4   7
ENDBRANCH   3   4
ENDBRANCH   2   3
BRANCH   2  11
ATOM     11  O11 ZIN A   1      21.700   0.669  12.304  0.00  0.00    -0.392 OA
ATOM     12  H36 ZIN A   1      22.191  -0.163  12.251  0.00  0.00     0.210 HD
ENDBRANCH   2  11
ENDBRANCH   1   2
BRANCH   1  13
ATOM     13  O13 ZIN A   1      19.067   1.174  14.369  0.00  0.00    -0.329 OA
BRANCH  13  14
ATOM     14  C14 ZIN A   1      19.124   1.373  15.714  0.00  0.00     0.215 A 
ATOM     15  C18 ZIN A   1      19.287   2.631  16.266  0.00  0.00     0.169 A 
ATOM     16  N17 ZIN A   1      19.320   2.677  17.573  0.00  0.00    -0.176 NA
ATOM     17  S16 ZIN A   1      19.152   1.077  18.112  0.00  0.00     0.120 SA
ATOM     18  N15 ZIN A   1      19.034   0.387  16.566  0.00  0.00    -0.165 NA
BRANCH  15  19
ATOM     19  N19 ZIN A   1      19.399   3.783  15.477  0.00  0.00    -0.260 NA
ATOM     20  C24 ZIN A   1      18.075   4.340  15.164  0.00  0.00     0.123 C 
ATOM     21  C23 ZIN A   1      18.242   5.560  14.254  0.00  0.00     0.182 C 
ATOM     22  O22 ZIN A   1      19.091   6.514  14.895  0.00  0.00    -0.389 OA
ATOM     23  C21 ZIN A   1      20.390   6.005  15.215  0.00  0.00     0.182 C 
ATOM     24  C20 ZIN A   1      20.245   4.790  16.134  0.00  0.00     0.123 C 
ENDBRANCH  15  19
ENDBRANCH  13  14
ENDBRANCH   1  13
TORSDOF 8
ENDMDL
MODEL 4
REMARK VINA RESULT:      -6.4      2.648      3.367
REMARK  8 active torsions:
REMARK  status: ('A' for Active; 'I' for Inactive)
REMARK    1  A    between atoms: C2_2  and  N5_5 
REMARK    2  A    between atoms: N5_5  and  C8_8 
REMARK    3  A    between atoms: C8_8  and  C9_9 
REMARK    4  A    between atoms: C9_9  and  O11_10 
REMARK    5  A    between atoms: C9_9  and  C12_11 
REMARK    6  A    between atoms: C12_11  and  O13_12 
REMARK    7  A    between atoms: O13_12  and  C14_13 
REMARK    8  A    between atoms: C18_17  and  N19_18 
ROOT
ATOM      1  C12 ZIN A   1      19.340   1.064  12.121  0.00  0.00     0.210 C 
ENDROOT
BRANCH   1   2
ATOM      2  C9  ZIN A   1      20.437   0.044  11.806  0.00  0.00     0.168 C 
BRANCH   2   3
ATOM      3  C8  ZIN A   1      20.359  -0.347  10.329  0.00  0.00     0.267 C 
BRANCH   3   4
ATOM      4  N5  ZIN A   1      19.849   0.788   9.548  0.00  0.00    -0.065 N 
ATOM      5  H6  ZIN A   1      20.623   1.287   9.134  0.00  0.00     0.278 HD
ATOM      6  H7  ZIN A   1      19.335   1.409  10.154  0.00  0.00     0.278 HD
BRANCH   4   7
ATOM      7  C2  ZIN A   1      18.962   0.294   8.487  0.00  0.00     0.115 C 
ATOM      8  C1  ZIN A   1      19.400  -1.111   8.069  0.00  0.00     0.045 C 
ATOM      9  C3  ZIN A   1      19.037   1.232   7.280  0.00  0.00     0.045 C 
ATOM     10  C4  ZIN A   1      17.523   0.246   9.006  0.00  0.00     0.045 C 
ENDBRANCH   4   7
ENDBRANCH   3   4
ENDBRANCH   2   3
BRANCH   2  11
ATOM     11  O11 ZIN A   1      21.716   0.621  12.079  0.00  0.00    -0.392 OA
ATOM     12  H36 ZIN A   1      22.407  -0.028  12.270  0.00  0.00     0.210 HD
ENDBRANCH   2  11
ENDBRANCH   1   2
BRANCH   1  13
ATOM     13  O13 ZIN A   1      19.829   2.382  11.863  0.00  0.00    -0.329 OA
BRANCH  13  14
ATOM     14  C14 ZIN A   1      18.900   3.361  11.686  0.00  0.00     0.215 A 
ATOM     15  C18 ZIN A   1      18.653   4.325  12.646  0.00  0.00     0.169 A 
ATOM     16  N17 ZIN A   1      17.737   5.208  12.341  0.00  0.00    -0.176 NA
ATOM     17  S16 ZIN A   1      17.169   4.794  10.797  0.00  0.00     0.120 SA
ATOM     18  N15 ZIN A   1      18.181   3.447  10.598  0.00  0.00    -0.165 NA
BRANCH  15  19
ATOM     19  N19 ZIN A   1      19.345   4.360  13.864  0.00  0.00    -0.260 NA
ATOM     20  C24 ZIN A   1      19.649   5.742  14.259  0.00  0.00     0.123 C 
ATOM     21  C23 ZIN A   1      20.455   5.731  15.561  0.00  0.00     0.182 C 
ATOM     22  O22 ZIN A   1      19.718   5.031  16.566  0.00  0.00    -0.389 OA
ATOM     23  C21 ZIN A   1      19.405   3.679  16.213  0.00  0.00     0.182 C 
ATOM     24  C20 ZIN A   1      18.589   3.670  14.919  0.00  0.00     0.123 C 
ENDBRANCH  15  19
ENDBRANCH  13  14
ENDBRANCH   1  13
TORSDOF 8
ENDMDL
MODEL 5
REMARK VINA RESULT:      -6.2      2.523      6.140
REMARK  8 active torsions:
REMARK  status: ('A' for Active; 'I' for Inactive)
REMARK    1  A    between atoms: C2_2  and  N5_5 
REMARK    2  A    between atoms: N5_5  and  C8_8 
REMARK    3  A    between atoms: C8_8  and  C9_9 
REMARK    4  A    between atoms: C9_9  and  O11_10 
REMARK    5  A    between atoms: C9_9  and  C12_11 
REMARK    6  A    between atoms: C12_11  and  O13_12 
REMARK    7  A    between atoms: O13_12  and  C14_13 
REMARK    8  A    between atoms: C18_17  and  N19_18 
ROOT
ATOM      1  C12 ZIN A   1      18.756   4.249  15.263  0.00  0.00     0.210 C 
ENDROOT
BRANCH   1   2
ATOM      2  C9  ZIN A   1      19.443   3.702  16.516  0.00  0.00     0.168 C 
BRANCH   2   3
ATOM      3  C8  ZIN A   1      19.494   2.175  16.443  0.00  0.00     0.267 C 
BRANCH   3   4
ATOM      4  N5  ZIN A   1      18.143   1.631  16.638  0.00  0.00    -0.065 N 
ATOM      5  H6  ZIN A   1      17.573   1.848  15.835  0.00  0.00     0.278 HD
ATOM      6  H7  ZIN A   1      17.732   2.039  17.463  0.00  0.00     0.278 HD
BRANCH   4   7
ATOM      7  C2  ZIN A   1      18.222   0.172  16.801  0.00  0.00     0.115 C 
ATOM      8  C1  ZIN A   1      19.040  -0.158  18.052  0.00  0.00     0.045 C 
ATOM      9  C3  ZIN A   1      18.897  -0.443  15.573  0.00  0.00     0.045 C 
ATOM     10  C4  ZIN A   1      16.811  -0.401  16.948  0.00  0.00     0.045 C 
ENDBRANCH   4   7
ENDBRANCH   3   4
ENDBRANCH   2   3
BRANCH   2  11
ATOM     11  O11 ZIN A   1      20.773   4.220  16.594  0.00  0.00    -0.392 OA
ATOM     12  H36 ZIN A   1      21.462   3.544  16.536  0.00  0.00     0.210 HD
ENDBRANCH   2  11
ENDBRANCH   1   2
BRANCH   1  13
ATOM     13  O13 ZIN A   1      18.570   3.189  14.322  0.00  0.00    -0.329 OA
BRANCH  13  14
ATOM     14  C14 ZIN A   1      18.015   3.517  13.123  0.00  0.00     0.215 A 
ATOM     15  C18 ZIN A   1      17.791   2.576  12.134  0.00  0.00     0.169 A 
ATOM     16  N17 ZIN A   1      17.247   3.030  11.033  0.00  0.00    -0.176 NA
ATOM     17  S16 ZIN A   1      17.027   4.697  11.260  0.00  0.00     0.120 SA
ATOM     18  N15 ZIN A   1      17.665   4.741  12.832  0.00  0.00    -0.165 NA
BRANCH  15  19
ATOM     19  N19 ZIN A   1      18.116   1.224  12.302  0.00  0.00    -0.260 NA
ATOM     20  C24 ZIN A   1      17.017   0.357  11.854  0.00  0.00     0.123 C 
ATOM     21  C23 ZIN A   1      17.389  -1.105  12.110  0.00  0.00     0.182 C 
ATOM     22  O22 ZIN A   1      18.618  -1.402  11.442  0.00  0.00    -0.389 OA
ATOM     23  C21 ZIN A   1      19.712  -0.577  11.855  0.00  0.00     0.182 C 
ATOM     24  C20 ZIN A   1      19.362   0.891  11.597  0.00  0.00     0.123 C 
ENDBRANCH  15  19
ENDBRANCH  13  14
ENDBRANCH   1  13
TORSDOF 8
ENDMDL
MODEL 6
REMARK VINA RESULT:      -6.2      5.116      7.406
REMARK  8 active torsions:
REMARK  status: ('A' for Active; 'I' for Inactive)
REMARK    1  A    between atoms: C2_2  and  N5_5 
REMARK    2  A    between atoms: N5_5  and  C8_8 
REMARK    3  A    between atoms: C8_8  and  C9_9 
REMARK    4  A    between atoms: C9_9  and  O11_10 
REMARK    5  A    between atoms: C9_9  and  C12_11 
REMARK    6  A    between atoms: C12_11  and  O13_12 
REMARK    7  A    between atoms: O13_12  and  C14_13 
REMARK    8  A    between atoms: C18_17  and  N19_18 
ROOT
ATOM      1  C12 ZIN A   1      19.422  -4.012   5.891  0.00  0.00     0.210 C 
ENDROOT
BRANCH   1   2
ATOM      2  C9  ZIN A   1      19.296  -5.180   6.870  0.00  0.00     0.168 C 
BRANCH   2   3
ATOM      3  C8  ZIN A   1      18.026  -5.008   7.707  0.00  0.00     0.267 C 
BRANCH   3   4
ATOM      4  N5  ZIN A   1      18.249  -3.972   8.725  0.00  0.00    -0.065 N 
ATOM      5  H6  ZIN A   1      17.522  -3.275   8.662  0.00  0.00     0.278 HD
ATOM      6  H7  ZIN A   1      19.146  -3.537   8.571  0.00  0.00     0.278 HD
BRANCH   4   7
ATOM      7  C2  ZIN A   1      18.225  -4.585  10.060  0.00  0.00     0.115 C 
ATOM      8  C1  ZIN A   1      19.652  -4.680  10.604  0.00  0.00     0.045 C 
ATOM      9  C3  ZIN A   1      17.620  -5.988   9.967  0.00  0.00     0.045 C 
ATOM     10  C4  ZIN A   1      17.377  -3.726  11.000  0.00  0.00     0.045 C 
ENDBRANCH   4   7
ENDBRANCH   3   4
ENDBRANCH   2   3
BRANCH   2  11
ATOM     11  O11 ZIN A   1      19.222  -6.407   6.140  0.00  0.00    -0.392 OA
ATOM     12  H36 ZIN A   1      18.642  -7.069   6.542  0.00  0.00     0.210 HD
ENDBRANCH   2  11
ENDBRANCH   1   2
BRANCH   1  13
ATOM     13  O13 ZIN A   1      19.803  -2.833   6.604  0.00  0.00    -0.329 OA
BRANCH  13  14
ATOM     14  C14 ZIN A   1      19.429  -1.639   6.069  0.00  0.00     0.215 A 
ATOM     15  C18 ZIN A   1      18.860  -0.636   6.833  0.00  0.00     0.169 A 
ATOM     16  N17 ZIN A   1      18.553   0.462   6.189  0.00  0.00    -0.176 NA
ATOM     17  S16 ZIN A   1      18.990   0.205   4.570  0.00  0.00     0.120 SA
ATOM     18  N15 ZIN A   1      19.581  -1.369   4.799  0.00  0.00    -0.165 NA
BRANCH  15  19
ATOM     19  N19 ZIN A   1      18.634  -0.781   8.207  0.00  0.00    -0.260 NA
ATOM     20  C24 ZIN A   1      19.847  -0.470   8.977  0.00  0.00     0.123 C 
ATOM     21  C23 ZIN A   1      19.573  -0.699  10.466  0.00  0.00     0.182 C 
ATOM     22  O22 ZIN A   1      18.457   0.099  10.868  0.00  0.00    -0.389 OA
ATOM     23  C21 ZIN A   1      17.258  -0.179  10.139  0.00  0.00     0.182 C 
ATOM     24  C20 ZIN A   1      17.508   0.055   8.647  0.00  0.00     0.123 C 
ENDBRANCH  15  19
ENDBRANCH  13  14
ENDBRANCH   1  13
TORSDOF 8
ENDMDL
MODEL 7
REMARK VINA RESULT:      -6.1      1.645      2.240
REMARK  8 active torsions:
REMARK  status: ('A' for Active; 'I' for Inactive)
REMARK    1  A    between atoms: C2_2  and  N5_5 
REMARK    2  A    between atoms: N5_5  and  C8_8 
REMARK    3  A    between atoms: C8_8  and  C9_9 
REMARK    4  A    between atoms: C9_9  and  O11_10 
REMARK    5  A    between atoms: C9_9  and  C12_11 
REMARK    6  A    between atoms: C12_11  and  O13_12 
REMARK    7  A    between atoms: O13_12  and  C14_13 
REMARK    8  A    between atoms: C18_17  and  N19_18 
ROOT
ATOM      1  C12 ZIN A   1      19.479  -0.358  12.050  0.00  0.00     0.210 C 
ENDROOT
BRANCH   1   2
ATOM      2  C9  ZIN A   1      20.246  -1.200  11.027  0.00  0.00     0.168 C 
BRANCH   2   3
ATOM      3  C8  ZIN A   1      19.450  -1.265   9.722  0.00  0.00     0.267 C 
BRANCH   3   4
ATOM      4  N5  ZIN A   1      19.718  -0.060   8.926  0.00  0.00    -0.065 N 
ATOM      5  H6  ZIN A   1      20.673  -0.076   8.599  0.00  0.00     0.278 HD
ATOM      6  H7  ZIN A   1      19.572   0.759   9.496  0.00  0.00     0.278 HD
BRANCH   4   7
ATOM      7  C2  ZIN A   1      18.807  -0.022   7.773  0.00  0.00     0.115 C 
ATOM      8  C1  ZIN A   1      19.104  -1.206   6.850  0.00  0.00     0.045 C 
ATOM      9  C3  ZIN A   1      19.009   1.286   7.006  0.00  0.00     0.045 C 
ATOM     10  C4  ZIN A   1      17.361  -0.108   8.263  0.00  0.00     0.045 C 
ENDBRANCH   4   7
ENDBRANCH   3   4
ENDBRANCH   2   3
BRANCH   2  11
ATOM     11  O11 ZIN A   1      21.520  -0.602  10.779  0.00  0.00    -0.392 OA
ATOM     12  H36 ZIN A   1      21.631   0.270  11.183  0.00  0.00     0.210 HD
ENDBRANCH   2  11
ENDBRANCH   1   2
BRANCH   1  13
ATOM     13  O13 ZIN A   1      19.985   0.978  12.042  0.00  0.00    -0.329 OA
BRANCH  13  14
ATOM     14  C14 ZIN A   1      19.082   1.981  11.867  0.00  0.00     0.215 A 
ATOM     15  C18 ZIN A   1      18.555   2.691  12.931  0.00  0.00     0.169 A 
ATOM     16  N17 ZIN A   1      17.700   3.631  12.617  0.00  0.00    -0.176 NA
ATOM     17  S16 ZIN A   1      17.556   3.602  10.927  0.00  0.00     0.120 SA
ATOM     18  N15 ZIN A   1      18.653   2.331  10.683  0.00  0.00    -0.165 NA
BRANCH  15  19
ATOM     19  N19 ZIN A   1      18.919   2.427  14.257  0.00  0.00    -0.260 NA
ATOM     20  C24 ZIN A   1      18.978   3.667  15.045  0.00  0.00     0.123 C 
ATOM     21  C23 ZIN A   1      19.437   3.341  16.468  0.00  0.00     0.182 C 
ATOM     22  O22 ZIN A   1      18.548   2.379  17.041  0.00  0.00    -0.389 OA
ATOM     23  C21 ZIN A   1      18.467   1.158  16.300  0.00  0.00     0.182 C 
ATOM     24  C20 ZIN A   1      17.999   1.462  14.874  0.00  0.00     0.123 C 
ENDBRANCH  15  19
ENDBRANCH  13  14
ENDBRANCH   1  13
TORSDOF 8
ENDMDL
MODEL 8
REMARK VINA RESULT:      -6.0      4.042      6.983
REMARK  8 active torsions:
REMARK  status: ('A' for Active; 'I' for Inactive)
REMARK    1  A    between atoms: C2_2  and  N5_5 
REMARK    2  A    between atoms: N5_5  and  C8_8 
REMARK    3  A    between atoms: C8_8  and  C9_9 
REMARK    4  A    between atoms: C9_9  and  O11_10 
REMARK    5  A    between atoms: C9_9  and  C12_11 
REMARK    6  A    between atoms: C12_11  and  O13_12 
REMARK    7  A    between atoms: O13_12  and  C14_13 
REMARK    8  A    between atoms: C18_17  and  N19_18 
ROOT
ATOM      1  C12 ZIN A   1      19.548  -1.369  11.654  0.00  0.00     0.210 C 
ENDROOT
BRANCH   1   2
ATOM      2  C9  ZIN A   1      20.398  -0.507  10.719  0.00  0.00     0.168 C 
BRANCH   2   3
ATOM      3  C8  ZIN A   1      19.596   0.724  10.292  0.00  0.00     0.267 C 
BRANCH   3   4
ATOM      4  N5  ZIN A   1      20.075   1.900  11.030  0.00  0.00    -0.065 N 
ATOM      5  H6  ZIN A   1      20.791   2.367  10.493  0.00  0.00     0.278 HD
ATOM      6  H7  ZIN A   1      20.458   1.608  11.917  0.00  0.00     0.278 HD
BRANCH   4   7
ATOM      7  C2  ZIN A   1      18.956   2.824  11.260  0.00  0.00     0.115 C 
ATOM      8  C1  ZIN A   1      19.446   4.028  12.068  0.00  0.00     0.045 C 
ATOM      9  C3  ZIN A   1      17.852   2.103  12.038  0.00  0.00     0.045 C 
ATOM     10  C4  ZIN A   1      18.404   3.301   9.916  0.00  0.00     0.045 C 
ENDBRANCH   4   7
ENDBRANCH   3   4
ENDBRANCH   2   3
BRANCH   2  11
ATOM     11  O11 ZIN A   1      21.583  -0.091  11.401  0.00  0.00    -0.392 OA
ATOM     12  H36 ZIN A   1      22.176   0.452  10.863  0.00  0.00     0.210 HD
ENDBRANCH   2  11
ENDBRANCH   1   2
BRANCH   1  13
ATOM     13  O13 ZIN A   1      19.768  -2.750  11.359  0.00  0.00    -0.329 OA
BRANCH  13  14
ATOM     14  C14 ZIN A   1      18.672  -3.504  11.073  0.00  0.00     0.215 A 
ATOM     15  C18 ZIN A   1      18.317  -3.823   9.775  0.00  0.00     0.169 A 
ATOM     16  N17 ZIN A   1      17.242  -4.559   9.646  0.00  0.00    -0.176 NA
ATOM     17  S16 ZIN A   1      16.664  -4.841  11.216  0.00  0.00     0.120 SA
ATOM     18  N15 ZIN A   1      17.885  -3.968  12.007  0.00  0.00    -0.165 NA
BRANCH  15  19
ATOM     19  N19 ZIN A   1      19.063  -3.395   8.670  0.00  0.00    -0.260 NA
ATOM     20  C24 ZIN A   1      19.268  -4.493   7.714  0.00  0.00     0.123 C 
ATOM     21  C23 ZIN A   1      20.137  -3.998   6.554  0.00  0.00     0.182 C 
ATOM     22  O22 ZIN A   1      19.513  -2.863   5.949  0.00  0.00    -0.389 OA
ATOM     23  C21 ZIN A   1      19.299  -1.774   6.852  0.00  0.00     0.182 C 
ATOM     24  C20 ZIN A   1      18.423  -2.246   8.015  0.00  0.00     0.123 C 
ENDBRANCH  15  19
ENDBRANCH  13  14
ENDBRANCH   1  13
TORSDOF 8
ENDMDL
MODEL 9
REMARK VINA RESULT:      -6.0      2.798      3.985
REMARK  8 active torsions:
REMARK  status: ('A' for Active; 'I' for Inactive)
REMARK    1  A    between atoms: C2_2  and  N5_5 
REMARK    2  A    between atoms: N5_5  and  C8_8 
REMARK    3  A    between atoms: C8_8  and  C9_9 
REMARK    4  A    between atoms: C9_9  and  O11_10 
REMARK    5  A    between atoms: C9_9  and  C12_11 
REMARK    6  A    between atoms: C12_11  and  O13_12 
REMARK    7  A    between atoms: O13_12  and  C14_13 
REMARK    8  A    between atoms: C18_17  and  N19_18 
ROOT
ATOM      1  C12 ZIN A   1      17.433   0.030  10.163  0.00  0.00     0.210 C 
ENDROOT
BRANCH   1   2
ATOM      2  C9  ZIN A   1      17.431  -1.453  10.540  0.00  0.00     0.168 C 
BRANCH   2   3
ATOM      3  C8  ZIN A   1      18.849  -2.014  10.404  0.00  0.00     0.267 C 
BRANCH   3   4
ATOM      4  N5  ZIN A   1      18.813  -3.241   9.597  0.00  0.00    -0.065 N 
ATOM      5  H6  ZIN A   1      19.427  -3.140   8.802  0.00  0.00     0.278 HD
ATOM      6  H7  ZIN A   1      17.871  -3.405   9.275  0.00  0.00     0.278 HD
BRANCH   4   7
ATOM      7  C2  ZIN A   1      19.255  -4.378  10.415  0.00  0.00     0.115 C 
ATOM      8  C1  ZIN A   1      18.039  -5.042  11.065  0.00  0.00     0.045 C 
ATOM      9  C3  ZIN A   1      20.209  -3.883  11.504  0.00  0.00     0.045 C 
ATOM     10  C4  ZIN A   1      19.978  -5.394   9.529  0.00  0.00     0.045 C 
ENDBRANCH   4   7
ENDBRANCH   3   4
ENDBRANCH   2   3
BRANCH   2  11
ATOM     11  O11 ZIN A   1      16.988  -1.601  11.890  0.00  0.00    -0.392 OA
ATOM     12  H36 ZIN A   1      16.026  -1.643  11.986  0.00  0.00     0.210 HD
ENDBRANCH   2  11
ENDBRANCH   1   2
BRANCH   1  13
ATOM     13  O13 ZIN A   1      16.760   0.779  11.178  0.00  0.00    -0.329 OA
BRANCH  13  14
ATOM     14  C14 ZIN A   1      17.430   1.837  11.711  0.00  0.00     0.215 A 
ATOM     15  C18 ZIN A   1      18.135   1.741  12.896  0.00  0.00     0.169 A 
ATOM     16  N17 ZIN A   1      18.736   2.835  13.290  0.00  0.00    -0.176 NA
ATOM     17  S16 ZIN A   1      18.384   4.018  12.126  0.00  0.00     0.120 SA
ATOM     18  N15 ZIN A   1      17.443   3.011  11.136  0.00  0.00    -0.165 NA
BRANCH  15  19
ATOM     19  N19 ZIN A   1      18.210   0.547  13.625  0.00  0.00    -0.260 NA
ATOM     20  C24 ZIN A   1      19.580   0.014  13.626  0.00  0.00     0.123 C 
ATOM     21  C23 ZIN A   1      19.604  -1.318  14.380  0.00  0.00     0.182 C 
ATOM     22  O22 ZIN A   1      19.101  -1.119  15.704  0.00  0.00    -0.389 OA
ATOM     23  C21 ZIN A   1      17.768  -0.601  15.741  0.00  0.00     0.182 C 
ATOM     24  C20 ZIN A   1      17.725   0.738  14.999  0.00  0.00     0.123 C 
ENDBRANCH  15  19
ENDBRANCH  13  14
ENDBRANCH   1  13
TORSDOF 8
ENDMDL
