MODEL 1
REMARK VINA RESULT:      -6.0      0.000      0.000
REMARK  5 active torsions:
REMARK  status: ('A' for Active; 'I' for Inactive)
REMARK    1  A    between atoms: C2_2  and  C4_4 
REMARK    2  A    between atoms: C4_4  and  C5_5 
REMARK    3  A    between atoms: C5_5  and  C6_6 
REMARK    4  A    between atoms: C6_6  and  C7_7 
REMARK    5  A    between atoms: C7_7  and  C8_8 
ROOT
ATOM      1  C8  ZIN A   1      19.419  -0.495   8.921  0.00  0.00     0.072 C 
ATOM      2  S10 ZIN A   1      18.654  -2.148   8.670  0.00  0.00    -0.160 SA
ATOM      3  C11 ZIN A   1      19.087  -2.775  10.344  0.00  0.00     0.101 C 
ATOM      4  C12 ZIN A   1      18.964  -1.512  11.220  0.00  0.00     0.119 A 
ATOM      5  N14 ZIN A   1      17.590  -1.413  11.736  0.00  0.00    -0.336 N 
ATOM      6  C15 ZIN A   1      17.047  -0.262  11.315  0.00  0.00     0.316 A 
ATOM      7  O16 ZIN A   1      15.914   0.078  11.595  0.00  0.00    -0.247 OA
ATOM      8  N17 ZIN A   1      17.866   0.479  10.556  0.00  0.00    -0.335 N 
ATOM      9  C18 ZIN A   1      19.157  -0.218  10.415  0.00  0.00     0.123 A 
ATOM     10  H30 ZIN A   1      17.148  -2.073  12.292  0.00  0.00     0.164 HD
ATOM     11  H31 ZIN A   1      17.646   1.338  10.164  0.00  0.00     0.164 HD
ENDROOT
BRANCH   1  12
ATOM     12  C7  ZIN A   1      18.736   0.558   8.046  0.00  0.00     0.017 C 
BRANCH  12  13
ATOM     13  C6  ZIN A   1      17.585  -0.089   7.273  0.00  0.00     0.002 C 
BRANCH  13  14
ATOM     14  C5  ZIN A   1      17.710   0.257   5.788  0.00  0.00     0.010 C 
BRANCH  14  15
ATOM     15  C4  ZIN A   1      17.742  -1.032   4.965  0.00  0.00     0.113 C 
BRANCH  15  16
ATOM     16  C2  ZIN A   1      19.165  -1.511   4.838  0.00  0.00     0.172 C 
ATOM     17  O1  ZIN A   1      19.425  -2.694   4.972  0.00  0.00    -0.648 OA
ATOM     18  O3  ZIN A   1      20.057  -0.715   4.596  0.00  0.00    -0.648 OA
ENDBRANCH  15  16
ENDBRANCH  14  15
ENDBRANCH  13  14
ENDBRANCH  12  13
ENDBRANCH   1  12
TORSDOF 5
ENDMDL
MODEL 2
REMARK VINA RESULT:      -6.0      3.331      5.959
REMARK  5 active torsions:
REMARK  status: ('A' for Active; 'I' for Inactive)
REMARK    1  A    between atoms: C2_2  and  C4_4 
REMARK    2  A    between atoms: C4_4  and  C5_5 
REMARK    3  A    between atoms: C5_5  and  C6_6 
REMARK    4  A    between atoms: C6_6  and  C7_7 
REMARK    5  A    between atoms: C7_7  and  C8_8 
ROOT
ATOM      1  C8  ZIN A   1      18.404   0.366   8.507  0.00  0.00     0.072 C 
ATOM      2  S10 ZIN A   1      19.763  -0.709   9.123  0.00  0.00    -0.160 SA
ATOM      3  C11 ZIN A   1      18.954  -2.282   8.621  0.00  0.00     0.101 C 
ATOM      4  C12 ZIN A   1      18.225  -1.889   7.321  0.00  0.00     0.119 A 
ATOM      5  N14 ZIN A   1      19.121  -2.116   6.176  0.00  0.00    -0.336 N 
ATOM      6  C15 ZIN A   1      19.314  -0.956   5.535  0.00  0.00     0.316 A 
ATOM      7  O16 ZIN A   1      20.015  -0.852   4.547  0.00  0.00    -0.247 OA
ATOM      8  N17 ZIN A   1      18.664   0.080   6.081  0.00  0.00    -0.335 N 
ATOM      9  C18 ZIN A   1      17.908  -0.387   7.257  0.00  0.00     0.123 A 
ATOM     10  H30 ZIN A   1      19.509  -2.969   5.926  0.00  0.00     0.164 HD
ATOM     11  H31 ZIN A   1      18.685   0.994   5.755  0.00  0.00     0.164 HD
ENDROOT
BRANCH   1  12
ATOM     12  C7  ZIN A   1      18.935   1.752   8.131  0.00  0.00     0.017 C 
BRANCH  12  13
ATOM     13  C6  ZIN A   1      19.193   2.562   9.403  0.00  0.00     0.002 C 
BRANCH  13  14
ATOM     14  C5  ZIN A   1      17.931   2.566  10.269  0.00  0.00     0.010 C 
BRANCH  14  15
ATOM     15  C4  ZIN A   1      17.997   3.730  11.259  0.00  0.00     0.113 C 
BRANCH  15  16
ATOM     16  C2  ZIN A   1      17.016   4.797  10.846  0.00  0.00     0.172 C 
ATOM     17  O1  ZIN A   1      15.986   4.956  11.478  0.00  0.00    -0.648 OA
ATOM     18  O3  ZIN A   1      17.255   5.505   9.882  0.00  0.00    -0.648 OA
ENDBRANCH  15  16
ENDBRANCH  14  15
ENDBRANCH  13  14
ENDBRANCH  12  13
ENDBRANCH   1  12
TORSDOF 5
ENDMDL
MODEL 3
REMARK VINA RESULT:      -6.0      4.779      8.315
REMARK  5 active torsions:
REMARK  status: ('A' for Active; 'I' for Inactive)
REMARK    1  A    between atoms: C2_2  and  C4_4 
REMARK    2  A    between atoms: C4_4  and  C5_5 
REMARK    3  A    between atoms: C5_5  and  C6_6 
REMARK    4  A    between atoms: C6_6  and  C7_7 
REMARK    5  A    between atoms: C7_7  and  C8_8 
ROOT
ATOM      1  C8  ZIN A   1      18.227   0.153  13.925  0.00  0.00     0.072 C 
ATOM      2  S10 ZIN A   1      17.105   0.235  12.471  0.00  0.00    -0.160 SA
ATOM      3  C11 ZIN A   1      17.748   1.850  11.870  0.00  0.00     0.101 C 
ATOM      4  C12 ZIN A   1      19.245   1.774  12.232  0.00  0.00     0.119 A 
ATOM      5  N14 ZIN A   1      19.986   1.186  11.106  0.00  0.00    -0.336 N 
ATOM      6  C15 ZIN A   1      20.598   0.068  11.520  0.00  0.00     0.316 A 
ATOM      7  O16 ZIN A   1      21.283  -0.622  10.790  0.00  0.00    -0.247 OA
ATOM      8  N17 ZIN A   1      20.384  -0.220  12.811  0.00  0.00    -0.335 N 
ATOM      9  C18 ZIN A   1      19.517   0.814  13.401  0.00  0.00     0.123 A 
ATOM     10  H30 ZIN A   1      20.027   1.550  10.207  0.00  0.00     0.164 HD
ATOM     11  H31 ZIN A   1      20.744  -0.988  13.283  0.00  0.00     0.164 HD
ENDROOT
BRANCH   1  12
ATOM     12  C7  ZIN A   1      18.488  -1.300  14.329  0.00  0.00     0.017 C 
BRANCH  12  13
ATOM     13  C6  ZIN A   1      18.546  -1.403  15.854  0.00  0.00     0.002 C 
BRANCH  13  14
ATOM     14  C5  ZIN A   1      17.765  -0.243  16.473  0.00  0.00     0.010 C 
BRANCH  14  15
ATOM     15  C4  ZIN A   1      18.336   0.075  17.856  0.00  0.00     0.113 C 
BRANCH  15  16
ATOM     16  C2  ZIN A   1      19.170   1.329  17.779  0.00  0.00     0.172 C 
ATOM     17  O1  ZIN A   1      19.780   1.717  18.761  0.00  0.00    -0.648 OA
ATOM     18  O3  ZIN A   1      19.239   1.951  16.733  0.00  0.00    -0.648 OA
ENDBRANCH  15  16
ENDBRANCH  14  15
ENDBRANCH  13  14
ENDBRANCH  12  13
ENDBRANCH   1  12
TORSDOF 5
ENDMDL
MODEL 4
REMARK VINA RESULT:      -5.9      4.508      8.095
REMARK  5 active torsions:
REMARK  status: ('A' for Active; 'I' for Inactive)
REMARK    1  A    between atoms: C2_2  and  C4_4 
REMARK    2  A    between atoms: C4_4  and  C5_5 
REMARK    3  A    between atoms: C5_5  and  C6_6 
REMARK    4  A    between atoms: C6_6  and  C7_7 
REMARK    5  A    between atoms: C7_7  and  C8_8 
ROOT
ATOM      1  C8  ZIN A   1      19.366  -1.205  13.833  0.00  0.00     0.072 C 
ATOM      2  S10 ZIN A   1      19.900   0.544  13.642  0.00  0.00    -0.160 SA
ATOM      3  C11 ZIN A   1      20.349   0.376  11.867  0.00  0.00     0.101 C 
ATOM      4  C12 ZIN A   1      19.299  -0.625  11.346  0.00  0.00     0.119 A 
ATOM      5  N14 ZIN A   1      18.123   0.115  10.862  0.00  0.00    -0.336 N 
ATOM      6  C15 ZIN A   1      17.047  -0.269  11.562  0.00  0.00     0.316 A 
ATOM      7  O16 ZIN A   1      15.935   0.184  11.370  0.00  0.00    -0.247 OA
ATOM      8  N17 ZIN A   1      17.307  -1.197  12.492  0.00  0.00    -0.335 N 
ATOM      9  C18 ZIN A   1      18.743  -1.526  12.460  0.00  0.00     0.123 A 
ATOM     10  H30 ZIN A   1      18.126   0.774  10.150  0.00  0.00     0.164 HD
ATOM     11  H31 ZIN A   1      16.654  -1.591  13.091  0.00  0.00     0.164 HD
ENDROOT
BRANCH   1  12
ATOM     12  C7  ZIN A   1      18.322  -1.336  14.945  0.00  0.00     0.017 C 
BRANCH  12  13
ATOM     13  C6  ZIN A   1      19.013  -1.237  16.307  0.00  0.00     0.002 C 
BRANCH  13  14
ATOM     14  C5  ZIN A   1      18.021  -0.707  17.344  0.00  0.00     0.010 C 
BRANCH  14  15
ATOM     15  C4  ZIN A   1      17.901   0.812  17.204  0.00  0.00     0.113 C 
BRANCH  15  16
ATOM     16  C2  ZIN A   1      19.217   1.454  17.558  0.00  0.00     0.172 C 
ATOM     17  O1  ZIN A   1      19.728   2.258  16.797  0.00  0.00    -0.648 OA
ATOM     18  O3  ZIN A   1      19.768   1.175  18.610  0.00  0.00    -0.648 OA
ENDBRANCH  15  16
ENDBRANCH  14  15
ENDBRANCH  13  14
ENDBRANCH  12  13
ENDBRANCH   1  12
TORSDOF 5
ENDMDL
MODEL 5
REMARK VINA RESULT:      -5.9      4.607      8.185
REMARK  5 active torsions:
REMARK  status: ('A' for Active; 'I' for Inactive)
REMARK    1  A    between atoms: C2_2  and  C4_4 
REMARK    2  A    between atoms: C4_4  and  C5_5 
REMARK    3  A    between atoms: C5_5  and  C6_6 
REMARK    4  A    between atoms: C6_6  and  C7_7 
REMARK    5  A    between atoms: C7_7  and  C8_8 
ROOT
ATOM      1  C8  ZIN A   1      18.683  -0.282  12.854  0.00  0.00     0.072 C 
ATOM      2  S10 ZIN A   1      17.195  -0.721  11.868  0.00  0.00    -0.160 SA
ATOM      3  C11 ZIN A   1      18.025  -0.524  10.239  0.00  0.00     0.101 C 
ATOM      4  C12 ZIN A   1      19.461  -1.005  10.530  0.00  0.00     0.119 A 
ATOM      5  N14 ZIN A   1      19.548  -2.451  10.273  0.00  0.00    -0.336 N 
ATOM      6  C15 ZIN A   1      19.911  -3.075  11.402  0.00  0.00     0.316 A 
ATOM      7  O16 ZIN A   1      20.060  -4.279  11.477  0.00  0.00    -0.247 OA
ATOM      8  N17 ZIN A   1      20.095  -2.250  12.442  0.00  0.00    -0.335 N 
ATOM      9  C18 ZIN A   1      19.837  -0.864  12.013  0.00  0.00     0.123 A 
ATOM     10  H30 ZIN A   1      19.372  -2.884   9.423  0.00  0.00     0.164 HD
ATOM     11  H31 ZIN A   1      20.358  -2.522  13.336  0.00  0.00     0.164 HD
ENDROOT
BRANCH   1  12
ATOM     12  C7  ZIN A   1      18.633  -0.940  14.235  0.00  0.00     0.017 C 
BRANCH  12  13
ATOM     13  C6  ZIN A   1      17.692  -0.147  15.144  0.00  0.00     0.002 C 
BRANCH  13  14
ATOM     14  C5  ZIN A   1      17.622  -0.820  16.516  0.00  0.00     0.010 C 
BRANCH  14  15
ATOM     15  C4  ZIN A   1      19.002  -0.779  17.175  0.00  0.00     0.113 C 
BRANCH  15  16
ATOM     16  C2  ZIN A   1      19.004   0.251  18.274  0.00  0.00     0.172 C 
ATOM     17  O1  ZIN A   1      18.069   0.312  19.055  0.00  0.00    -0.648 OA
ATOM     18  O3  ZIN A   1      19.943   1.021  18.387  0.00  0.00    -0.648 OA
ENDBRANCH  15  16
ENDBRANCH  14  15
ENDBRANCH  13  14
ENDBRANCH  12  13
ENDBRANCH   1  12
TORSDOF 5
ENDMDL
MODEL 6
REMARK VINA RESULT:      -5.8      2.006      2.264
REMARK  5 active torsions:
REMARK  status: ('A' for Active; 'I' for Inactive)
REMARK    1  A    between atoms: C2_2  and  C4_4 
REMARK    2  A    between atoms: C4_4  and  C5_5 
REMARK    3  A    between atoms: C5_5  and  C6_6 
REMARK    4  A    between atoms: C6_6  and  C7_7 
REMARK    5  A    between atoms: C7_7  and  C8_8 
ROOT
ATOM      1  C8  ZIN A   1      19.252  -0.194   9.469  0.00  0.00     0.072 C 
ATOM      2  S10 ZIN A   1      17.782  -1.034  10.188  0.00  0.00    -0.160 SA
ATOM      3  C11 ZIN A   1      18.742  -2.423  10.918  0.00  0.00     0.101 C 
ATOM      4  C12 ZIN A   1      20.062  -1.743  11.332  0.00  0.00     0.119 A 
ATOM      5  N14 ZIN A   1      19.940  -1.250  12.712  0.00  0.00    -0.336 N 
ATOM      6  C15 ZIN A   1      20.125   0.077  12.721  0.00  0.00     0.316 A 
ATOM      7  O16 ZIN A   1      20.079   0.747  13.734  0.00  0.00    -0.247 OA
ATOM      8  N17 ZIN A   1      20.365   0.599  11.510  0.00  0.00    -0.335 N 
ATOM      9  C18 ZIN A   1      20.355  -0.480  10.507  0.00  0.00     0.123 A 
ATOM     10  H30 ZIN A   1      19.757  -1.798  13.492  0.00  0.00     0.164 HD
ATOM     11  H31 ZIN A   1      20.521   1.538  11.323  0.00  0.00     0.164 HD
ENDROOT
BRANCH   1  12
ATOM     12  C7  ZIN A   1      19.007   1.312   9.338  0.00  0.00     0.017 C 
BRANCH  12  13
ATOM     13  C6  ZIN A   1      19.257   1.746   7.893  0.00  0.00     0.002 C 
BRANCH  13  14
ATOM     14  C5  ZIN A   1      18.729   0.673   6.940  0.00  0.00     0.010 C 
BRANCH  14  15
ATOM     15  C4  ZIN A   1      19.287   0.918   5.537  0.00  0.00     0.113 C 
BRANCH  15  16
ATOM     16  C2  ZIN A   1      19.106  -0.323   4.701  0.00  0.00     0.172 C 
ATOM     17  O1  ZIN A   1      19.977  -1.175   4.677  0.00  0.00    -0.648 OA
ATOM     18  O3  ZIN A   1      18.084  -0.478   4.053  0.00  0.00    -0.648 OA
ENDBRANCH  15  16
ENDBRANCH  14  15
ENDBRANCH  13  14
ENDBRANCH  12  13
ENDBRANCH   1  12
TORSDOF 5
ENDMDL
MODEL 7
REMARK VINA RESULT:      -5.8      2.937      3.415
REMARK  5 active torsions:
REMARK  status: ('A' for Active; 'I' for Inactive)
REMARK    1  A    between atoms: C2_2  and  C4_4 
REMARK    2  A    between atoms: C4_4  and  C5_5 
REMARK    3  A    between atoms: C5_5  and  C6_6 
REMARK    4  A    between atoms: C6_6  and  C7_7 
REMARK    5  A    between atoms: C7_7  and  C8_8 
ROOT
ATOM      1  C8  ZIN A   1      19.152   1.499  10.402  0.00  0.00     0.072 C 
ATOM      2  S10 ZIN A   1      18.277   0.718  11.819  0.00  0.00    -0.160 SA
ATOM      3  C11 ZIN A   1      18.982   1.856  13.080  0.00  0.00     0.101 C 
ATOM      4  C12 ZIN A   1      19.082   3.190  12.315  0.00  0.00     0.119 A 
ATOM      5  N14 ZIN A   1      17.833   3.946  12.495  0.00  0.00    -0.336 N 
ATOM      6  C15 ZIN A   1      17.276   4.162  11.295  0.00  0.00     0.316 A 
ATOM      7  O16 ZIN A   1      16.231   4.766  11.149  0.00  0.00    -0.247 OA
ATOM      8  N17 ZIN A   1      17.974   3.651  10.273  0.00  0.00    -0.335 N 
ATOM      9  C18 ZIN A   1      19.183   2.989  10.795  0.00  0.00     0.123 A 
ATOM     10  H30 ZIN A   1      17.472   4.242  13.345  0.00  0.00     0.164 HD
ATOM     11  H31 ZIN A   1      17.726   3.708   9.337  0.00  0.00     0.164 HD
ENDROOT
BRANCH   1  12
ATOM     12  C7  ZIN A   1      18.368   1.297   9.102  0.00  0.00     0.017 C 
BRANCH  12  13
ATOM     13  C6  ZIN A   1      19.313   1.445   7.909  0.00  0.00     0.002 C 
BRANCH  13  14
ATOM     14  C5  ZIN A   1      18.621   0.935   6.644  0.00  0.00     0.010 C 
BRANCH  14  15
ATOM     15  C4  ZIN A   1      19.032  -0.517   6.388  0.00  0.00     0.113 C 
BRANCH  15  16
ATOM     16  C2  ZIN A   1      19.200  -0.737   4.907  0.00  0.00     0.172 C 
ATOM     17  O1  ZIN A   1      19.784  -1.727   4.500  0.00  0.00    -0.648 OA
ATOM     18  O3  ZIN A   1      18.746   0.072   4.115  0.00  0.00    -0.648 OA
ENDBRANCH  15  16
ENDBRANCH  14  15
ENDBRANCH  13  14
ENDBRANCH  12  13
ENDBRANCH   1  12
TORSDOF 5
ENDMDL
MODEL 8
REMARK VINA RESULT:      -5.8      2.510      2.970
REMARK  5 active torsions:
REMARK  status: ('A' for Active; 'I' for Inactive)
REMARK    1  A    between atoms: C2_2  and  C4_4 
REMARK    2  A    between atoms: C4_4  and  C5_5 
REMARK    3  A    between atoms: C5_5  and  C6_6 
REMARK    4  A    between atoms: C6_6  and  C7_7 
REMARK    5  A    between atoms: C7_7  and  C8_8 
ROOT
ATOM      1  C8  ZIN A   1      18.026  -0.527   9.506  0.00  0.00     0.072 C 
ATOM      2  S10 ZIN A   1      19.816  -0.408   9.911  0.00  0.00    -0.160 SA
ATOM      3  C11 ZIN A   1      19.844  -1.935  10.936  0.00  0.00     0.101 C 
ATOM      4  C12 ZIN A   1      18.831  -2.846  10.215  0.00  0.00     0.119 A 
ATOM      5  N14 ZIN A   1      19.536  -3.648   9.203  0.00  0.00    -0.336 N 
ATOM      6  C15 ZIN A   1      19.020  -3.380   7.995  0.00  0.00     0.316 A 
ATOM      7  O16 ZIN A   1      19.417  -3.906   6.973  0.00  0.00    -0.247 OA
ATOM      8  N17 ZIN A   1      18.028  -2.481   8.017  0.00  0.00    -0.335 N 
ATOM      9  C18 ZIN A   1      17.796  -2.048   9.406  0.00  0.00     0.123 A 
ATOM     10  H30 ZIN A   1      20.258  -4.271   9.381  0.00  0.00     0.164 HD
ATOM     11  H31 ZIN A   1      17.538  -2.165   7.241  0.00  0.00     0.164 HD
ENDROOT
BRANCH   1  12
ATOM     12  C7  ZIN A   1      17.726   0.156   8.169  0.00  0.00     0.017 C 
BRANCH  12  13
ATOM     13  C6  ZIN A   1      18.945   0.965   7.724  0.00  0.00     0.002 C 
BRANCH  13  14
ATOM     14  C5  ZIN A   1      18.949   1.083   6.199  0.00  0.00     0.010 C 
BRANCH  14  15
ATOM     15  C4  ZIN A   1      18.026   0.019   5.603  0.00  0.00     0.113 C 
BRANCH  15  16
ATOM     16  C2  ZIN A   1      18.843  -0.967   4.809  0.00  0.00     0.172 C 
ATOM     17  O1  ZIN A   1      20.022  -0.746   4.589  0.00  0.00    -0.648 OA
ATOM     18  O3  ZIN A   1      18.327  -1.989   4.390  0.00  0.00    -0.648 OA
ENDBRANCH  15  16
ENDBRANCH  14  15
ENDBRANCH  13  14
ENDBRANCH  12  13
ENDBRANCH   1  12
TORSDOF 5
ENDMDL
MODEL 9
REMARK VINA RESULT:      -5.7      2.310      2.679
REMARK  5 active torsions:
REMARK  status: ('A' for Active; 'I' for Inactive)
REMARK    1  A    between atoms: C2_2  and  C4_4 
REMARK    2  A    between atoms: C4_4  and  C5_5 
REMARK    3  A    between atoms: C5_5  and  C6_6 
REMARK    4  A    between atoms: C6_6  and  C7_7 
REMARK    5  A    between atoms: C7_7  and  C8_8 
ROOT
ATOM      1  C8  ZIN A   1      18.291  -0.339  10.337  0.00  0.00     0.072 C 
ATOM      2  S10 ZIN A   1      17.201  -0.088  11.797  0.00  0.00    -0.160 SA
ATOM      3  C11 ZIN A   1      18.525  -0.410  13.033  0.00  0.00     0.101 C 
ATOM      4  C12 ZIN A   1      19.776   0.177  12.351  0.00  0.00     0.119 A 
ATOM      5  N14 ZIN A   1      19.918   1.590  12.733  0.00  0.00    -0.336 N 
ATOM      6  C15 ZIN A   1      19.879   2.348  11.629  0.00  0.00     0.316 A 
ATOM      7  O16 ZIN A   1      19.975   3.560  11.652  0.00  0.00    -0.247 OA
ATOM      8  N17 ZIN A   1      19.726   1.649  10.496  0.00  0.00    -0.335 N 
ATOM      9  C18 ZIN A   1      19.646   0.213  10.820  0.00  0.00     0.123 A 
ATOM     10  H30 ZIN A   1      20.025   1.920  13.639  0.00  0.00     0.164 HD
ATOM     11  H31 ZIN A   1      19.675   2.027   9.604  0.00  0.00     0.164 HD
ENDROOT
BRANCH   1  12
ATOM     12  C7  ZIN A   1      17.778   0.457   9.134  0.00  0.00     0.017 C 
BRANCH  12  13
ATOM     13  C6  ZIN A   1      17.491  -0.499   7.975  0.00  0.00     0.002 C 
BRANCH  13  14
ATOM     14  C5  ZIN A   1      17.816   0.195   6.650  0.00  0.00     0.010 C 
BRANCH  14  15
ATOM     15  C4  ZIN A   1      17.814  -0.837   5.521  0.00  0.00     0.113 C 
BRANCH  15  16
ATOM     16  C2  ZIN A   1      19.222  -1.312   5.272  0.00  0.00     0.172 C 
ATOM     17  O1  ZIN A   1      19.974  -0.652   4.575  0.00  0.00    -0.648 OA
ATOM     18  O3  ZIN A   1      19.612  -2.354   5.772  0.00  0.00    -0.648 OA
ENDBRANCH  15  16
ENDBRANCH  14  15
ENDBRANCH  13  14
ENDBRANCH  12  13
ENDBRANCH   1  12
TORSDOF 5
ENDMDL
