MODEL 1
REMARK VINA RESULT:      -9.1      0.000      0.000
REMARK  3 active torsions:
REMARK  status: ('A' for Active; 'I' for Inactive)
REMARK    1  A    between atoms: C8_8  and  C9_9 
REMARK    2  A    between atoms: C11_11  and  C12_12 
REMARK    3  A    between atoms: N19_19  and  C20_20 
ROOT
ATOM      1  N1  <0> d   1      20.744   5.935  14.493  0.00  0.00    -0.191 NA
ATOM      2  C2  <0> d   1      19.637   6.181  14.550  0.00  0.00     0.100 C 
ATOM      3  C3  <0> d   1      18.241   6.492  14.625  0.00  0.00     0.055 A 
ATOM      4  C4  <0> d   1      17.825   7.794  14.905  0.00  0.00     0.023 A 
ATOM      5  C5  <0> d   1      16.478   8.087  14.974  0.00  0.00     0.002 A 
ATOM      6  C6  <0> d   1      15.532   7.097  14.766  0.00  0.00     0.001 A 
ATOM      7  C7  <0> d   1      15.924   5.802  14.489  0.00  0.00     0.014 A 
ATOM      8  C8  <0> d   1      17.279   5.486  14.408  0.00  0.00     0.000 A 
ENDROOT
BRANCH   8   9
ATOM      9  C9  <0> d   1      17.703   4.101  14.111  0.00  0.00     0.045 A 
ATOM     10  C26 <0> d   1      17.792   3.648  12.771  0.00  0.00     0.263 A 
ATOM     11  N19 <0> d   1      18.184   2.389  12.505  0.00  0.00    -0.288 N 
ATOM     12  O27 <0> d   1      17.522   4.407  11.855  0.00  0.00    -0.267 OA
ATOM     13  C18 <0> d   1      18.489   1.525  13.504  0.00  0.00     0.114 A 
ATOM     14  C11 <0> d   1      18.413   1.915  14.823  0.00  0.00     0.010 A 
ATOM     15  C10 <0> d   1      18.013   3.227  15.140  0.00  0.00     0.033 A 
BRANCH  11  16
ATOM     16  C20 <0> d   1      18.272   1.962  11.175  0.00  0.00     0.042 A 
ATOM     17  C25 <0> d   1      17.435   0.956  10.711  0.00  0.00     0.030 A 
ATOM     18  C24 <0> d   1      17.520   0.541   9.396  0.00  0.00     0.002 A 
ATOM     19  C23 <0> d   1      18.445   1.118   8.546  0.00  0.00     0.000 A 
ATOM     20  C22 <0> d   1      19.284   2.116   9.007  0.00  0.00     0.002 A 
ATOM     21  C21 <0> d   1      19.200   2.540  10.319  0.00  0.00     0.030 A 
ENDBRANCH  11  16
BRANCH  14  22
ATOM     22  C12 <0> d   1      18.752   0.957  15.904  0.00  0.00     0.068 A 
ATOM     23  N17 <0> d   1      19.066   1.411  17.111  0.00  0.00    -0.260 NA
ATOM     24  C16 <0> d   1      19.367   0.593  18.098  0.00  0.00     0.117 A 
ATOM     25  C15 <0> d   1      19.377  -0.776  17.910  0.00  0.00     0.019 A 
ATOM     26  C14 <0> d   1      19.059  -1.293  16.661  0.00  0.00     0.004 A 
ATOM     27  C13 <0> d   1      18.741  -0.412  15.643  0.00  0.00     0.032 A 
ENDBRANCH  14  22
ENDBRANCH   8   9
TORSDOF 3
ENDMDL
MODEL 2
REMARK VINA RESULT:      -9.0      0.900      5.587
REMARK  3 active torsions:
REMARK  status: ('A' for Active; 'I' for Inactive)
REMARK    1  A    between atoms: C8_8  and  C9_9 
REMARK    2  A    between atoms: C11_11  and  C12_12 
REMARK    3  A    between atoms: N19_19  and  C20_20 
ROOT
ATOM      1  N1  <0> d   1      15.874  -0.145  11.859  0.00  0.00    -0.191 NA
ATOM      2  C2  <0> d   1      16.657   0.346  11.198  0.00  0.00     0.100 C 
ATOM      3  C3  <0> d   1      17.644   0.962  10.364  0.00  0.00     0.055 A 
ATOM      4  C4  <0> d   1      17.762   0.592   9.023  0.00  0.00     0.023 A 
ATOM      5  C5  <0> d   1      18.714   1.190   8.224  0.00  0.00     0.002 A 
ATOM      6  C6  <0> d   1      19.558   2.159   8.743  0.00  0.00     0.001 A 
ATOM      7  C7  <0> d   1      19.457   2.538  10.067  0.00  0.00     0.014 A 
ATOM      8  C8  <0> d   1      18.498   1.951  10.889  0.00  0.00     0.000 A 
ENDROOT
BRANCH   8   9
ATOM      9  C9  <0> d   1      18.387   2.354  12.308  0.00  0.00     0.045 A 
ATOM     10  C26 <0> d   1      18.001   3.672  12.652  0.00  0.00     0.263 A 
ATOM     11  N19 <0> d   1      17.895   4.033  13.944  0.00  0.00    -0.288 N 
ATOM     12  O27 <0> d   1      17.753   4.481  11.773  0.00  0.00    -0.267 OA
ATOM     13  C18 <0> d   1      18.166   3.155  14.941  0.00  0.00     0.114 A 
ATOM     14  C11 <0> d   1      18.552   1.863  14.658  0.00  0.00     0.010 A 
ATOM     15  C10 <0> d   1      18.666   1.447  13.317  0.00  0.00     0.033 A 
BRANCH  11  16
ATOM     16  C20 <0> d   1      17.506   5.339  14.265  0.00  0.00     0.042 A 
ATOM     17  C25 <0> d   1      16.158   5.675  14.295  0.00  0.00     0.030 A 
ATOM     18  C24 <0> d   1      15.777   6.962  14.619  0.00  0.00     0.002 A 
ATOM     19  C23 <0> d   1      16.736   7.919  14.901  0.00  0.00     0.000 A 
ATOM     20  C22 <0> d   1      18.078   7.589  14.866  0.00  0.00     0.002 A 
ATOM     21  C21 <0> d   1      18.466   6.301  14.550  0.00  0.00     0.030 A 
ENDBRANCH  11  16
BRANCH  14  22
ATOM     22  C12 <0> d   1      18.843   0.914  15.761  0.00  0.00     0.068 A 
ATOM     23  N17 <0> d   1      19.121   1.379  16.972  0.00  0.00    -0.260 NA
ATOM     24  C16 <0> d   1      19.381   0.570  17.979  0.00  0.00     0.117 A 
ATOM     25  C15 <0> d   1      19.383  -0.801  17.806  0.00  0.00     0.019 A 
ATOM     26  C14 <0> d   1      19.102  -1.329  16.553  0.00  0.00     0.004 A 
ATOM     27  C13 <0> d   1      18.828  -0.457  15.515  0.00  0.00     0.032 A 
ENDBRANCH  14  22
ENDBRANCH   8   9
TORSDOF 3
ENDMDL
MODEL 3
REMARK VINA RESULT:      -8.8      5.374     10.549
REMARK  3 active torsions:
REMARK  status: ('A' for Active; 'I' for Inactive)
REMARK    1  A    between atoms: C8_8  and  C9_9 
REMARK    2  A    between atoms: C11_11  and  C12_12 
REMARK    3  A    between atoms: N19_19  and  C20_20 
ROOT
ATOM      1  N1  <0> d   1      20.528  -5.931   8.724  0.00  0.00    -0.191 NA
ATOM      2  C2  <0> d   1      19.412  -6.117   8.633  0.00  0.00     0.100 C 
ATOM      3  C3  <0> d   1      18.004  -6.352   8.515  0.00  0.00     0.055 A 
ATOM      4  C4  <0> d   1      17.525  -7.637   8.257  0.00  0.00     0.023 A 
ATOM      5  C5  <0> d   1      16.167  -7.857   8.147  0.00  0.00     0.002 A 
ATOM      6  C6  <0> d   1      15.272  -6.809   8.292  0.00  0.00     0.001 A 
ATOM      7  C7  <0> d   1      15.727  -5.531   8.546  0.00  0.00     0.014 A 
ATOM      8  C8  <0> d   1      17.093  -5.288   8.668  0.00  0.00     0.000 A 
ENDROOT
BRANCH   8   9
ATOM      9  C9  <0> d   1      17.584  -3.920   8.941  0.00  0.00     0.045 A 
ATOM     10  C26 <0> d   1      17.718  -3.457  10.273  0.00  0.00     0.263 A 
ATOM     11  N19 <0> d   1      18.171  -2.214  10.517  0.00  0.00    -0.288 N 
ATOM     12  O27 <0> d   1      17.430  -4.192  11.203  0.00  0.00    -0.267 OA
ATOM     13  C18 <0> d   1      18.497  -1.375   9.503  0.00  0.00     0.114 A 
ATOM     14  C11 <0> d   1      18.379  -1.776   8.190  0.00  0.00     0.010 A 
ATOM     15  C10 <0> d   1      17.915  -3.073   7.896  0.00  0.00     0.033 A 
BRANCH  11  16
ATOM     16  C20 <0> d   1      18.302  -1.776  11.841  0.00  0.00     0.042 A 
ATOM     17  C25 <0> d   1      17.392  -0.868  12.366  0.00  0.00     0.030 A 
ATOM     18  C24 <0> d   1      17.521  -0.443  13.674  0.00  0.00     0.002 A 
ATOM     19  C23 <0> d   1      18.561  -0.912  14.456  0.00  0.00     0.000 A 
ATOM     20  C22 <0> d   1      19.472  -1.811  13.934  0.00  0.00     0.002 A 
ATOM     21  C21 <0> d   1      19.345  -2.245  12.628  0.00  0.00     0.030 A 
ENDBRANCH  11  16
BRANCH  14  22
ATOM     22  C12 <0> d   1      18.741  -0.847   7.092  0.00  0.00     0.068 A 
ATOM     23  N17 <0> d   1      19.115  -1.332   5.915  0.00  0.00    -0.260 NA
ATOM     24  C16 <0> d   1      19.439  -0.541   4.913  0.00  0.00     0.117 A 
ATOM     25  C15 <0> d   1      19.410   0.834   5.056  0.00  0.00     0.019 A 
ATOM     26  C14 <0> d   1      19.029   1.384   6.273  0.00  0.00     0.004 A 
ATOM     27  C13 <0> d   1      18.688   0.529   7.306  0.00  0.00     0.032 A 
ENDBRANCH  14  22
ENDBRANCH   8   9
TORSDOF 3
ENDMDL
MODEL 4
REMARK VINA RESULT:      -8.7      3.061      7.918
REMARK  3 active torsions:
REMARK  status: ('A' for Active; 'I' for Inactive)
REMARK    1  A    between atoms: C8_8  and  C9_9 
REMARK    2  A    between atoms: C11_11  and  C12_12 
REMARK    3  A    between atoms: N19_19  and  C20_20 
ROOT
ATOM      1  N1  <0> d   1      21.185  -0.524  10.714  0.00  0.00    -0.191 NA
ATOM      2  C2  <0> d   1      20.367  -1.302  10.838  0.00  0.00     0.100 C 
ATOM      3  C3  <0> d   1      19.335  -2.283  10.991  0.00  0.00     0.055 A 
ATOM      4  C4  <0> d   1      19.433  -3.513  10.340  0.00  0.00     0.023 A 
ATOM      5  C5  <0> d   1      18.436  -4.455  10.493  0.00  0.00     0.002 A 
ATOM      6  C6  <0> d   1      17.334  -4.188  11.291  0.00  0.00     0.001 A 
ATOM      7  C7  <0> d   1      17.219  -2.976  11.942  0.00  0.00     0.014 A 
ATOM      8  C8  <0> d   1      18.218  -2.014  11.806  0.00  0.00     0.000 A 
ENDROOT
BRANCH   8   9
ATOM      9  C9  <0> d   1      18.099  -0.715  12.502  0.00  0.00     0.045 A 
ATOM     10  C26 <0> d   1      18.161  -0.649  13.916  0.00  0.00     0.263 A 
ATOM     11  N19 <0> d   1      18.058   0.536  14.545  0.00  0.00    -0.288 N 
ATOM     12  O27 <0> d   1      18.319  -1.669  14.565  0.00  0.00    -0.267 OA
ATOM     13  C18 <0> d   1      17.881   1.686  13.848  0.00  0.00     0.114 A 
ATOM     14  C11 <0> d   1      17.808   1.674  12.473  0.00  0.00     0.010 A 
ATOM     15  C10 <0> d   1      17.919   0.453  11.779  0.00  0.00     0.033 A 
BRANCH  11  16
ATOM     16  C20 <0> d   1      18.128   0.583  15.942  0.00  0.00     0.042 A 
ATOM     17  C25 <0> d   1      19.261   1.089  16.566  0.00  0.00     0.030 A 
ATOM     18  C24 <0> d   1      19.325   1.139  17.944  0.00  0.00     0.002 A 
ATOM     19  C23 <0> d   1      18.266   0.676  18.704  0.00  0.00     0.000 A 
ATOM     20  C22 <0> d   1      17.139   0.167  18.087  0.00  0.00     0.002 A 
ATOM     21  C21 <0> d   1      17.066   0.119  16.708  0.00  0.00     0.030 A 
ENDBRANCH  11  16
BRANCH  14  22
ATOM     22  C12 <0> d   1      17.615   2.941  11.726  0.00  0.00     0.068 A 
ATOM     23  N17 <0> d   1      16.959   3.945  12.293  0.00  0.00    -0.260 NA
ATOM     24  C16 <0> d   1      16.771   5.088  11.665  0.00  0.00     0.117 A 
ATOM     25  C15 <0> d   1      17.244   5.280  10.382  0.00  0.00     0.019 A 
ATOM     26  C14 <0> d   1      17.932   4.253   9.749  0.00  0.00     0.004 A 
ATOM     27  C13 <0> d   1      18.120   3.065  10.433  0.00  0.00     0.032 A 
ENDBRANCH  14  22
ENDBRANCH   8   9
TORSDOF 3
ENDMDL
MODEL 5
REMARK VINA RESULT:      -8.7      1.307      5.179
REMARK  3 active torsions:
REMARK  status: ('A' for Active; 'I' for Inactive)
REMARK    1  A    between atoms: C8_8  and  C9_9 
REMARK    2  A    between atoms: C11_11  and  C12_12 
REMARK    3  A    between atoms: N19_19  and  C20_20 
ROOT
ATOM      1  N1  <0> d   1      21.052   5.924  14.872  0.00  0.00    -0.191 NA
ATOM      2  C2  <0> d   1      19.947   6.179  14.813  0.00  0.00     0.100 C 
ATOM      3  C3  <0> d   1      18.554   6.501  14.740  0.00  0.00     0.055 A 
ATOM      4  C4  <0> d   1      18.116   7.794  15.029  0.00  0.00     0.023 A 
ATOM      5  C5  <0> d   1      16.772   8.099  14.955  0.00  0.00     0.002 A 
ATOM      6  C6  <0> d   1      15.850   7.128  14.596  0.00  0.00     0.001 A 
ATOM      7  C7  <0> d   1      16.265   5.843  14.308  0.00  0.00     0.014 A 
ATOM      8  C8  <0> d   1      17.618   5.516  14.369  0.00  0.00     0.000 A 
ENDROOT
BRANCH   8   9
ATOM      9  C9  <0> d   1      18.065   4.141  14.062  0.00  0.00     0.045 A 
ATOM     10  C26 <0> d   1      18.273   3.203  15.103  0.00  0.00     0.263 A 
ATOM     11  N19 <0> d   1      18.674   1.951  14.819  0.00  0.00    -0.288 N 
ATOM     12  O27 <0> d   1      18.077   3.530  16.262  0.00  0.00    -0.267 OA
ATOM     13  C18 <0> d   1      18.901   1.562  13.540  0.00  0.00     0.114 A 
ATOM     14  C11 <0> d   1      18.718   2.437  12.492  0.00  0.00     0.010 A 
ATOM     15  C10 <0> d   1      18.292   3.755  12.751  0.00  0.00     0.033 A 
BRANCH  11  16
ATOM     16  C20 <0> d   1      18.868   1.036  15.861  0.00  0.00     0.042 A 
ATOM     17  C25 <0> d   1      18.673  -0.321  15.640  0.00  0.00     0.030 A 
ATOM     18  C24 <0> d   1      18.871  -1.221  16.668  0.00  0.00     0.002 A 
ATOM     19  C23 <0> d   1      19.253  -0.772  17.920  0.00  0.00     0.000 A 
ATOM     20  C22 <0> d   1      19.443   0.579  18.143  0.00  0.00     0.002 A 
ATOM     21  C21 <0> d   1      19.252   1.485  17.117  0.00  0.00     0.030 A 
ENDBRANCH  11  16
BRANCH  14  22
ATOM     22  C12 <0> d   1      18.969   1.995  11.099  0.00  0.00     0.068 A 
ATOM     23  N17 <0> d   1      19.450   0.778  10.872  0.00  0.00    -0.260 NA
ATOM     24  C16 <0> d   1      19.681   0.346   9.649  0.00  0.00     0.117 A 
ATOM     25  C15 <0> d   1      19.440   1.151   8.553  0.00  0.00     0.019 A 
ATOM     26  C14 <0> d   1      18.943   2.433   8.746  0.00  0.00     0.004 A 
ATOM     27  C13 <0> d   1      18.703   2.860  10.040  0.00  0.00     0.032 A 
ENDBRANCH  14  22
ENDBRANCH   8   9
TORSDOF 3
ENDMDL
MODEL 6
REMARK VINA RESULT:      -8.5      5.150      8.874
REMARK  3 active torsions:
REMARK  status: ('A' for Active; 'I' for Inactive)
REMARK    1  A    between atoms: C8_8  and  C9_9 
REMARK    2  A    between atoms: C11_11  and  C12_12 
REMARK    3  A    between atoms: N19_19  and  C20_20 
ROOT
ATOM      1  N1  <0> d   1      15.876   0.240  11.347  0.00  0.00    -0.191 NA
ATOM      2  C2  <0> d   1      16.711  -0.239  11.949  0.00  0.00     0.100 C 
ATOM      3  C3  <0> d   1      17.765  -0.840  12.711  0.00  0.00     0.055 A 
ATOM      4  C4  <0> d   1      17.960  -0.483  14.045  0.00  0.00     0.023 A 
ATOM      5  C5  <0> d   1      18.976  -1.068  14.773  0.00  0.00     0.002 A 
ATOM      6  C6  <0> d   1      19.806  -2.010  14.189  0.00  0.00     0.001 A 
ATOM      7  C7  <0> d   1      19.630  -2.376  12.870  0.00  0.00     0.014 A 
ATOM      8  C8  <0> d   1      18.606  -1.803  12.118  0.00  0.00     0.000 A 
ENDROOT
BRANCH   8   9
ATOM      9  C9  <0> d   1      18.413  -2.192  10.705  0.00  0.00     0.045 A 
ATOM     10  C26 <0> d   1      17.949  -3.489  10.373  0.00  0.00     0.263 A 
ATOM     11  N19 <0> d   1      17.769  -3.837   9.086  0.00  0.00    -0.288 N 
ATOM     12  O27 <0> d   1      17.703  -4.290  11.260  0.00  0.00    -0.267 OA
ATOM     13  C18 <0> d   1      18.037  -2.967   8.082  0.00  0.00     0.114 A 
ATOM     14  C11 <0> d   1      18.495  -1.696   8.351  0.00  0.00     0.010 A 
ATOM     15  C10 <0> d   1      18.689  -1.293   9.687  0.00  0.00     0.033 A 
BRANCH  11  16
ATOM     16  C20 <0> d   1      17.305  -5.121   8.778  0.00  0.00     0.042 A 
ATOM     17  C25 <0> d   1      18.206  -6.132   8.471  0.00  0.00     0.030 A 
ATOM     18  C24 <0> d   1      17.745  -7.399   8.174  0.00  0.00     0.002 A 
ATOM     19  C23 <0> d   1      16.387  -7.660   8.171  0.00  0.00     0.000 A 
ATOM     20  C22 <0> d   1      15.486  -6.654   8.471  0.00  0.00     0.002 A 
ATOM     21  C21 <0> d   1      15.941  -5.386   8.775  0.00  0.00     0.030 A 
ENDBRANCH  11  16
BRANCH  14  22
ATOM     22  C12 <0> d   1      18.782  -0.756   7.240  0.00  0.00     0.068 A 
ATOM     23  N17 <0> d   1      18.999  -1.228   6.019  0.00  0.00    -0.260 NA
ATOM     24  C16 <0> d   1      19.252  -0.426   5.005  0.00  0.00     0.117 A 
ATOM     25  C15 <0> d   1      19.310   0.943   5.178  0.00  0.00     0.019 A 
ATOM     26  C14 <0> d   1      19.093   1.479   6.441  0.00  0.00     0.004 A 
ATOM     27  C13 <0> d   1      18.824   0.614   7.488  0.00  0.00     0.032 A 
ENDBRANCH  14  22
ENDBRANCH   8   9
TORSDOF 3
ENDMDL
MODEL 7
REMARK VINA RESULT:      -8.1      3.458      6.708
REMARK  3 active torsions:
REMARK  status: ('A' for Active; 'I' for Inactive)
REMARK    1  A    between atoms: C8_8  and  C9_9 
REMARK    2  A    between atoms: C11_11  and  C12_12 
REMARK    3  A    between atoms: N19_19  and  C20_20 
ROOT
ATOM      1  N1  <0> d   1      20.216  -0.327   9.084  0.00  0.00    -0.191 NA
ATOM      2  C2  <0> d   1      19.608   0.572   9.417  0.00  0.00     0.100 C 
ATOM      3  C3  <0> d   1      18.844   1.708   9.837  0.00  0.00     0.055 A 
ATOM      4  C4  <0> d   1      18.880   2.891   9.098  0.00  0.00     0.023 A 
ATOM      5  C5  <0> d   1      18.140   3.982   9.506  0.00  0.00     0.002 A 
ATOM      6  C6  <0> d   1      17.358   3.912  10.649  0.00  0.00     0.001 A 
ATOM      7  C7  <0> d   1      17.311   2.750  11.394  0.00  0.00     0.014 A 
ATOM      8  C8  <0> d   1      18.045   1.635  10.995  0.00  0.00     0.000 A 
ENDROOT
BRANCH   8   9
ATOM      9  C9  <0> d   1      17.997   0.390  11.790  0.00  0.00     0.045 A 
ATOM     10  C26 <0> d   1      18.146   0.430  13.198  0.00  0.00     0.263 A 
ATOM     11  N19 <0> d   1      18.095  -0.705  13.918  0.00  0.00    -0.288 N 
ATOM     12  O27 <0> d   1      18.310   1.500  13.761  0.00  0.00    -0.267 OA
ATOM     13  C18 <0> d   1      17.916  -1.908  13.319  0.00  0.00     0.114 A 
ATOM     14  C11 <0> d   1      17.772  -2.001  11.952  0.00  0.00     0.010 A 
ATOM     15  C10 <0> d   1      17.812  -0.833  11.165  0.00  0.00     0.033 A 
BRANCH  11  16
ATOM     16  C20 <0> d   1      18.238  -0.645  15.310  0.00  0.00     0.042 A 
ATOM     17  C25 <0> d   1      19.313  -1.272  15.927  0.00  0.00     0.030 A 
ATOM     18  C24 <0> d   1      19.454  -1.205  17.299  0.00  0.00     0.002 A 
ATOM     19  C23 <0> d   1      18.521  -0.524  18.059  0.00  0.00     0.000 A 
ATOM     20  C22 <0> d   1      17.447   0.097  17.449  0.00  0.00     0.002 A 
ATOM     21  C21 <0> d   1      17.303   0.039  16.076  0.00  0.00     0.030 A 
ENDBRANCH  11  16
BRANCH  14  22
ATOM     22  C12 <0> d   1      17.575  -3.324  11.312  0.00  0.00     0.068 A 
ATOM     23  N17 <0> d   1      17.457  -4.409  12.068  0.00  0.00    -0.260 NA
ATOM     24  C16 <0> d   1      17.276  -5.602  11.539  0.00  0.00     0.117 A 
ATOM     25  C15 <0> d   1      17.211  -5.769  10.168  0.00  0.00     0.019 A 
ATOM     26  C14 <0> d   1      17.334  -4.661   9.341  0.00  0.00     0.004 A 
ATOM     27  C13 <0> d   1      17.518  -3.419   9.923  0.00  0.00     0.032 A 
ENDBRANCH  14  22
ENDBRANCH   8   9
TORSDOF 3
ENDMDL
MODEL 8
REMARK VINA RESULT:      -8.0      2.767      6.088
REMARK  3 active torsions:
REMARK  status: ('A' for Active; 'I' for Inactive)
REMARK    1  A    between atoms: C8_8  and  C9_9 
REMARK    2  A    between atoms: C11_11  and  C12_12 
REMARK    3  A    between atoms: N19_19  and  C20_20 
ROOT
ATOM      1  N1  <0> d   1      21.303  -0.810  10.733  0.00  0.00    -0.191 NA
ATOM      2  C2  <0> d   1      20.404  -1.497  10.834  0.00  0.00     0.100 C 
ATOM      3  C3  <0> d   1      19.271  -2.363  10.959  0.00  0.00     0.055 A 
ATOM      4  C4  <0> d   1      19.252  -3.595  10.304  0.00  0.00     0.023 A 
ATOM      5  C5  <0> d   1      18.158  -4.426  10.430  0.00  0.00     0.002 A 
ATOM      6  C6  <0> d   1      17.073  -4.046  11.204  0.00  0.00     0.001 A 
ATOM      7  C7  <0> d   1      17.072  -2.831  11.859  0.00  0.00     0.014 A 
ATOM      8  C8  <0> d   1      18.170  -1.980  11.751  0.00  0.00     0.000 A 
ENDROOT
BRANCH   8   9
ATOM      9  C9  <0> d   1      18.174  -0.677  12.450  0.00  0.00     0.045 A 
ATOM     10  C26 <0> d   1      17.978   0.526  11.729  0.00  0.00     0.263 A 
ATOM     11  N19 <0> d   1      17.976   1.709  12.370  0.00  0.00    -0.288 N 
ATOM     12  O27 <0> d   1      17.801   0.489  10.522  0.00  0.00    -0.267 OA
ATOM     13  C18 <0> d   1      18.171   1.780  13.710  0.00  0.00     0.114 A 
ATOM     14  C11 <0> d   1      18.371   0.639  14.455  0.00  0.00     0.010 A 
ATOM     15  C10 <0> d   1      18.373  -0.618  13.820  0.00  0.00     0.033 A 
BRANCH  11  16
ATOM     16  C20 <0> d   1      17.775   2.888  11.641  0.00  0.00     0.042 A 
ATOM     17  C25 <0> d   1      18.333   3.027  10.377  0.00  0.00     0.030 A 
ATOM     18  C24 <0> d   1      18.127   4.188   9.658  0.00  0.00     0.002 A 
ATOM     19  C23 <0> d   1      17.376   5.215  10.200  0.00  0.00     0.000 A 
ATOM     20  C22 <0> d   1      16.824   5.082  11.460  0.00  0.00     0.002 A 
ATOM     21  C21 <0> d   1      17.021   3.921  12.182  0.00  0.00     0.030 A 
ENDBRANCH  11  16
BRANCH  14  22
ATOM     22  C12 <0> d   1      18.583   0.734  15.920  0.00  0.00     0.068 A 
ATOM     23  N17 <0> d   1      18.716   1.926  16.490  0.00  0.00    -0.260 NA
ATOM     24  C16 <0> d   1      18.899   2.053  17.788  0.00  0.00     0.117 A 
ATOM     25  C15 <0> d   1      18.971   0.943  18.608  0.00  0.00     0.019 A 
ATOM     26  C14 <0> d   1      18.842  -0.323  18.052  0.00  0.00     0.004 A 
ATOM     27  C13 <0> d   1      18.644  -0.428  16.687  0.00  0.00     0.032 A 
ENDBRANCH  14  22
ENDBRANCH   8   9
TORSDOF 3
ENDMDL
MODEL 9
REMARK VINA RESULT:      -8.0      5.267      9.296
REMARK  3 active torsions:
REMARK  status: ('A' for Active; 'I' for Inactive)
REMARK    1  A    between atoms: C8_8  and  C9_9 
REMARK    2  A    between atoms: C11_11  and  C12_12 
REMARK    3  A    between atoms: N19_19  and  C20_20 
ROOT
ATOM      1  N1  <0> d   1      20.705  -5.789   8.509  0.00  0.00    -0.191 NA
ATOM      2  C2  <0> d   1      19.594  -6.016   8.463  0.00  0.00     0.100 C 
ATOM      3  C3  <0> d   1      18.192  -6.304   8.404  0.00  0.00     0.055 A 
ATOM      4  C4  <0> d   1      17.752  -7.595   8.110  0.00  0.00     0.023 A 
ATOM      5  C5  <0> d   1      16.400  -7.867   8.056  0.00  0.00     0.002 A 
ATOM      6  C6  <0> d   1      15.473  -6.865   8.293  0.00  0.00     0.001 A 
ATOM      7  C7  <0> d   1      15.889  -5.581   8.585  0.00  0.00     0.014 A 
ATOM      8  C8  <0> d   1      17.249  -5.287   8.651  0.00  0.00     0.000 A 
ENDROOT
BRANCH   8   9
ATOM      9  C9  <0> d   1      17.699  -3.914   8.963  0.00  0.00     0.045 A 
ATOM     10  C26 <0> d   1      18.030  -3.012   7.922  0.00  0.00     0.263 A 
ATOM     11  N19 <0> d   1      18.433  -1.761   8.210  0.00  0.00    -0.288 N 
ATOM     12  O27 <0> d   1      17.939  -3.368   6.759  0.00  0.00    -0.267 OA
ATOM     13  C18 <0> d   1      18.544  -1.340   9.494  0.00  0.00     0.114 A 
ATOM     14  C11 <0> d   1      18.240  -2.180  10.542  0.00  0.00     0.010 A 
ATOM     15  C10 <0> d   1      17.808  -3.494  10.279  0.00  0.00     0.033 A 
BRANCH  11  16
ATOM     16  C20 <0> d   1      18.749  -0.882   7.168  0.00  0.00     0.042 A 
ATOM     17  C25 <0> d   1      18.557   0.485   7.327  0.00  0.00     0.030 A 
ATOM     18  C24 <0> d   1      18.876   1.349   6.299  0.00  0.00     0.002 A 
ATOM     19  C23 <0> d   1      19.376   0.856   5.108  0.00  0.00     0.000 A 
ATOM     20  C22 <0> d   1      19.563  -0.504   4.944  0.00  0.00     0.002 A 
ATOM     21  C21 <0> d   1      19.252  -1.375   5.971  0.00  0.00     0.030 A 
ENDBRANCH  11  16
BRANCH  14  22
ATOM     22  C12 <0> d   1      18.366  -1.702  11.941  0.00  0.00     0.068 A 
ATOM     23  N17 <0> d   1      17.631  -0.677  12.354  0.00  0.00    -0.260 NA
ATOM     24  C16 <0> d   1      17.710  -0.226  13.589  0.00  0.00     0.117 A 
ATOM     25  C15 <0> d   1      18.573  -0.802  14.503  0.00  0.00     0.019 A 
ATOM     26  C14 <0> d   1      19.363  -1.874  14.110  0.00  0.00     0.004 A 
ATOM     27  C13 <0> d   1      19.257  -2.331  12.808  0.00  0.00     0.032 A 
ENDBRANCH  14  22
ENDBRANCH   8   9
TORSDOF 3
ENDMDL
