MODEL 1
REMARK VINA RESULT:      -7.0      0.000      0.000
REMARK  3 active torsions:
REMARK  status: ('A' for Active; 'I' for Inactive)
REMARK    1  A    between atoms: C10_10  and  C11_11 
REMARK    2  A    between atoms: C11_11  and  C12_12 
REMARK    3  A    between atoms: C13_13  and  O14_14 
ROOT
ATOM      1  C12 ZIN A   1      19.714   0.602  12.321  0.00  0.00     0.004 A 
ATOM      2  C13 ZIN A   1      19.722   1.974  12.118  0.00  0.00     0.095 A 
ATOM      3  C15 ZIN A   1      18.973   2.800  12.944  0.00  0.00     0.069 A 
ATOM      4 Cl16 ZIN A   1      18.981   4.518  12.693  0.00  0.00    -0.081 Cl
ATOM      5  C17 ZIN A   1      18.221   2.254  13.968  0.00  0.00     0.052 A 
ATOM      6  C18 ZIN A   1      18.214   0.885  14.169  0.00  0.00     0.058 A 
ATOM      7 Cl19 ZIN A   1      17.268   0.202  15.454  0.00  0.00    -0.082 Cl
ATOM      8  C20 ZIN A   1      18.956   0.059  13.342  0.00  0.00     0.065 A 
ATOM      9 Cl21 ZIN A   1      18.945  -1.659  13.595  0.00  0.00    -0.082 Cl
ENDROOT
BRANCH   1  10
ATOM     10  C11 ZIN A   1      20.525  -0.298  11.423  0.00  0.00     0.086 C 
BRANCH  10  11
ATOM     11  C10 ZIN A   1      19.603  -1.047  10.497  0.00  0.00     0.008 A 
ATOM     12  C2  ZIN A   1      18.847  -0.355   9.562  0.00  0.00     0.137 A 
ATOM     13  O1  ZIN A   1      18.942   0.998   9.477  0.00  0.00    -0.190 OA
ATOM     14  C3  ZIN A   1      17.997  -1.047   8.709  0.00  0.00     0.072 A 
ATOM     15 Cl4  ZIN A   1      17.055  -0.184   7.534  0.00  0.00    -0.081 Cl
ATOM     16  C5  ZIN A   1      17.902  -2.424   8.797  0.00  0.00     0.052 A 
ATOM     17  C6  ZIN A   1      18.653  -3.111   9.733  0.00  0.00     0.058 A 
ATOM     18 Cl7  ZIN A   1      18.531  -4.840   9.841  0.00  0.00    -0.082 Cl
ATOM     19  C8  ZIN A   1      19.501  -2.423  10.584  0.00  0.00     0.065 A 
ATOM     20 Cl9  ZIN A   1      20.442  -3.289  11.758  0.00  0.00    -0.082 Cl
ENDBRANCH  10  11
ENDBRANCH   1  10
BRANCH   2  21
ATOM     21  O14 ZIN A   1      20.462   2.508  11.110  0.00  0.00    -0.358 OA
ATOM     22  H25 ZIN A   1      19.970   3.115  10.540  0.00  0.00     0.217 HD
ENDBRANCH   2  21
TORSDOF 3
ENDMDL
MODEL 2
REMARK VINA RESULT:      -7.0      1.753      6.072
REMARK  3 active torsions:
REMARK  status: ('A' for Active; 'I' for Inactive)
REMARK    1  A    between atoms: C10_10  and  C11_11 
REMARK    2  A    between atoms: C11_11  and  C12_12 
REMARK    3  A    between atoms: C13_13  and  O14_14 
ROOT
ATOM      1  C12 ZIN A   1      19.714  -0.706  10.634  0.00  0.00     0.004 A 
ATOM      2  C13 ZIN A   1      19.851  -2.084  10.686  0.00  0.00     0.095 A 
ATOM      3  C15 ZIN A   1      19.094  -2.887   9.844  0.00  0.00     0.069 A 
ATOM      4 Cl16 ZIN A   1      19.263  -4.614   9.906  0.00  0.00    -0.081 Cl
ATOM      5  C17 ZIN A   1      18.204  -2.312   8.957  0.00  0.00     0.052 A 
ATOM      6  C18 ZIN A   1      18.068  -0.935   8.907  0.00  0.00     0.058 A 
ATOM      7 Cl19 ZIN A   1      16.950  -0.214   7.792  0.00  0.00    -0.082 Cl
ATOM      8  C20 ZIN A   1      18.819  -0.133   9.749  0.00  0.00     0.065 A 
ATOM      9 Cl21 ZIN A   1      18.646   1.593   9.685  0.00  0.00    -0.082 Cl
ENDROOT
BRANCH   1  10
ATOM     10  C11 ZIN A   1      20.535   0.169  11.548  0.00  0.00     0.086 C 
BRANCH  10  11
ATOM     11  C10 ZIN A   1      19.651   0.735  12.629  0.00  0.00     0.008 A 
ATOM     12  C2  ZIN A   1      19.077  -0.110  13.568  0.00  0.00     0.137 A 
ATOM     13  O1  ZIN A   1      19.315  -1.447  13.517  0.00  0.00    -0.190 OA
ATOM     14  C3  ZIN A   1      18.262   0.413  14.564  0.00  0.00     0.072 A 
ATOM     15 Cl4  ZIN A   1      17.548  -0.641  15.744  0.00  0.00    -0.081 Cl
ATOM     16  C5  ZIN A   1      18.021   1.774  14.614  0.00  0.00     0.052 A 
ATOM     17  C6  ZIN A   1      18.590   2.613  13.674  0.00  0.00     0.058 A 
ATOM     18 Cl7  ZIN A   1      18.285   4.321  13.740  0.00  0.00    -0.082 Cl
ATOM     19  C8  ZIN A   1      19.403   2.094  12.680  0.00  0.00     0.065 A 
ATOM     20 Cl9  ZIN A   1      20.116   3.150  11.502  0.00  0.00    -0.082 Cl
ENDBRANCH  10  11
ENDBRANCH   1  10
BRANCH   2  21
ATOM     21  O14 ZIN A   1      20.727  -2.649  11.559  0.00  0.00    -0.358 OA
ATOM     22  H25 ZIN A   1      20.534  -3.574  11.766  0.00  0.00     0.217 HD
ENDBRANCH   2  21
TORSDOF 3
ENDMDL
MODEL 3
REMARK VINA RESULT:      -6.9      4.572      6.444
REMARK  3 active torsions:
REMARK  status: ('A' for Active; 'I' for Inactive)
REMARK    1  A    between atoms: C10_10  and  C11_11 
REMARK    2  A    between atoms: C11_11  and  C12_12 
REMARK    3  A    between atoms: C13_13  and  O14_14 
ROOT
ATOM      1  C12 ZIN A   1      18.317   4.379  14.008  0.00  0.00     0.004 A 
ATOM      2  C13 ZIN A   1      17.159   4.859  14.602  0.00  0.00     0.095 A 
ATOM      3  C15 ZIN A   1      16.149   5.395  13.816  0.00  0.00     0.069 A 
ATOM      4 Cl16 ZIN A   1      14.699   5.997  14.556  0.00  0.00    -0.081 Cl
ATOM      5  C17 ZIN A   1      16.299   5.451  12.443  0.00  0.00     0.052 A 
ATOM      6  C18 ZIN A   1      17.455   4.972  11.851  0.00  0.00     0.058 A 
ATOM      7 Cl19 ZIN A   1      17.641   5.043  10.127  0.00  0.00    -0.082 Cl
ATOM      8  C20 ZIN A   1      18.465   4.441  12.635  0.00  0.00     0.065 A 
ATOM      9 Cl21 ZIN A   1      19.915   3.842  11.890  0.00  0.00    -0.082 Cl
ENDROOT
BRANCH   1  10
ATOM     10  C11 ZIN A   1      19.416   3.796  14.859  0.00  0.00     0.086 C 
BRANCH  10  11
ATOM     11  C10 ZIN A   1      18.958   2.486  15.444  0.00  0.00     0.008 A 
ATOM     12  C2  ZIN A   1      18.634   2.402  16.791  0.00  0.00     0.137 A 
ATOM     13  O1  ZIN A   1      18.725   3.504  17.582  0.00  0.00    -0.190 OA
ATOM     14  C3  ZIN A   1      18.212   1.193  17.328  0.00  0.00     0.072 A 
ATOM     15 Cl4  ZIN A   1      17.800   1.088  19.011  0.00  0.00    -0.081 Cl
ATOM     16  C5  ZIN A   1      18.120   0.074  16.521  0.00  0.00     0.052 A 
ATOM     17  C6  ZIN A   1      18.449   0.159  15.180  0.00  0.00     0.058 A 
ATOM     18 Cl7  ZIN A   1      18.332  -1.249  14.170  0.00  0.00    -0.082 Cl
ATOM     19  C8  ZIN A   1      18.869   1.363  14.642  0.00  0.00     0.065 A 
ATOM     20 Cl9  ZIN A   1      19.280   1.465  12.959  0.00  0.00    -0.082 Cl
ENDBRANCH  10  11
ENDBRANCH   1  10
BRANCH   2  21
ATOM     21  O14 ZIN A   1      17.014   4.803  15.953  0.00  0.00    -0.358 OA
ATOM     22  H25 ZIN A   1      16.960   3.904  16.305  0.00  0.00     0.217 HD
ENDBRANCH   2  21
TORSDOF 3
ENDMDL
MODEL 4
REMARK VINA RESULT:      -6.9      2.162      6.405
REMARK  3 active torsions:
REMARK  status: ('A' for Active; 'I' for Inactive)
REMARK    1  A    between atoms: C10_10  and  C11_11 
REMARK    2  A    between atoms: C11_11  and  C12_12 
REMARK    3  A    between atoms: C13_13  and  O14_14 
ROOT
ATOM      1  C12 ZIN A   1      17.798  -0.767   8.651  0.00  0.00     0.004 A 
ATOM      2  C13 ZIN A   1      18.145  -1.893   9.383  0.00  0.00     0.095 A 
ATOM      3  C15 ZIN A   1      18.916  -2.888   8.797  0.00  0.00     0.069 A 
ATOM      4 Cl16 ZIN A   1      19.352  -4.299   9.710  0.00  0.00    -0.081 Cl
ATOM      5  C17 ZIN A   1      19.337  -2.754   7.488  0.00  0.00     0.052 A 
ATOM      6  C18 ZIN A   1      18.990  -1.630   6.760  0.00  0.00     0.058 A 
ATOM      7 Cl19 ZIN A   1      19.519  -1.464   5.115  0.00  0.00    -0.082 Cl
ATOM      8  C20 ZIN A   1      18.217  -0.639   7.340  0.00  0.00     0.065 A 
ATOM      9 Cl21 ZIN A   1      17.782   0.770   6.424  0.00  0.00    -0.082 Cl
ENDROOT
BRANCH   1  10
ATOM     10  C11 ZIN A   1      16.959   0.315   9.284  0.00  0.00     0.086 C 
BRANCH  10  11
ATOM     11  C10 ZIN A   1      17.656   0.837  10.513  0.00  0.00     0.008 A 
ATOM     12  C2  ZIN A   1      17.174   0.514  11.774  0.00  0.00     0.137 A 
ATOM     13  O1  ZIN A   1      16.076  -0.277  11.901  0.00  0.00    -0.190 OA
ATOM     14  C3  ZIN A   1      17.818   0.996  12.906  0.00  0.00     0.072 A 
ATOM     15 Cl4  ZIN A   1      17.220   0.589  14.484  0.00  0.00    -0.081 Cl
ATOM     16  C5  ZIN A   1      18.935   1.801  12.775  0.00  0.00     0.052 A 
ATOM     17  C6  ZIN A   1      19.411   2.125  11.517  0.00  0.00     0.058 A 
ATOM     18 Cl7  ZIN A   1      20.814   3.136  11.356  0.00  0.00    -0.082 Cl
ATOM     19  C8  ZIN A   1      18.771   1.645  10.387  0.00  0.00     0.065 A 
ATOM     20 Cl9  ZIN A   1      19.371   2.054   8.810  0.00  0.00    -0.082 Cl
ENDBRANCH  10  11
ENDBRANCH   1  10
BRANCH   2  21
ATOM     21  O14 ZIN A   1      17.729  -2.023  10.671  0.00  0.00    -0.358 OA
ATOM     22  H25 ZIN A   1      16.791  -2.238  10.761  0.00  0.00     0.217 HD
ENDBRANCH   2  21
TORSDOF 3
ENDMDL
MODEL 5
REMARK VINA RESULT:      -6.8      4.010      6.311
REMARK  3 active torsions:
REMARK  status: ('A' for Active; 'I' for Inactive)
REMARK    1  A    between atoms: C10_10  and  C11_11 
REMARK    2  A    between atoms: C11_11  and  C12_12 
REMARK    3  A    between atoms: C13_13  and  O14_14 
ROOT
ATOM      1  C12 ZIN A   1      18.317   4.336  13.989  0.00  0.00     0.004 A 
ATOM      2  C13 ZIN A   1      17.167   4.817  14.596  0.00  0.00     0.095 A 
ATOM      3  C15 ZIN A   1      16.163   5.385  13.825  0.00  0.00     0.069 A 
ATOM      4 Cl16 ZIN A   1      14.721   5.988  14.581  0.00  0.00    -0.081 Cl
ATOM      5  C17 ZIN A   1      16.310   5.469  12.453  0.00  0.00     0.052 A 
ATOM      6  C18 ZIN A   1      17.458   4.988  11.849  0.00  0.00     0.058 A 
ATOM      7 Cl19 ZIN A   1      17.642   5.095  10.126  0.00  0.00    -0.082 Cl
ATOM      8  C20 ZIN A   1      18.463   4.427  12.618  0.00  0.00     0.065 A 
ATOM      9 Cl21 ZIN A   1      19.904   3.825  11.857  0.00  0.00    -0.082 Cl
ENDROOT
BRANCH   1  10
ATOM     10  C11 ZIN A   1      19.410   3.720  14.825  0.00  0.00     0.086 C 
BRANCH  10  11
ATOM     11  C10 ZIN A   1      18.960   2.374  15.328  0.00  0.00     0.008 A 
ATOM     12  C2  ZIN A   1      18.728   1.340  14.432  0.00  0.00     0.137 A 
ATOM     13  O1  ZIN A   1      18.912   1.540  13.101  0.00  0.00    -0.190 OA
ATOM     14  C3  ZIN A   1      18.313   0.100  14.898  0.00  0.00     0.072 A 
ATOM     15 Cl4  ZIN A   1      18.028  -1.197  13.779  0.00  0.00    -0.081 Cl
ATOM     16  C5  ZIN A   1      18.127  -0.102  16.253  0.00  0.00     0.052 A 
ATOM     17  C6  ZIN A   1      18.353   0.931  17.144  0.00  0.00     0.058 A 
ATOM     18 Cl7  ZIN A   1      18.118   0.674  18.846  0.00  0.00    -0.082 Cl
ATOM     19  C8  ZIN A   1      18.768   2.169  16.682  0.00  0.00     0.065 A 
ATOM     20 Cl9  ZIN A   1      19.052   3.463  17.804  0.00  0.00    -0.082 Cl
ENDBRANCH  10  11
ENDBRANCH   1  10
BRANCH   2  21
ATOM     21  O14 ZIN A   1      17.024   4.734  15.946  0.00  0.00    -0.358 OA
ATOM     22  H25 ZIN A   1      17.835   4.490  16.413  0.00  0.00     0.217 HD
ENDBRANCH   2  21
TORSDOF 3
ENDMDL
MODEL 6
REMARK VINA RESULT:      -6.8      2.046      3.684
REMARK  3 active torsions:
REMARK  status: ('A' for Active; 'I' for Inactive)
REMARK    1  A    between atoms: C10_10  and  C11_11 
REMARK    2  A    between atoms: C11_11  and  C12_12 
REMARK    3  A    between atoms: C13_13  and  O14_14 
ROOT
ATOM      1  C12 ZIN A   1      19.212   2.261  12.048  0.00  0.00     0.004 A 
ATOM      2  C13 ZIN A   1      19.387   1.943  13.387  0.00  0.00     0.095 A 
ATOM      3  C15 ZIN A   1      18.658   2.613  14.359  0.00  0.00     0.069 A 
ATOM      4 Cl16 ZIN A   1      18.875   2.217  16.035  0.00  0.00    -0.081 Cl
ATOM      5  C17 ZIN A   1      17.758   3.596  13.992  0.00  0.00     0.052 A 
ATOM      6  C18 ZIN A   1      17.584   3.913  12.656  0.00  0.00     0.058 A 
ATOM      7 Cl19 ZIN A   1      16.454   5.148  12.197  0.00  0.00    -0.082 Cl
ATOM      8  C20 ZIN A   1      18.315   3.249  11.685  0.00  0.00     0.065 A 
ATOM      9 Cl21 ZIN A   1      18.095   3.649  10.010  0.00  0.00    -0.082 Cl
ENDROOT
BRANCH   1  10
ATOM     10  C11 ZIN A   1      20.003   1.536  10.990  0.00  0.00     0.086 C 
BRANCH  10  11
ATOM     11  C10 ZIN A   1      19.123   0.517  10.314  0.00  0.00     0.008 A 
ATOM     12  C2  ZIN A   1      18.711  -0.613  11.006  0.00  0.00     0.137 A 
ATOM     13  O1  ZIN A   1      19.097  -0.799  12.295  0.00  0.00    -0.190 OA
ATOM     14  C3  ZIN A   1      17.900  -1.550  10.381  0.00  0.00     0.072 A 
ATOM     15 Cl4  ZIN A   1      17.378  -2.961  11.247  0.00  0.00    -0.081 Cl
ATOM     16  C5  ZIN A   1      17.508  -1.359   9.069  0.00  0.00     0.052 A 
ATOM     17  C6  ZIN A   1      17.924  -0.234   8.379  0.00  0.00     0.058 A 
ATOM     18 Cl7  ZIN A   1      17.430   0.003   6.731  0.00  0.00    -0.082 Cl
ATOM     19  C8  ZIN A   1      18.733   0.703   9.001  0.00  0.00     0.065 A 
ATOM     20 Cl9  ZIN A   1      19.252   2.113   8.132  0.00  0.00    -0.082 Cl
ENDBRANCH  10  11
ENDBRANCH   1  10
BRANCH   2  21
ATOM     21  O14 ZIN A   1      20.273   0.976  13.746  0.00  0.00    -0.358 OA
ATOM     22  H25 ZIN A   1      20.818   1.207  14.511  0.00  0.00     0.217 HD
ENDBRANCH   2  21
TORSDOF 3
ENDMDL
MODEL 7
REMARK VINA RESULT:      -6.7      5.094      7.478
REMARK  3 active torsions:
REMARK  status: ('A' for Active; 'I' for Inactive)
REMARK    1  A    between atoms: C10_10  and  C11_11 
REMARK    2  A    between atoms: C11_11  and  C12_12 
REMARK    3  A    between atoms: C13_13  and  O14_14 
ROOT
ATOM      1  C12 ZIN A   1      18.673   5.155  16.525  0.00  0.00     0.004 A 
ATOM      2  C13 ZIN A   1      17.580   4.988  17.362  0.00  0.00     0.095 A 
ATOM      3  C15 ZIN A   1      16.555   5.923  17.356  0.00  0.00     0.069 A 
ATOM      4 Cl16 ZIN A   1      15.185   5.717  18.402  0.00  0.00    -0.081 Cl
ATOM      5  C17 ZIN A   1      16.625   7.020  16.518  0.00  0.00     0.052 A 
ATOM      6  C18 ZIN A   1      17.717   7.186  15.684  0.00  0.00     0.058 A 
ATOM      7 Cl19 ZIN A   1      17.805   8.564  14.632  0.00  0.00    -0.082 Cl
ATOM      8  C20 ZIN A   1      18.743   6.256  15.692  0.00  0.00     0.065 A 
ATOM      9 Cl21 ZIN A   1      20.113   6.467  14.646  0.00  0.00    -0.082 Cl
ENDROOT
BRANCH   1  10
ATOM     10  C11 ZIN A   1      19.789   4.141  16.530  0.00  0.00     0.086 C 
BRANCH  10  11
ATOM     11  C10 ZIN A   1      19.215   2.761  16.338  0.00  0.00     0.008 A 
ATOM     12  C2  ZIN A   1      19.229   1.852  17.386  0.00  0.00     0.137 A 
ATOM     13  O1  ZIN A   1      19.755   2.207  18.588  0.00  0.00    -0.190 OA
ATOM     14  C3  ZIN A   1      18.699   0.581  17.207  0.00  0.00     0.072 A 
ATOM     15 Cl4  ZIN A   1      18.709  -0.556  18.519  0.00  0.00    -0.081 Cl
ATOM     16  C5  ZIN A   1      18.164   0.222  15.984  0.00  0.00     0.052 A 
ATOM     17  C6  ZIN A   1      18.155   1.129  14.939  0.00  0.00     0.058 A 
ATOM     18 Cl7  ZIN A   1      17.482   0.674  13.404  0.00  0.00    -0.082 Cl
ATOM     19  C8  ZIN A   1      18.683   2.397  15.116  0.00  0.00     0.065 A 
ATOM     20 Cl9  ZIN A   1      18.670   3.531  13.802  0.00  0.00    -0.082 Cl
ENDBRANCH  10  11
ENDBRANCH   1  10
BRANCH   2  21
ATOM     21  O14 ZIN A   1      17.512   3.908  18.186  0.00  0.00    -0.358 OA
ATOM     22  H25 ZIN A   1      17.003   4.062  18.993  0.00  0.00     0.217 HD
ENDBRANCH   2  21
TORSDOF 3
ENDMDL
MODEL 8
REMARK VINA RESULT:      -6.7      2.141      4.100
REMARK  3 active torsions:
REMARK  status: ('A' for Active; 'I' for Inactive)
REMARK    1  A    between atoms: C10_10  and  C11_11 
REMARK    2  A    between atoms: C11_11  and  C12_12 
REMARK    3  A    between atoms: C13_13  and  O14_14 
ROOT
ATOM      1  C12 ZIN A   1      17.706   0.766  10.655  0.00  0.00     0.004 A 
ATOM      2  C13 ZIN A   1      17.294   0.366  11.917  0.00  0.00     0.095 A 
ATOM      3  C15 ZIN A   1      17.944   0.849  13.044  0.00  0.00     0.069 A 
ATOM      4 Cl16 ZIN A   1      17.430   0.350  14.625  0.00  0.00    -0.081 Cl
ATOM      5  C17 ZIN A   1      19.002   1.728  12.906  0.00  0.00     0.052 A 
ATOM      6  C18 ZIN A   1      19.413   2.126  11.646  0.00  0.00     0.058 A 
ATOM      7 Cl19 ZIN A   1      20.742   3.230  11.476  0.00  0.00    -0.082 Cl
ATOM      8  C20 ZIN A   1      18.768   1.641  10.521  0.00  0.00     0.065 A 
ATOM      9 Cl21 ZIN A   1      19.286   2.141   8.941  0.00  0.00    -0.082 Cl
ENDROOT
BRANCH   1  10
ATOM     10  C11 ZIN A   1      17.002   0.241   9.429  0.00  0.00     0.086 C 
BRANCH  10  11
ATOM     11  C10 ZIN A   1      17.872  -0.784   8.751  0.00  0.00     0.008 A 
ATOM     12  C2  ZIN A   1      18.262  -1.926   9.435  0.00  0.00     0.137 A 
ATOM     13  O1  ZIN A   1      17.855  -2.123  10.717  0.00  0.00    -0.190 OA
ATOM     14  C3  ZIN A   1      19.064  -2.870   8.808  0.00  0.00     0.072 A 
ATOM     15 Cl4  ZIN A   1      19.548  -4.302   9.660  0.00  0.00    -0.081 Cl
ATOM     16  C5  ZIN A   1      19.478  -2.667   7.504  0.00  0.00     0.052 A 
ATOM     17  C6  ZIN A   1      19.092  -1.525   6.825  0.00  0.00     0.058 A 
ATOM     18 Cl7  ZIN A   1      19.613  -1.275   5.187  0.00  0.00    -0.082 Cl
ATOM     19  C8  ZIN A   1      18.292  -0.583   7.449  0.00  0.00     0.065 A 
ATOM     20 Cl9  ZIN A   1      17.810   0.848   6.593  0.00  0.00    -0.082 Cl
ENDBRANCH  10  11
ENDBRANCH   1  10
BRANCH   2  21
ATOM     21  O14 ZIN A   1      16.253  -0.499  12.050  0.00  0.00    -0.358 OA
ATOM     22  H25 ZIN A   1      15.645  -0.275  12.768  0.00  0.00     0.217 HD
ENDBRANCH   2  21
TORSDOF 3
ENDMDL
MODEL 9
REMARK VINA RESULT:      -6.6      2.047      5.804
REMARK  3 active torsions:
REMARK  status: ('A' for Active; 'I' for Inactive)
REMARK    1  A    between atoms: C10_10  and  C11_11 
REMARK    2  A    between atoms: C11_11  and  C12_12 
REMARK    3  A    between atoms: C13_13  and  O14_14 
ROOT
ATOM      1  C12 ZIN A   1      17.907   0.388  12.390  0.00  0.00     0.004 A 
ATOM      2  C13 ZIN A   1      17.931   1.191  11.260  0.00  0.00     0.095 A 
ATOM      3  C15 ZIN A   1      18.733   0.844  10.182  0.00  0.00     0.069 A 
ATOM      4 Cl16 ZIN A   1      18.765   1.847   8.764  0.00  0.00    -0.081 Cl
ATOM      5  C17 ZIN A   1      19.507  -0.299  10.236  0.00  0.00     0.052 A 
ATOM      6  C18 ZIN A   1      19.482  -1.099  11.365  0.00  0.00     0.058 A 
ATOM      7 Cl19 ZIN A   1      20.455  -2.535  11.433  0.00  0.00    -0.082 Cl
ATOM      8  C20 ZIN A   1      18.686  -0.752  12.444  0.00  0.00     0.065 A 
ATOM      9 Cl21 ZIN A   1      18.658  -1.757  13.860  0.00  0.00    -0.082 Cl
ENDROOT
BRANCH   1  10
ATOM     10  C11 ZIN A   1      17.037   0.763  13.563  0.00  0.00     0.086 C 
BRANCH  10  11
ATOM     11  C10 ZIN A   1      17.880   1.426  14.622  0.00  0.00     0.008 A 
ATOM     12  C2  ZIN A   1      18.363   2.711  14.420  0.00  0.00     0.137 A 
ATOM     13  O1  ZIN A   1      18.071   3.375  13.271  0.00  0.00    -0.190 OA
ATOM     14  C3  ZIN A   1      19.139   3.320  15.397  0.00  0.00     0.072 A 
ATOM     15 Cl4  ZIN A   1      19.739   4.930  15.150  0.00  0.00    -0.081 Cl
ATOM     16  C5  ZIN A   1      19.435   2.643  16.566  0.00  0.00     0.052 A 
ATOM     17  C6  ZIN A   1      18.957   1.360  16.762  0.00  0.00     0.058 A 
ATOM     18 Cl7  ZIN A   1      19.330   0.513  18.232  0.00  0.00    -0.082 Cl
ATOM     19  C8  ZIN A   1      18.182   0.751  15.790  0.00  0.00     0.065 A 
ATOM     20 Cl9  ZIN A   1      17.584  -0.859  16.040  0.00  0.00    -0.082 Cl
ENDBRANCH  10  11
ENDBRANCH   1  10
BRANCH   2  21
ATOM     21  O14 ZIN A   1      17.169   2.316  11.207  0.00  0.00    -0.358 OA
ATOM     22  H25 ZIN A   1      16.609   2.375  10.421  0.00  0.00     0.217 HD
ENDBRANCH   2  21
TORSDOF 3
ENDMDL
