MODEL 1
REMARK VINA RESULT:      -7.5      0.000      0.000
REMARK  3 active torsions:
REMARK  status: ('A' for Active; 'I' for Inactive)
REMARK    1  A    between atoms: N2_2  and  C5_5 
REMARK    2  A    between atoms: C5_5  and  C6_6 
REMARK    3  A    between atoms: C6_6  and  C7_7 
ROOT
ATOM      1  C7  <0> d   1      19.194   3.506  14.880  0.00  0.00    -0.012 C 
ATOM      2  C8  <0> d   1      18.848   2.479  14.089  0.00  0.00    -0.018 C 
ATOM      3  C9  <0> d   1      18.669   1.117  14.643  0.00  0.00    -0.015 A 
ATOM      4  C10 <0> d   1      17.731   0.893  15.646  0.00  0.00     0.013 A 
ATOM      5  C11 <0> d   1      17.532  -0.385  16.130  0.00  0.00     0.001 A 
ATOM      6  C12 <0> d   1      18.260  -1.447  15.620  0.00  0.00     0.001 A 
ATOM      7  C13 <0> d   1      19.206  -1.240  14.640  0.00  0.00     0.012 A 
ATOM      8  C14 <0> d   1      19.441   0.050  14.151  0.00  0.00    -0.025 A 
ATOM      9  C15 <0> d   1      20.507   0.270  13.179  0.00  0.00     0.013 C 
ATOM     10  C16 <0> d   1      20.491   1.077  12.138  0.00  0.00     0.013 C 
ATOM     11  C17 <0> d   1      19.401   1.947  11.706  0.00  0.00    -0.025 A 
ATOM     12  C18 <0> d   1      19.113   2.071  10.341  0.00  0.00     0.012 A 
ATOM     13  C19 <0> d   1      18.118   2.925   9.919  0.00  0.00     0.001 A 
ATOM     14  C20 <0> d   1      17.395   3.672  10.836  0.00  0.00     0.001 A 
ATOM     15  C21 <0> d   1      17.650   3.551  12.188  0.00  0.00     0.013 A 
ATOM     16  C22 <0> d   1      18.630   2.678  12.636  0.00  0.00    -0.015 A 
ENDROOT
BRANCH   1  17
ATOM     17  C6  <0> d   1      19.411   3.280  16.354  0.00  0.00     0.055 C 
BRANCH  17  18
ATOM     18  C5  <0> d   1      18.609   4.310  17.151  0.00  0.00     0.237 C 
BRANCH  18  19
ATOM     19  N2  <0> d   1      18.588   3.926  18.568  0.00  0.00    -0.079 N 
ATOM     20  C1  <0> d   1      17.213   4.014  19.079  0.00  0.00     0.269 C 
ATOM     21  H3  <0> d   1      19.183   4.548  19.094  0.00  0.00     0.278 HD
ATOM     22  C4  <0> d   1      19.076   2.547  18.710  0.00  0.00     0.269 C 
ENDBRANCH  18  19
ENDBRANCH  17  18
ENDBRANCH   1  17
TORSDOF 3
ENDMDL
MODEL 2
REMARK VINA RESULT:      -7.4      2.700      5.429
REMARK  3 active torsions:
REMARK  status: ('A' for Active; 'I' for Inactive)
REMARK    1  A    between atoms: N2_2  and  C5_5 
REMARK    2  A    between atoms: C5_5  and  C6_6 
REMARK    3  A    between atoms: C6_6  and  C7_7 
ROOT
ATOM      1  C7  <0> d   1      17.628   3.030  12.146  0.00  0.00    -0.012 C 
ATOM      2  C8  <0> d   1      18.116   1.856  11.714  0.00  0.00    -0.018 C 
ATOM      3  C9  <0> d   1      18.266   1.581  10.267  0.00  0.00    -0.015 A 
ATOM      4  C10 <0> d   1      19.065   2.405   9.482  0.00  0.00     0.013 A 
ATOM      5  C11 <0> d   1      19.242   2.121   8.142  0.00  0.00     0.001 A 
ATOM      6  C12 <0> d   1      18.629   1.016   7.575  0.00  0.00     0.001 A 
ATOM      7  C13 <0> d   1      17.820   0.198   8.334  0.00  0.00     0.012 A 
ATOM      8  C14 <0> d   1      17.608   0.481   9.688  0.00  0.00    -0.025 A 
ATOM      9  C15 <0> d   1      16.677  -0.338  10.459  0.00  0.00     0.013 C 
ATOM     10  C16 <0> d   1      16.807  -0.742  11.705  0.00  0.00     0.013 C 
ATOM     11  C17 <0> d   1      17.914  -0.469  12.617  0.00  0.00    -0.025 A 
ATOM     12  C18 <0> d   1      18.381  -1.482  13.463  0.00  0.00     0.012 A 
ATOM     13  C19 <0> d   1      19.393  -1.223  14.361  0.00  0.00     0.001 A 
ATOM     14  C20 <0> d   1      19.957   0.041  14.440  0.00  0.00     0.001 A 
ATOM     15  C21 <0> d   1      19.523   1.050  13.603  0.00  0.00     0.013 A 
ATOM     16  C22 <0> d   1      18.523   0.804  12.674  0.00  0.00    -0.015 A 
ENDROOT
BRANCH   1  17
ATOM     17  C6  <0> d   1      17.219   4.086  11.151  0.00  0.00     0.055 C 
BRANCH  17  18
ATOM     18  C5  <0> d   1      17.039   5.423  11.873  0.00  0.00     0.237 C 
BRANCH  18  19
ATOM     19  N2  <0> d   1      16.946   5.190  13.320  0.00  0.00    -0.079 N 
ATOM     20  C1  <0> d   1      18.055   5.876  13.998  0.00  0.00     0.269 C 
ATOM     21  H3  <0> d   1      16.999   4.200  13.505  0.00  0.00     0.278 HD
ATOM     22  C4  <0> d   1      15.667   5.714  13.819  0.00  0.00     0.269 C 
ENDBRANCH  18  19
ENDBRANCH  17  18
ENDBRANCH   1  17
TORSDOF 3
ENDMDL
MODEL 3
REMARK VINA RESULT:      -7.3      5.186      6.673
REMARK  3 active torsions:
REMARK  status: ('A' for Active; 'I' for Inactive)
REMARK    1  A    between atoms: N2_2  and  C5_5 
REMARK    2  A    between atoms: C5_5  and  C6_6 
REMARK    3  A    between atoms: C6_6  and  C7_7 
ROOT
ATOM      1  C7  <0> d   1      19.614  -1.035   9.705  0.00  0.00    -0.012 C 
ATOM      2  C8  <0> d   1      18.851  -1.881   8.997  0.00  0.00    -0.018 C 
ATOM      3  C9  <0> d   1      18.373  -3.152   9.588  0.00  0.00    -0.015 A 
ATOM      4  C10 <0> d   1      17.594  -3.133  10.740  0.00  0.00     0.013 A 
ATOM      5  C11 <0> d   1      17.110  -4.315  11.265  0.00  0.00     0.001 A 
ATOM      6  C12 <0> d   1      17.393  -5.522  10.647  0.00  0.00     0.001 A 
ATOM      7  C13 <0> d   1      18.178  -5.562   9.515  0.00  0.00     0.012 A 
ATOM      8  C14 <0> d   1      18.699  -4.378   8.979  0.00  0.00    -0.025 A 
ATOM      9  C15 <0> d   1      19.603  -4.440   7.835  0.00  0.00     0.013 C 
ATOM     10  C16 <0> d   1      19.651  -3.621   6.805  0.00  0.00     0.013 C 
ATOM     11  C17 <0> d   1      18.811  -2.452   6.560  0.00  0.00    -0.025 A 
ATOM     12  C18 <0> d   1      18.347  -2.191   5.264  0.00  0.00     0.012 A 
ATOM     13  C19 <0> d   1      17.593  -1.066   5.013  0.00  0.00     0.001 A 
ATOM     14  C20 <0> d   1      17.289  -0.179   6.033  0.00  0.00     0.001 A 
ATOM     15  C21 <0> d   1      17.722  -0.426   7.322  0.00  0.00     0.013 A 
ATOM     16  C22 <0> d   1      18.460  -1.566   7.602  0.00  0.00    -0.015 A 
ENDROOT
BRANCH   1  17
ATOM     17  C6  <0> d   1      20.000  -1.376  11.122  0.00  0.00     0.055 C 
BRANCH  17  18
ATOM     18  C5  <0> d   1      20.009  -0.102  11.969  0.00  0.00     0.237 C 
BRANCH  18  19
ATOM     19  N2  <0> d   1      20.087  -0.460  13.391  0.00  0.00    -0.079 N 
ATOM     20  C1  <0> d   1      19.641   0.679  14.206  0.00  0.00     0.269 C 
ATOM     21  H3  <0> d   1      21.040  -0.691  13.627  0.00  0.00     0.278 HD
ATOM     22  C4  <0> d   1      19.222  -1.618  13.654  0.00  0.00     0.269 C 
ENDBRANCH  18  19
ENDBRANCH  17  18
ENDBRANCH   1  17
TORSDOF 3
ENDMDL
MODEL 4
REMARK VINA RESULT:      -7.2      2.530      6.338
REMARK  3 active torsions:
REMARK  status: ('A' for Active; 'I' for Inactive)
REMARK    1  A    between atoms: N2_2  and  C5_5 
REMARK    2  A    between atoms: C5_5  and  C6_6 
REMARK    3  A    between atoms: C6_6  and  C7_7 
ROOT
ATOM      1  C7  <0> d   1      20.132   0.262  13.344  0.00  0.00    -0.012 C 
ATOM      2  C8  <0> d   1      19.143   0.955  13.931  0.00  0.00    -0.018 C 
ATOM      3  C9  <0> d   1      18.559   2.149  13.277  0.00  0.00    -0.015 A 
ATOM      4  C10 <0> d   1      17.976   2.037  12.019  0.00  0.00     0.013 A 
ATOM      5  C11 <0> d   1      17.390   3.140  11.430  0.00  0.00     0.001 A 
ATOM      6  C12 <0> d   1      17.378   4.359  12.087  0.00  0.00     0.001 A 
ATOM      7  C13 <0> d   1      17.967   4.493  13.326  0.00  0.00     0.012 A 
ATOM      8  C14 <0> d   1      18.587   3.393  13.931  0.00  0.00    -0.025 A 
ATOM      9  C15 <0> d   1      19.286   3.568  15.201  0.00  0.00     0.013 C 
ATOM     10  C16 <0> d   1      19.312   2.739  16.223  0.00  0.00     0.013 C 
ATOM     11  C17 <0> d   1      18.646   1.445  16.334  0.00  0.00    -0.025 A 
ATOM     12  C18 <0> d   1      18.042   1.078  17.543  0.00  0.00     0.012 A 
ATOM     13  C19 <0> d   1      17.451  -0.161  17.674  0.00  0.00     0.001 A 
ATOM     14  C20 <0> d   1      17.452  -1.056  16.616  0.00  0.00     0.001 A 
ATOM     15  C21 <0> d   1      18.027  -0.708  15.410  0.00  0.00     0.013 A 
ATOM     16  C22 <0> d   1      18.604   0.543  15.248  0.00  0.00    -0.015 A 
ENDROOT
BRANCH   1  17
ATOM     17  C6  <0> d   1      20.665   0.699  12.004  0.00  0.00     0.055 C 
BRANCH  17  18
ATOM     18  C5  <0> d   1      20.796  -0.517  11.086  0.00  0.00     0.237 C 
BRANCH  18  19
ATOM     19  N2  <0> d   1      19.544  -0.706  10.341  0.00  0.00    -0.079 N 
ATOM     20  C1  <0> d   1      19.712  -0.209   8.969  0.00  0.00     0.269 C 
ATOM     21  H3  <0> d   1      18.802  -0.195  10.796  0.00  0.00     0.278 HD
ATOM     22  C4  <0> d   1      19.204  -2.135  10.307  0.00  0.00     0.269 C 
ENDBRANCH  18  19
ENDBRANCH  17  18
ENDBRANCH   1  17
TORSDOF 3
ENDMDL
MODEL 5
REMARK VINA RESULT:      -7.2      5.984      9.305
REMARK  3 active torsions:
REMARK  status: ('A' for Active; 'I' for Inactive)
REMARK    1  A    between atoms: N2_2  and  C5_5 
REMARK    2  A    between atoms: C5_5  and  C6_6 
REMARK    3  A    between atoms: C6_6  and  C7_7 
ROOT
ATOM      1  C7  <0> d   1      19.081  -3.330   7.494  0.00  0.00    -0.012 C 
ATOM      2  C8  <0> d   1      18.591  -2.955   8.686  0.00  0.00    -0.018 C 
ATOM      3  C9  <0> d   1      18.481  -1.523   9.047  0.00  0.00    -0.015 A 
ATOM      4  C10 <0> d   1      17.717  -0.665   8.262  0.00  0.00     0.013 A 
ATOM      5  C11 <0> d   1      17.577   0.660   8.625  0.00  0.00     0.001 A 
ATOM      6  C12 <0> d   1      18.192   1.140   9.769  0.00  0.00     0.001 A 
ATOM      7  C13 <0> d   1      18.968   0.309  10.548  0.00  0.00     0.012 A 
ATOM      8  C14 <0> d   1      19.143  -1.032  10.187  0.00  0.00    -0.025 A 
ATOM      9  C15 <0> d   1      20.039  -1.879  10.968  0.00  0.00     0.013 C 
ATOM     10  C16 <0> d   1      19.866  -3.143  11.295  0.00  0.00     0.013 C 
ATOM     11  C17 <0> d   1      18.736  -4.002  10.955  0.00  0.00    -0.025 A 
ATOM     12  C18 <0> d   1      18.230  -4.892  11.910  0.00  0.00     0.012 A 
ATOM     13  C19 <0> d   1      17.194  -5.741  11.585  0.00  0.00     0.001 A 
ATOM     14  C20 <0> d   1      16.645  -5.726  10.313  0.00  0.00     0.001 A 
ATOM     15  C21 <0> d   1      17.117  -4.844   9.361  0.00  0.00     0.013 A 
ATOM     16  C22 <0> d   1      18.141  -3.964   9.674  0.00  0.00    -0.015 A 
ENDROOT
BRANCH   1  17
ATOM     17  C6  <0> d   1      19.533  -2.288   6.504  0.00  0.00     0.055 C 
BRANCH  17  18
ATOM     18  C5  <0> d   1      19.243  -2.774   5.083  0.00  0.00     0.237 C 
BRANCH  18  19
ATOM     19  N2  <0> d   1      18.762  -1.650   4.269  0.00  0.00    -0.079 N 
ATOM     20  C1  <0> d   1      17.294  -1.615   4.303  0.00  0.00     0.269 C 
ATOM     21  H3  <0> d   1      19.074  -1.768   3.317  0.00  0.00     0.278 HD
ATOM     22  C4  <0> d   1      19.295  -0.391   4.807  0.00  0.00     0.269 C 
ENDBRANCH  18  19
ENDBRANCH  17  18
ENDBRANCH   1  17
TORSDOF 3
ENDMDL
MODEL 6
REMARK VINA RESULT:      -7.1      5.400      8.021
REMARK  3 active torsions:
REMARK  status: ('A' for Active; 'I' for Inactive)
REMARK    1  A    between atoms: N2_2  and  C5_5 
REMARK    2  A    between atoms: C5_5  and  C6_6 
REMARK    3  A    between atoms: C6_6  and  C7_7 
ROOT
ATOM      1  C7  <0> d   1      19.211  -1.540   8.531  0.00  0.00    -0.012 C 
ATOM      2  C8  <0> d   1      18.579  -2.170   9.533  0.00  0.00    -0.018 C 
ATOM      3  C9  <0> d   1      18.214  -1.451  10.775  0.00  0.00    -0.015 A 
ATOM      4  C10 <0> d   1      17.382  -0.338  10.714  0.00  0.00     0.013 A 
ATOM      5  C11 <0> d   1      17.005   0.305  11.877  0.00  0.00     0.001 A 
ATOM      6  C12 <0> d   1      17.447  -0.155  13.106  0.00  0.00     0.001 A 
ATOM      7  C13 <0> d   1      18.286  -1.246  13.184  0.00  0.00     0.012 A 
ATOM      8  C14 <0> d   1      18.701  -1.899  12.017  0.00  0.00    -0.025 A 
ATOM      9  C15 <0> d   1      19.660  -2.995  12.105  0.00  0.00     0.013 C 
ATOM     10  C16 <0> d   1      19.669  -4.111  11.407  0.00  0.00     0.013 C 
ATOM     11  C17 <0> d   1      18.720  -4.522  10.377  0.00  0.00    -0.025 A 
ATOM     12  C18 <0> d   1      18.295  -5.856  10.319  0.00  0.00     0.012 A 
ATOM     13  C19 <0> d   1      17.436  -6.265   9.322  0.00  0.00     0.001 A 
ATOM     14  C20 <0> d   1      16.988  -5.368   8.366  0.00  0.00     0.001 A 
ATOM     15  C21 <0> d   1      17.381  -4.045   8.414  0.00  0.00     0.013 A 
ATOM     16  C22 <0> d   1      18.225  -3.605   9.424  0.00  0.00    -0.015 A 
ENDROOT
BRANCH   1  17
ATOM     17  C6  <0> d   1      19.562  -0.080   8.664  0.00  0.00     0.055 C 
BRANCH  17  18
ATOM     18  C5  <0> d   1      18.928   0.704   7.513  0.00  0.00     0.237 C 
BRANCH  18  19
ATOM     19  N2  <0> d   1      18.549  -0.224   6.439  0.00  0.00    -0.079 N 
ATOM     20  C1  <0> d   1      17.113  -0.086   6.158  0.00  0.00     0.269 C 
ATOM     21  H3  <0> d   1      18.747  -1.170   6.727  0.00  0.00     0.278 HD
ATOM     22  C4  <0> d   1      19.318   0.089   5.227  0.00  0.00     0.269 C 
ENDBRANCH  18  19
ENDBRANCH  17  18
ENDBRANCH   1  17
TORSDOF 3
ENDMDL
MODEL 7
REMARK VINA RESULT:      -7.0      2.602      3.988
REMARK  3 active torsions:
REMARK  status: ('A' for Active; 'I' for Inactive)
REMARK    1  A    between atoms: N2_2  and  C5_5 
REMARK    2  A    between atoms: C5_5  and  C6_6 
REMARK    3  A    between atoms: C6_6  and  C7_7 
ROOT
ATOM      1  C7  <0> d   1      18.104   2.508  10.532  0.00  0.00    -0.012 C 
ATOM      2  C8  <0> d   1      18.300   1.183  10.621  0.00  0.00    -0.018 C 
ATOM      3  C9  <0> d   1      18.405   0.517  11.939  0.00  0.00    -0.015 A 
ATOM      4  C10 <0> d   1      17.355   0.603  12.848  0.00  0.00     0.013 A 
ATOM      5  C11 <0> d   1      17.435  -0.057  14.058  0.00  0.00     0.001 A 
ATOM      6  C12 <0> d   1      18.555  -0.808  14.372  0.00  0.00     0.001 A 
ATOM      7  C13 <0> d   1      19.612  -0.890  13.492  0.00  0.00     0.012 A 
ATOM      8  C14 <0> d   1      19.563  -0.210  12.270  0.00  0.00    -0.025 A 
ATOM      9  C15 <0> d   1      20.725  -0.229  11.386  0.00  0.00     0.013 C 
ATOM     10  C16 <0> d   1      20.732  -0.317  10.072  0.00  0.00     0.013 C 
ATOM     11  C17 <0> d   1      19.579  -0.416   9.182  0.00  0.00    -0.025 A 
ATOM     12  C18 <0> d   1      19.627  -1.277   8.079  0.00  0.00     0.012 A 
ATOM     13  C19 <0> d   1      18.563  -1.344   7.206  0.00  0.00     0.001 A 
ATOM     14  C20 <0> d   1      17.439  -0.559   7.406  0.00  0.00     0.001 A 
ATOM     15  C21 <0> d   1      17.363   0.284   8.497  0.00  0.00     0.013 A 
ATOM     16  C22 <0> d   1      18.412   0.348   9.402  0.00  0.00    -0.015 A 
ENDROOT
BRANCH   1  17
ATOM     17  C6  <0> d   1      17.994   3.339  11.784  0.00  0.00     0.055 C 
BRANCH  17  18
ATOM     18  C5  <0> d   1      19.296   4.112  12.000  0.00  0.00     0.237 C 
BRANCH  18  19
ATOM     19  N2  <0> d   1      19.613   4.149  13.433  0.00  0.00    -0.079 N 
ATOM     20  C1  <0> d   1      19.999   5.515  13.814  0.00  0.00     0.269 C 
ATOM     21  H3  <0> d   1      20.376   3.518  13.625  0.00  0.00     0.278 HD
ATOM     22  C4  <0> d   1      18.433   3.740  14.207  0.00  0.00     0.269 C 
ENDBRANCH  18  19
ENDBRANCH  17  18
ENDBRANCH   1  17
TORSDOF 3
ENDMDL
MODEL 8
REMARK VINA RESULT:      -7.0      4.389      6.744
REMARK  3 active torsions:
REMARK  status: ('A' for Active; 'I' for Inactive)
REMARK    1  A    between atoms: N2_2  and  C5_5 
REMARK    2  A    between atoms: C5_5  and  C6_6 
REMARK    3  A    between atoms: C6_6  and  C7_7 
ROOT
ATOM      1  C7  <0> d   1      18.809  -2.909  10.732  0.00  0.00    -0.012 C 
ATOM      2  C8  <0> d   1      18.823  -1.650  11.194  0.00  0.00    -0.018 C 
ATOM      3  C9  <0> d   1      18.771  -1.372  12.648  0.00  0.00    -0.015 A 
ATOM      4  C10 <0> d   1      19.756  -1.882  13.489  0.00  0.00     0.013 A 
ATOM      5  C11 <0> d   1      19.732  -1.585  14.837  0.00  0.00     0.001 A 
ATOM      6  C12 <0> d   1      18.735  -0.778  15.358  0.00  0.00     0.001 A 
ATOM      7  C13 <0> d   1      17.741  -0.279  14.543  0.00  0.00     0.012 A 
ATOM      8  C14 <0> d   1      17.732  -0.587  13.178  0.00  0.00    -0.025 A 
ATOM      9  C15 <0> d   1      16.626  -0.129  12.342  0.00  0.00     0.013 C 
ATOM     10  C16 <0> d   1      16.687   0.324  11.108  0.00  0.00     0.013 C 
ATOM     11  C17 <0> d   1      17.877   0.477  10.276  0.00  0.00    -0.025 A 
ATOM     12  C18 <0> d   1      18.013   1.609   9.463  0.00  0.00     0.012 A 
ATOM     13  C19 <0> d   1      19.109   1.742   8.638  0.00  0.00     0.001 A 
ATOM     14  C20 <0> d   1      20.085   0.759   8.601  0.00  0.00     0.001 A 
ATOM     15  C21 <0> d   1      19.980  -0.358   9.407  0.00  0.00     0.013 A 
ATOM     16  C22 <0> d   1      18.897  -0.499  10.263  0.00  0.00    -0.015 A 
ENDROOT
BRANCH   1  17
ATOM     17  C6  <0> d   1      18.733  -4.065  11.697  0.00  0.00     0.055 C 
BRANCH  17  18
ATOM     18  C5  <0> d   1      17.666  -5.054  11.225  0.00  0.00     0.237 C 
BRANCH  18  19
ATOM     19  N2  <0> d   1      17.626  -5.069   9.757  0.00  0.00    -0.079 N 
ATOM     20  C1  <0> d   1      18.530  -6.113   9.254  0.00  0.00     0.269 C 
ATOM     21  H3  <0> d   1      17.919  -4.171   9.404  0.00  0.00     0.278 HD
ATOM     22  C4  <0> d   1      16.256  -5.349   9.307  0.00  0.00     0.269 C 
ENDBRANCH  18  19
ENDBRANCH  17  18
ENDBRANCH   1  17
TORSDOF 3
ENDMDL
MODEL 9
REMARK VINA RESULT:      -7.0      4.721      6.936
REMARK  3 active torsions:
REMARK  status: ('A' for Active; 'I' for Inactive)
REMARK    1  A    between atoms: N2_2  and  C5_5 
REMARK    2  A    between atoms: C5_5  and  C6_6 
REMARK    3  A    between atoms: C6_6  and  C7_7 
ROOT
ATOM      1  C7  <0> d   1      18.044  -1.534   8.918  0.00  0.00    -0.012 C 
ATOM      2  C8  <0> d   1      17.944  -2.306  10.011  0.00  0.00    -0.018 C 
ATOM      3  C9  <0> d   1      18.025  -1.718  11.368  0.00  0.00    -0.015 A 
ATOM      4  C10 <0> d   1      17.114  -0.740  11.757  0.00  0.00     0.013 A 
ATOM      5  C11 <0> d   1      17.161  -0.225  13.038  0.00  0.00     0.001 A 
ATOM      6  C12 <0> d   1      18.109  -0.680  13.940  0.00  0.00     0.001 A 
ATOM      7  C13 <0> d   1      19.030  -1.634  13.566  0.00  0.00     0.012 A 
ATOM      8  C14 <0> d   1      19.016  -2.153  12.266  0.00  0.00    -0.025 A 
ATOM      9  C15 <0> d   1      20.052  -3.096  11.854  0.00  0.00     0.013 C 
ATOM     10  C16 <0> d   1      19.911  -4.159  11.091  0.00  0.00     0.013 C 
ATOM     11  C17 <0> d   1      18.684  -4.652  10.472  0.00  0.00    -0.025 A 
ATOM     12  C18 <0> d   1      18.430  -6.029  10.439  0.00  0.00     0.012 A 
ATOM     13  C19 <0> d   1      17.298  -6.509   9.816  0.00  0.00     0.001 A 
ATOM     14  C20 <0> d   1      16.404  -5.639   9.213  0.00  0.00     0.001 A 
ATOM     15  C21 <0> d   1      16.626  -4.276   9.249  0.00  0.00     0.013 A 
ATOM     16  C22 <0> d   1      17.746  -3.770   9.893  0.00  0.00    -0.015 A 
ENDROOT
BRANCH   1  17
ATOM     17  C6  <0> d   1      18.246  -0.048   9.062  0.00  0.00     0.055 C 
BRANCH  17  18
ATOM     18  C5  <0> d   1      19.742   0.259   9.133  0.00  0.00     0.237 C 
BRANCH  18  19
ATOM     19  N2  <0> d   1      19.943   1.587   9.728  0.00  0.00    -0.079 N 
ATOM     20  C1  <0> d   1      18.876   2.491   9.277  0.00  0.00     0.269 C 
ATOM     21  H3  <0> d   1      20.838   1.952   9.440  0.00  0.00     0.278 HD
ATOM     22  C4  <0> d   1      19.907   1.479  11.193  0.00  0.00     0.269 C 
ENDBRANCH  18  19
ENDBRANCH  17  18
ENDBRANCH   1  17
TORSDOF 3
ENDMDL
