MODEL 1
REMARK VINA RESULT:      -8.2      0.000      0.000
REMARK  6 active torsions:
REMARK  status: ('A' for Active; 'I' for Inactive)
REMARK    1  A    between atoms: C6_6  and  O8_7 
REMARK    2  A    between atoms: O8_7  and  C9_8 
REMARK    3  A    between atoms: C9_8  and  C11_10 
REMARK    4  A    between atoms: C11_10  and  O12_11 
REMARK    5  A    between atoms: C11_10  and  C13_12 
REMARK    6  A    between atoms: C11_10  and  C19_18 
ROOT
ATOM      1  C11 ZIN A   1      19.192   2.111  11.176  0.00  0.00     0.176 C 
ENDROOT
BRANCH   1   2
ATOM      2  C9  ZIN A   1      19.622   1.039  12.143  0.00  0.00     0.299 C 
ATOM      3  O10 ZIN A   1      20.737   0.578  12.076  0.00  0.00    -0.261 OA
BRANCH   2   4
ATOM      4  O8  ZIN A   1      18.766   0.595  13.077  0.00  0.00    -0.312 OA
BRANCH   4   5
ATOM      5  C6  ZIN A   1      19.336   0.173  14.345  0.00  0.00     0.159 C 
ATOM      6  C5  ZIN A   1      18.983  -1.308  14.639  0.00  0.00     0.062 C 
ATOM      7  C4  ZIN A   1      19.052  -1.344  16.186  0.00  0.00     0.239 C 
ATOM      8  N2  ZIN A   1      18.510  -0.039  16.620  0.00  0.00    -0.072 N 
ATOM      9  C1  ZIN A   1      17.084  -0.179  16.940  0.00  0.00     0.272 C 
ATOM     10  C24 ZIN A   1      18.679   0.929  15.520  0.00  0.00     0.268 C 
ATOM     11  C3  ZIN A   1      19.241   0.428  17.805  0.00  0.00     0.272 C 
ENDBRANCH   4   5
ENDBRANCH   2   4
ENDBRANCH   1   2
BRANCH   1  12
ATOM     12  O12 ZIN A   1      20.282   3.006  10.941  0.00  0.00    -0.374 OA
ATOM     13  H35 ZIN A   1      20.040   3.941  10.989  0.00  0.00     0.211 HD
ENDBRANCH   1  12
BRANCH   1  14
ATOM     14  C13 ZIN A   1      18.775   1.478   9.875  0.00  0.00    -0.014 A 
ATOM     15  C18 ZIN A   1      17.772   0.527   9.859  0.00  0.00     0.011 A 
ATOM     16  C17 ZIN A   1      17.386  -0.053   8.665  0.00  0.00     0.001 A 
ATOM     17  C16 ZIN A   1      18.009   0.313   7.487  0.00  0.00     0.000 A 
ATOM     18  C15 ZIN A   1      19.016   1.261   7.502  0.00  0.00     0.001 A 
ATOM     19  C14 ZIN A   1      19.399   1.843   8.696  0.00  0.00     0.011 A 
ENDBRANCH   1  14
BRANCH   1  20
ATOM     20  C19 ZIN A   1      18.013   2.888  11.766  0.00  0.00     0.035 C 
ATOM     21  C23 ZIN A   1      17.383   3.806  10.698  0.00  0.00     0.008 C 
ATOM     22  C22 ZIN A   1      16.981   5.106  11.418  0.00  0.00     0.001 C 
ATOM     23  C21 ZIN A   1      17.381   4.931  12.898  0.00  0.00     0.001 C 
ATOM     24  C20 ZIN A   1      18.503   3.863  12.865  0.00  0.00     0.008 C 
ENDBRANCH   1  20
TORSDOF 6
ENDMDL
MODEL 2
REMARK VINA RESULT:      -8.2      2.074      3.436
REMARK  6 active torsions:
REMARK  status: ('A' for Active; 'I' for Inactive)
REMARK    1  A    between atoms: C6_6  and  O8_7 
REMARK    2  A    between atoms: O8_7  and  C9_8 
REMARK    3  A    between atoms: C9_8  and  C11_10 
REMARK    4  A    between atoms: C11_10  and  O12_11 
REMARK    5  A    between atoms: C11_10  and  C13_12 
REMARK    6  A    between atoms: C11_10  and  C19_18 
ROOT
ATOM      1  C11 ZIN A   1      19.937  -0.407  10.867  0.00  0.00     0.176 C 
ENDROOT
BRANCH   1   2
ATOM      2  C9  ZIN A   1      20.226   0.270  12.182  0.00  0.00     0.299 C 
ATOM      3  O10 ZIN A   1      21.315   0.752  12.385  0.00  0.00    -0.261 OA
BRANCH   2   4
ATOM      4  O8  ZIN A   1      19.274   0.337  13.126  0.00  0.00    -0.312 OA
BRANCH   4   5
ATOM      5  C6  ZIN A   1      19.655  -0.049  14.473  0.00  0.00     0.159 C 
ATOM      6  C5  ZIN A   1      19.162  -1.485  14.792  0.00  0.00     0.062 C 
ATOM      7  C4  ZIN A   1      19.041  -1.437  16.336  0.00  0.00     0.239 C 
ATOM      8  N2  ZIN A   1      18.548  -0.076  16.635  0.00  0.00    -0.072 N 
ATOM      9  C1  ZIN A   1      17.087  -0.102  16.783  0.00  0.00     0.272 C 
ATOM     10  C24 ZIN A   1      18.919   0.814  15.520  0.00  0.00     0.268 C 
ATOM     11  C3  ZIN A   1      19.164   0.407  17.878  0.00  0.00     0.272 C 
ENDBRANCH   4   5
ENDBRANCH   2   4
ENDBRANCH   1   2
BRANCH   1  12
ATOM     12  O12 ZIN A   1      21.156  -0.579  10.140  0.00  0.00    -0.374 OA
ATOM     13  H35 ZIN A   1      21.160  -0.151   9.273  0.00  0.00     0.211 HD
ENDBRANCH   1  12
BRANCH   1  14
ATOM     14  C13 ZIN A   1      19.311  -1.753  11.121  0.00  0.00    -0.014 A 
ATOM     15  C18 ZIN A   1      20.112  -2.854  11.361  0.00  0.00     0.011 A 
ATOM     16  C17 ZIN A   1      19.538  -4.089  11.598  0.00  0.00     0.001 A 
ATOM     17  C16 ZIN A   1      18.163  -4.225  11.587  0.00  0.00     0.000 A 
ATOM     18  C15 ZIN A   1      17.361  -3.126  11.342  0.00  0.00     0.001 A 
ATOM     19  C14 ZIN A   1      17.935  -1.890  11.109  0.00  0.00     0.011 A 
ENDBRANCH   1  14
BRANCH   1  20
ATOM     20  C19 ZIN A   1      18.973   0.456  10.049  0.00  0.00     0.035 C 
ATOM     21  C23 ZIN A   1      19.244   0.287   8.540  0.00  0.00     0.008 C 
ATOM     22  C22 ZIN A   1      19.050   1.673   7.900  0.00  0.00     0.001 C 
ATOM     23  C21 ZIN A   1      18.666   2.636   9.043  0.00  0.00     0.001 C 
ATOM     24  C20 ZIN A   1      19.234   1.959  10.316  0.00  0.00     0.008 C 
ENDBRANCH   1  20
TORSDOF 6
ENDMDL
MODEL 3
REMARK VINA RESULT:      -7.4      2.192      4.288
REMARK  6 active torsions:
REMARK  status: ('A' for Active; 'I' for Inactive)
REMARK    1  A    between atoms: C6_6  and  O8_7 
REMARK    2  A    between atoms: O8_7  and  C9_8 
REMARK    3  A    between atoms: C9_8  and  C11_10 
REMARK    4  A    between atoms: C11_10  and  O12_11 
REMARK    5  A    between atoms: C11_10  and  C13_12 
REMARK    6  A    between atoms: C11_10  and  C19_18 
ROOT
ATOM      1  C11 ZIN A   1      17.678   0.997  11.270  0.00  0.00     0.176 C 
ENDROOT
BRANCH   1   2
ATOM      2  C9  ZIN A   1      17.723   2.443  11.691  0.00  0.00     0.299 C 
ATOM      3  O10 ZIN A   1      16.885   3.215  11.289  0.00  0.00    -0.261 OA
BRANCH   2   4
ATOM      4  O8  ZIN A   1      18.694   2.873  12.511  0.00  0.00    -0.312 OA
BRANCH   4   5
ATOM      5  C6  ZIN A   1      18.423   4.077  13.278  0.00  0.00     0.159 C 
ATOM      6  C5  ZIN A   1      19.663   5.008  13.294  0.00  0.00     0.062 C 
ATOM      7  C4  ZIN A   1      19.446   5.796  14.609  0.00  0.00     0.239 C 
ATOM      8  N2  ZIN A   1      18.872   4.810  15.550  0.00  0.00    -0.072 N 
ATOM      9  C1  ZIN A   1      19.942   4.236  16.376  0.00  0.00     0.272 C 
ATOM     10  C24 ZIN A   1      18.219   3.742  14.771  0.00  0.00     0.268 C 
ATOM     11  C3  ZIN A   1      17.881   5.470  16.410  0.00  0.00     0.272 C 
ENDBRANCH   4   5
ENDBRANCH   2   4
ENDBRANCH   1   2
BRANCH   1  12
ATOM     12  O12 ZIN A   1      16.365   0.477  11.487  0.00  0.00    -0.374 OA
ATOM     13  H35 ZIN A   1      15.861   0.329  10.675  0.00  0.00     0.211 HD
ENDBRANCH   1  12
BRANCH   1  14
ATOM     14  C13 ZIN A   1      18.025   0.887   9.808  0.00  0.00    -0.014 A 
ATOM     15  C18 ZIN A   1      17.283   0.066   8.981  0.00  0.00     0.011 A 
ATOM     16  C17 ZIN A   1      17.599  -0.033   7.638  0.00  0.00     0.001 A 
ATOM     17  C16 ZIN A   1      18.663   0.685   7.125  0.00  0.00     0.000 A 
ATOM     18  C15 ZIN A   1      19.409   1.503   7.953  0.00  0.00     0.001 A 
ATOM     19  C14 ZIN A   1      19.091   1.604   9.294  0.00  0.00     0.011 A 
ENDBRANCH   1  14
BRANCH   1  20
ATOM     20  C19 ZIN A   1      18.687   0.194  12.094  0.00  0.00     0.035 C 
ATOM     21  C23 ZIN A   1      18.957  -1.174  11.434  0.00  0.00     0.008 C 
ATOM     22  C22 ZIN A   1      19.101  -2.194  12.578  0.00  0.00     0.001 C 
ATOM     23  C21 ZIN A   1      18.915  -1.408  13.894  0.00  0.00     0.001 C 
ATOM     24  C20 ZIN A   1      18.092  -0.162  13.479  0.00  0.00     0.008 C 
ENDBRANCH   1  20
TORSDOF 6
ENDMDL
MODEL 4
REMARK VINA RESULT:      -7.4      3.324      5.574
REMARK  6 active torsions:
REMARK  status: ('A' for Active; 'I' for Inactive)
REMARK    1  A    between atoms: C6_6  and  O8_7 
REMARK    2  A    between atoms: O8_7  and  C9_8 
REMARK    3  A    between atoms: C9_8  and  C11_10 
REMARK    4  A    between atoms: C11_10  and  O12_11 
REMARK    5  A    between atoms: C11_10  and  C13_12 
REMARK    6  A    between atoms: C11_10  and  C19_18 
ROOT
ATOM      1  C11 ZIN A   1      19.628   0.023  12.620  0.00  0.00     0.176 C 
ENDROOT
BRANCH   1   2
ATOM      2  C9  ZIN A   1      19.956  -1.062  11.627  0.00  0.00     0.299 C 
ATOM      3  O10 ZIN A   1      20.856  -0.904  10.837  0.00  0.00    -0.261 OA
BRANCH   2   4
ATOM      4  O8  ZIN A   1      19.249  -2.203  11.622  0.00  0.00    -0.312 OA
BRANCH   4   5
ATOM      5  C6  ZIN A   1      19.243  -2.967  10.387  0.00  0.00     0.159 C 
ATOM      6  C5  ZIN A   1      17.875  -2.836   9.667  0.00  0.00     0.062 C 
ATOM      7  C4  ZIN A   1      17.825  -4.150   8.849  0.00  0.00     0.239 C 
ATOM      8  N2  ZIN A   1      18.447  -5.165   9.725  0.00  0.00    -0.072 N 
ATOM      9  C1  ZIN A   1      17.403  -5.890  10.460  0.00  0.00     0.272 C 
ATOM     10  C24 ZIN A   1      19.340  -4.480  10.677  0.00  0.00     0.268 C 
ATOM     11  C3  ZIN A   1      19.224  -6.108   8.909  0.00  0.00     0.272 C 
ENDBRANCH   4   5
ENDBRANCH   2   4
ENDBRANCH   1   2
BRANCH   1  12
ATOM     12  O12 ZIN A   1      20.804   0.372  13.353  0.00  0.00    -0.374 OA
ATOM     13  H35 ZIN A   1      20.775   0.120  14.286  0.00  0.00     0.211 HD
ENDBRANCH   1  12
BRANCH   1  14
ATOM     14  C13 ZIN A   1      19.115   1.236  11.888  0.00  0.00    -0.014 A 
ATOM     15  C18 ZIN A   1      19.678   2.475  12.125  0.00  0.00     0.011 A 
ATOM     16  C17 ZIN A   1      19.210   3.588  11.451  0.00  0.00     0.001 A 
ATOM     17  C16 ZIN A   1      18.173   3.462  10.547  0.00  0.00     0.000 A 
ATOM     18  C15 ZIN A   1      17.605   2.224  10.314  0.00  0.00     0.001 A 
ATOM     19  C14 ZIN A   1      18.076   1.110  10.984  0.00  0.00     0.011 A 
ENDBRANCH   1  14
BRANCH   1  20
ATOM     20  C19 ZIN A   1      18.554  -0.480  13.588  0.00  0.00     0.035 C 
ATOM     21  C23 ZIN A   1      17.854   0.708  14.282  0.00  0.00     0.008 C 
ATOM     22  C22 ZIN A   1      17.591   0.275  15.735  0.00  0.00     0.001 C 
ATOM     23  C21 ZIN A   1      18.140  -1.161  15.873  0.00  0.00     0.001 C 
ATOM     24  C20 ZIN A   1      19.202  -1.271  14.751  0.00  0.00     0.008 C 
ENDBRANCH   1  20
TORSDOF 6
ENDMDL
MODEL 5
REMARK VINA RESULT:      -7.3      3.288      7.381
REMARK  6 active torsions:
REMARK  status: ('A' for Active; 'I' for Inactive)
REMARK    1  A    between atoms: C6_6  and  O8_7 
REMARK    2  A    between atoms: O8_7  and  C9_8 
REMARK    3  A    between atoms: C9_8  and  C11_10 
REMARK    4  A    between atoms: C11_10  and  O12_11 
REMARK    5  A    between atoms: C11_10  and  C13_12 
REMARK    6  A    between atoms: C11_10  and  C19_18 
ROOT
ATOM      1  C11 ZIN A   1      18.942  -1.225  12.563  0.00  0.00     0.176 C 
ENDROOT
BRANCH   1   2
ATOM      2  C9  ZIN A   1      17.870  -0.722  11.630  0.00  0.00     0.299 C 
ATOM      3  O10 ZIN A   1      16.707  -0.931  11.878  0.00  0.00    -0.261 OA
BRANCH   2   4
ATOM      4  O8  ZIN A   1      18.210  -0.042  10.524  0.00  0.00    -0.312 OA
BRANCH   4   5
ATOM      5  C6  ZIN A   1      18.055  -0.730   9.254  0.00  0.00     0.159 C 
ATOM      6  C5  ZIN A   1      19.434  -1.166   8.694  0.00  0.00     0.062 C 
ATOM      7  C4  ZIN A   1      19.149  -1.223   7.173  0.00  0.00     0.239 C 
ATOM      8  N2  ZIN A   1      18.231  -0.094   6.916  0.00  0.00    -0.072 N 
ATOM      9  C1  ZIN A   1      18.999   1.073   6.463  0.00  0.00     0.272 C 
ATOM     10  C24 ZIN A   1      17.526   0.232   8.169  0.00  0.00     0.268 C 
ATOM     11  C3  ZIN A   1      17.257  -0.476   5.886  0.00  0.00     0.272 C 
ENDBRANCH   4   5
ENDBRANCH   2   4
ENDBRANCH   1   2
BRANCH   1  12
ATOM     12  O12 ZIN A   1      20.211  -0.710  12.154  0.00  0.00    -0.374 OA
ATOM     13  H35 ZIN A   1      20.251  -0.460  11.221  0.00  0.00     0.211 HD
ENDBRANCH   1  12
BRANCH   1  14
ATOM     14  C13 ZIN A   1      18.643  -0.767  13.966  0.00  0.00    -0.014 A 
ATOM     15  C18 ZIN A   1      18.527  -1.693  14.986  0.00  0.00     0.011 A 
ATOM     16  C17 ZIN A   1      18.256  -1.272  16.275  0.00  0.00     0.001 A 
ATOM     17  C16 ZIN A   1      18.093   0.074  16.542  0.00  0.00     0.000 A 
ATOM     18  C15 ZIN A   1      18.204   1.000  15.522  0.00  0.00     0.001 A 
ATOM     19  C14 ZIN A   1      18.479   0.580  14.234  0.00  0.00     0.011 A 
ENDBRANCH   1  14
BRANCH   1  20
ATOM     20  C19 ZIN A   1      18.976  -2.755  12.523  0.00  0.00     0.035 C 
ATOM     21  C23 ZIN A   1      20.204  -3.247  11.729  0.00  0.00     0.008 C 
ATOM     22  C22 ZIN A   1      19.748  -4.483  10.934  0.00  0.00     0.001 C 
ATOM     23  C21 ZIN A   1      18.258  -4.700  11.275  0.00  0.00     0.001 C 
ATOM     24  C20 ZIN A   1      17.765  -3.303  11.728  0.00  0.00     0.008 C 
ENDBRANCH   1  20
TORSDOF 6
ENDMDL
MODEL 6
REMARK VINA RESULT:      -7.3      1.344      3.755
REMARK  6 active torsions:
REMARK  status: ('A' for Active; 'I' for Inactive)
REMARK    1  A    between atoms: C6_6  and  O8_7 
REMARK    2  A    between atoms: O8_7  and  C9_8 
REMARK    3  A    between atoms: C9_8  and  C11_10 
REMARK    4  A    between atoms: C11_10  and  O12_11 
REMARK    5  A    between atoms: C11_10  and  C13_12 
REMARK    6  A    between atoms: C11_10  and  C19_18 
ROOT
ATOM      1  C11 ZIN A   1      18.365   0.654  10.378  0.00  0.00     0.176 C 
ENDROOT
BRANCH   1   2
ATOM      2  C9  ZIN A   1      18.893  -0.321  11.399  0.00  0.00     0.299 C 
ATOM      3  O10 ZIN A   1      19.925  -0.914  11.190  0.00  0.00    -0.261 OA
BRANCH   2   4
ATOM      4  O8  ZIN A   1      18.217  -0.529  12.539  0.00  0.00    -0.312 OA
BRANCH   4   5
ATOM      5  C6  ZIN A   1      18.931  -0.288  13.781  0.00  0.00     0.159 C 
ATOM      6  C5  ZIN A   1      19.050  -1.595  14.608  0.00  0.00     0.062 C 
ATOM      7  C4  ZIN A   1      19.180  -1.042  16.049  0.00  0.00     0.239 C 
ATOM      8  N2  ZIN A   1      18.287   0.135  16.085  0.00  0.00    -0.072 N 
ATOM      9  C1  ZIN A   1      16.980  -0.254  16.631  0.00  0.00     0.272 C 
ATOM     10  C24 ZIN A   1      18.119   0.639  14.709  0.00  0.00     0.268 C 
ATOM     11  C3  ZIN A   1      18.884   1.181  16.925  0.00  0.00     0.272 C 
ENDBRANCH   4   5
ENDBRANCH   2   4
ENDBRANCH   1   2
BRANCH   1  12
ATOM     12  O12 ZIN A   1      16.978   0.396  10.146  0.00  0.00    -0.374 OA
ATOM     13  H35 ZIN A   1      16.708  -0.511  10.344  0.00  0.00     0.211 HD
ENDBRANCH   1  12
BRANCH   1  14
ATOM     14  C13 ZIN A   1      18.535   2.060  10.890  0.00  0.00    -0.014 A 
ATOM     15  C18 ZIN A   1      19.739   2.454  11.441  0.00  0.00     0.011 A 
ATOM     16  C17 ZIN A   1      19.897   3.746  11.908  0.00  0.00     0.001 A 
ATOM     17  C16 ZIN A   1      18.847   4.641  11.831  0.00  0.00     0.000 A 
ATOM     18  C15 ZIN A   1      17.640   4.246  11.284  0.00  0.00     0.001 A 
ATOM     19  C14 ZIN A   1      17.484   2.956  10.813  0.00  0.00     0.011 A 
ENDBRANCH   1  14
BRANCH   1  20
ATOM     20  C19 ZIN A   1      19.140   0.491   9.068  0.00  0.00     0.035 C 
ATOM     21  C23 ZIN A   1      19.092   1.796   8.247  0.00  0.00     0.008 C 
ATOM     22  C22 ZIN A   1      18.969   1.382   6.769  0.00  0.00     0.001 C 
ATOM     23  C21 ZIN A   1      18.948  -0.161   6.745  0.00  0.00     0.001 C 
ATOM     24  C20 ZIN A   1      18.451  -0.556   8.158  0.00  0.00     0.008 C 
ENDBRANCH   1  20
TORSDOF 6
ENDMDL
MODEL 7
REMARK VINA RESULT:      -7.2      3.920      6.688
REMARK  6 active torsions:
REMARK  status: ('A' for Active; 'I' for Inactive)
REMARK    1  A    between atoms: C6_6  and  O8_7 
REMARK    2  A    between atoms: O8_7  and  C9_8 
REMARK    3  A    between atoms: C9_8  and  C11_10 
REMARK    4  A    between atoms: C11_10  and  O12_11 
REMARK    5  A    between atoms: C11_10  and  C13_12 
REMARK    6  A    between atoms: C11_10  and  C19_18 
ROOT
ATOM      1  C11 ZIN A   1      17.633  -0.656  11.511  0.00  0.00     0.176 C 
ENDROOT
BRANCH   1   2
ATOM      2  C9  ZIN A   1      17.604  -2.092  11.054  0.00  0.00     0.299 C 
ATOM      3  O10 ZIN A   1      16.859  -2.880  11.586  0.00  0.00    -0.261 OA
BRANCH   2   4
ATOM      4  O8  ZIN A   1      18.406  -2.495  10.056  0.00  0.00    -0.312 OA
BRANCH   4   5
ATOM      5  C6  ZIN A   1      18.343  -3.898   9.686  0.00  0.00     0.159 C 
ATOM      6  C5  ZIN A   1      19.637  -4.637  10.117  0.00  0.00     0.062 C 
ATOM      7  C4  ZIN A   1      19.678  -5.809   9.104  0.00  0.00     0.239 C 
ATOM      8  N2  ZIN A   1      19.182  -5.232   7.837  0.00  0.00    -0.072 N 
ATOM      9  C1  ZIN A   1      20.319  -4.816   7.005  0.00  0.00     0.272 C 
ATOM     10  C24 ZIN A   1      18.342  -4.061   8.151  0.00  0.00     0.268 C 
ATOM     11  C3  ZIN A   1      18.383  -6.234   7.120  0.00  0.00     0.272 C 
ENDBRANCH   4   5
ENDBRANCH   2   4
ENDBRANCH   1   2
BRANCH   1  12
ATOM     12  O12 ZIN A   1      16.326  -0.090  11.387  0.00  0.00    -0.374 OA
ATOM     13  H35 ZIN A   1      15.615  -0.744  11.364  0.00  0.00     0.211 HD
ENDBRANCH   1  12
BRANCH   1  14
ATOM     14  C13 ZIN A   1      18.072  -0.595  12.950  0.00  0.00    -0.014 A 
ATOM     15  C18 ZIN A   1      19.145  -1.354  13.378  0.00  0.00     0.011 A 
ATOM     16  C17 ZIN A   1      19.551  -1.295  14.699  0.00  0.00     0.001 A 
ATOM     17  C16 ZIN A   1      18.877  -0.484  15.593  0.00  0.00     0.000 A 
ATOM     18  C15 ZIN A   1      17.800   0.271  15.167  0.00  0.00     0.001 A 
ATOM     19  C14 ZIN A   1      17.397   0.216  13.845  0.00  0.00     0.011 A 
ENDBRANCH   1  14
BRANCH   1  20
ATOM     20  C19 ZIN A   1      18.615   0.135  10.645  0.00  0.00     0.035 C 
ATOM     21  C23 ZIN A   1      19.103   1.393  11.393  0.00  0.00     0.008 C 
ATOM     22  C22 ZIN A   1      19.217   2.513  10.344  0.00  0.00     0.001 C 
ATOM     23  C21 ZIN A   1      18.794   1.896   8.994  0.00  0.00     0.001 C 
ATOM     24  C20 ZIN A   1      17.901   0.693   9.389  0.00  0.00     0.008 C 
ENDBRANCH   1  20
TORSDOF 6
ENDMDL
MODEL 8
REMARK VINA RESULT:      -7.2      2.489      4.637
REMARK  6 active torsions:
REMARK  status: ('A' for Active; 'I' for Inactive)
REMARK    1  A    between atoms: C6_6  and  O8_7 
REMARK    2  A    between atoms: O8_7  and  C9_8 
REMARK    3  A    between atoms: C9_8  and  C11_10 
REMARK    4  A    between atoms: C11_10  and  O12_11 
REMARK    5  A    between atoms: C11_10  and  C13_12 
REMARK    6  A    between atoms: C11_10  and  C19_18 
ROOT
ATOM      1  C11 ZIN A   1      19.827  -0.334  10.456  0.00  0.00     0.176 C 
ENDROOT
BRANCH   1   2
ATOM      2  C9  ZIN A   1      19.952   0.600  11.632  0.00  0.00     0.299 C 
ATOM      3  O10 ZIN A   1      20.994   0.670  12.239  0.00  0.00    -0.261 OA
BRANCH   2   4
ATOM      4  O8  ZIN A   1      18.905   1.354  12.003  0.00  0.00    -0.312 OA
BRANCH   4   5
ATOM      5  C6  ZIN A   1      19.124   2.295  13.088  0.00  0.00     0.159 C 
ATOM      6  C5  ZIN A   1      17.991   2.190  14.142  0.00  0.00     0.062 C 
ATOM      7  C4  ZIN A   1      18.012   3.607  14.767  0.00  0.00     0.239 C 
ATOM      8  N2  ZIN A   1      18.301   4.514  13.636  0.00  0.00    -0.072 N 
ATOM      9  C1  ZIN A   1      17.044   5.053  13.102  0.00  0.00     0.272 C 
ATOM     10  C24 ZIN A   1      18.999   3.749  12.586  0.00  0.00     0.268 C 
ATOM     11  C3  ZIN A   1      19.157   5.616  14.096  0.00  0.00     0.272 C 
ENDBRANCH   4   5
ENDBRANCH   2   4
ENDBRANCH   1   2
BRANCH   1  12
ATOM     12  O12 ZIN A   1      21.119  -0.559   9.887  0.00  0.00    -0.374 OA
ATOM     13  H35 ZIN A   1      21.167  -0.379   8.938  0.00  0.00     0.211 HD
ENDBRANCH   1  12
BRANCH   1  14
ATOM     14  C13 ZIN A   1      19.246  -1.646  10.916  0.00  0.00    -0.014 A 
ATOM     15  C18 ZIN A   1      17.885  -1.764  11.124  0.00  0.00     0.011 A 
ATOM     16  C17 ZIN A   1      17.351  -2.969  11.543  0.00  0.00     0.001 A 
ATOM     17  C16 ZIN A   1      18.179  -4.053  11.761  0.00  0.00     0.000 A 
ATOM     18  C15 ZIN A   1      19.542  -3.934  11.558  0.00  0.00     0.001 A 
ATOM     19  C14 ZIN A   1      20.076  -2.731  11.135  0.00  0.00     0.011 A 
ENDBRANCH   1  14
BRANCH   1  20
ATOM     20  C19 ZIN A   1      18.908   0.289   9.404  0.00  0.00     0.035 C 
ATOM     21  C23 ZIN A   1      18.814  -0.621   8.161  0.00  0.00     0.008 C 
ATOM     22  C22 ZIN A   1      18.773   0.310   6.936  0.00  0.00     0.001 C 
ATOM     23  C21 ZIN A   1      18.843   1.753   7.478  0.00  0.00     0.001 C 
ATOM     24  C20 ZIN A   1      19.517   1.606   8.865  0.00  0.00     0.008 C 
ENDBRANCH   1  20
TORSDOF 6
ENDMDL
MODEL 9
REMARK VINA RESULT:      -7.2      2.376      3.976
REMARK  6 active torsions:
REMARK  status: ('A' for Active; 'I' for Inactive)
REMARK    1  A    between atoms: C6_6  and  O8_7 
REMARK    2  A    between atoms: O8_7  and  C9_8 
REMARK    3  A    between atoms: C9_8  and  C11_10 
REMARK    4  A    between atoms: C11_10  and  O12_11 
REMARK    5  A    between atoms: C11_10  and  C13_12 
REMARK    6  A    between atoms: C11_10  and  C19_18 
ROOT
ATOM      1  C11 ZIN A   1      18.646  -0.461  11.795  0.00  0.00     0.176 C 
ENDROOT
BRANCH   1   2
ATOM      2  C9  ZIN A   1      17.626  -0.080  12.836  0.00  0.00     0.299 C 
ATOM      3  O10 ZIN A   1      16.649   0.558  12.520  0.00  0.00    -0.261 OA
BRANCH   2   4
ATOM      4  O8  ZIN A   1      17.802  -0.448  14.115  0.00  0.00    -0.312 OA
BRANCH   4   5
ATOM      5  C6  ZIN A   1      17.705   0.595  15.121  0.00  0.00     0.159 C 
ATOM      6  C5  ZIN A   1      19.048   1.361  15.249  0.00  0.00     0.062 C 
ATOM      7  C4  ZIN A   1      18.972   1.881  16.706  0.00  0.00     0.239 C 
ATOM      8  N2  ZIN A   1      18.318   0.794  17.463  0.00  0.00    -0.072 N 
ATOM      9  C1  ZIN A   1      19.338  -0.053  18.094  0.00  0.00     0.272 C 
ATOM     10  C24 ZIN A   1      17.514  -0.013  16.526  0.00  0.00     0.268 C 
ATOM     11  C3  ZIN A   1      17.444   1.369  18.494  0.00  0.00     0.272 C 
ENDBRANCH   4   5
ENDBRANCH   2   4
ENDBRANCH   1   2
BRANCH   1  12
ATOM     12  O12 ZIN A   1      19.943  -0.037  12.221  0.00  0.00    -0.374 OA
ATOM     13  H35 ZIN A   1      20.371  -0.644  12.840  0.00  0.00     0.211 HD
ENDBRANCH   1  12
BRANCH   1  14
ATOM     14  C13 ZIN A   1      18.642  -1.956  11.611  0.00  0.00    -0.014 A 
ATOM     15  C18 ZIN A   1      19.832  -2.659  11.638  0.00  0.00     0.011 A 
ATOM     16  C17 ZIN A   1      19.829  -4.032  11.472  0.00  0.00     0.001 A 
ATOM     17  C16 ZIN A   1      18.636  -4.700  11.270  0.00  0.00     0.000 A 
ATOM     18  C15 ZIN A   1      17.446  -3.997  11.237  0.00  0.00     0.001 A 
ATOM     19  C14 ZIN A   1      17.449  -2.625  11.407  0.00  0.00     0.011 A 
ENDBRANCH   1  14
BRANCH   1  20
ATOM     20  C19 ZIN A   1      18.299   0.217  10.468  0.00  0.00     0.035 C 
ATOM     21  C23 ZIN A   1      19.035  -0.473   9.300  0.00  0.00     0.008 C 
ATOM     22  C22 ZIN A   1      19.451   0.642   8.324  0.00  0.00     0.001 C 
ATOM     23  C21 ZIN A   1      18.952   1.970   8.932  0.00  0.00     0.001 C 
ATOM     24  C20 ZIN A   1      18.831   1.671  10.447  0.00  0.00     0.008 C 
ENDBRANCH   1  20
TORSDOF 6
ENDMDL
