MODEL 1
REMARK VINA RESULT:      -3.6      0.000      0.000
REMARK  5 active torsions:
REMARK  status: ('A' for Active; 'I' for Inactive)
REMARK    1  A    between atoms: C2_2  and  C4_4 
REMARK    2  A    between atoms: C4_4  and  S6_5 
REMARK    3  A    between atoms: C4_4  and  C7_6 
REMARK    4  A    between atoms: C7_6  and  S9_7 
REMARK    5  A    between atoms: C7_6  and  C10_8 
ROOT
ATOM      1  C4  <0> d   1      17.739   0.960   9.542  0.00  0.00     0.169 C 
ENDROOT
BRANCH   1   2
ATOM      2  C2  <0> d   1      18.844   1.878   9.086  0.00  0.00     0.188 C 
ATOM      3  O1  <0> d   1      19.872   1.412   8.624  0.00  0.00    -0.647 OA
ATOM      4  O3  <0> d   1      18.709   3.087   9.174  0.00  0.00    -0.647 OA
ENDBRANCH   1   2
BRANCH   1   5
ATOM      5  S6  <0> d   1      17.376  -0.244   8.235  0.00  0.00    -0.165 SA
ATOM      6  H13 <0> d   1      16.187  -0.747   8.608  0.00  0.00     0.102 HD
ENDBRANCH   1   5
BRANCH   1   7
ATOM      7  C7  <0> d   1      18.179   0.222  10.808  0.00  0.00     0.169 C 
BRANCH   7   8
ATOM      8  S9  <0> d   1      18.806   1.418  12.019  0.00  0.00    -0.165 SA
ATOM      9  H14 <0> d   1      17.760   2.245  12.197  0.00  0.00     0.102 HD
ENDBRANCH   7   8
BRANCH   7  10
ATOM     10  C10 <0> d   1      17.002  -0.515  11.392  0.00  0.00     0.188 C 
ATOM     11  O11 <0> d   1      15.964   0.082  11.627  0.00  0.00    -0.647 OA
ATOM     12  O12 <0> d   1      17.086  -1.709  11.629  0.00  0.00    -0.647 OA
ENDBRANCH   7  10
ENDBRANCH   1   7
TORSDOF 5
ENDMDL
MODEL 2
REMARK VINA RESULT:      -3.6      5.606      7.118
REMARK  5 active torsions:
REMARK  status: ('A' for Active; 'I' for Inactive)
REMARK    1  A    between atoms: C2_2  and  C4_4 
REMARK    2  A    between atoms: C4_4  and  S6_5 
REMARK    3  A    between atoms: C4_4  and  C7_6 
REMARK    4  A    between atoms: C7_6  and  S9_7 
REMARK    5  A    between atoms: C7_6  and  C10_8 
ROOT
ATOM      1  C4  <0> d   1      18.505   1.496  16.702  0.00  0.00     0.169 C 
ENDROOT
BRANCH   1   2
ATOM      2  C2  <0> d   1      18.790   1.094  18.126  0.00  0.00     0.188 C 
ATOM      3  O1  <0> d   1      19.939   0.911  18.490  0.00  0.00    -0.647 OA
ATOM      4  O3  <0> d   1      17.871   0.956  18.916  0.00  0.00    -0.647 OA
ENDBRANCH   1   2
BRANCH   1   5
ATOM      5  S6  <0> d   1      19.317   3.078  16.348  0.00  0.00    -0.165 SA
ATOM      6  H13 <0> d   1      19.754   2.919  15.087  0.00  0.00     0.102 HD
ENDBRANCH   1   5
BRANCH   1   7
ATOM      7  C7  <0> d   1      19.041   0.423  15.752  0.00  0.00     0.169 C 
BRANCH   7   8
ATOM      8  S9  <0> d   1      18.229  -1.159  16.107  0.00  0.00    -0.165 SA
ATOM      9  H14 <0> d   1      17.246  -1.207  15.191  0.00  0.00     0.102 HD
ENDBRANCH   7   8
BRANCH   7  10
ATOM     10  C10 <0> d   1      18.756   0.827  14.329  0.00  0.00     0.188 C 
ATOM     11  O11 <0> d   1      19.672   0.936  13.531  0.00  0.00    -0.647 OA
ATOM     12  O12 <0> d   1      17.609   1.042  13.973  0.00  0.00    -0.647 OA
ENDBRANCH   7  10
ENDBRANCH   1   7
TORSDOF 5
ENDMDL
MODEL 3
REMARK VINA RESULT:      -3.5      3.848      5.260
REMARK  5 active torsions:
REMARK  status: ('A' for Active; 'I' for Inactive)
REMARK    1  A    between atoms: C2_2  and  C4_4 
REMARK    2  A    between atoms: C4_4  and  S6_5 
REMARK    3  A    between atoms: C4_4  and  C7_6 
REMARK    4  A    between atoms: C7_6  and  S9_7 
REMARK    5  A    between atoms: C7_6  and  C10_8 
ROOT
ATOM      1  C4  <0> d   1      19.312  -1.542   7.295  0.00  0.00     0.169 C 
ENDROOT
BRANCH   1   2
ATOM      2  C2  <0> d   1      19.133  -1.026   8.699  0.00  0.00     0.188 C 
ATOM      3  O1  <0> d   1      20.086  -0.571   9.308  0.00  0.00    -0.647 OA
ATOM      4  O3  <0> d   1      18.033  -1.058   9.225  0.00  0.00    -0.647 OA
ENDBRANCH   1   2
BRANCH   1   5
ATOM      5  S6  <0> d   1      18.811  -3.284   7.223  0.00  0.00    -0.165 SA
ATOM      6  H13 <0> d   1      19.281  -3.685   6.030  0.00  0.00     0.102 HD
ENDBRANCH   1   5
BRANCH   1   7
ATOM      7  C7  <0> d   1      18.446  -0.722   6.336  0.00  0.00     0.169 C 
BRANCH   7   8
ATOM      8  S9  <0> d   1      18.875   1.034   6.486  0.00  0.00    -0.165 SA
ATOM      9  H14 <0> d   1      17.719   1.654   6.190  0.00  0.00     0.102 HD
ENDBRANCH   7   8
BRANCH   7  10
ATOM     10  C10 <0> d   1      18.692  -1.181   4.922  0.00  0.00     0.188 C 
ATOM     11  O11 <0> d   1      19.827  -1.196   4.475  0.00  0.00    -0.647 OA
ATOM     12  O12 <0> d   1      17.758  -1.539   4.225  0.00  0.00    -0.647 OA
ENDBRANCH   7  10
ENDBRANCH   1   7
TORSDOF 5
ENDMDL
MODEL 4
REMARK VINA RESULT:      -3.5      5.584      6.554
REMARK  5 active torsions:
REMARK  status: ('A' for Active; 'I' for Inactive)
REMARK    1  A    between atoms: C2_2  and  C4_4 
REMARK    2  A    between atoms: C4_4  and  S6_5 
REMARK    3  A    between atoms: C4_4  and  C7_6 
REMARK    4  A    between atoms: C7_6  and  S9_7 
REMARK    5  A    between atoms: C7_6  and  C10_8 
ROOT
ATOM      1  C4  <0> d   1      19.246   1.397  15.744  0.00  0.00     0.169 C 
ENDROOT
BRANCH   1   2
ATOM      2  C2  <0> d   1      18.943   1.049  14.309  0.00  0.00     0.188 C 
ATOM      3  O1  <0> d   1      19.841   0.696  13.564  0.00  0.00    -0.647 OA
ATOM      4  O3  <0> d   1      17.798   1.115  13.894  0.00  0.00    -0.647 OA
ENDBRANCH   1   2
BRANCH   1   5
ATOM      5  S6  <0> d   1      18.803   3.129  16.051  0.00  0.00    -0.165 SA
ATOM      6  H13 <0> d   1      17.601   3.244  15.462  0.00  0.00     0.102 HD
ENDBRANCH   1   5
BRANCH   1   7
ATOM      7  C7  <0> d   1      18.433   0.490  16.670  0.00  0.00     0.169 C 
BRANCH   7   8
ATOM      8  S9  <0> d   1      18.850  -1.243  16.339  0.00  0.00    -0.165 SA
ATOM      9  H14 <0> d   1      20.142  -1.319  16.703  0.00  0.00     0.102 HD
ENDBRANCH   7   8
BRANCH   7  10
ATOM     10  C10 <0> d   1      18.757   0.820  18.104  0.00  0.00     0.188 C 
ATOM     11  O11 <0> d   1      19.920   0.888  18.466  0.00  0.00    -0.647 OA
ATOM     12  O12 <0> d   1      17.857   1.021  18.903  0.00  0.00    -0.647 OA
ENDBRANCH   7  10
ENDBRANCH   1   7
TORSDOF 5
ENDMDL
MODEL 5
REMARK VINA RESULT:      -3.4      3.736      5.189
REMARK  5 active torsions:
REMARK  status: ('A' for Active; 'I' for Inactive)
REMARK    1  A    between atoms: C2_2  and  C4_4 
REMARK    2  A    between atoms: C4_4  and  S6_5 
REMARK    3  A    between atoms: C4_4  and  C7_6 
REMARK    4  A    between atoms: C7_6  and  S9_7 
REMARK    5  A    between atoms: C7_6  and  C10_8 
ROOT
ATOM      1  C4  <0> d   1      18.488  -0.626   7.411  0.00  0.00     0.169 C 
ENDROOT
BRANCH   1   2
ATOM      2  C2  <0> d   1      18.863  -0.687   8.869  0.00  0.00     0.188 C 
ATOM      3  O1  <0> d   1      20.021  -0.518   9.209  0.00  0.00    -0.647 OA
ATOM      4  O3  <0> d   1      18.006  -0.902   9.711  0.00  0.00    -0.647 OA
ENDBRANCH   1   2
BRANCH   1   5
ATOM      5  S6  <0> d   1      18.880   1.019   6.756  0.00  0.00    -0.165 SA
ATOM      6  H13 <0> d   1      20.066   1.297   7.325  0.00  0.00     0.102 HD
ENDBRANCH   1   5
BRANCH   1   7
ATOM      7  C7  <0> d   1      19.276  -1.684   6.637  0.00  0.00     0.169 C 
BRANCH   7   8
ATOM      8  S9  <0> d   1      18.836  -3.334   7.250  0.00  0.00    -0.165 SA
ATOM      9  H14 <0> d   1      19.334  -3.335   8.499  0.00  0.00     0.102 HD
ENDBRANCH   7   8
BRANCH   7  10
ATOM     10  C10 <0> d   1      18.940  -1.586   5.171  0.00  0.00     0.188 C 
ATOM     11  O11 <0> d   1      19.822  -1.377   4.356  0.00  0.00    -0.647 OA
ATOM     12  O12 <0> d   1      17.785  -1.719   4.800  0.00  0.00    -0.647 OA
ENDBRANCH   7  10
ENDBRANCH   1   7
TORSDOF 5
ENDMDL
MODEL 6
REMARK VINA RESULT:      -3.4      5.402      6.358
REMARK  5 active torsions:
REMARK  status: ('A' for Active; 'I' for Inactive)
REMARK    1  A    between atoms: C2_2  and  C4_4 
REMARK    2  A    between atoms: C4_4  and  S6_5 
REMARK    3  A    between atoms: C4_4  and  C7_6 
REMARK    4  A    between atoms: C7_6  and  S9_7 
REMARK    5  A    between atoms: C7_6  and  C10_8 
ROOT
ATOM      1  C4  <0> d   1      18.289   0.428  15.652  0.00  0.00     0.169 C 
ENDROOT
BRANCH   1   2
ATOM      2  C2  <0> d   1      18.518   0.495  14.164  0.00  0.00     0.188 C 
ATOM      3  O1  <0> d   1      17.578   0.674  13.409  0.00  0.00    -0.647 OA
ATOM      4  O3  <0> d   1      19.646   0.375  13.715  0.00  0.00    -0.647 OA
ENDBRANCH   1   2
BRANCH   1   5
ATOM      5  S6  <0> d   1      18.719  -1.227  16.257  0.00  0.00    -0.165 SA
ATOM      6  H13 <0> d   1      18.353  -2.025  15.239  0.00  0.00     0.102 HD
ENDBRANCH   1   5
BRANCH   1   7
ATOM      7  C7  <0> d   1      19.166   1.470  16.350  0.00  0.00     0.169 C 
BRANCH   7   8
ATOM      8  S9  <0> d   1      18.734   3.125  15.748  0.00  0.00    -0.165 SA
ATOM      9  H14 <0> d   1      19.197   3.119  14.485  0.00  0.00     0.102 HD
ENDBRANCH   7   8
BRANCH   7  10
ATOM     10  C10 <0> d   1      18.938   1.401  17.838  0.00  0.00     0.188 C 
ATOM     11  O11 <0> d   1      17.808   1.497  18.287  0.00  0.00    -0.647 OA
ATOM     12  O12 <0> d   1      19.883   1.247  18.594  0.00  0.00    -0.647 OA
ENDBRANCH   7  10
ENDBRANCH   1   7
TORSDOF 5
ENDMDL
MODEL 7
REMARK VINA RESULT:      -3.4      3.060      4.086
REMARK  5 active torsions:
REMARK  status: ('A' for Active; 'I' for Inactive)
REMARK    1  A    between atoms: C2_2  and  C4_4 
REMARK    2  A    between atoms: C4_4  and  S6_5 
REMARK    3  A    between atoms: C4_4  and  C7_6 
REMARK    4  A    between atoms: C7_6  and  S9_7 
REMARK    5  A    between atoms: C7_6  and  C10_8 
ROOT
ATOM      1  C4  <0> d   1      18.505   3.911  11.375  0.00  0.00     0.169 C 
ENDROOT
BRANCH   1   2
ATOM      2  C2  <0> d   1      17.383   4.628  10.669  0.00  0.00     0.188 C 
ATOM      3  O1  <0> d   1      16.263   4.630  11.150  0.00  0.00    -0.647 OA
ATOM      4  O3  <0> d   1      17.597   5.210   9.619  0.00  0.00    -0.647 OA
ENDBRANCH   1   2
BRANCH   1   5
ATOM      5  S6  <0> d   1      18.841   4.729  12.959  0.00  0.00    -0.165 SA
ATOM      6  H13 <0> d   1      18.349   5.966  12.772  0.00  0.00     0.102 HD
ENDBRANCH   1   5
BRANCH   1   7
ATOM      7  C7  <0> d   1      18.103   2.457  11.627  0.00  0.00     0.169 C 
BRANCH   7   8
ATOM      8  S9  <0> d   1      17.892   1.605  10.040  0.00  0.00    -0.165 SA
ATOM      9  H14 <0> d   1      18.919   2.071   9.306  0.00  0.00     0.102 HD
ENDBRANCH   7   8
BRANCH   7  10
ATOM     10  C10 <0> d   1      19.180   1.771  12.426  0.00  0.00     0.188 C 
ATOM     11  O11 <0> d   1      18.931   1.336  13.538  0.00  0.00    -0.647 OA
ATOM     12  O12 <0> d   1      20.301   1.648  11.961  0.00  0.00    -0.647 OA
ENDBRANCH   7  10
ENDBRANCH   1   7
TORSDOF 5
ENDMDL
MODEL 8
REMARK VINA RESULT:      -3.4      4.447      4.893
REMARK  5 active torsions:
REMARK  status: ('A' for Active; 'I' for Inactive)
REMARK    1  A    between atoms: C2_2  and  C4_4 
REMARK    2  A    between atoms: C4_4  and  S6_5 
REMARK    3  A    between atoms: C4_4  and  C7_6 
REMARK    4  A    between atoms: C7_6  and  S9_7 
REMARK    5  A    between atoms: C7_6  and  C10_8 
ROOT
ATOM      1  C4  <0> d   1      18.429  -2.067   5.904  0.00  0.00     0.169 C 
ENDROOT
BRANCH   1   2
ATOM      2  C2  <0> d   1      18.912  -0.874   5.120  0.00  0.00     0.188 C 
ATOM      3  O1  <0> d   1      20.015  -0.892   4.600  0.00  0.00    -0.647 OA
ATOM      4  O3  <0> d   1      18.197   0.107   4.999  0.00  0.00    -0.647 OA
ENDBRANCH   1   2
BRANCH   1   5
ATOM      5  S6  <0> d   1      18.441  -3.535   4.840  0.00  0.00    -0.165 SA
ATOM      6  H13 <0> d   1      17.767  -4.443   5.567  0.00  0.00     0.102 HD
ENDBRANCH   1   5
BRANCH   1   7
ATOM      7  C7  <0> d   1      19.352  -2.297   7.102  0.00  0.00     0.169 C 
BRANCH   7   8
ATOM      8  S9  <0> d   1      19.287  -0.856   8.202  0.00  0.00    -0.165 SA
ATOM      9  H14 <0> d   1      19.326   0.180   7.346  0.00  0.00     0.102 HD
ENDBRANCH   7   8
BRANCH   7  10
ATOM     10  C10 <0> d   1      18.902  -3.523   7.853  0.00  0.00     0.188 C 
ATOM     11  O11 <0> d   1      17.786  -3.564   8.342  0.00  0.00    -0.647 OA
ATOM     12  O12 <0> d   1      19.654  -4.477   7.970  0.00  0.00    -0.647 OA
ENDBRANCH   7  10
ENDBRANCH   1   7
TORSDOF 5
ENDMDL
MODEL 9
REMARK VINA RESULT:      -3.4      3.786      4.664
REMARK  5 active torsions:
REMARK  status: ('A' for Active; 'I' for Inactive)
REMARK    1  A    between atoms: C2_2  and  C4_4 
REMARK    2  A    between atoms: C4_4  and  S6_5 
REMARK    3  A    between atoms: C4_4  and  C7_6 
REMARK    4  A    between atoms: C7_6  and  S9_7 
REMARK    5  A    between atoms: C7_6  and  C10_8 
ROOT
ATOM      1  C4  <0> d   1      19.147  -0.751   6.399  0.00  0.00     0.169 C 
ENDROOT
BRANCH   1   2
ATOM      2  C2  <0> d   1      18.845  -1.222   5.000  0.00  0.00     0.188 C 
ATOM      3  O1  <0> d   1      17.702  -1.184   4.576  0.00  0.00    -0.647 OA
ATOM      4  O3  <0> d   1      19.744  -1.638   4.289  0.00  0.00    -0.647 OA
ENDBRANCH   1   2
BRANCH   1   5
ATOM      5  S6  <0> d   1      18.810   1.027   6.523  0.00  0.00    -0.165 SA
ATOM      6  H13 <0> d   1      17.868   1.091   7.480  0.00  0.00     0.102 HD
ENDBRANCH   1   5
BRANCH   1   7
ATOM      7  C7  <0> d   1      18.265  -1.508   7.394  0.00  0.00     0.169 C 
BRANCH   7   8
ATOM      8  S9  <0> d   1      18.663  -3.276   7.332  0.00  0.00    -0.165 SA
ATOM      9  H14 <0> d   1      19.445  -3.372   6.242  0.00  0.00     0.102 HD
ENDBRANCH   7   8
BRANCH   7  10
ATOM     10  C10 <0> d   1      18.515  -0.984   8.784  0.00  0.00     0.188 C 
ATOM     11  O11 <0> d   1      19.643  -1.002   9.249  0.00  0.00    -0.647 OA
ATOM     12  O12 <0> d   1      17.591  -0.541   9.445  0.00  0.00    -0.647 OA
ENDBRANCH   7  10
ENDBRANCH   1   7
TORSDOF 5
ENDMDL
