MODEL 1
REMARK VINA RESULT:      -9.8      0.000      0.000
REMARK  8 active torsions:
REMARK  status: ('A' for Active; 'I' for Inactive)
REMARK    1  A    between atoms: C5_5  and  C6_6 
REMARK    2  A    between atoms: N9_9  and  C10_10 
REMARK    3  A    between atoms: N19_17  and  C21_19 
REMARK    4  A    between atoms: C21_19  and  C22_20 
REMARK    5  A    between atoms: C22_20  and  C23_21 
REMARK    6  A    between atoms: C23_21  and  N25_22 
REMARK    7  A    between atoms: C23_21  and  C36_33 
REMARK       I    between atoms: N25_22  and  C26_23 
REMARK    8  A    between atoms: C26_23  and  C28_25 
ROOT
ATOM      1  C22 ZIN A   1      18.205  -2.791  12.577  0.00  0.00     0.057 C 
ENDROOT
BRANCH   1   2
ATOM      2  C21 ZIN A   1      17.437  -3.651  11.571  0.00  0.00     0.238 C 
BRANCH   2   3
ATOM      3  N19 ZIN A   1      18.320  -4.704  11.052  0.00  0.00    -0.062 N 
ATOM      4  C12 ZIN A   1      17.538  -5.815  10.447  0.00  0.00     0.190 C 
ATOM      5  C11 ZIN A   1      16.454  -5.180   9.562  0.00  0.00     0.059 C 
ATOM      6  C14 ZIN A   1      18.539  -6.543   9.521  0.00  0.00     0.035 C 
ATOM      7  C10 ZIN A   1      17.130  -4.421   8.418  0.00  0.00     0.097 C 
ATOM      8  C18 ZIN A   1      18.148  -3.427   8.986  0.00  0.00     0.059 C 
ATOM      9  C16 ZIN A   1      19.125  -4.196   9.891  0.00  0.00     0.190 C 
ATOM     10  C15 ZIN A   1      19.587  -5.474   9.152  0.00  0.00     0.035 C 
ATOM     11  H20 ZIN A   1      18.927  -5.050  11.781  0.00  0.00     0.280 HD
BRANCH   7  12
ATOM     12  N9  ZIN A   1      17.818  -5.373   7.540  0.00  0.00    -0.315 N 
ATOM     13  C2  ZIN A   1      18.957  -5.159   6.840  0.00  0.00     0.126 A 
ATOM     14  C1  ZIN A   1      19.769  -3.888   6.819  0.00  0.00     0.093 C 
ATOM     15  N3  ZIN A   1      19.226  -6.259   6.190  0.00  0.00    -0.135 NA
ATOM     16  N4  ZIN A   1      18.324  -7.140   6.440  0.00  0.00    -0.134 NA
ATOM     17  C5  ZIN A   1      17.438  -6.643   7.259  0.00  0.00     0.134 A 
BRANCH  17  18
ATOM     18  C6  ZIN A   1      16.222  -7.351   7.798  0.00  0.00     0.049 C 
ATOM     19  C7  ZIN A   1      15.011  -7.019   6.924  0.00  0.00     0.018 C 
ATOM     20  C8  ZIN A   1      16.463  -8.862   7.784  0.00  0.00     0.018 C 
ENDBRANCH  17  18
ENDBRANCH   7  12
ENDBRANCH   2   3
ENDBRANCH   1   2
BRANCH   1  21
ATOM     21  C23 ZIN A   1      17.649  -1.366  12.558  0.00  0.00     0.119 C 
BRANCH  21  22
ATOM     22  N25 ZIN A   1      18.038  -0.707  11.308  0.00  0.00    -0.352 N 
ATOM     23  C26 ZIN A   1      17.125  -0.015  10.600  0.00  0.00     0.222 C 
ATOM     24  O27 ZIN A   1      15.982   0.065  10.996  0.00  0.00    -0.273 OA
ATOM     25  H65 ZIN A   1      18.953  -0.770  10.990  0.00  0.00     0.163 HD
BRANCH  23  26
ATOM     26  C28 ZIN A   1      17.524   0.663   9.314  0.00  0.00     0.078 C 
ATOM     27  C35 ZIN A   1      17.106  -0.207   8.127  0.00  0.00     0.020 C 
ATOM     28  C34 ZIN A   1      17.511   0.481   6.822  0.00  0.00     0.080 C 
ATOM     29  C31 ZIN A   1      19.028   0.678   6.800  0.00  0.00     0.243 C 
ATOM     30  C30 ZIN A   1      19.446   1.548   7.987  0.00  0.00     0.080 C 
ATOM     31  F32 ZIN A   1      19.400   1.307   5.606  0.00  0.00    -0.206 F 
ATOM     32  F33 ZIN A   1      19.662  -0.566   6.888  0.00  0.00    -0.206 F 
ATOM     33  C29 ZIN A   1      19.042   0.860   9.292  0.00  0.00     0.020 C 
ENDBRANCH  23  26
ENDBRANCH  21  22
BRANCH  21  34
ATOM     34  C36 ZIN A   1      18.207  -0.594  13.726  0.00  0.00    -0.035 A 
ATOM     35  C41 ZIN A   1      18.604   0.720  13.559  0.00  0.00     0.009 A 
ATOM     36  C40 ZIN A   1      19.112   1.430  14.631  0.00  0.00     0.001 A 
ATOM     37  C39 ZIN A   1      19.231   0.824  15.868  0.00  0.00     0.000 A 
ATOM     38  C38 ZIN A   1      18.839  -0.491  16.033  0.00  0.00     0.001 A 
ATOM     39  C37 ZIN A   1      18.326  -1.200  14.963  0.00  0.00     0.009 A 
ENDBRANCH  21  34
ENDBRANCH   1  21
TORSDOF 8
ENDMDL
MODEL 2
REMARK VINA RESULT:      -9.6      4.089      6.778
REMARK  8 active torsions:
REMARK  status: ('A' for Active; 'I' for Inactive)
REMARK    1  A    between atoms: C5_5  and  C6_6 
REMARK    2  A    between atoms: N9_9  and  C10_10 
REMARK    3  A    between atoms: N19_17  and  C21_19 
REMARK    4  A    between atoms: C21_19  and  C22_20 
REMARK    5  A    between atoms: C22_20  and  C23_21 
REMARK    6  A    between atoms: C23_21  and  N25_22 
REMARK    7  A    between atoms: C23_21  and  C36_33 
REMARK       I    between atoms: N25_22  and  C26_23 
REMARK    8  A    between atoms: C26_23  and  C28_25 
ROOT
ATOM      1  C22 ZIN A   1      19.531   4.074  11.854  0.00  0.00     0.057 C 
ENDROOT
BRANCH   1   2
ATOM      2  C21 ZIN A   1      18.743   2.956  11.169  0.00  0.00     0.238 C 
BRANCH   2   3
ATOM      3  N19 ZIN A   1      19.674   2.050  10.482  0.00  0.00    -0.062 N 
ATOM      4  C12 ZIN A   1      19.693   0.708  11.122  0.00  0.00     0.190 C 
ATOM      5  C11 ZIN A   1      18.232   0.303  11.375  0.00  0.00     0.059 C 
ATOM      6  C14 ZIN A   1      20.265  -0.237  10.040  0.00  0.00     0.035 C 
ATOM      7  C10 ZIN A   1      17.518   0.158  10.029  0.00  0.00     0.097 C 
ATOM      8  C18 ZIN A   1      17.687   1.442   9.212  0.00  0.00     0.059 C 
ATOM      9  C16 ZIN A   1      19.190   1.747   9.093  0.00  0.00     0.190 C 
ATOM     10  C15 ZIN A   1      19.932   0.449   8.699  0.00  0.00     0.035 C 
ATOM     11  H20 ZIN A   1      20.601   2.447  10.456  0.00  0.00     0.280 HD
BRANCH   7  12
ATOM     12  N9  ZIN A   1      18.094  -0.970   9.290  0.00  0.00    -0.315 N 
ATOM     13  C2  ZIN A   1      18.208  -1.089   7.946  0.00  0.00     0.126 A 
ATOM     14  C1  ZIN A   1      17.766  -0.079   6.918  0.00  0.00     0.093 C 
ATOM     15  N3  ZIN A   1      18.775  -2.240   7.705  0.00  0.00    -0.135 NA
ATOM     16  N4  ZIN A   1      19.017  -2.843   8.814  0.00  0.00    -0.134 NA
ATOM     17  C5  ZIN A   1      18.615  -2.106   9.813  0.00  0.00     0.134 A 
BRANCH  17  18
ATOM     18  C6  ZIN A   1      18.716  -2.451  11.277  0.00  0.00     0.049 C 
ATOM     19  C7  ZIN A   1      17.467  -3.222  11.706  0.00  0.00     0.018 C 
ATOM     20  C8  ZIN A   1      19.956  -3.315  11.512  0.00  0.00     0.018 C 
ENDBRANCH  17  18
ENDBRANCH   7  12
ENDBRANCH   2   3
ENDBRANCH   1   2
BRANCH   1  21
ATOM     21  C23 ZIN A   1      19.275   4.028  13.361  0.00  0.00     0.119 C 
BRANCH  21  22
ATOM     22  N25 ZIN A   1      18.592   2.778  13.703  0.00  0.00    -0.352 N 
ATOM     23  C26 ZIN A   1      18.805   2.200  14.901  0.00  0.00     0.222 C 
ATOM     24  O27 ZIN A   1      19.561   2.714  15.697  0.00  0.00    -0.273 OA
ATOM     25  H65 ZIN A   1      17.987   2.366  13.066  0.00  0.00     0.163 HD
BRANCH  23  26
ATOM     26  C28 ZIN A   1      18.102   0.913  15.252  0.00  0.00     0.078 C 
ATOM     27  C35 ZIN A   1      18.044   0.763  16.774  0.00  0.00     0.020 C 
ATOM     28  C34 ZIN A   1      17.331  -0.542  17.131  0.00  0.00     0.080 C 
ATOM     29  C31 ZIN A   1      18.098  -1.722  16.531  0.00  0.00     0.243 C 
ATOM     30  C30 ZIN A   1      18.156  -1.572  15.010  0.00  0.00     0.080 C 
ATOM     31  F32 ZIN A   1      17.446  -2.917  16.858  0.00  0.00    -0.206 F 
ATOM     32  F33 ZIN A   1      19.398  -1.744  17.048  0.00  0.00    -0.206 F 
ATOM     33  C29 ZIN A   1      18.870  -0.267  14.653  0.00  0.00     0.020 C 
ENDBRANCH  23  26
ENDBRANCH  21  22
BRANCH  21  34
ATOM     34  C36 ZIN A   1      18.411   5.197  13.759  0.00  0.00    -0.035 A 
ATOM     35  C41 ZIN A   1      18.947   6.230  14.506  0.00  0.00     0.009 A 
ATOM     36  C40 ZIN A   1      18.156   7.304  14.868  0.00  0.00     0.001 A 
ATOM     37  C39 ZIN A   1      16.826   7.342  14.490  0.00  0.00     0.000 A 
ATOM     38  C38 ZIN A   1      16.289   6.306  13.748  0.00  0.00     0.001 A 
ATOM     39  C37 ZIN A   1      17.081   5.234  13.382  0.00  0.00     0.009 A 
ENDBRANCH  21  34
ENDBRANCH   1  21
TORSDOF 8
ENDMDL
MODEL 3
REMARK VINA RESULT:      -9.4      3.971      6.625
REMARK  8 active torsions:
REMARK  status: ('A' for Active; 'I' for Inactive)
REMARK    1  A    between atoms: C5_5  and  C6_6 
REMARK    2  A    between atoms: N9_9  and  C10_10 
REMARK    3  A    between atoms: N19_17  and  C21_19 
REMARK    4  A    between atoms: C21_19  and  C22_20 
REMARK    5  A    between atoms: C22_20  and  C23_21 
REMARK    6  A    between atoms: C23_21  and  N25_22 
REMARK    7  A    between atoms: C23_21  and  C36_33 
REMARK       I    between atoms: N25_22  and  C26_23 
REMARK    8  A    between atoms: C26_23  and  C28_25 
ROOT
ATOM      1  C22 ZIN A   1      18.469   3.993  11.189  0.00  0.00     0.057 C 
ENDROOT
BRANCH   1   2
ATOM      2  C21 ZIN A   1      19.088   2.786  10.480  0.00  0.00     0.238 C 
BRANCH   2   3
ATOM      3  N19 ZIN A   1      18.020   1.899   9.999  0.00  0.00    -0.062 N 
ATOM      4  C12 ZIN A   1      18.283   1.442   8.609  0.00  0.00     0.190 C 
ATOM      5  C11 ZIN A   1      19.759   1.018   8.539  0.00  0.00     0.059 C 
ATOM      6  C14 ZIN A   1      17.417   0.172   8.441  0.00  0.00     0.035 C 
ATOM      7  C10 ZIN A   1      19.974  -0.183   9.464  0.00  0.00     0.097 C 
ATOM      8  C18 ZIN A   1      19.476   0.153  10.873  0.00  0.00     0.059 C 
ATOM      9  C16 ZIN A   1      18.011   0.613  10.774  0.00  0.00     0.190 C 
ATOM     10  C15 ZIN A   1      17.239  -0.377   9.871  0.00  0.00     0.035 C 
ATOM     11  H20 ZIN A   1      17.123   2.357  10.061  0.00  0.00     0.280 HD
BRANCH   7  12
ATOM     12  N9  ZIN A   1      19.230  -1.335   8.947  0.00  0.00    -0.315 N 
ATOM     13  C2  ZIN A   1      18.890  -1.573   7.657  0.00  0.00     0.126 A 
ATOM     14  C1  ZIN A   1      19.212  -0.698   6.472  0.00  0.00     0.093 C 
ATOM     15  N3  ZIN A   1      18.237  -2.703   7.630  0.00  0.00    -0.135 NA
ATOM     16  N4  ZIN A   1      18.147  -3.179   8.821  0.00  0.00    -0.134 NA
ATOM     17  C5  ZIN A   1      18.738  -2.375   9.662  0.00  0.00     0.134 A 
BRANCH  17  18
ATOM     18  C6  ZIN A   1      18.855  -2.569  11.152  0.00  0.00     0.049 C 
ATOM     19  C7  ZIN A   1      17.620  -3.309  11.668  0.00  0.00     0.018 C 
ATOM     20  C8  ZIN A   1      20.109  -3.389  11.462  0.00  0.00     0.018 C 
ENDBRANCH  17  18
ENDBRANCH   7  12
ENDBRANCH   2   3
ENDBRANCH   1   2
BRANCH   1  21
ATOM     21  C23 ZIN A   1      18.700   3.871  12.696  0.00  0.00     0.119 C 
BRANCH  21  22
ATOM     22  N25 ZIN A   1      18.088   2.633  13.186  0.00  0.00    -0.352 N 
ATOM     23  C26 ZIN A   1      18.613   1.998  14.251  0.00  0.00     0.222 C 
ATOM     24  O27 ZIN A   1      19.592   2.450  14.806  0.00  0.00    -0.273 OA
ATOM     25  H65 ZIN A   1      17.304   2.271  12.743  0.00  0.00     0.163 HD
BRANCH  23  26
ATOM     26  C28 ZIN A   1      17.984   0.724  14.755  0.00  0.00     0.078 C 
ATOM     27  C35 ZIN A   1      17.806   0.809  16.273  0.00  0.00     0.020 C 
ATOM     28  C34 ZIN A   1      17.167  -0.483  16.785  0.00  0.00     0.080 C 
ATOM     29  C31 ZIN A   1      18.072  -1.669  16.443  0.00  0.00     0.243 C 
ATOM     30  C30 ZIN A   1      18.248  -1.754  14.925  0.00  0.00     0.080 C 
ATOM     31  F32 ZIN A   1      17.487  -2.851  16.911  0.00  0.00    -0.206 F 
ATOM     32  F33 ZIN A   1      19.320  -1.494  17.049  0.00  0.00    -0.206 F 
ATOM     33  C29 ZIN A   1      18.888  -0.462  14.413  0.00  0.00     0.020 C 
ENDBRANCH  23  26
ENDBRANCH  21  22
BRANCH  21  34
ATOM     34  C36 ZIN A   1      18.075   5.051  13.397  0.00  0.00    -0.035 A 
ATOM     35  C41 ZIN A   1      16.733   5.331  13.213  0.00  0.00     0.009 A 
ATOM     36  C40 ZIN A   1      16.159   6.410  13.859  0.00  0.00     0.001 A 
ATOM     37  C39 ZIN A   1      16.927   7.214  14.680  0.00  0.00     0.000 A 
ATOM     38  C38 ZIN A   1      18.270   6.937  14.858  0.00  0.00     0.001 A 
ATOM     39  C37 ZIN A   1      18.844   5.855  14.217  0.00  0.00     0.009 A 
ENDBRANCH  21  34
ENDBRANCH   1  21
TORSDOF 8
ENDMDL
MODEL 4
REMARK VINA RESULT:      -9.3      4.214      6.955
REMARK  8 active torsions:
REMARK  status: ('A' for Active; 'I' for Inactive)
REMARK    1  A    between atoms: C5_5  and  C6_6 
REMARK    2  A    between atoms: N9_9  and  C10_10 
REMARK    3  A    between atoms: N19_17  and  C21_19 
REMARK    4  A    between atoms: C21_19  and  C22_20 
REMARK    5  A    between atoms: C22_20  and  C23_21 
REMARK    6  A    between atoms: C23_21  and  N25_22 
REMARK    7  A    between atoms: C23_21  and  C36_33 
REMARK       I    between atoms: N25_22  and  C26_23 
REMARK    8  A    between atoms: C26_23  and  C28_25 
ROOT
ATOM      1  C22 ZIN A   1      19.559   4.147  11.889  0.00  0.00     0.057 C 
ENDROOT
BRANCH   1   2
ATOM      2  C21 ZIN A   1      18.775   3.034  11.190  0.00  0.00     0.238 C 
BRANCH   2   3
ATOM      3  N19 ZIN A   1      19.710   2.019  10.685  0.00  0.00    -0.062 N 
ATOM      4  C12 ZIN A   1      19.439   0.688  11.290  0.00  0.00     0.190 C 
ATOM      5  C11 ZIN A   1      17.919   0.464  11.237  0.00  0.00     0.059 C 
ATOM      6  C14 ZIN A   1      20.100  -0.325  10.325  0.00  0.00     0.035 C 
ATOM      7  C10 ZIN A   1      17.478   0.400   9.772  0.00  0.00     0.097 C 
ATOM      8  C18 ZIN A   1      17.961   1.650   9.031  0.00  0.00     0.059 C 
ATOM      9  C16 ZIN A   1      19.482   1.771   9.221  0.00  0.00     0.190 C 
ATOM     10  C15 ZIN A   1      20.128   0.390   8.959  0.00  0.00     0.035 C 
ATOM     11  H20 ZIN A   1      20.664   2.300  10.854  0.00  0.00     0.280 HD
BRANCH   7  12
ATOM     12  N9  ZIN A   1      18.052  -0.792   9.142  0.00  0.00    -0.315 N 
ATOM     13  C2  ZIN A   1      18.379  -1.958   9.750  0.00  0.00     0.126 A 
ATOM     14  C1  ZIN A   1      18.215  -2.279  11.213  0.00  0.00     0.093 C 
ATOM     15  N3  ZIN A   1      18.857  -2.753   8.832  0.00  0.00    -0.135 NA
ATOM     16  N4  ZIN A   1      18.852  -2.154   7.695  0.00  0.00    -0.134 NA
ATOM     17  C5  ZIN A   1      18.370  -0.949   7.834  0.00  0.00     0.134 A 
BRANCH  17  18
ATOM     18  C6  ZIN A   1      18.196   0.076   6.743  0.00  0.00     0.049 C 
ATOM     19  C7  ZIN A   1      19.224  -0.176   5.639  0.00  0.00     0.018 C 
ATOM     20  C8  ZIN A   1      16.785  -0.033   6.162  0.00  0.00     0.018 C 
ENDBRANCH  17  18
ENDBRANCH   7  12
ENDBRANCH   2   3
ENDBRANCH   1   2
BRANCH   1  21
ATOM     21  C23 ZIN A   1      19.289   4.091  13.394  0.00  0.00     0.119 C 
BRANCH  21  22
ATOM     22  N25 ZIN A   1      18.604   2.837  13.721  0.00  0.00    -0.352 N 
ATOM     23  C26 ZIN A   1      18.820   2.243  14.910  0.00  0.00     0.222 C 
ATOM     24  O27 ZIN A   1      19.581   2.744  15.711  0.00  0.00    -0.273 OA
ATOM     25  H65 ZIN A   1      17.995   2.436  13.081  0.00  0.00     0.163 HD
BRANCH  23  26
ATOM     26  C28 ZIN A   1      18.115   0.953  15.247  0.00  0.00     0.078 C 
ATOM     27  C35 ZIN A   1      18.033   0.799  16.767  0.00  0.00     0.020 C 
ATOM     28  C34 ZIN A   1      17.319  -0.510  17.109  0.00  0.00     0.080 C 
ATOM     29  C31 ZIN A   1      18.099  -1.686  16.518  0.00  0.00     0.243 C 
ATOM     30  C30 ZIN A   1      18.180  -1.531  14.998  0.00  0.00     0.080 C 
ATOM     31  F32 ZIN A   1      17.445  -2.883  16.831  0.00  0.00    -0.206 F 
ATOM     32  F33 ZIN A   1      19.390  -1.706  17.055  0.00  0.00    -0.206 F 
ATOM     33  C29 ZIN A   1      18.896  -0.223  14.656  0.00  0.00     0.020 C 
ENDBRANCH  23  26
ENDBRANCH  21  22
BRANCH  21  34
ATOM     34  C36 ZIN A   1      18.419   5.256  13.792  0.00  0.00    -0.035 A 
ATOM     35  C41 ZIN A   1      17.089   5.284  13.416  0.00  0.00     0.009 A 
ATOM     36  C40 ZIN A   1      16.290   6.351  13.784  0.00  0.00     0.001 A 
ATOM     37  C39 ZIN A   1      16.822   7.393  14.520  0.00  0.00     0.000 A 
ATOM     38  C38 ZIN A   1      18.154   7.367  14.891  0.00  0.00     0.001 A 
ATOM     39  C37 ZIN A   1      18.952   6.298  14.527  0.00  0.00     0.009 A 
ENDBRANCH  21  34
ENDBRANCH   1  21
TORSDOF 8
ENDMDL
MODEL 5
REMARK VINA RESULT:      -9.3      0.544      2.146
REMARK  8 active torsions:
REMARK  status: ('A' for Active; 'I' for Inactive)
REMARK    1  A    between atoms: C5_5  and  C6_6 
REMARK    2  A    between atoms: N9_9  and  C10_10 
REMARK    3  A    between atoms: N19_17  and  C21_19 
REMARK    4  A    between atoms: C21_19  and  C22_20 
REMARK    5  A    between atoms: C22_20  and  C23_21 
REMARK    6  A    between atoms: C23_21  and  N25_22 
REMARK    7  A    between atoms: C23_21  and  C36_33 
REMARK       I    between atoms: N25_22  and  C26_23 
REMARK    8  A    between atoms: C26_23  and  C28_25 
ROOT
ATOM      1  C22 ZIN A   1      18.394  -2.845  12.609  0.00  0.00     0.057 C 
ENDROOT
BRANCH   1   2
ATOM      2  C21 ZIN A   1      17.612  -3.780  11.684  0.00  0.00     0.238 C 
BRANCH   2   3
ATOM      3  N19 ZIN A   1      18.548  -4.671  10.984  0.00  0.00    -0.062 N 
ATOM      4  C12 ZIN A   1      17.868  -5.909  10.519  0.00  0.00     0.190 C 
ATOM      5  C11 ZIN A   1      16.540  -5.486   9.872  0.00  0.00     0.059 C 
ATOM      6  C14 ZIN A   1      18.782  -6.466   9.403  0.00  0.00     0.035 C 
ATOM      7  C10 ZIN A   1      16.840  -4.637   8.634  0.00  0.00     0.097 C 
ATOM      8  C18 ZIN A   1      17.760  -3.473   9.015  0.00  0.00     0.059 C 
ATOM      9  C16 ZIN A   1      19.012  -4.047   9.699  0.00  0.00     0.190 C 
ATOM     10  C15 ZIN A   1      19.537  -5.236   8.860  0.00  0.00     0.035 C 
ATOM     11  H20 ZIN A   1      19.334  -4.895  11.574  0.00  0.00     0.280 HD
BRANCH   7  12
ATOM     12  N9  ZIN A   1      17.499  -5.467   7.622  0.00  0.00    -0.315 N 
ATOM     13  C2  ZIN A   1      17.385  -6.809   7.469  0.00  0.00     0.126 A 
ATOM     14  C1  ZIN A   1      16.546  -7.737   8.310  0.00  0.00     0.093 C 
ATOM     15  N3  ZIN A   1      18.133  -7.148   6.454  0.00  0.00    -0.135 NA
ATOM     16  N4  ZIN A   1      18.706  -6.104   5.971  0.00  0.00    -0.134 NA
ATOM     17  C5  ZIN A   1      18.351  -5.051   6.655  0.00  0.00     0.134 A 
BRANCH  17  18
ATOM     18  C6  ZIN A   1      18.801  -3.633   6.411  0.00  0.00     0.049 C 
ATOM     19  C7  ZIN A   1      20.320  -3.604   6.234  0.00  0.00     0.018 C 
ATOM     20  C8  ZIN A   1      18.129  -3.095   5.146  0.00  0.00     0.018 C 
ENDBRANCH  17  18
ENDBRANCH   7  12
ENDBRANCH   2   3
ENDBRANCH   1   2
BRANCH   1  21
ATOM     21  C23 ZIN A   1      17.745  -1.460  12.601  0.00  0.00     0.119 C 
BRANCH  21  22
ATOM     22  N25 ZIN A   1      18.062  -0.780  11.342  0.00  0.00    -0.352 N 
ATOM     23  C26 ZIN A   1      17.101  -0.106  10.682  0.00  0.00     0.222 C 
ATOM     24  O27 ZIN A   1      15.975  -0.061  11.128  0.00  0.00    -0.273 OA
ATOM     25  H65 ZIN A   1      18.963  -0.815  10.985  0.00  0.00     0.163 HD
BRANCH  23  26
ATOM     26  C28 ZIN A   1      17.427   0.594   9.387  0.00  0.00     0.078 C 
ATOM     27  C35 ZIN A   1      17.064  -0.315   8.210  0.00  0.00     0.020 C 
ATOM     28  C34 ZIN A   1      17.394   0.395   6.896  0.00  0.00     0.080 C 
ATOM     29  C31 ZIN A   1      18.890   0.714   6.852  0.00  0.00     0.243 C 
ATOM     30  C30 ZIN A   1      19.252   1.624   8.028  0.00  0.00     0.080 C 
ATOM     31  F32 ZIN A   1      19.193   1.364   5.650  0.00  0.00    -0.206 F 
ATOM     32  F33 ZIN A   1      19.624  -0.473   6.937  0.00  0.00    -0.206 F 
ATOM     33  C29 ZIN A   1      18.923   0.913   9.342  0.00  0.00     0.020 C 
ENDBRANCH  23  26
ENDBRANCH  21  22
BRANCH  21  34
ATOM     34  C36 ZIN A   1      18.276  -0.650  13.756  0.00  0.00    -0.035 A 
ATOM     35  C41 ZIN A   1      18.385  -1.225  15.009  0.00  0.00     0.009 A 
ATOM     36  C40 ZIN A   1      18.877  -0.483  16.068  0.00  0.00     0.001 A 
ATOM     37  C39 ZIN A   1      19.251   0.833  15.876  0.00  0.00     0.000 A 
ATOM     38  C38 ZIN A   1      19.136   1.409  14.624  0.00  0.00     0.001 A 
ATOM     39  C37 ZIN A   1      18.650   0.667  13.564  0.00  0.00     0.009 A 
ENDBRANCH  21  34
ENDBRANCH   1  21
TORSDOF 8
ENDMDL
MODEL 6
REMARK VINA RESULT:      -8.9      2.404      7.482
REMARK  8 active torsions:
REMARK  status: ('A' for Active; 'I' for Inactive)
REMARK    1  A    between atoms: C5_5  and  C6_6 
REMARK    2  A    between atoms: N9_9  and  C10_10 
REMARK    3  A    between atoms: N19_17  and  C21_19 
REMARK    4  A    between atoms: C21_19  and  C22_20 
REMARK    5  A    between atoms: C22_20  and  C23_21 
REMARK    6  A    between atoms: C23_21  and  N25_22 
REMARK    7  A    between atoms: C23_21  and  C36_33 
REMARK       I    between atoms: N25_22  and  C26_23 
REMARK    8  A    between atoms: C26_23  and  C28_25 
ROOT
ATOM      1  C22 ZIN A   1      19.454  -4.176  10.971  0.00  0.00     0.057 C 
ENDROOT
BRANCH   1   2
ATOM      2  C21 ZIN A   1      18.767  -2.845  11.282  0.00  0.00     0.238 C 
BRANCH   2   3
ATOM      3  N19 ZIN A   1      19.656  -2.016  12.108  0.00  0.00    -0.062 N 
ATOM      4  C12 ZIN A   1      19.754  -0.632  11.574  0.00  0.00     0.190 C 
ATOM      5  C11 ZIN A   1      18.327  -0.172  11.235  0.00  0.00     0.059 C 
ATOM      6  C14 ZIN A   1      20.254   0.216  12.766  0.00  0.00     0.035 C 
ATOM      7  C10 ZIN A   1      17.507  -0.106  12.525  0.00  0.00     0.097 C 
ATOM      8  C18 ZIN A   1      17.583  -1.451  13.256  0.00  0.00     0.059 C 
ATOM      9  C16 ZIN A   1      19.064  -1.803  13.472  0.00  0.00     0.190 C 
ATOM     10  C15 ZIN A   1      19.797  -0.557  14.020  0.00  0.00     0.035 C 
ATOM     11  H20 ZIN A   1      20.569  -2.438  12.179  0.00  0.00     0.280 HD
BRANCH   7  12
ATOM     12  N9  ZIN A   1      18.043   0.948  13.391  0.00  0.00    -0.315 N 
ATOM     13  C2  ZIN A   1      18.061   0.960  14.745  0.00  0.00     0.126 A 
ATOM     14  C1  ZIN A   1      17.534  -0.120  15.656  0.00  0.00     0.093 C 
ATOM     15  N3  ZIN A   1      18.624   2.078  15.116  0.00  0.00    -0.135 NA
ATOM     16  N4  ZIN A   1      18.952   2.762  14.078  0.00  0.00    -0.134 NA
ATOM     17  C5  ZIN A   1      18.614   2.112  12.998  0.00  0.00     0.134 A 
BRANCH  17  18
ATOM     18  C6  ZIN A   1      18.824   2.570  11.577  0.00  0.00     0.049 C 
ATOM     19  C7  ZIN A   1      17.602   3.363  11.111  0.00  0.00     0.018 C 
ATOM     20  C8  ZIN A   1      20.068   3.459  11.506  0.00  0.00     0.018 C 
ENDBRANCH  17  18
ENDBRANCH   7  12
ENDBRANCH   2   3
ENDBRANCH   1   2
BRANCH   1  21
ATOM     21  C23 ZIN A   1      19.421  -4.425   9.462  0.00  0.00     0.119 C 
BRANCH  21  22
ATOM     22  N25 ZIN A   1      19.283  -3.147   8.759  0.00  0.00    -0.352 N 
ATOM     23  C26 ZIN A   1      19.631  -3.051   7.461  0.00  0.00     0.222 C 
ATOM     24  O27 ZIN A   1      20.058  -4.022   6.874  0.00  0.00    -0.273 OA
ATOM     25  H65 ZIN A   1      18.940  -2.370   9.228  0.00  0.00     0.163 HD
BRANCH  23  26
ATOM     26  C28 ZIN A   1      19.488  -1.736   6.738  0.00  0.00     0.078 C 
ATOM     27  C35 ZIN A   1      19.008  -0.664   7.718  0.00  0.00     0.020 C 
ATOM     28  C34 ZIN A   1      18.863   0.670   6.985  0.00  0.00     0.080 C 
ATOM     29  C31 ZIN A   1      17.844   0.521   5.853  0.00  0.00     0.243 C 
ATOM     30  C30 ZIN A   1      18.325  -0.551   4.872  0.00  0.00     0.080 C 
ATOM     31  F32 ZIN A   1      17.711   1.741   5.181  0.00  0.00    -0.206 F 
ATOM     32  F33 ZIN A   1      16.607   0.145   6.385  0.00  0.00    -0.206 F 
ATOM     33  C29 ZIN A   1      18.469  -1.886   5.606  0.00  0.00     0.020 C 
ENDBRANCH  23  26
ENDBRANCH  21  22
BRANCH  21  34
ATOM     34  C36 ZIN A   1      18.250  -5.313   9.125  0.00  0.00    -0.035 A 
ATOM     35  C41 ZIN A   1      18.469  -6.576   8.606  0.00  0.00     0.009 A 
ATOM     36  C40 ZIN A   1      17.395  -7.391   8.301  0.00  0.00     0.001 A 
ATOM     37  C39 ZIN A   1      16.104  -6.942   8.506  0.00  0.00     0.000 A 
ATOM     38  C38 ZIN A   1      15.887  -5.677   9.019  0.00  0.00     0.001 A 
ATOM     39  C37 ZIN A   1      16.960  -4.863   9.330  0.00  0.00     0.009 A 
ENDBRANCH  21  34
ENDBRANCH   1  21
TORSDOF 8
ENDMDL
MODEL 7
REMARK VINA RESULT:      -8.9      5.166      9.078
REMARK  8 active torsions:
REMARK  status: ('A' for Active; 'I' for Inactive)
REMARK    1  A    between atoms: C5_5  and  C6_6 
REMARK    2  A    between atoms: N9_9  and  C10_10 
REMARK    3  A    between atoms: N19_17  and  C21_19 
REMARK    4  A    between atoms: C21_19  and  C22_20 
REMARK    5  A    between atoms: C22_20  and  C23_21 
REMARK    6  A    between atoms: C23_21  and  N25_22 
REMARK    7  A    between atoms: C23_21  and  C36_33 
REMARK       I    between atoms: N25_22  and  C26_23 
REMARK    8  A    between atoms: C26_23  and  C28_25 
ROOT
ATOM      1  C22 ZIN A   1      17.948  -0.219  11.116  0.00  0.00     0.057 C 
ENDROOT
BRANCH   1   2
ATOM      2  C21 ZIN A   1      18.688  -0.519  12.421  0.00  0.00     0.238 C 
BRANCH   2   3
ATOM      3  N19 ZIN A   1      17.739  -0.481  13.543  0.00  0.00    -0.062 N 
ATOM      4  C12 ZIN A   1      18.197  -1.342  14.666  0.00  0.00     0.190 C 
ATOM      5  C11 ZIN A   1      19.692  -1.056  14.881  0.00  0.00     0.059 C 
ATOM      6  C14 ZIN A   1      17.432  -0.815  15.903  0.00  0.00     0.035 C 
ATOM      7  C10 ZIN A   1      19.860   0.400  15.322  0.00  0.00     0.097 C 
ATOM      8  C18 ZIN A   1      19.174   1.329  14.315  0.00  0.00     0.059 C 
ATOM      9  C16 ZIN A   1      17.709   0.886  14.164  0.00  0.00     0.190 C 
ATOM     10  C15 ZIN A   1      17.111   0.657  15.572  0.00  0.00     0.035 C 
ATOM     11  H20 ZIN A   1      16.817  -0.753  13.237  0.00  0.00     0.280 HD
BRANCH   7  12
ATOM     12  N9  ZIN A   1      19.252   0.582  16.644  0.00  0.00    -0.315 N 
ATOM     13  C2  ZIN A   1      19.045  -0.372  17.583  0.00  0.00     0.126 A 
ATOM     14  C1  ZIN A   1      19.403  -1.832  17.469  0.00  0.00     0.093 C 
ATOM     15  N3  ZIN A   1      18.483   0.208  18.608  0.00  0.00    -0.135 NA
ATOM     16  N4  ZIN A   1      18.324   1.460  18.363  0.00  0.00    -0.134 NA
ATOM     17  C5  ZIN A   1      18.778   1.736  17.171  0.00  0.00     0.134 A 
BRANCH  17  18
ATOM     18  C6  ZIN A   1      18.778   3.088  16.505  0.00  0.00     0.049 C 
ATOM     19  C7  ZIN A   1      17.751   3.993  17.189  0.00  0.00     0.018 C 
ATOM     20  C8  ZIN A   1      20.169   3.715  16.623  0.00  0.00     0.018 C 
ENDBRANCH  17  18
ENDBRANCH   7  12
ENDBRANCH   2   3
ENDBRANCH   1   2
BRANCH   1  21
ATOM     21  C23 ZIN A   1      18.681   0.889  10.358  0.00  0.00     0.119 C 
BRANCH  21  22
ATOM     22  N25 ZIN A   1      18.219   2.196  10.836  0.00  0.00    -0.352 N 
ATOM     23  C26 ZIN A   1      19.108   3.094  11.303  0.00  0.00     0.222 C 
ATOM     24  O27 ZIN A   1      20.290   2.823  11.326  0.00  0.00    -0.273 OA
ATOM     25  H65 ZIN A   1      17.274   2.413  10.817  0.00  0.00     0.163 HD
BRANCH  23  26
ATOM     26  C28 ZIN A   1      18.634   4.438  11.794  0.00  0.00     0.078 C 
ATOM     27  C35 ZIN A   1      19.073   4.633  13.247  0.00  0.00     0.020 C 
ATOM     28  C34 ZIN A   1      18.592   5.997  13.746  0.00  0.00     0.080 C 
ATOM     29  C31 ZIN A   1      17.065   6.060  13.662  0.00  0.00     0.243 C 
ATOM     30  C30 ZIN A   1      16.627   5.865  12.209  0.00  0.00     0.080 C 
ATOM     31  F32 ZIN A   1      16.625   7.308  14.119  0.00  0.00    -0.206 F 
ATOM     32  F33 ZIN A   1      16.512   5.051  14.456  0.00  0.00    -0.206 F 
ATOM     33  C29 ZIN A   1      17.107   4.501  11.710  0.00  0.00     0.020 C 
ENDBRANCH  23  26
ENDBRANCH  21  22
BRANCH  21  34
ATOM     34  C36 ZIN A   1      18.392   0.764   8.884  0.00  0.00    -0.035 A 
ATOM     35  C41 ZIN A   1      17.378  -0.068   8.448  0.00  0.00     0.009 A 
ATOM     36  C40 ZIN A   1      17.110  -0.179   7.096  0.00  0.00     0.001 A 
ATOM     37  C39 ZIN A   1      17.861   0.534   6.180  0.00  0.00     0.000 A 
ATOM     38  C38 ZIN A   1      18.879   1.362   6.617  0.00  0.00     0.001 A 
ATOM     39  C37 ZIN A   1      19.144   1.477   7.969  0.00  0.00     0.009 A 
ENDBRANCH  21  34
ENDBRANCH   1  21
TORSDOF 8
ENDMDL
MODEL 8
REMARK VINA RESULT:      -8.8      2.313      7.429
REMARK  8 active torsions:
REMARK  status: ('A' for Active; 'I' for Inactive)
REMARK    1  A    between atoms: C5_5  and  C6_6 
REMARK    2  A    between atoms: N9_9  and  C10_10 
REMARK    3  A    between atoms: N19_17  and  C21_19 
REMARK    4  A    between atoms: C21_19  and  C22_20 
REMARK    5  A    between atoms: C22_20  and  C23_21 
REMARK    6  A    between atoms: C23_21  and  N25_22 
REMARK    7  A    between atoms: C23_21  and  C36_33 
REMARK       I    between atoms: N25_22  and  C26_23 
REMARK    8  A    between atoms: C26_23  and  C28_25 
ROOT
ATOM      1  C22 ZIN A   1      19.047  -4.469  11.090  0.00  0.00     0.057 C 
ENDROOT
BRANCH   1   2
ATOM      2  C21 ZIN A   1      19.475  -3.039  11.423  0.00  0.00     0.238 C 
BRANCH   2   3
ATOM      3  N19 ZIN A   1      18.308  -2.272  11.880  0.00  0.00    -0.062 N 
ATOM      4  C12 ZIN A   1      18.374  -2.006  13.341  0.00  0.00     0.190 C 
ATOM      5  C11 ZIN A   1      19.804  -1.538  13.655  0.00  0.00     0.059 C 
ATOM      6  C14 ZIN A   1      17.424  -0.807  13.568  0.00  0.00     0.035 C 
ATOM      7  C10 ZIN A   1      20.061  -0.211  12.937  0.00  0.00     0.097 C 
ATOM      8  C18 ZIN A   1      19.756  -0.363  11.444  0.00  0.00     0.059 C 
ATOM      9  C16 ZIN A   1      18.320  -0.890  11.291  0.00  0.00     0.190 C 
ATOM     10  C15 ZIN A   1      17.388  -0.070  12.214  0.00  0.00     0.035 C 
ATOM     11  H20 ZIN A   1      17.453  -2.751  11.642  0.00  0.00     0.280 HD
BRANCH   7  12
ATOM     12  N9  ZIN A   1      19.196   0.827  13.507  0.00  0.00    -0.315 N 
ATOM     13  C2  ZIN A   1      18.673   0.856  14.756  0.00  0.00     0.126 A 
ATOM     14  C1  ZIN A   1      18.877  -0.177  15.835  0.00  0.00     0.093 C 
ATOM     15  N3  ZIN A   1      17.965   1.948  14.855  0.00  0.00    -0.135 NA
ATOM     16  N4  ZIN A   1      18.011   2.596  13.745  0.00  0.00    -0.134 NA
ATOM     17  C5  ZIN A   1      18.751   1.947  12.888  0.00  0.00     0.134 A 
BRANCH  17  18
ATOM     18  C6  ZIN A   1      19.057   2.368  11.474  0.00  0.00     0.049 C 
ATOM     19  C7  ZIN A   1      17.806   2.981  10.842  0.00  0.00     0.018 C 
ATOM     20  C8  ZIN A   1      20.185   3.402  11.482  0.00  0.00     0.018 C 
ENDBRANCH  17  18
ENDBRANCH   7  12
ENDBRANCH   2   3
ENDBRANCH   1   2
BRANCH   1  21
ATOM     21  C23 ZIN A   1      19.137  -4.689   9.579  0.00  0.00     0.119 C 
BRANCH  21  22
ATOM     22  N25 ZIN A   1      19.133  -3.392   8.896  0.00  0.00    -0.352 N 
ATOM     23  C26 ZIN A   1      19.597  -3.294   7.635  0.00  0.00     0.222 C 
ATOM     24  O27 ZIN A   1      20.018  -4.277   7.064  0.00  0.00    -0.273 OA
ATOM     25  H65 ZIN A   1      18.796  -2.605   9.352  0.00  0.00     0.163 HD
BRANCH  23  26
ATOM     26  C28 ZIN A   1      19.592  -1.960   6.932  0.00  0.00     0.078 C 
ATOM     27  C35 ZIN A   1      18.883  -0.924   7.808  0.00  0.00     0.020 C 
ATOM     28  C34 ZIN A   1      18.878   0.429   7.095  0.00  0.00     0.080 C 
ATOM     29  C31 ZIN A   1      18.140   0.299   5.761  0.00  0.00     0.243 C 
ATOM     30  C30 ZIN A   1      18.850  -0.736   4.885  0.00  0.00     0.080 C 
ATOM     31  F32 ZIN A   1      18.135   1.537   5.108  0.00  0.00    -0.206 F 
ATOM     32  F33 ZIN A   1      16.824  -0.111   5.993  0.00  0.00    -0.206 F 
ATOM     33  C29 ZIN A   1      18.855  -2.090   5.598  0.00  0.00     0.020 C 
ENDBRANCH  23  26
ENDBRANCH  21  22
BRANCH  21  34
ATOM     34  C36 ZIN A   1      17.955  -5.503   9.118  0.00  0.00    -0.035 A 
ATOM     35  C41 ZIN A   1      16.673  -5.014   9.288  0.00  0.00     0.009 A 
ATOM     36  C40 ZIN A   1      15.589  -5.758   8.861  0.00  0.00     0.001 A 
ATOM     37  C39 ZIN A   1      15.785  -6.994   8.273  0.00  0.00     0.000 A 
ATOM     38  C38 ZIN A   1      17.068  -7.484   8.109  0.00  0.00     0.001 A 
ATOM     39  C37 ZIN A   1      18.153  -6.738   8.531  0.00  0.00     0.009 A 
ENDBRANCH  21  34
ENDBRANCH   1  21
TORSDOF 8
ENDMDL
MODEL 9
REMARK VINA RESULT:      -8.7      3.311      8.052
REMARK  8 active torsions:
REMARK  status: ('A' for Active; 'I' for Inactive)
REMARK    1  A    between atoms: C5_5  and  C6_6 
REMARK    2  A    between atoms: N9_9  and  C10_10 
REMARK    3  A    between atoms: N19_17  and  C21_19 
REMARK    4  A    between atoms: C21_19  and  C22_20 
REMARK    5  A    between atoms: C22_20  and  C23_21 
REMARK    6  A    between atoms: C23_21  and  N25_22 
REMARK    7  A    between atoms: C23_21  and  C36_33 
REMARK       I    between atoms: N25_22  and  C26_23 
REMARK    8  A    between atoms: C26_23  and  C28_25 
ROOT
ATOM      1  C22 ZIN A   1      17.981  -1.414   8.142  0.00  0.00     0.057 C 
ENDROOT
BRANCH   1   2
ATOM      2  C21 ZIN A   1      18.699  -0.610   9.229  0.00  0.00     0.238 C 
BRANCH   2   3
ATOM      3  N19 ZIN A   1      17.769  -0.345  10.336  0.00  0.00    -0.062 N 
ATOM      4  C12 ZIN A   1      18.262  -0.939  11.607  0.00  0.00     0.190 C 
ATOM      5  C11 ZIN A   1      19.755  -0.595  11.724  0.00  0.00     0.059 C 
ATOM      6  C14 ZIN A   1      17.511  -0.170  12.719  0.00  0.00     0.035 C 
ATOM      7  C10 ZIN A   1      19.906   0.923  11.840  0.00  0.00     0.097 C 
ATOM      8  C18 ZIN A   1      19.187   1.606  10.673  0.00  0.00     0.059 C 
ATOM      9  C16 ZIN A   1      17.728   1.123  10.651  0.00  0.00     0.190 C 
ATOM     10  C15 ZIN A   1      17.159   1.193  12.088  0.00  0.00     0.035 C 
ATOM     11  H20 ZIN A   1      16.847  -0.688  10.115  0.00  0.00     0.280 HD
BRANCH   7  12
ATOM     12  N9  ZIN A   1      19.320   1.376  13.105  0.00  0.00    -0.315 N 
ATOM     13  C2  ZIN A   1      19.194   0.659  14.247  0.00  0.00     0.126 A 
ATOM     14  C1  ZIN A   1      19.638  -0.765  14.462  0.00  0.00     0.093 C 
ATOM     15  N3  ZIN A   1      18.621   1.432  15.129  0.00  0.00    -0.135 NA
ATOM     16  N4  ZIN A   1      18.380   2.581  14.606  0.00  0.00    -0.134 NA
ATOM     17  C5  ZIN A   1      18.788   2.594  13.367  0.00  0.00     0.134 A 
BRANCH  17  18
ATOM     18  C6  ZIN A   1      18.690   3.751  12.406  0.00  0.00     0.049 C 
ATOM     19  C7  ZIN A   1      17.412   4.543  12.690  0.00  0.00     0.018 C 
ATOM     20  C8  ZIN A   1      19.906   4.664  12.580  0.00  0.00     0.018 C 
ENDBRANCH  17  18
ENDBRANCH   7  12
ENDBRANCH   2   3
ENDBRANCH   1   2
BRANCH   1  21
ATOM     21  C23 ZIN A   1      18.655  -2.779   7.990  0.00  0.00     0.119 C 
BRANCH  21  22
ATOM     22  N25 ZIN A   1      18.099  -3.470   6.822  0.00  0.00    -0.352 N 
ATOM     23  C26 ZIN A   1      18.718  -3.380   5.630  0.00  0.00     0.222 C 
ATOM     24  O27 ZIN A   1      19.735  -2.728   5.521  0.00  0.00    -0.273 OA
ATOM     25  H65 ZIN A   1      17.286  -3.992   6.909  0.00  0.00     0.163 HD
BRANCH  23  26
ATOM     26  C28 ZIN A   1      18.147  -4.091   4.429  0.00  0.00     0.078 C 
ATOM     27  C35 ZIN A   1      16.980  -3.279   3.863  0.00  0.00     0.020 C 
ATOM     28  C34 ZIN A   1      16.400  -4.000   2.645  0.00  0.00     0.080 C 
ATOM     29  C31 ZIN A   1      15.903  -5.386   3.062  0.00  0.00     0.243 C 
ATOM     30  C30 ZIN A   1      17.071  -6.197   3.627  0.00  0.00     0.080 C 
ATOM     31  F32 ZIN A   1      15.373  -6.046   1.948  0.00  0.00    -0.206 F 
ATOM     32  F33 ZIN A   1      14.912  -5.252   4.040  0.00  0.00    -0.206 F 
ATOM     33  C29 ZIN A   1      17.650  -5.476   4.846  0.00  0.00     0.020 C 
ENDBRANCH  23  26
ENDBRANCH  21  22
BRANCH  21  34
ATOM     34  C36 ZIN A   1      18.405  -3.603   9.226  0.00  0.00    -0.035 A 
ATOM     35  C41 ZIN A   1      17.116  -3.984   9.553  0.00  0.00     0.009 A 
ATOM     36  C40 ZIN A   1      16.887  -4.744  10.685  0.00  0.00     0.001 A 
ATOM     37  C39 ZIN A   1      17.944  -5.116  11.494  0.00  0.00     0.000 A 
ATOM     38  C38 ZIN A   1      19.232  -4.731  11.170  0.00  0.00     0.001 A 
ATOM     39  C37 ZIN A   1      19.462  -3.975  10.036  0.00  0.00     0.009 A 
ENDBRANCH  21  34
ENDBRANCH   1  21
TORSDOF 8
ENDMDL
