MODEL 1
REMARK VINA RESULT:      -8.4      0.000      0.000
REMARK  10 active torsions:
REMARK  status: ('A' for Active; 'I' for Inactive)
REMARK    1  A    between atoms: O2_2  and  C3_3 
REMARK    2  A    between atoms: C8_8  and  O9_9 
REMARK    3  A    between atoms: O9_9  and  C10_10 
REMARK    4  A    between atoms: C10_10  and  C11_11 
REMARK    5  A    between atoms: C11_11  and  O13_12 
REMARK    6  A    between atoms: C11_11  and  C14_13 
REMARK    7  A    between atoms: C14_13  and  N15_14 
REMARK    8  A    between atoms: N19_18  and  C20_19 
REMARK    9  A    between atoms: C20_19  and  C21_20 
REMARK       I    between atoms: C21_20  and  N23_22 
REMARK   10  A    between atoms: N23_22  and  C24_23 
ROOT
ATOM      1  N15 ZIN A   1      19.229   1.759  11.575  0.00  0.00    -0.065 N 
ATOM      2  H16 ZIN A   1      19.331   1.982  10.596  0.00  0.00     0.280 HD
ATOM      3  C17 ZIN A   1      17.974   1.025  11.782  0.00  0.00     0.265 C 
ATOM      4  C18 ZIN A   1      17.990  -0.259  10.948  0.00  0.00     0.300 C 
ATOM      5  N19 ZIN A   1      19.133  -1.088  11.351  0.00  0.00     0.100 N 
ATOM      6  C32 ZIN A   1      20.396  -0.357  11.173  0.00  0.00     0.300 C 
ATOM      7  C33 ZIN A   1      20.361   0.927  12.005  0.00  0.00     0.265 C 
ENDROOT
BRANCH   1   8
ATOM      8  C14 ZIN A   1      19.207   2.999  12.361  0.00  0.00     0.268 C 
BRANCH   8   9
ATOM      9  C11 ZIN A   1      17.873   3.109  13.102  0.00  0.00     0.168 C 
BRANCH   9  10
ATOM     10  C10 ZIN A   1      18.127   3.134  14.610  0.00  0.00     0.209 C 
BRANCH  10  11
ATOM     11  O9  ZIN A   1      19.249   2.303  14.916  0.00  0.00    -0.346 OA
BRANCH  11  12
ATOM     12  C8  ZIN A   1      19.021   1.232  15.724  0.00  0.00     0.102 A 
ATOM     13  C3  ZIN A   1      19.246   1.332  17.094  0.00  0.00     0.101 A 
ATOM     14  C4  ZIN A   1      19.013   0.239  17.912  0.00  0.00     0.039 A 
ATOM     15  C5  ZIN A   1      18.563  -0.950  17.367  0.00  0.00     0.003 A 
ATOM     16  C6  ZIN A   1      18.345  -1.051  16.006  0.00  0.00     0.003 A 
ATOM     17  C7  ZIN A   1      18.576   0.037  15.183  0.00  0.00     0.039 A 
BRANCH  13  18
ATOM     18  O2  ZIN A   1      19.689   2.501  17.629  0.00  0.00    -0.353 OA
ATOM     19  C1  ZIN A   1      18.881   3.096  18.647  0.00  0.00     0.210 C 
ENDBRANCH  13  18
ENDBRANCH  11  12
ENDBRANCH  10  11
ENDBRANCH   9  10
BRANCH   9  20
ATOM     20  O13 ZIN A   1      17.208   4.312  12.710  0.00  0.00    -0.392 OA
ATOM     21  H43 ZIN A   1      16.244   4.258  12.748  0.00  0.00     0.210 HD
ENDBRANCH   9  20
ENDBRANCH   8   9
ENDBRANCH   1   8
BRANCH   5  22
ATOM     22  C20 ZIN A   1      19.150  -2.357  10.612  0.00  0.00     0.375 C 
BRANCH  22  23
ATOM     23  C21 ZIN A   1      18.762  -2.108   9.177  0.00  0.00     0.250 C 
ATOM     24  O22 ZIN A   1      17.629  -2.330   8.809  0.00  0.00    -0.271 OA
ATOM     25  N23 ZIN A   1      19.675  -1.638   8.305  0.00  0.00    -0.325 N 
ATOM     26  H52 ZIN A   1      20.595  -1.513   8.585  0.00  0.00     0.169 HD
BRANCH  25  27
ATOM     27  C24 ZIN A   1      19.295  -1.332   6.993  0.00  0.00     0.046 A 
ATOM     28  C30 ZIN A   1      19.308  -2.319   6.016  0.00  0.00    -0.035 A 
ATOM     29  C29 ZIN A   1      18.927  -2.014   4.724  0.00  0.00     0.009 A 
ATOM     30  C31 ZIN A   1      19.723  -3.723   6.369  0.00  0.00     0.050 C 
ATOM     31  C28 ZIN A   1      18.545  -0.725   4.400  0.00  0.00     0.001 A 
ATOM     32  C27 ZIN A   1      18.537   0.262   5.368  0.00  0.00     0.009 A 
ATOM     33  C25 ZIN A   1      18.911  -0.038   6.664  0.00  0.00    -0.035 A 
ATOM     34  C26 ZIN A   1      18.903   1.038   7.719  0.00  0.00     0.050 C 
ENDBRANCH  25  27
ENDBRANCH  22  23
ENDBRANCH   5  22
TORSDOF 10
ENDMDL
MODEL 2
REMARK VINA RESULT:      -8.4      1.631      3.956
REMARK  10 active torsions:
REMARK  status: ('A' for Active; 'I' for Inactive)
REMARK    1  A    between atoms: O2_2  and  C3_3 
REMARK    2  A    between atoms: C8_8  and  O9_9 
REMARK    3  A    between atoms: O9_9  and  C10_10 
REMARK    4  A    between atoms: C10_10  and  C11_11 
REMARK    5  A    between atoms: C11_11  and  O13_12 
REMARK    6  A    between atoms: C11_11  and  C14_13 
REMARK    7  A    between atoms: C14_13  and  N15_14 
REMARK    8  A    between atoms: N19_18  and  C20_19 
REMARK    9  A    between atoms: C20_19  and  C21_20 
REMARK       I    between atoms: C21_20  and  N23_22 
REMARK   10  A    between atoms: N23_22  and  C24_23 
ROOT
ATOM      1  N15 ZIN A   1      18.062  -0.221  14.029  0.00  0.00    -0.065 N 
ATOM      2  H16 ZIN A   1      17.954  -1.071  14.563  0.00  0.00     0.280 HD
ATOM      3  C17 ZIN A   1      19.442  -0.126  13.533  0.00  0.00     0.265 C 
ATOM      4  C18 ZIN A   1      19.753  -1.341  12.655  0.00  0.00     0.300 C 
ATOM      5  N19 ZIN A   1      18.811  -1.382  11.528  0.00  0.00     0.100 N 
ATOM      6  C32 ZIN A   1      17.424  -1.452  12.010  0.00  0.00     0.300 C 
ATOM      7  C33 ZIN A   1      17.132  -0.236  12.892  0.00  0.00     0.265 C 
ENDROOT
BRANCH   1   8
ATOM      8  C14 ZIN A   1      17.770   0.936  14.885  0.00  0.00     0.268 C 
BRANCH   8   9
ATOM      9  C11 ZIN A   1      19.037   1.774  15.062  0.00  0.00     0.168 C 
BRANCH   9  10
ATOM     10  C10 ZIN A   1      18.802   3.179  14.505  0.00  0.00     0.209 C 
BRANCH  10  11
ATOM     11  O9  ZIN A   1      17.563   3.206  13.792  0.00  0.00    -0.346 OA
BRANCH  11  12
ATOM     12  C8  ZIN A   1      17.585   3.731  12.538  0.00  0.00     0.102 A 
ATOM     13  C3  ZIN A   1      16.873   4.893  12.255  0.00  0.00     0.101 A 
ATOM     14  C4  ZIN A   1      16.897   5.422  10.975  0.00  0.00     0.039 A 
ATOM     15  C5  ZIN A   1      17.624   4.794   9.981  0.00  0.00     0.003 A 
ATOM     16  C6  ZIN A   1      18.327   3.638  10.259  0.00  0.00     0.003 A 
ATOM     17  C7  ZIN A   1      18.306   3.103  11.535  0.00  0.00     0.039 A 
BRANCH  13  18
ATOM     18  O2  ZIN A   1      16.158   5.509  13.234  0.00  0.00    -0.353 OA
ATOM     19  C1  ZIN A   1      16.769   6.632  13.874  0.00  0.00     0.210 C 
ENDBRANCH  13  18
ENDBRANCH  11  12
ENDBRANCH  10  11
ENDBRANCH   9  10
BRANCH   9  20
ATOM     20  O13 ZIN A   1      19.362   1.859  16.451  0.00  0.00    -0.392 OA
ATOM     21  H43 ZIN A   1      18.961   1.166  16.992  0.00  0.00     0.210 HD
ENDBRANCH   9  20
ENDBRANCH   8   9
ENDBRANCH   1   8
BRANCH   5  22
ATOM     22  C20 ZIN A   1      19.114  -2.504  10.630  0.00  0.00     0.375 C 
BRANCH  22  23
ATOM     23  C21 ZIN A   1      18.733  -2.135   9.219  0.00  0.00     0.250 C 
ATOM     24  O22 ZIN A   1      17.580  -2.236   8.857  0.00  0.00    -0.271 OA
ATOM     25  N23 ZIN A   1      19.673  -1.692   8.362  0.00  0.00    -0.325 N 
ATOM     26  H52 ZIN A   1      20.604  -1.662   8.634  0.00  0.00     0.169 HD
BRANCH  25  27
ATOM     27  C24 ZIN A   1      19.307  -1.274   7.078  0.00  0.00     0.046 A 
ATOM     28  C30 ZIN A   1      19.289  -2.183   6.028  0.00  0.00    -0.035 A 
ATOM     29  C29 ZIN A   1      18.921  -1.769   4.764  0.00  0.00     0.009 A 
ATOM     30  C31 ZIN A   1      19.657  -3.623   6.273  0.00  0.00     0.050 C 
ATOM     31  C28 ZIN A   1      18.583  -0.446   4.539  0.00  0.00     0.001 A 
ATOM     32  C27 ZIN A   1      18.606   0.463   5.579  0.00  0.00     0.009 A 
ATOM     33  C25 ZIN A   1      18.967   0.054   6.848  0.00  0.00    -0.035 A 
ATOM     34  C26 ZIN A   1      18.992   1.045   7.983  0.00  0.00     0.050 C 
ENDBRANCH  25  27
ENDBRANCH  22  23
ENDBRANCH   5  22
TORSDOF 10
ENDMDL
MODEL 3
REMARK VINA RESULT:      -8.4      0.076      1.540
REMARK  10 active torsions:
REMARK  status: ('A' for Active; 'I' for Inactive)
REMARK    1  A    between atoms: O2_2  and  C3_3 
REMARK    2  A    between atoms: C8_8  and  O9_9 
REMARK    3  A    between atoms: O9_9  and  C10_10 
REMARK    4  A    between atoms: C10_10  and  C11_11 
REMARK    5  A    between atoms: C11_11  and  O13_12 
REMARK    6  A    between atoms: C11_11  and  C14_13 
REMARK    7  A    between atoms: C14_13  and  N15_14 
REMARK    8  A    between atoms: N19_18  and  C20_19 
REMARK    9  A    between atoms: C20_19  and  C21_20 
REMARK       I    between atoms: C21_20  and  N23_22 
REMARK   10  A    between atoms: N23_22  and  C24_23 
ROOT
ATOM      1  N15 ZIN A   1      19.273   1.735  11.562  0.00  0.00    -0.065 N 
ATOM      2  H16 ZIN A   1      19.398   1.959  10.586  0.00  0.00     0.280 HD
ATOM      3  C17 ZIN A   1      18.000   1.025  11.743  0.00  0.00     0.265 C 
ATOM      4  C18 ZIN A   1      18.008  -0.257  10.907  0.00  0.00     0.300 C 
ATOM      5  N19 ZIN A   1      19.128  -1.109  11.332  0.00  0.00     0.100 N 
ATOM      6  C32 ZIN A   1      20.408  -0.401  11.180  0.00  0.00     0.300 C 
ATOM      7  C33 ZIN A   1      20.380   0.882  12.014  0.00  0.00     0.265 C 
ENDROOT
BRANCH   1   8
ATOM      8  C14 ZIN A   1      19.257   2.974  12.350  0.00  0.00     0.268 C 
BRANCH   8   9
ATOM      9  C11 ZIN A   1      17.921   3.095  13.085  0.00  0.00     0.168 C 
BRANCH   9  10
ATOM     10  C10 ZIN A   1      18.172   3.147  14.593  0.00  0.00     0.209 C 
BRANCH  10  11
ATOM     11  O9  ZIN A   1      19.256   2.277  14.925  0.00  0.00    -0.346 OA
BRANCH  11  12
ATOM     12  C8  ZIN A   1      18.975   1.221  15.735  0.00  0.00     0.102 A 
ATOM     13  C3  ZIN A   1      19.191   1.316  17.106  0.00  0.00     0.101 A 
ATOM     14  C4  ZIN A   1      18.904   0.237  17.926  0.00  0.00     0.039 A 
ATOM     15  C5  ZIN A   1      18.408  -0.933  17.380  0.00  0.00     0.003 A 
ATOM     16  C6  ZIN A   1      18.199  -1.030  16.018  0.00  0.00     0.003 A 
ATOM     17  C7  ZIN A   1      18.485   0.044  15.194  0.00  0.00     0.039 A 
BRANCH  13  18
ATOM     18  O2  ZIN A   1      19.678   2.468  17.641  0.00  0.00    -0.353 OA
ATOM     19  C1  ZIN A   1      18.783   3.241  18.443  0.00  0.00     0.210 C 
ENDBRANCH  13  18
ENDBRANCH  11  12
ENDBRANCH  10  11
ENDBRANCH   9  10
BRANCH   9  20
ATOM     20  O13 ZIN A   1      17.256   4.290  12.671  0.00  0.00    -0.392 OA
ATOM     21  H43 ZIN A   1      17.820   4.906  12.185  0.00  0.00     0.210 HD
ENDBRANCH   9  20
ENDBRANCH   8   9
ENDBRANCH   1   8
BRANCH   5  22
ATOM     22  C20 ZIN A   1      19.136  -2.377  10.590  0.00  0.00     0.375 C 
BRANCH  22  23
ATOM     23  C21 ZIN A   1      18.755  -2.122   9.155  0.00  0.00     0.250 C 
ATOM     24  O22 ZIN A   1      17.627  -2.357   8.776  0.00  0.00    -0.271 OA
ATOM     25  N23 ZIN A   1      19.667  -1.632   8.293  0.00  0.00    -0.325 N 
ATOM     26  H52 ZIN A   1      20.583  -1.496   8.580  0.00  0.00     0.169 HD
BRANCH  25  27
ATOM     27  C24 ZIN A   1      19.292  -1.321   6.981  0.00  0.00     0.046 A 
ATOM     28  C30 ZIN A   1      18.894  -0.030   6.658  0.00  0.00    -0.035 A 
ATOM     29  C29 ZIN A   1      18.532   0.275   5.361  0.00  0.00     0.009 A 
ATOM     30  C31 ZIN A   1      18.872   1.039   7.719  0.00  0.00     0.050 C 
ATOM     31  C28 ZIN A   1      18.553  -0.706   4.386  0.00  0.00     0.001 A 
ATOM     32  C27 ZIN A   1      18.942  -1.994   4.705  0.00  0.00     0.009 A 
ATOM     33  C25 ZIN A   1      19.312  -2.304   5.999  0.00  0.00    -0.035 A 
ATOM     34  C26 ZIN A   1      19.736  -3.708   6.346  0.00  0.00     0.050 C 
ENDBRANCH  25  27
ENDBRANCH  22  23
ENDBRANCH   5  22
TORSDOF 10
ENDMDL
MODEL 4
REMARK VINA RESULT:      -8.3      1.921      9.639
REMARK  10 active torsions:
REMARK  status: ('A' for Active; 'I' for Inactive)
REMARK    1  A    between atoms: O2_2  and  C3_3 
REMARK    2  A    between atoms: C8_8  and  O9_9 
REMARK    3  A    between atoms: O9_9  and  C10_10 
REMARK    4  A    between atoms: C10_10  and  C11_11 
REMARK    5  A    between atoms: C11_11  and  O13_12 
REMARK    6  A    between atoms: C11_11  and  C14_13 
REMARK    7  A    between atoms: C14_13  and  N15_14 
REMARK    8  A    between atoms: N19_18  and  C20_19 
REMARK    9  A    between atoms: C20_19  and  C21_20 
REMARK       I    between atoms: C21_20  and  N23_22 
REMARK   10  A    between atoms: N23_22  and  C24_23 
ROOT
ATOM      1  N15 ZIN A   1      18.832  -3.401  10.105  0.00  0.00    -0.065 N 
ATOM      2  H16 ZIN A   1      18.822  -2.885   9.237  0.00  0.00     0.280 HD
ATOM      3  C17 ZIN A   1      19.991  -2.987  10.907  0.00  0.00     0.265 C 
ATOM      4  C18 ZIN A   1      19.906  -1.485  11.188  0.00  0.00     0.300 C 
ATOM      5  N19 ZIN A   1      18.661  -1.194  11.911  0.00  0.00     0.100 N 
ATOM      6  C32 ZIN A   1      17.492  -1.626  11.131  0.00  0.00     0.300 C 
ATOM      7  C33 ZIN A   1      17.596  -3.127  10.850  0.00  0.00     0.265 C 
ENDROOT
BRANCH   1   8
ATOM      8  C14 ZIN A   1      18.922  -4.839   9.819  0.00  0.00     0.268 C 
BRANCH   8   9
ATOM      9  C11 ZIN A   1      19.221  -5.046   8.333  0.00  0.00     0.168 C 
BRANCH   9  10
ATOM     10  C10 ZIN A   1      18.634  -3.884   7.528  0.00  0.00     0.209 C 
BRANCH  10  11
ATOM     11  O9  ZIN A   1      19.665  -2.937   7.240  0.00  0.00    -0.346 OA
BRANCH  11  12
ATOM     12  C8  ZIN A   1      19.271  -1.700   6.834  0.00  0.00     0.102 A 
ATOM     13  C3  ZIN A   1      19.241  -1.387   5.478  0.00  0.00     0.101 A 
ATOM     14  C4  ZIN A   1      18.841  -0.126   5.070  0.00  0.00     0.039 A 
ATOM     15  C5  ZIN A   1      18.475   0.821   6.010  0.00  0.00     0.003 A 
ATOM     16  C6  ZIN A   1      18.509   0.513   7.356  0.00  0.00     0.003 A 
ATOM     17  C7  ZIN A   1      18.910  -0.745   7.770  0.00  0.00     0.039 A 
BRANCH  13  18
ATOM     18  O2  ZIN A   1      19.601  -2.320   4.556  0.00  0.00    -0.353 OA
ATOM     19  C1  ZIN A   1      18.557  -3.126   4.006  0.00  0.00     0.210 C 
ENDBRANCH  13  18
ENDBRANCH  11  12
ENDBRANCH  10  11
ENDBRANCH   9  10
BRANCH   9  20
ATOM     20  O13 ZIN A   1      20.635  -5.099   8.134  0.00  0.00    -0.392 OA
ATOM     21  H43 ZIN A   1      20.916  -4.839   7.246  0.00  0.00     0.210 HD
ENDBRANCH   9  20
ENDBRANCH   8   9
ENDBRANCH   1   8
BRANCH   5  22
ATOM     22  C20 ZIN A   1      18.570   0.232  12.251  0.00  0.00     0.375 C 
BRANCH  22  23
ATOM     23  C21 ZIN A   1      18.981   0.434  13.687  0.00  0.00     0.250 C 
ATOM     24  O22 ZIN A   1      20.155   0.415  13.989  0.00  0.00    -0.271 OA
ATOM     25  N23 ZIN A   1      18.044   0.637  14.633  0.00  0.00    -0.325 N 
ATOM     26  H52 ZIN A   1      17.102   0.598  14.401  0.00  0.00     0.169 HD
BRANCH  25  27
ATOM     27  C24 ZIN A   1      18.428   0.904  15.952  0.00  0.00     0.046 A 
ATOM     28  C30 ZIN A   1      18.676   2.209  16.354  0.00  0.00    -0.035 A 
ATOM     29  C29 ZIN A   1      19.048   2.470  17.658  0.00  0.00     0.009 A 
ATOM     30  C31 ZIN A   1      18.525   3.342  15.372  0.00  0.00     0.050 C 
ATOM     31  C28 ZIN A   1      19.187   1.430  18.560  0.00  0.00     0.001 A 
ATOM     32  C27 ZIN A   1      18.947   0.128  18.162  0.00  0.00     0.009 A 
ATOM     33  C25 ZIN A   1      18.568  -0.138  16.860  0.00  0.00    -0.035 A 
ATOM     34  C26 ZIN A   1      18.307  -1.557  16.426  0.00  0.00     0.050 C 
ENDBRANCH  25  27
ENDBRANCH  22  23
ENDBRANCH   5  22
TORSDOF 10
ENDMDL
MODEL 5
REMARK VINA RESULT:      -8.3      1.651      9.316
REMARK  10 active torsions:
REMARK  status: ('A' for Active; 'I' for Inactive)
REMARK    1  A    between atoms: O2_2  and  C3_3 
REMARK    2  A    between atoms: C8_8  and  O9_9 
REMARK    3  A    between atoms: O9_9  and  C10_10 
REMARK    4  A    between atoms: C10_10  and  C11_11 
REMARK    5  A    between atoms: C11_11  and  O13_12 
REMARK    6  A    between atoms: C11_11  and  C14_13 
REMARK    7  A    between atoms: C14_13  and  N15_14 
REMARK    8  A    between atoms: N19_18  and  C20_19 
REMARK    9  A    between atoms: C20_19  and  C21_20 
REMARK       I    between atoms: C21_20  and  N23_22 
REMARK   10  A    between atoms: N23_22  and  C24_23 
ROOT
ATOM      1  N15 ZIN A   1      18.628  -2.401  10.875  0.00  0.00    -0.065 N 
ATOM      2  H16 ZIN A   1      18.514  -1.960   9.974  0.00  0.00     0.280 HD
ATOM      3  C17 ZIN A   1      19.966  -2.100  11.401  0.00  0.00     0.265 C 
ATOM      4  C18 ZIN A   1      20.135  -0.585  11.531  0.00  0.00     0.300 C 
ATOM      5  N19 ZIN A   1      19.105  -0.056  12.436  0.00  0.00     0.100 N 
ATOM      6  C32 ZIN A   1      17.759  -0.371  11.935  0.00  0.00     0.300 C 
ATOM      7  C33 ZIN A   1      17.610  -1.888  11.802  0.00  0.00     0.265 C 
ENDROOT
BRANCH   1   8
ATOM      8  C14 ZIN A   1      18.473  -3.854  10.733  0.00  0.00     0.268 C 
BRANCH   8   9
ATOM      9  C11 ZIN A   1      18.611  -4.240   9.259  0.00  0.00     0.168 C 
BRANCH   9  10
ATOM     10  C10 ZIN A   1      18.166  -3.069   8.381  0.00  0.00     0.209 C 
BRANCH  10  11
ATOM     11  O9  ZIN A   1      19.308  -2.293   8.008  0.00  0.00    -0.346 OA
BRANCH  11  12
ATOM     12  C8  ZIN A   1      19.176  -1.483   6.924  0.00  0.00     0.102 A 
ATOM     13  C3  ZIN A   1      18.981  -0.116   7.094  0.00  0.00     0.101 A 
ATOM     14  C4  ZIN A   1      18.847   0.705   5.987  0.00  0.00     0.039 A 
ATOM     15  C5  ZIN A   1      18.902   0.165   4.715  0.00  0.00     0.003 A 
ATOM     16  C6  ZIN A   1      19.090  -1.193   4.545  0.00  0.00     0.003 A 
ATOM     17  C7  ZIN A   1      19.224  -2.019   5.647  0.00  0.00     0.039 A 
BRANCH  13  18
ATOM     18  O2  ZIN A   1      18.927   0.414   8.346  0.00  0.00    -0.353 OA
ATOM     19  C1  ZIN A   1      19.324   1.780   8.490  0.00  0.00     0.210 C 
ENDBRANCH  13  18
ENDBRANCH  11  12
ENDBRANCH  10  11
ENDBRANCH   9  10
BRANCH   9  20
ATOM     20  O13 ZIN A   1      19.975  -4.558   8.975  0.00  0.00    -0.392 OA
ATOM     21  H43 ZIN A   1      20.228  -4.417   8.053  0.00  0.00     0.210 HD
ENDBRANCH   9  20
ENDBRANCH   8   9
ENDBRANCH   1   8
BRANCH   5  22
ATOM     22  C20 ZIN A   1      19.269   1.391  12.632  0.00  0.00     0.375 C 
BRANCH  22  23
ATOM     23  C21 ZIN A   1      18.744   1.776  13.992  0.00  0.00     0.250 C 
ATOM     24  O22 ZIN A   1      17.700   2.384  14.088  0.00  0.00    -0.271 OA
ATOM     25  N23 ZIN A   1      19.435   1.442  15.099  0.00  0.00    -0.325 N 
ATOM     26  H52 ZIN A   1      20.297   1.004  15.020  0.00  0.00     0.169 HD
BRANCH  25  27
ATOM     27  C24 ZIN A   1      18.910   1.729  16.364  0.00  0.00     0.046 A 
ATOM     28  C30 ZIN A   1      19.197   2.940  16.979  0.00  0.00    -0.035 A 
ATOM     29  C29 ZIN A   1      18.672   3.223  18.224  0.00  0.00     0.009 A 
ATOM     30  C31 ZIN A   1      20.069   3.951  16.281  0.00  0.00     0.050 C 
ATOM     31  C28 ZIN A   1      17.871   2.295  18.865  0.00  0.00     0.001 A 
ATOM     32  C27 ZIN A   1      17.588   1.085  18.259  0.00  0.00     0.009 A 
ATOM     33  C25 ZIN A   1      18.105   0.799  17.011  0.00  0.00    -0.035 A 
ATOM     34  C26 ZIN A   1      17.797  -0.520  16.350  0.00  0.00     0.050 C 
ENDBRANCH  25  27
ENDBRANCH  22  23
ENDBRANCH   5  22
TORSDOF 10
ENDMDL
MODEL 6
REMARK VINA RESULT:      -8.3      2.161      8.499
REMARK  10 active torsions:
REMARK  status: ('A' for Active; 'I' for Inactive)
REMARK    1  A    between atoms: O2_2  and  C3_3 
REMARK    2  A    between atoms: C8_8  and  O9_9 
REMARK    3  A    between atoms: O9_9  and  C10_10 
REMARK    4  A    between atoms: C10_10  and  C11_11 
REMARK    5  A    between atoms: C11_11  and  O13_12 
REMARK    6  A    between atoms: C11_11  and  C14_13 
REMARK    7  A    between atoms: C14_13  and  N15_14 
REMARK    8  A    between atoms: N19_18  and  C20_19 
REMARK    9  A    between atoms: C20_19  and  C21_20 
REMARK       I    between atoms: C21_20  and  N23_22 
REMARK   10  A    between atoms: N23_22  and  C24_23 
ROOT
ATOM      1  N15 ZIN A   1      17.741   0.654   8.898  0.00  0.00    -0.065 N 
ATOM      2  H16 ZIN A   1      17.130   1.409   8.624  0.00  0.00     0.280 HD
ATOM      3  C17 ZIN A   1      19.128   1.134   8.937  0.00  0.00     0.265 C 
ATOM      4  C18 ZIN A   1      19.240   2.289   9.936  0.00  0.00     0.300 C 
ATOM      5  N19 ZIN A   1      18.827   1.824  11.267  0.00  0.00     0.100 N 
ATOM      6  C32 ZIN A   1      17.447   1.317  11.238  0.00  0.00     0.300 C 
ATOM      7  C33 ZIN A   1      17.351   0.170  10.229  0.00  0.00     0.265 C 
ENDROOT
BRANCH   1   8
ATOM      8  C14 ZIN A   1      17.629  -0.442   7.927  0.00  0.00     0.268 C 
BRANCH   8   9
ATOM      9  C11 ZIN A   1      19.024  -0.985   7.608  0.00  0.00     0.168 C 
BRANCH   9  10
ATOM     10  C10 ZIN A   1      19.139  -2.425   8.111  0.00  0.00     0.209 C 
BRANCH  10  11
ATOM     11  O9  ZIN A   1      17.841  -2.910   8.463  0.00  0.00    -0.346 OA
BRANCH  11  12
ATOM     12  C8  ZIN A   1      17.753  -3.682   9.580  0.00  0.00     0.102 A 
ATOM     13  C3  ZIN A   1      17.044  -4.878   9.547  0.00  0.00     0.101 A 
ATOM     14  C4  ZIN A   1      16.956  -5.660  10.688  0.00  0.00     0.039 A 
ATOM     15  C5  ZIN A   1      17.569  -5.247  11.857  0.00  0.00     0.003 A 
ATOM     16  C6  ZIN A   1      18.269  -4.057  11.892  0.00  0.00     0.003 A 
ATOM     17  C7  ZIN A   1      18.359  -3.271  10.757  0.00  0.00     0.039 A 
BRANCH  13  18
ATOM     18  O2  ZIN A   1      16.442  -5.282   8.397  0.00  0.00    -0.353 OA
ATOM     19  C1  ZIN A   1      15.141  -5.863   8.514  0.00  0.00     0.210 C 
ENDBRANCH  13  18
ENDBRANCH  11  12
ENDBRANCH  10  11
ENDBRANCH   9  10
BRANCH   9  20
ATOM     20  O13 ZIN A   1      19.235  -0.955   6.195  0.00  0.00    -0.392 OA
ATOM     21  H43 ZIN A   1      18.779  -0.231   5.745  0.00  0.00     0.210 HD
ENDBRANCH   9  20
ENDBRANCH   8   9
ENDBRANCH   1   8
BRANCH   5  22
ATOM     22  C20 ZIN A   1      18.975   2.891  12.266  0.00  0.00     0.375 C 
BRANCH  22  23
ATOM     23  C21 ZIN A   1      18.611   2.357  13.628  0.00  0.00     0.250 C 
ATOM     24  O22 ZIN A   1      17.531   2.616  14.112  0.00  0.00    -0.271 OA
ATOM     25  N23 ZIN A   1      19.487   1.590  14.306  0.00  0.00    -0.325 N 
ATOM     26  H52 ZIN A   1      20.373   1.427  13.944  0.00  0.00     0.169 HD
BRANCH  25  27
ATOM     27  C24 ZIN A   1      19.120   1.028  15.534  0.00  0.00     0.046 A 
ATOM     28  C30 ZIN A   1      19.224   1.776  16.700  0.00  0.00    -0.035 A 
ATOM     29  C29 ZIN A   1      18.855   1.221  17.910  0.00  0.00     0.009 A 
ATOM     30  C31 ZIN A   1      19.724   3.196  16.643  0.00  0.00     0.050 C 
ATOM     31  C28 ZIN A   1      18.395  -0.083  17.963  0.00  0.00     0.001 A 
ATOM     32  C27 ZIN A   1      18.297  -0.832  16.805  0.00  0.00     0.009 A 
ATOM     33  C25 ZIN A   1      18.658  -0.281  15.591  0.00  0.00    -0.035 A 
ATOM     34  C26 ZIN A   1      18.551  -1.098  14.330  0.00  0.00     0.050 C 
ENDBRANCH  25  27
ENDBRANCH  22  23
ENDBRANCH   5  22
TORSDOF 10
ENDMDL
MODEL 7
REMARK VINA RESULT:      -8.2      2.267      8.589
REMARK  10 active torsions:
REMARK  status: ('A' for Active; 'I' for Inactive)
REMARK    1  A    between atoms: O2_2  and  C3_3 
REMARK    2  A    between atoms: C8_8  and  O9_9 
REMARK    3  A    between atoms: O9_9  and  C10_10 
REMARK    4  A    between atoms: C10_10  and  C11_11 
REMARK    5  A    between atoms: C11_11  and  O13_12 
REMARK    6  A    between atoms: C11_11  and  C14_13 
REMARK    7  A    between atoms: C14_13  and  N15_14 
REMARK    8  A    between atoms: N19_18  and  C20_19 
REMARK    9  A    between atoms: C20_19  and  C21_20 
REMARK       I    between atoms: C21_20  and  N23_22 
REMARK   10  A    between atoms: N23_22  and  C24_23 
ROOT
ATOM      1  N15 ZIN A   1      19.190  -0.245   7.845  0.00  0.00    -0.065 N 
ATOM      2  H16 ZIN A   1      20.175  -0.132   7.653  0.00  0.00     0.280 HD
ATOM      3  C17 ZIN A   1      19.018  -0.989   9.100  0.00  0.00     0.265 C 
ATOM      4  C18 ZIN A   1      19.693  -0.226  10.242  0.00  0.00     0.300 C 
ATOM      5  N19 ZIN A   1      19.092   1.110  10.359  0.00  0.00     0.100 N 
ATOM      6  C32 ZIN A   1      19.234   1.858   9.101  0.00  0.00     0.300 C 
ATOM      7  C33 ZIN A   1      18.562   1.078   7.968  0.00  0.00     0.265 C 
ENDROOT
BRANCH   1   8
ATOM      8  C14 ZIN A   1      18.558  -0.986   6.746  0.00  0.00     0.268 C 
BRANCH   8   9
ATOM      9  C11 ZIN A   1      19.590  -1.906   6.091  0.00  0.00     0.168 C 
BRANCH   9  10
ATOM     10  C10 ZIN A   1      19.074  -3.346   6.110  0.00  0.00     0.209 C 
BRANCH  10  11
ATOM     11  O9  ZIN A   1      19.522  -3.997   7.301  0.00  0.00    -0.346 OA
BRANCH  11  12
ATOM     12  C8  ZIN A   1      18.590  -4.677   8.022  0.00  0.00     0.102 A 
ATOM     13  C3  ZIN A   1      18.833  -4.992   9.355  0.00  0.00     0.101 A 
ATOM     14  C4  ZIN A   1      17.882  -5.685  10.084  0.00  0.00     0.039 A 
ATOM     15  C5  ZIN A   1      16.695  -6.066   9.485  0.00  0.00     0.003 A 
ATOM     16  C6  ZIN A   1      16.455  -5.758   8.160  0.00  0.00     0.003 A 
ATOM     17  C7  ZIN A   1      17.402  -5.067   7.426  0.00  0.00     0.039 A 
BRANCH  13  18
ATOM     18  O2  ZIN A   1      20.001  -4.616   9.942  0.00  0.00    -0.353 OA
ATOM     19  C1  ZIN A   1      19.933  -4.178  11.301  0.00  0.00     0.210 C 
ENDBRANCH  13  18
ENDBRANCH  11  12
ENDBRANCH  10  11
ENDBRANCH   9  10
BRANCH   9  20
ATOM     20  O13 ZIN A   1      19.806  -1.494   4.740  0.00  0.00    -0.392 OA
ATOM     21  H43 ZIN A   1      20.572  -0.917   4.624  0.00  0.00     0.210 HD
ENDBRANCH   9  20
ENDBRANCH   8   9
ENDBRANCH   1   8
BRANCH   5  22
ATOM     22  C20 ZIN A   1      19.675   1.854  11.483  0.00  0.00     0.375 C 
BRANCH  22  23
ATOM     23  C21 ZIN A   1      19.018   1.419  12.768  0.00  0.00     0.250 C 
ATOM     24  O22 ZIN A   1      17.809   1.408  12.858  0.00  0.00    -0.271 OA
ATOM     25  N23 ZIN A   1      19.775   1.040  13.816  0.00  0.00    -0.325 N 
ATOM     26  H52 ZIN A   1      20.742   1.101  13.765  0.00  0.00     0.169 HD
BRANCH  25  27
ATOM     27  C24 ZIN A   1      19.167   0.561  14.982  0.00  0.00     0.046 A 
ATOM     28  C30 ZIN A   1      18.888   1.429  16.029  0.00  0.00    -0.035 A 
ATOM     29  C29 ZIN A   1      18.281   0.954  17.175  0.00  0.00     0.009 A 
ATOM     30  C31 ZIN A   1      19.234   2.890  15.909  0.00  0.00     0.050 C 
ATOM     31  C28 ZIN A   1      17.963  -0.388  17.285  0.00  0.00     0.001 A 
ATOM     32  C27 ZIN A   1      18.245  -1.256  16.247  0.00  0.00     0.009 A 
ATOM     33  C25 ZIN A   1      18.846  -0.786  15.096  0.00  0.00    -0.035 A 
ATOM     34  C26 ZIN A   1      19.154  -1.733  13.965  0.00  0.00     0.050 C 
ENDBRANCH  25  27
ENDBRANCH  22  23
ENDBRANCH   5  22
TORSDOF 10
ENDMDL
MODEL 8
REMARK VINA RESULT:      -8.2      1.958      3.579
REMARK  10 active torsions:
REMARK  status: ('A' for Active; 'I' for Inactive)
REMARK    1  A    between atoms: O2_2  and  C3_3 
REMARK    2  A    between atoms: C8_8  and  O9_9 
REMARK    3  A    between atoms: O9_9  and  C10_10 
REMARK    4  A    between atoms: C10_10  and  C11_11 
REMARK    5  A    between atoms: C11_11  and  O13_12 
REMARK    6  A    between atoms: C11_11  and  C14_13 
REMARK    7  A    between atoms: C14_13  and  N15_14 
REMARK    8  A    between atoms: N19_18  and  C20_19 
REMARK    9  A    between atoms: C20_19  and  C21_20 
REMARK       I    between atoms: C21_20  and  N23_22 
REMARK   10  A    between atoms: N23_22  and  C24_23 
ROOT
ATOM      1  N15 ZIN A   1      18.521   2.666  11.356  0.00  0.00    -0.065 N 
ATOM      2  H16 ZIN A   1      19.471   2.685  11.698  0.00  0.00     0.280 HD
ATOM      3  C17 ZIN A   1      18.512   2.966   9.918  0.00  0.00     0.265 C 
ATOM      4  C18 ZIN A   1      19.360   1.931   9.175  0.00  0.00     0.300 C 
ATOM      5  N19 ZIN A   1      18.812   0.589   9.416  0.00  0.00     0.100 N 
ATOM      6  C32 ZIN A   1      18.791   0.284  10.854  0.00  0.00     0.300 C 
ATOM      7  C33 ZIN A   1      17.948   1.332  11.582  0.00  0.00     0.265 C 
ENDROOT
BRANCH   1   8
ATOM      8  C14 ZIN A   1      17.723   3.670  12.071  0.00  0.00     0.268 C 
BRANCH   8   9
ATOM      9  C11 ZIN A   1      18.514   4.190  13.272  0.00  0.00     0.168 C 
BRANCH   9  10
ATOM     10  C10 ZIN A   1      18.141   3.383  14.517  0.00  0.00     0.209 C 
BRANCH  10  11
ATOM     11  O9  ZIN A   1      18.996   2.242  14.618  0.00  0.00    -0.346 OA
BRANCH  11  12
ATOM     12  C8  ZIN A   1      19.006   1.582  15.808  0.00  0.00     0.102 A 
ATOM     13  C3  ZIN A   1      18.769   0.212  15.848  0.00  0.00     0.101 A 
ATOM     14  C4  ZIN A   1      18.780  -0.455  17.061  0.00  0.00     0.039 A 
ATOM     15  C5  ZIN A   1      19.022   0.242  18.231  0.00  0.00     0.003 A 
ATOM     16  C6  ZIN A   1      19.253   1.604  18.193  0.00  0.00     0.003 A 
ATOM     17  C7  ZIN A   1      19.242   2.276  16.984  0.00  0.00     0.039 A 
BRANCH  13  18
ATOM     18  O2  ZIN A   1      18.530  -0.472  14.696  0.00  0.00    -0.353 OA
ATOM     19  C1  ZIN A   1      19.599  -1.269  14.182  0.00  0.00     0.210 C 
ENDBRANCH  13  18
ENDBRANCH  11  12
ENDBRANCH  10  11
ENDBRANCH   9  10
BRANCH   9  20
ATOM     20  O13 ZIN A   1      19.913   4.054  13.017  0.00  0.00    -0.392 OA
ATOM     21  H43 ZIN A   1      20.436   4.825  13.272  0.00  0.00     0.210 HD
ENDBRANCH   9  20
ENDBRANCH   8   9
ENDBRANCH   1   8
BRANCH   5  22
ATOM     22  C20 ZIN A   1      19.566  -0.429   8.672  0.00  0.00     0.375 C 
BRANCH  22  23
ATOM     23  C21 ZIN A   1      18.858  -1.755   8.777  0.00  0.00     0.250 C 
ATOM     24  O22 ZIN A   1      17.761  -1.898   8.281  0.00  0.00    -0.271 OA
ATOM     25  N23 ZIN A   1      19.445  -2.782   9.422  0.00  0.00    -0.325 N 
ATOM     26  H52 ZIN A   1      20.297  -2.653   9.867  0.00  0.00     0.169 HD
BRANCH  25  27
ATOM     27  C24 ZIN A   1      18.824  -4.036   9.452  0.00  0.00     0.046 A 
ATOM     28  C30 ZIN A   1      19.058  -4.953   8.436  0.00  0.00    -0.035 A 
ATOM     29  C29 ZIN A   1      18.449  -6.192   8.472  0.00  0.00     0.009 A 
ATOM     30  C31 ZIN A   1      19.988  -4.602   7.304  0.00  0.00     0.050 C 
ATOM     31  C28 ZIN A   1      17.596  -6.515   9.512  0.00  0.00     0.001 A 
ATOM     32  C27 ZIN A   1      17.355  -5.602  10.521  0.00  0.00     0.009 A 
ATOM     33  C25 ZIN A   1      17.966  -4.364  10.495  0.00  0.00    -0.035 A 
ATOM     34  C26 ZIN A   1      17.703  -3.369  11.596  0.00  0.00     0.050 C 
ENDBRANCH  25  27
ENDBRANCH  22  23
ENDBRANCH   5  22
TORSDOF 10
ENDMDL
MODEL 9
REMARK VINA RESULT:      -8.2      2.227      8.384
REMARK  10 active torsions:
REMARK  status: ('A' for Active; 'I' for Inactive)
REMARK    1  A    between atoms: O2_2  and  C3_3 
REMARK    2  A    between atoms: C8_8  and  O9_9 
REMARK    3  A    between atoms: O9_9  and  C10_10 
REMARK    4  A    between atoms: C10_10  and  C11_11 
REMARK    5  A    between atoms: C11_11  and  O13_12 
REMARK    6  A    between atoms: C11_11  and  C14_13 
REMARK    7  A    between atoms: C14_13  and  N15_14 
REMARK    8  A    between atoms: N19_18  and  C20_19 
REMARK    9  A    between atoms: C20_19  and  C21_20 
REMARK       I    between atoms: C21_20  and  N23_22 
REMARK   10  A    between atoms: N23_22  and  C24_23 
ROOT
ATOM      1  N15 ZIN A   1      19.167  -0.480   8.027  0.00  0.00    -0.065 N 
ATOM      2  H16 ZIN A   1      20.173  -0.509   7.952  0.00  0.00     0.280 HD
ATOM      3  C17 ZIN A   1      18.754  -1.042   9.320  0.00  0.00     0.265 C 
ATOM      4  C18 ZIN A   1      19.389  -0.233  10.453  0.00  0.00     0.300 C 
ATOM      5  N19 ZIN A   1      18.960   1.169  10.350  0.00  0.00     0.100 N 
ATOM      6  C32 ZIN A   1      19.345   1.738   9.050  0.00  0.00     0.300 C 
ATOM      7  C33 ZIN A   1      18.710   0.913   7.928  0.00  0.00     0.265 C 
ENDROOT
BRANCH   1   8
ATOM      8  C14 ZIN A   1      18.573  -1.268   6.939  0.00  0.00     0.268 C 
BRANCH   8   9
ATOM      9  C11 ZIN A   1      19.268  -2.628   6.855  0.00  0.00     0.168 C 
BRANCH   9  10
ATOM     10  C10 ZIN A   1      18.236  -3.740   7.052  0.00  0.00     0.209 C 
BRANCH  10  11
ATOM     11  O9  ZIN A   1      18.802  -4.777   7.857  0.00  0.00    -0.346 OA
BRANCH  11  12
ATOM     12  C8  ZIN A   1      18.476  -4.780   9.178  0.00  0.00     0.102 A 
ATOM     13  C3  ZIN A   1      17.169  -5.046   9.574  0.00  0.00     0.101 A 
ATOM     14  C4  ZIN A   1      16.842  -5.047  10.920  0.00  0.00     0.039 A 
ATOM     15  C5  ZIN A   1      17.813  -4.778  11.867  0.00  0.00     0.003 A 
ATOM     16  C6  ZIN A   1      19.110  -4.508  11.475  0.00  0.00     0.003 A 
ATOM     17  C7  ZIN A   1      19.443  -4.505  10.132  0.00  0.00     0.039 A 
BRANCH  13  18
ATOM     18  O2  ZIN A   1      16.215  -5.310   8.641  0.00  0.00    -0.353 OA
ATOM     19  C1  ZIN A   1      15.903  -6.684   8.401  0.00  0.00     0.210 C 
ENDBRANCH  13  18
ENDBRANCH  11  12
ENDBRANCH  10  11
ENDBRANCH   9  10
BRANCH   9  20
ATOM     20  O13 ZIN A   1      19.885  -2.771   5.575  0.00  0.00    -0.392 OA
ATOM     21  H43 ZIN A   1      20.589  -2.131   5.405  0.00  0.00     0.210 HD
ENDBRANCH   9  20
ENDBRANCH   8   9
ENDBRANCH   1   8
BRANCH   5  22
ATOM     22  C20 ZIN A   1      19.504   1.968  11.456  0.00  0.00     0.375 C 
BRANCH  22  23
ATOM     23  C21 ZIN A   1      18.930   1.477  12.761  0.00  0.00     0.250 C 
ATOM     24  O22 ZIN A   1      17.729   1.385  12.898  0.00  0.00    -0.271 OA
ATOM     25  N23 ZIN A   1      19.752   1.139  13.773  0.00  0.00    -0.325 N 
ATOM     26  H52 ZIN A   1      20.710   1.264  13.684  0.00  0.00     0.169 HD
BRANCH  25  27
ATOM     27  C24 ZIN A   1      19.224   0.608  14.955  0.00  0.00     0.046 A 
ATOM     28  C30 ZIN A   1      18.950  -0.750  15.047  0.00  0.00    -0.035 A 
ATOM     29  C29 ZIN A   1      18.436  -1.272  16.217  0.00  0.00     0.009 A 
ATOM     30  C31 ZIN A   1      19.229  -1.655  13.875  0.00  0.00     0.050 C 
ATOM     31  C28 ZIN A   1      18.180  -0.441  17.293  0.00  0.00     0.001 A 
ATOM     32  C27 ZIN A   1      18.445   0.913  17.204  0.00  0.00     0.009 A 
ATOM     33  C25 ZIN A   1      18.966   1.440  16.038  0.00  0.00    -0.035 A 
ATOM     34  C26 ZIN A   1      19.255   2.916  15.940  0.00  0.00     0.050 C 
ENDBRANCH  25  27
ENDBRANCH  22  23
ENDBRANCH   5  22
TORSDOF 10
ENDMDL
