MODEL 1
REMARK VINA RESULT:      -9.6      0.000      0.000
REMARK  4 active torsions:
REMARK  status: ('A' for Active; 'I' for Inactive)
REMARK    1  A    between atoms: C3_3  and  C4_4 
REMARK    2  A    between atoms: C4_4  and  C5_5 
REMARK    3  A    between atoms: C5_5  and  N6_6 
REMARK    4  A    between atoms: C10_10  and  C11_11 
ROOT
ATOM      1  N6  ZIN A   1      17.819   2.267  10.615  0.00  0.00    -0.071 N 
ATOM      2  H7  ZIN A   1      17.182   2.791  10.034  0.00  0.00     0.279 HD
ATOM      3  C8  ZIN A   1      17.483   0.840  10.541  0.00  0.00     0.235 C 
ATOM      4  C9  ZIN A   1      17.526   0.377   9.083  0.00  0.00     0.038 C 
ATOM      5  C10 ZIN A   1      18.933   0.601   8.521  0.00  0.00     0.044 C 
ATOM      6  C21 ZIN A   1      19.301   2.080   8.672  0.00  0.00     0.038 C 
ATOM      7  C22 ZIN A   1      19.194   2.478  10.146  0.00  0.00     0.235 C 
ENDROOT
BRANCH   1   8
ATOM      8  C5  ZIN A   1      17.702   2.724  12.005  0.00  0.00     0.239 C 
BRANCH   8   9
ATOM      9  C4  ZIN A   1      19.081   2.707  12.667  0.00  0.00     0.074 C 
BRANCH   9  10
ATOM     10  C3  ZIN A   1      19.033   1.851  13.906  0.00  0.00     0.036 A 
ATOM     11  C2  ZIN A   1      19.424   0.546  13.871  0.00  0.00     0.044 A 
ATOM     12  C1  ZIN A   1      19.922  -0.062  12.585  0.00  0.00     0.071 C 
ATOM     13  N31 ZIN A   1      19.358  -0.189  14.978  0.00  0.00    -0.239 NA
ATOM     14  C30 ZIN A   1      18.944   0.299  16.128  0.00  0.00     0.109 A 
ATOM     15  N25 ZIN A   1      18.565   1.582  16.231  0.00  0.00    -0.302 N 
ATOM     16  C29 ZIN A   1      18.916  -0.656  17.297  0.00  0.00     0.079 C 
ATOM     17  C23 ZIN A   1      18.582   2.377  15.130  0.00  0.00     0.257 A 
ATOM     18  C26 ZIN A   1      18.135   2.200  17.486  0.00  0.00     0.133 C 
ATOM     19  O24 ZIN A   1      18.210   3.536  15.202  0.00  0.00    -0.267 OA
ATOM     20  C27 ZIN A   1      17.719   1.145  18.506  0.00  0.00     0.021 C 
ATOM     21  C28 ZIN A   1      18.848   0.112  18.615  0.00  0.00     0.009 C 
ENDBRANCH   9  10
ENDBRANCH   8   9
ENDBRANCH   1   8
BRANCH   5  22
ATOM     22  C11 ZIN A   1      18.961   0.221   7.064  0.00  0.00     0.079 A 
ATOM     23  C20 ZIN A   1      18.822  -1.132   6.519  0.00  0.00     0.027 A 
ATOM     24  C14 ZIN A   1      18.906  -1.007   5.121  0.00  0.00     0.116 A 
ATOM     25  C19 ZIN A   1      18.624  -2.389   7.094  0.00  0.00     0.019 A 
ATOM     26  O13 ZIN A   1      19.089   0.302   4.851  0.00  0.00    -0.212 OA
ATOM     27  C15 ZIN A   1      18.803  -2.141   4.327  0.00  0.00     0.082 A 
ATOM     28  N12 ZIN A   1      19.119   1.029   6.062  0.00  0.00    -0.131 NA
ATOM     29  C16 ZIN A   1      18.613  -3.376   4.915  0.00  0.00     0.119 A 
ATOM     30  F17 ZIN A   1      18.513  -4.478   4.140  0.00  0.00    -0.206 F 
ATOM     31  C18 ZIN A   1      18.524  -3.494   6.296  0.00  0.00     0.043 A 
ENDBRANCH   5  22
TORSDOF 4
ENDMDL
MODEL 2
REMARK VINA RESULT:      -9.6      1.020      1.808
REMARK  4 active torsions:
REMARK  status: ('A' for Active; 'I' for Inactive)
REMARK    1  A    between atoms: C3_3  and  C4_4 
REMARK    2  A    between atoms: C4_4  and  C5_5 
REMARK    3  A    between atoms: C5_5  and  N6_6 
REMARK    4  A    between atoms: C10_10  and  C11_11 
ROOT
ATOM      1  N6  ZIN A   1      17.803   2.272  10.593  0.00  0.00    -0.071 N 
ATOM      2  H7  ZIN A   1      17.129   2.744  10.010  0.00  0.00     0.279 HD
ATOM      3  C8  ZIN A   1      17.540   0.829  10.571  0.00  0.00     0.235 C 
ATOM      4  C9  ZIN A   1      17.576   0.321   9.127  0.00  0.00     0.038 C 
ATOM      5  C10 ZIN A   1      18.957   0.598   8.528  0.00  0.00     0.044 C 
ATOM      6  C21 ZIN A   1      19.252   2.098   8.624  0.00  0.00     0.038 C 
ATOM      7  C22 ZIN A   1      19.156   2.537  10.087  0.00  0.00     0.235 C 
ENDROOT
BRANCH   1   8
ATOM      8  C5  ZIN A   1      17.692   2.768  11.970  0.00  0.00     0.239 C 
BRANCH   8   9
ATOM      9  C4  ZIN A   1      19.084   2.844  12.600  0.00  0.00     0.074 C 
BRANCH   9  10
ATOM     10  C3  ZIN A   1      18.978   2.605  14.084  0.00  0.00     0.036 A 
ATOM     11  C2  ZIN A   1      18.862   3.647  14.954  0.00  0.00     0.044 A 
ATOM     12  C1  ZIN A   1      18.828   5.064  14.440  0.00  0.00     0.071 C 
ATOM     13  N31 ZIN A   1      18.785   3.407  16.260  0.00  0.00    -0.239 NA
ATOM     14  C30 ZIN A   1      18.795   2.189  16.758  0.00  0.00     0.109 A 
ATOM     15  N25 ZIN A   1      18.887   1.121  15.951  0.00  0.00    -0.302 N 
ATOM     16  C29 ZIN A   1      18.708   2.071  18.260  0.00  0.00     0.079 C 
ATOM     17  C23 ZIN A   1      18.998   1.301  14.609  0.00  0.00     0.257 A 
ATOM     18  C26 ZIN A   1      18.862  -0.261  16.432  0.00  0.00     0.133 C 
ATOM     19  O24 ZIN A   1      19.114   0.340  13.867  0.00  0.00    -0.267 OA
ATOM     20  C27 ZIN A   1      19.198  -0.333  17.918  0.00  0.00     0.021 C 
ATOM     21  C28 ZIN A   1      18.294   0.657  18.663  0.00  0.00     0.009 C 
ENDBRANCH   9  10
ENDBRANCH   8   9
ENDBRANCH   1   8
BRANCH   5  22
ATOM     22  C11 ZIN A   1      18.974   0.172   7.083  0.00  0.00     0.079 A 
ATOM     23  C20 ZIN A   1      18.844  -1.198   6.582  0.00  0.00     0.027 A 
ATOM     24  C14 ZIN A   1      18.912  -1.116   5.180  0.00  0.00     0.116 A 
ATOM     25  C19 ZIN A   1      18.665  -2.439   7.198  0.00  0.00     0.019 A 
ATOM     26  O13 ZIN A   1      19.078   0.185   4.867  0.00  0.00    -0.212 OA
ATOM     27  C15 ZIN A   1      18.813  -2.275   4.422  0.00  0.00     0.082 A 
ATOM     28  N12 ZIN A   1      19.112   0.951   6.054  0.00  0.00    -0.131 NA
ATOM     29  C16 ZIN A   1      18.643  -3.493   5.051  0.00  0.00     0.119 A 
ATOM     30  F17 ZIN A   1      18.546  -4.620   4.312  0.00  0.00    -0.206 F 
ATOM     31  C18 ZIN A   1      18.570  -3.569   6.436  0.00  0.00     0.043 A 
ENDBRANCH   5  22
TORSDOF 4
ENDMDL
MODEL 3
REMARK VINA RESULT:      -9.5      1.869      2.833
REMARK  4 active torsions:
REMARK  status: ('A' for Active; 'I' for Inactive)
REMARK    1  A    between atoms: C3_3  and  C4_4 
REMARK    2  A    between atoms: C4_4  and  C5_5 
REMARK    3  A    between atoms: C5_5  and  N6_6 
REMARK    4  A    between atoms: C10_10  and  C11_11 
ROOT
ATOM      1  N6  ZIN A   1      19.003   3.079  11.948  0.00  0.00    -0.071 N 
ATOM      2  H7  ZIN A   1      18.244   2.577  12.383  0.00  0.00     0.279 HD
ATOM      3  C8  ZIN A   1      20.177   2.203  11.856  0.00  0.00     0.235 C 
ATOM      4  C9  ZIN A   1      19.812   0.935  11.080  0.00  0.00     0.038 C 
ATOM      5  C10 ZIN A   1      19.348   1.319   9.672  0.00  0.00     0.044 C 
ATOM      6  C21 ZIN A   1      18.170   2.291   9.782  0.00  0.00     0.038 C 
ATOM      7  C22 ZIN A   1      18.598   3.509  10.604  0.00  0.00     0.235 C 
ENDROOT
BRANCH   1   8
ATOM      8  C5  ZIN A   1      19.336   4.258  12.758  0.00  0.00     0.239 C 
BRANCH   8   9
ATOM      9  C4  ZIN A   1      18.283   4.439  13.853  0.00  0.00     0.074 C 
BRANCH   9  10
ATOM     10  C3  ZIN A   1      18.585   3.509  15.000  0.00  0.00     0.036 A 
ATOM     11  C2  ZIN A   1      19.332   3.926  16.060  0.00  0.00     0.044 A 
ATOM     12  C1  ZIN A   1      19.863   5.336  16.107  0.00  0.00     0.071 C 
ATOM     13  N31 ZIN A   1      19.595   3.078  17.052  0.00  0.00    -0.239 NA
ATOM     14  C30 ZIN A   1      19.143   1.842  17.065  0.00  0.00     0.109 A 
ATOM     15  N25 ZIN A   1      18.385   1.380  16.060  0.00  0.00    -0.302 N 
ATOM     16  C29 ZIN A   1      19.528   0.994  18.253  0.00  0.00     0.079 C 
ATOM     17  C23 ZIN A   1      18.105   2.187  15.003  0.00  0.00     0.257 A 
ATOM     18  C26 ZIN A   1      17.816   0.031  16.030  0.00  0.00     0.133 C 
ATOM     19  O24 ZIN A   1      17.445   1.769  14.068  0.00  0.00    -0.267 OA
ATOM     20  C27 ZIN A   1      18.551  -0.899  16.988  0.00  0.00     0.021 C 
ATOM     21  C28 ZIN A   1      18.611  -0.222  18.364  0.00  0.00     0.009 C 
ENDBRANCH   9  10
ENDBRANCH   8   9
ENDBRANCH   1   8
BRANCH   5  22
ATOM     22  C11 ZIN A   1      18.913   0.082   8.931  0.00  0.00     0.079 A 
ATOM     23  C20 ZIN A   1      18.641  -0.017   7.495  0.00  0.00     0.027 A 
ATOM     24  C14 ZIN A   1      18.271  -1.351   7.251  0.00  0.00     0.116 A 
ATOM     25  C19 ZIN A   1      18.699   0.893   6.436  0.00  0.00     0.019 A 
ATOM     26  O13 ZIN A   1      18.308  -1.995   8.436  0.00  0.00    -0.212 OA
ATOM     27  C15 ZIN A   1      17.954  -1.747   5.959  0.00  0.00     0.082 A 
ATOM     28  N12 ZIN A   1      18.704  -1.090   9.447  0.00  0.00    -0.131 NA
ATOM     29  C16 ZIN A   1      18.011  -0.831   4.927  0.00  0.00     0.119 A 
ATOM     30  F17 ZIN A   1      17.703  -1.218   3.670  0.00  0.00    -0.206 F 
ATOM     31  C18 ZIN A   1      18.384   0.485   5.171  0.00  0.00     0.043 A 
ENDBRANCH   5  22
TORSDOF 4
ENDMDL
MODEL 4
REMARK VINA RESULT:      -9.3      3.523      8.918
REMARK  4 active torsions:
REMARK  status: ('A' for Active; 'I' for Inactive)
REMARK    1  A    between atoms: C3_3  and  C4_4 
REMARK    2  A    between atoms: C4_4  and  C5_5 
REMARK    3  A    between atoms: C5_5  and  N6_6 
REMARK    4  A    between atoms: C10_10  and  C11_11 
ROOT
ATOM      1  N6  ZIN A   1      19.159   1.680   9.680  0.00  0.00    -0.071 N 
ATOM      2  H7  ZIN A   1      19.525   2.613   9.793  0.00  0.00     0.279 HD
ATOM      3  C8  ZIN A   1      19.990   0.736  10.438  0.00  0.00     0.235 C 
ATOM      4  C9  ZIN A   1      20.035   1.158  11.908  0.00  0.00     0.038 C 
ATOM      5  C10 ZIN A   1      18.614   1.161  12.478  0.00  0.00     0.044 C 
ATOM      6  C21 ZIN A   1      17.739   2.092  11.634  0.00  0.00     0.038 C 
ATOM      7  C22 ZIN A   1      17.778   1.633  10.174  0.00  0.00     0.235 C 
ENDROOT
BRANCH   1   8
ATOM      8  C5  ZIN A   1      19.181   1.316   8.257  0.00  0.00     0.239 C 
BRANCH   8   9
ATOM      9  C4  ZIN A   1      18.020   0.366   7.956  0.00  0.00     0.074 C 
BRANCH   9  10
ATOM     10  C3  ZIN A   1      18.557  -1.017   7.694  0.00  0.00     0.036 A 
ATOM     11  C2  ZIN A   1      19.129  -1.331   6.498  0.00  0.00     0.044 A 
ATOM     12  C1  ZIN A   1      19.243  -0.290   5.415  0.00  0.00     0.071 C 
ATOM     13  N31 ZIN A   1      19.582  -2.565   6.291  0.00  0.00    -0.239 NA
ATOM     14  C30 ZIN A   1      19.520  -3.506   7.209  0.00  0.00     0.109 A 
ATOM     15  N25 ZIN A   1      18.986  -3.253   8.413  0.00  0.00    -0.302 N 
ATOM     16  C29 ZIN A   1      20.067  -4.861   6.828  0.00  0.00     0.079 C 
ATOM     17  C23 ZIN A   1      18.480  -2.020   8.678  0.00  0.00     0.257 A 
ATOM     18  C26 ZIN A   1      18.922  -4.238   9.494  0.00  0.00     0.133 C 
ATOM     19  O24 ZIN A   1      17.963  -1.785   9.757  0.00  0.00    -0.267 OA
ATOM     20  C27 ZIN A   1      19.078  -5.656   8.955  0.00  0.00     0.021 C 
ATOM     21  C28 ZIN A   1      20.334  -5.701   8.075  0.00  0.00     0.009 C 
ENDBRANCH   9  10
ENDBRANCH   8   9
ENDBRANCH   1   8
BRANCH   5  22
ATOM     22  C11 ZIN A   1      18.643   1.651  13.902  0.00  0.00     0.079 A 
ATOM     23  C20 ZIN A   1      18.776   0.821  15.102  0.00  0.00     0.027 A 
ATOM     24  C14 ZIN A   1      18.758   1.701  16.198  0.00  0.00     0.116 A 
ATOM     25  C19 ZIN A   1      18.921  -0.552  15.315  0.00  0.00     0.019 A 
ATOM     26  O13 ZIN A   1      18.617   2.948  15.703  0.00  0.00    -0.212 OA
ATOM     27  C15 ZIN A   1      18.872   1.193  17.485  0.00  0.00     0.082 A 
ATOM     28  N12 ZIN A   1      18.549   2.885  14.292  0.00  0.00    -0.131 NA
ATOM     29  C16 ZIN A   1      19.007  -0.168  17.675  0.00  0.00     0.119 A 
ATOM     30  F17 ZIN A   1      19.117  -0.662  18.928  0.00  0.00    -0.206 F 
ATOM     31  C18 ZIN A   1      19.031  -1.034  16.589  0.00  0.00     0.043 A 
ENDBRANCH   5  22
TORSDOF 4
ENDMDL
MODEL 5
REMARK VINA RESULT:      -9.3      1.861      2.583
REMARK  4 active torsions:
REMARK  status: ('A' for Active; 'I' for Inactive)
REMARK    1  A    between atoms: C3_3  and  C4_4 
REMARK    2  A    between atoms: C4_4  and  C5_5 
REMARK    3  A    between atoms: C5_5  and  N6_6 
REMARK    4  A    between atoms: C10_10  and  C11_11 
ROOT
ATOM      1  N6  ZIN A   1      18.775   1.826  11.059  0.00  0.00    -0.071 N 
ATOM      2  H7  ZIN A   1      18.018   1.322  11.497  0.00  0.00     0.279 HD
ATOM      3  C8  ZIN A   1      20.014   1.049  11.187  0.00  0.00     0.235 C 
ATOM      4  C9  ZIN A   1      19.818  -0.338  10.571  0.00  0.00     0.038 C 
ATOM      5  C10 ZIN A   1      19.459  -0.188   9.090  0.00  0.00     0.044 C 
ATOM      6  C21 ZIN A   1      18.207   0.685   8.965  0.00  0.00     0.038 C 
ATOM      7  C22 ZIN A   1      18.465   2.035   9.639  0.00  0.00     0.235 C 
ENDROOT
BRANCH   1   8
ATOM      8  C5  ZIN A   1      18.943   3.126  11.719  0.00  0.00     0.239 C 
BRANCH   8   9
ATOM      9  C4  ZIN A   1      17.794   3.352  12.703  0.00  0.00     0.074 C 
BRANCH   9  10
ATOM     10  C3  ZIN A   1      18.176   2.807  14.055  0.00  0.00     0.036 A 
ATOM     11  C2  ZIN A   1      18.784   3.598  14.982  0.00  0.00     0.044 A 
ATOM     12  C1  ZIN A   1      19.079   5.042  14.671  0.00  0.00     0.071 C 
ATOM     13  N31 ZIN A   1      19.122   3.085  16.163  0.00  0.00    -0.239 NA
ATOM     14  C30 ZIN A   1      18.874   1.834  16.489  0.00  0.00     0.109 A 
ATOM     15  N25 ZIN A   1      18.258   1.012  15.626  0.00  0.00    -0.302 N 
ATOM     16  C29 ZIN A   1      19.322   1.391  17.861  0.00  0.00     0.079 C 
ATOM     17  C23 ZIN A   1      17.914   1.467  14.394  0.00  0.00     0.257 A 
ATOM     18  C26 ZIN A   1      17.914  -0.377  15.938  0.00  0.00     0.133 C 
ATOM     19  O24 ZIN A   1      17.383   0.721  13.589  0.00  0.00    -0.267 OA
ATOM     20  C27 ZIN A   1      18.734  -0.896  17.114  0.00  0.00     0.021 C 
ATOM     21  C28 ZIN A   1      18.605   0.105  18.269  0.00  0.00     0.009 C 
ENDBRANCH   9  10
ENDBRANCH   8   9
ENDBRANCH   1   8
BRANCH   5  22
ATOM     22  C11 ZIN A   1      19.187  -1.546   8.497  0.00  0.00     0.079 A 
ATOM     23  C20 ZIN A   1      19.094  -1.865   7.071  0.00  0.00     0.027 A 
ATOM     24  C14 ZIN A   1      18.833  -3.244   6.989  0.00  0.00     0.116 A 
ATOM     25  C19 ZIN A   1      19.225  -1.112   5.901  0.00  0.00     0.019 A 
ATOM     26  O13 ZIN A   1      18.766  -3.710   8.253  0.00  0.00    -0.212 OA
ATOM     27  C15 ZIN A   1      18.696  -3.841   5.743  0.00  0.00     0.082 A 
ATOM     28  N12 ZIN A   1      18.986  -2.645   9.156  0.00  0.00    -0.131 NA
ATOM     29  C16 ZIN A   1      18.822  -3.078   4.599  0.00  0.00     0.119 A 
ATOM     30  F17 ZIN A   1      18.688  -3.660   3.387  0.00  0.00    -0.206 F 
ATOM     31  C18 ZIN A   1      19.086  -1.716   4.684  0.00  0.00     0.043 A 
ENDBRANCH   5  22
TORSDOF 4
ENDMDL
MODEL 6
REMARK VINA RESULT:      -9.3      2.395      3.993
REMARK  4 active torsions:
REMARK  status: ('A' for Active; 'I' for Inactive)
REMARK    1  A    between atoms: C3_3  and  C4_4 
REMARK    2  A    between atoms: C4_4  and  C5_5 
REMARK    3  A    between atoms: C5_5  and  N6_6 
REMARK    4  A    between atoms: C10_10  and  C11_11 
ROOT
ATOM      1  N6  ZIN A   1      19.429  -1.565  13.214  0.00  0.00    -0.071 N 
ATOM      2  H7  ZIN A   1      19.866  -2.467  13.106  0.00  0.00     0.279 HD
ATOM      3  C8  ZIN A   1      20.140  -0.579  12.392  0.00  0.00     0.235 C 
ATOM      4  C9  ZIN A   1      20.151  -1.038  10.932  0.00  0.00     0.038 C 
ATOM      5  C10 ZIN A   1      18.709  -1.175  10.434  0.00  0.00     0.044 C 
ATOM      6  C21 ZIN A   1      17.957  -2.150  11.344  0.00  0.00     0.038 C 
ATOM      7  C22 ZIN A   1      18.026  -1.646  12.788  0.00  0.00     0.235 C 
ENDROOT
BRANCH   1   8
ATOM      8  C5  ZIN A   1      19.488  -1.158  14.624  0.00  0.00     0.239 C 
BRANCH   8   9
ATOM      9  C4  ZIN A   1      18.237  -0.352  14.976  0.00  0.00     0.074 C 
BRANCH   9  10
ATOM     10  C3  ZIN A   1      18.630   1.058  15.332  0.00  0.00     0.036 A 
ATOM     11  C2  ZIN A   1      19.094   1.361  16.577  0.00  0.00     0.044 A 
ATOM     12  C1  ZIN A   1      19.230   0.282  17.620  0.00  0.00     0.071 C 
ATOM     13  N31 ZIN A   1      19.422   2.618  16.868  0.00  0.00    -0.239 NA
ATOM     14  C30 ZIN A   1      19.335   3.594  15.989  0.00  0.00     0.109 A 
ATOM     15  N25 ZIN A   1      18.905   3.354  14.741  0.00  0.00    -0.302 N 
ATOM     16  C29 ZIN A   1      19.734   4.970  16.464  0.00  0.00     0.079 C 
ATOM     17  C23 ZIN A   1      18.528   2.097  14.390  0.00  0.00     0.257 A 
ATOM     18  C26 ZIN A   1      18.823   4.382  13.702  0.00  0.00     0.133 C 
ATOM     19  O24 ZIN A   1      18.105   1.872  13.269  0.00  0.00    -0.267 OA
ATOM     20  C27 ZIN A   1      18.817   5.781  14.310  0.00  0.00     0.021 C 
ATOM     21  C28 ZIN A   1      20.005   5.890  15.275  0.00  0.00     0.009 C 
ENDBRANCH   9  10
ENDBRANCH   8   9
ENDBRANCH   1   8
BRANCH   5  22
ATOM     22  C11 ZIN A   1      18.712  -1.703   9.023  0.00  0.00     0.079 A 
ATOM     23  C20 ZIN A   1      18.818  -0.905   7.800  0.00  0.00     0.027 A 
ATOM     24  C14 ZIN A   1      18.780  -1.813   6.728  0.00  0.00     0.116 A 
ATOM     25  C19 ZIN A   1      18.954   0.463   7.547  0.00  0.00     0.019 A 
ATOM     26  O13 ZIN A   1      18.653  -3.047   7.259  0.00  0.00    -0.212 OA
ATOM     27  C15 ZIN A   1      18.867  -1.339   5.426  0.00  0.00     0.082 A 
ATOM     28  N12 ZIN A   1      18.613  -2.947   8.668  0.00  0.00    -0.131 NA
ATOM     29  C16 ZIN A   1      18.994   0.017   5.197  0.00  0.00     0.119 A 
ATOM     30  F17 ZIN A   1      19.078   0.477   3.930  0.00  0.00    -0.206 F 
ATOM     31  C18 ZIN A   1      19.037   0.911   6.259  0.00  0.00     0.043 A 
ENDBRANCH   5  22
TORSDOF 4
ENDMDL
MODEL 7
REMARK VINA RESULT:      -9.3      3.705      8.641
REMARK  4 active torsions:
REMARK  status: ('A' for Active; 'I' for Inactive)
REMARK    1  A    between atoms: C3_3  and  C4_4 
REMARK    2  A    between atoms: C4_4  and  C5_5 
REMARK    3  A    between atoms: C5_5  and  N6_6 
REMARK    4  A    between atoms: C10_10  and  C11_11 
ROOT
ATOM      1  N6  ZIN A   1      18.752   2.378  10.945  0.00  0.00    -0.071 N 
ATOM      2  H7  ZIN A   1      19.618   1.877  11.071  0.00  0.00     0.279 HD
ATOM      3  C8  ZIN A   1      17.698   1.734  11.739  0.00  0.00     0.235 C 
ATOM      4  C9  ZIN A   1      18.121   1.683  13.209  0.00  0.00     0.038 C 
ATOM      5  C10 ZIN A   1      18.348   3.108  13.721  0.00  0.00     0.044 C 
ATOM      6  C21 ZIN A   1      19.396   3.794  12.839  0.00  0.00     0.038 C 
ATOM      7  C22 ZIN A   1      18.923   3.769  11.383  0.00  0.00     0.235 C 
ENDROOT
BRANCH   1   8
ATOM      8  C5  ZIN A   1      18.376   2.356   9.526  0.00  0.00     0.239 C 
BRANCH   8   9
ATOM      9  C4  ZIN A   1      19.414   1.557   8.735  0.00  0.00     0.074 C 
BRANCH   9  10
ATOM     10  C3  ZIN A   1      19.121   0.085   8.865  0.00  0.00     0.036 A 
ATOM     11  C2  ZIN A   1      18.334  -0.554   7.955  0.00  0.00     0.044 A 
ATOM     12  C1  ZIN A   1      17.747   0.206   6.793  0.00  0.00     0.071 C 
ATOM     13  N31 ZIN A   1      18.080  -1.852   8.102  0.00  0.00    -0.239 NA
ATOM     14  C30 ZIN A   1      18.580  -2.563   9.091  0.00  0.00     0.109 A 
ATOM     15  N25 ZIN A   1      19.379  -1.995  10.007  0.00  0.00    -0.302 N 
ATOM     16  C29 ZIN A   1      18.200  -4.024   9.134  0.00  0.00     0.079 C 
ATOM     17  C23 ZIN A   1      19.652  -0.666   9.928  0.00  0.00     0.257 A 
ATOM     18  C26 ZIN A   1      20.002  -2.733  11.107  0.00  0.00     0.133 C 
ATOM     19  O24 ZIN A   1      20.351  -0.131  10.772  0.00  0.00    -0.267 OA
ATOM     20  C27 ZIN A   1      19.280  -4.052  11.363  0.00  0.00     0.021 C 
ATOM     21  C28 ZIN A   1      19.162  -4.802  10.030  0.00  0.00     0.009 C 
ENDBRANCH   9  10
ENDBRANCH   8   9
ENDBRANCH   1   8
BRANCH   5  22
ATOM     22  C11 ZIN A   1      18.840   3.061  15.143  0.00  0.00     0.079 A 
ATOM     23  C20 ZIN A   1      18.613   1.978  16.103  0.00  0.00     0.027 A 
ATOM     24  C14 ZIN A   1      19.254   2.361  17.294  0.00  0.00     0.116 A 
ATOM     25  C19 ZIN A   1      17.951   0.749  16.034  0.00  0.00     0.019 A 
ATOM     26  O13 ZIN A   1      19.809   3.570  17.073  0.00  0.00    -0.212 OA
ATOM     27  C15 ZIN A   1      19.211   1.517  18.396  0.00  0.00     0.082 A 
ATOM     28  N12 ZIN A   1      19.538   3.974  15.746  0.00  0.00    -0.131 NA
ATOM     29  C16 ZIN A   1      18.545   0.310  18.309  0.00  0.00     0.119 A 
ATOM     30  F17 ZIN A   1      18.504  -0.510  19.382  0.00  0.00    -0.206 F 
ATOM     31  C18 ZIN A   1      17.918  -0.068  17.129  0.00  0.00     0.043 A 
ENDBRANCH   5  22
TORSDOF 4
ENDMDL
MODEL 8
REMARK VINA RESULT:      -9.2      3.809      9.510
REMARK  4 active torsions:
REMARK  status: ('A' for Active; 'I' for Inactive)
REMARK    1  A    between atoms: C3_3  and  C4_4 
REMARK    2  A    between atoms: C4_4  and  C5_5 
REMARK    3  A    between atoms: C5_5  and  N6_6 
REMARK    4  A    between atoms: C10_10  and  C11_11 
ROOT
ATOM      1  N6  ZIN A   1      18.939   1.242  11.278  0.00  0.00    -0.071 N 
ATOM      2  H7  ZIN A   1      19.094   2.145  11.701  0.00  0.00     0.279 HD
ATOM      3  C8  ZIN A   1      20.043   0.342  11.633  0.00  0.00     0.235 C 
ATOM      4  C9  ZIN A   1      20.160   0.248  13.156  0.00  0.00     0.038 C 
ATOM      5  C10 ZIN A   1      18.851  -0.298  13.731  0.00  0.00     0.044 C 
ATOM      6  C21 ZIN A   1      17.696   0.607  13.293  0.00  0.00     0.038 C 
ATOM      7  C22 ZIN A   1      17.670   0.686  11.764  0.00  0.00     0.235 C 
ENDROOT
BRANCH   1   8
ATOM      8  C5  ZIN A   1      18.879   1.390   9.819  0.00  0.00     0.239 C 
BRANCH   8   9
ATOM      9  C4  ZIN A   1      17.723   0.555   9.267  0.00  0.00     0.074 C 
BRANCH   9  10
ATOM     10  C3  ZIN A   1      18.272  -0.622   8.504  0.00  0.00     0.036 A 
ATOM     11  C2  ZIN A   1      18.711  -0.482   7.222  0.00  0.00     0.044 A 
ATOM     12  C1  ZIN A   1      18.661   0.865   6.547  0.00  0.00     0.071 C 
ATOM     13  N31 ZIN A   1      19.178  -1.542   6.567  0.00  0.00    -0.239 NA
ATOM     14  C30 ZIN A   1      19.255  -2.735   7.116  0.00  0.00     0.109 A 
ATOM     15  N25 ZIN A   1      18.858  -2.933   8.382  0.00  0.00    -0.302 N 
ATOM     16  C29 ZIN A   1      19.800  -3.845   6.249  0.00  0.00     0.079 C 
ATOM     17  C23 ZIN A   1      18.345  -1.897   9.095  0.00  0.00     0.257 A 
ATOM     18  C26 ZIN A   1      18.955  -4.223   9.069  0.00  0.00     0.133 C 
ATOM     19  O24 ZIN A   1      17.950  -2.070  10.235  0.00  0.00    -0.267 OA
ATOM     20  C27 ZIN A   1      19.095  -5.368   8.071  0.00  0.00     0.021 C 
ATOM     21  C28 ZIN A   1      20.239  -5.029   7.108  0.00  0.00     0.009 C 
ENDBRANCH   9  10
ENDBRANCH   8   9
ENDBRANCH   1   8
BRANCH   5  22
ATOM     22  C11 ZIN A   1      18.931  -0.320  15.235  0.00  0.00     0.079 A 
ATOM     23  C20 ZIN A   1      18.968   0.849  16.118  0.00  0.00     0.027 A 
ATOM     24  C14 ZIN A   1      19.040   0.353  17.431  0.00  0.00     0.116 A 
ATOM     25  C19 ZIN A   1      18.930   2.228  15.896  0.00  0.00     0.019 A 
ATOM     26  O13 ZIN A   1      19.054  -0.993  17.346  0.00  0.00    -0.212 OA
ATOM     27  C15 ZIN A   1      19.084   1.243  18.496  0.00  0.00     0.082 A 
ATOM     28  N12 ZIN A   1      18.987  -1.376  15.987  0.00  0.00    -0.131 NA
ATOM     29  C16 ZIN A   1      19.052   2.602  18.256  0.00  0.00     0.119 A 
ATOM     30  F17 ZIN A   1      19.095   3.467  19.293  0.00  0.00    -0.206 F 
ATOM     31  C18 ZIN A   1      18.975   3.088  16.957  0.00  0.00     0.043 A 
ENDBRANCH   5  22
TORSDOF 4
ENDMDL
MODEL 9
REMARK VINA RESULT:      -9.2      3.782      9.941
REMARK  4 active torsions:
REMARK  status: ('A' for Active; 'I' for Inactive)
REMARK    1  A    between atoms: C3_3  and  C4_4 
REMARK    2  A    between atoms: C4_4  and  C5_5 
REMARK    3  A    between atoms: C5_5  and  N6_6 
REMARK    4  A    between atoms: C10_10  and  C11_11 
ROOT
ATOM      1  N6  ZIN A   1      19.721  -1.847  12.377  0.00  0.00    -0.071 N 
ATOM      2  H7  ZIN A   1      20.462  -2.212  12.954  0.00  0.00     0.279 HD
ATOM      3  C8  ZIN A   1      18.439  -2.004  13.074  0.00  0.00     0.235 C 
ATOM      4  C9  ZIN A   1      18.504  -1.304  14.434  0.00  0.00     0.038 C 
ATOM      5  C10 ZIN A   1      18.792   0.185  14.223  0.00  0.00     0.044 C 
ATOM      6  C21 ZIN A   1      20.093   0.335  13.430  0.00  0.00     0.038 C 
ATOM      7  C22 ZIN A   1      19.967  -0.425  12.107  0.00  0.00     0.235 C 
ENDROOT
BRANCH   1   8
ATOM      8  C5  ZIN A   1      19.680  -2.584  11.108  0.00  0.00     0.239 C 
BRANCH   8   9
ATOM      9  C4  ZIN A   1      18.244  -2.613  10.580  0.00  0.00     0.074 C 
BRANCH   9  10
ATOM     10  C3  ZIN A   1      18.172  -1.860   9.277  0.00  0.00     0.036 A 
ATOM     11  C2  ZIN A   1      17.586  -0.633   9.210  0.00  0.00     0.044 A 
ATOM     12  C1  ZIN A   1      17.005  -0.001  10.448  0.00  0.00     0.071 C 
ATOM     13  N31 ZIN A   1      17.524   0.003   8.042  0.00  0.00    -0.239 NA
ATOM     14  C30 ZIN A   1      18.029  -0.500   6.935  0.00  0.00     0.109 A 
ATOM     15  N25 ZIN A   1      18.638  -1.696   6.942  0.00  0.00    -0.302 N 
ATOM     16  C29 ZIN A   1      17.878   0.332   5.684  0.00  0.00     0.079 C 
ATOM     17  C23 ZIN A   1      18.707  -2.407   8.097  0.00  0.00     0.257 A 
ATOM     18  C26 ZIN A   1      19.257  -2.295   5.758  0.00  0.00     0.133 C 
ATOM     19  O24 ZIN A   1      19.229  -3.509   8.110  0.00  0.00    -0.267 OA
ATOM     20  C27 ZIN A   1      18.727  -1.658   4.478  0.00  0.00     0.021 C 
ATOM     21  C28 ZIN A   1      18.857  -0.135   4.609  0.00  0.00     0.009 C 
ENDBRANCH   9  10
ENDBRANCH   8   9
ENDBRANCH   1   8
BRANCH   5  22
ATOM     22  C11 ZIN A   1      18.935   0.865  15.560  0.00  0.00     0.079 A 
ATOM     23  C20 ZIN A   1      18.752   2.293  15.830  0.00  0.00     0.027 A 
ATOM     24  C14 ZIN A   1      18.982   2.470  17.205  0.00  0.00     0.116 A 
ATOM     25  C19 ZIN A   1      18.405   3.389  15.036  0.00  0.00     0.019 A 
ATOM     26  O13 ZIN A   1      19.286   1.258  17.715  0.00  0.00    -0.212 OA
ATOM     27  C15 ZIN A   1      18.874   3.738  17.758  0.00  0.00     0.082 A 
ATOM     28  N12 ZIN A   1      19.250   0.294  16.682  0.00  0.00    -0.131 NA
ATOM     29  C16 ZIN A   1      18.537   4.810  16.956  0.00  0.00     0.119 A 
ATOM     30  F17 ZIN A   1      18.433   6.044  17.496  0.00  0.00    -0.206 F 
ATOM     31  C18 ZIN A   1      18.304   4.630  15.598  0.00  0.00     0.043 A 
ENDBRANCH   5  22
TORSDOF 4
ENDMDL
