MODEL 1
REMARK VINA RESULT:      -7.9      0.000      0.000
REMARK  2 active torsions:
REMARK  status: ('A' for Active; 'I' for Inactive)
REMARK    1  A    between atoms: C11_11  and  C12_12 
REMARK    2  A    between atoms: C20_20  and  O22_21 
ROOT
ATOM      1  O1  ZIN A   1      19.760  -1.387  13.291  0.00  0.00    -0.268 OA
ATOM      2  C2  ZIN A   1      19.639  -0.375  12.633  0.00  0.00     0.272 C 
ATOM      3  N3  ZIN A   1      18.549   0.373  12.790  0.00  0.00    -0.323 N 
ATOM      4  C4  ZIN A   1      18.309   1.579  12.146  0.00  0.00     0.047 A 
ATOM      5  C5  ZIN A   1      17.725   2.600  12.897  0.00  0.00     0.032 A 
ATOM      6  C6  ZIN A   1      17.454   3.824  12.326  0.00  0.00     0.026 A 
ATOM      7  C7  ZIN A   1      17.761   4.053  10.994  0.00  0.00     0.035 A 
ATOM      8 Cl8  ZIN A   1      17.418   5.597  10.278  0.00  0.00    -0.084 Cl
ATOM      9  C9  ZIN A   1      18.339   3.057  10.240  0.00  0.00     0.040 A 
ATOM     10  C10 ZIN A   1      18.621   1.806  10.808  0.00  0.00     0.022 A 
ATOM     11  C11 ZIN A   1      19.243   0.789   9.944  0.00  0.00     0.079 C 
ATOM     12  N19 ZIN A   1      20.178  -0.013  10.309  0.00  0.00    -0.247 NA
ATOM     13  C20 ZIN A   1      20.728   0.007  11.669  0.00  0.00     0.335 C 
ATOM     14  H23 ZIN A   1      17.869   0.049  13.401  0.00  0.00     0.169 HD
ENDROOT
BRANCH  11  15
ATOM     15  C12 ZIN A   1      18.755   0.684   8.549  0.00  0.00     0.015 A 
ATOM     16  C17 ZIN A   1      17.636  -0.099   8.256  0.00  0.00     0.046 A 
ATOM     17  C16 ZIN A   1      17.184  -0.189   6.953  0.00  0.00     0.025 A 
ATOM     18 Cl18 ZIN A   1      16.809  -0.947   9.525  0.00  0.00    -0.083 Cl
ATOM     19  C15 ZIN A   1      17.843   0.486   5.941  0.00  0.00     0.002 A 
ATOM     20  C14 ZIN A   1      18.954   1.258   6.227  0.00  0.00     0.001 A 
ATOM     21  C13 ZIN A   1      19.414   1.361   7.524  0.00  0.00     0.015 A 
ENDBRANCH  11  15
BRANCH  13  22
ATOM     22  O22 ZIN A   1      21.210   1.318  11.970  0.00  0.00    -0.367 OA
ATOM     23  H31 ZIN A   1      20.609   2.029  11.708  0.00  0.00     0.212 HD
ENDBRANCH  13  22
TORSDOF 2
ENDMDL
MODEL 2
REMARK VINA RESULT:      -7.7      3.082      6.501
REMARK  2 active torsions:
REMARK  status: ('A' for Active; 'I' for Inactive)
REMARK    1  A    between atoms: C11_11  and  C12_12 
REMARK    2  A    between atoms: C20_20  and  O22_21 
ROOT
ATOM      1  O1  ZIN A   1      19.674   2.065  10.001  0.00  0.00    -0.268 OA
ATOM      2  C2  ZIN A   1      19.606   0.971  10.519  0.00  0.00     0.272 C 
ATOM      3  N3  ZIN A   1      18.545   0.204  10.276  0.00  0.00    -0.323 N 
ATOM      4  C4  ZIN A   1      18.366  -1.086  10.756  0.00  0.00     0.047 A 
ATOM      5  C5  ZIN A   1      17.813  -2.023   9.882  0.00  0.00     0.032 A 
ATOM      6  C6  ZIN A   1      17.603  -3.323  10.287  0.00  0.00     0.026 A 
ATOM      7  C7  ZIN A   1      17.939  -3.713  11.574  0.00  0.00     0.035 A 
ATOM      8 Cl8  ZIN A   1      17.672  -5.351  12.081  0.00  0.00    -0.084 Cl
ATOM      9  C9  ZIN A   1      18.488  -2.801  12.448  0.00  0.00     0.040 A 
ATOM     10  C10 ZIN A   1      18.708  -1.475  12.049  0.00  0.00     0.022 A 
ATOM     11  C11 ZIN A   1      19.301  -0.556  13.034  0.00  0.00     0.079 C 
ATOM     12  N19 ZIN A   1      20.196   0.328  12.769  0.00  0.00    -0.247 NA
ATOM     13  C20 ZIN A   1      20.725   0.512  11.414  0.00  0.00     0.335 C 
ATOM     14  H23 ZIN A   1      17.843   0.576   9.720  0.00  0.00     0.169 HD
ENDROOT
BRANCH  11  15
ATOM     15  C12 ZIN A   1      18.831  -0.657  14.435  0.00  0.00     0.015 A 
ATOM     16  C17 ZIN A   1      17.756   0.120  14.872  0.00  0.00     0.046 A 
ATOM     17  C16 ZIN A   1      17.320   0.016  16.179  0.00  0.00     0.025 A 
ATOM     18 Cl18 ZIN A   1      16.960   1.202  13.772  0.00  0.00    -0.083 Cl
ATOM     19  C15 ZIN A   1      17.954  -0.847  17.055  0.00  0.00     0.002 A 
ATOM     20  C14 ZIN A   1      19.022  -1.614  16.629  0.00  0.00     0.001 A 
ATOM     21  C13 ZIN A   1      19.465  -1.524  15.324  0.00  0.00     0.015 A 
ENDBRANCH  11  15
BRANCH  13  22
ATOM     22  O22 ZIN A   1      21.256  -0.725  10.936  0.00  0.00    -0.367 OA
ATOM     23  H31 ZIN A   1      20.989  -1.496  11.455  0.00  0.00     0.212 HD
ENDBRANCH  13  22
TORSDOF 2
ENDMDL
MODEL 3
REMARK VINA RESULT:      -7.7      3.504      5.700
REMARK  2 active torsions:
REMARK  status: ('A' for Active; 'I' for Inactive)
REMARK    1  A    between atoms: C11_11  and  C12_12 
REMARK    2  A    between atoms: C20_20  and  O22_21 
ROOT
ATOM      1  O1  ZIN A   1      18.978   2.616   9.198  0.00  0.00    -0.268 OA
ATOM      2  C2  ZIN A   1      18.722   2.868  10.357  0.00  0.00     0.272 C 
ATOM      3  N3  ZIN A   1      19.647   3.456  11.111  0.00  0.00    -0.323 N 
ATOM      4  C4  ZIN A   1      19.470   3.849  12.430  0.00  0.00     0.047 A 
ATOM      5  C5  ZIN A   1      20.020   5.074  12.813  0.00  0.00     0.032 A 
ATOM      6  C6  ZIN A   1      19.886   5.530  14.106  0.00  0.00     0.026 A 
ATOM      7  C7  ZIN A   1      19.203   4.771  15.043  0.00  0.00     0.035 A 
ATOM      8 Cl8  ZIN A   1      19.038   5.348  16.672  0.00  0.00    -0.084 Cl
ATOM      9  C9  ZIN A   1      18.654   3.562  14.682  0.00  0.00     0.040 A 
ATOM     10  C10 ZIN A   1      18.780   3.085  13.369  0.00  0.00     0.022 A 
ATOM     11  C11 ZIN A   1      18.165   1.787  13.052  0.00  0.00     0.079 C 
ATOM     12  N19 ZIN A   1      17.534   1.518  11.965  0.00  0.00    -0.247 NA
ATOM     13  C20 ZIN A   1      17.365   2.513  10.901  0.00  0.00     0.335 C 
ATOM     14  H23 ZIN A   1      20.513   3.623  10.707  0.00  0.00     0.169 HD
ENDROOT
BRANCH  11  15
ATOM     15  C12 ZIN A   1      18.282   0.709  14.062  0.00  0.00     0.015 A 
ATOM     16  C17 ZIN A   1      19.382  -0.151  14.045  0.00  0.00     0.046 A 
ATOM     17  C16 ZIN A   1      19.486  -1.151  14.993  0.00  0.00     0.025 A 
ATOM     18 Cl18 ZIN A   1      20.622   0.045  12.845  0.00  0.00    -0.083 Cl
ATOM     19  C15 ZIN A   1      18.499  -1.307  15.949  0.00  0.00     0.002 A 
ATOM     20  C14 ZIN A   1      17.405  -0.461  15.966  0.00  0.00     0.001 A 
ATOM     21  C13 ZIN A   1      17.290   0.545  15.028  0.00  0.00     0.015 A 
ENDBRANCH  11  15
BRANCH  13  22
ATOM     22  O22 ZIN A   1      16.733   3.679  11.433  0.00  0.00    -0.367 OA
ATOM     23  H31 ZIN A   1      16.763   4.446  10.845  0.00  0.00     0.212 HD
ENDBRANCH  13  22
TORSDOF 2
ENDMDL
MODEL 4
REMARK VINA RESULT:      -7.5      4.200      6.504
REMARK  2 active torsions:
REMARK  status: ('A' for Active; 'I' for Inactive)
REMARK    1  A    between atoms: C11_11  and  C12_12 
REMARK    2  A    between atoms: C20_20  and  O22_21 
ROOT
ATOM      1  O1  ZIN A   1      18.903  -6.990   8.541  0.00  0.00    -0.268 OA
ATOM      2  C2  ZIN A   1      18.576  -5.824   8.474  0.00  0.00     0.272 C 
ATOM      3  N3  ZIN A   1      19.412  -4.948   7.922  0.00  0.00    -0.323 N 
ATOM      4  C4  ZIN A   1      19.143  -3.600   7.731  0.00  0.00     0.047 A 
ATOM      5  C5  ZIN A   1      19.565  -3.026   6.531  0.00  0.00     0.032 A 
ATOM      6  C6  ZIN A   1      19.336  -1.693   6.270  0.00  0.00     0.026 A 
ATOM      7  C7  ZIN A   1      18.682  -0.905   7.204  0.00  0.00     0.035 A 
ATOM      8 Cl8  ZIN A   1      18.396   0.775   6.874  0.00  0.00    -0.084 Cl
ATOM      9  C9  ZIN A   1      18.258  -1.455   8.393  0.00  0.00     0.040 A 
ATOM     10  C10 ZIN A   1      18.484  -2.811   8.671  0.00  0.00     0.022 A 
ATOM     11  C11 ZIN A   1      17.999  -3.333   9.960  0.00  0.00     0.079 C 
ATOM     12  N19 ZIN A   1      17.443  -4.479  10.126  0.00  0.00    -0.247 NA
ATOM     13  C20 ZIN A   1      17.233  -5.408   9.010  0.00  0.00     0.335 C 
ATOM     14  H23 ZIN A   1      20.276  -5.277   7.631  0.00  0.00     0.169 HD
ENDROOT
BRANCH  11  15
ATOM     15  C12 ZIN A   1      18.167  -2.472  11.154  0.00  0.00     0.015 A 
ATOM     16  C17 ZIN A   1      19.277  -2.635  11.985  0.00  0.00     0.046 A 
ATOM     17  C16 ZIN A   1      19.429  -1.825  13.094  0.00  0.00     0.025 A 
ATOM     18 Cl18 ZIN A   1      20.470  -3.842  11.619  0.00  0.00    -0.083 Cl
ATOM     19  C15 ZIN A   1      18.479  -0.863  13.386  0.00  0.00     0.002 A 
ATOM     20  C14 ZIN A   1      17.375  -0.702  12.569  0.00  0.00     0.001 A 
ATOM     21  C13 ZIN A   1      17.214  -1.500  11.455  0.00  0.00     0.015 A 
ENDBRANCH  11  15
BRANCH  13  22
ATOM     22  O22 ZIN A   1      16.478  -4.760   7.985  0.00  0.00    -0.367 OA
ATOM     23  H31 ZIN A   1      15.522  -4.882   8.063  0.00  0.00     0.212 HD
ENDBRANCH  13  22
TORSDOF 2
ENDMDL
MODEL 5
REMARK VINA RESULT:      -7.4      4.166      5.613
REMARK  2 active torsions:
REMARK  status: ('A' for Active; 'I' for Inactive)
REMARK    1  A    between atoms: C11_11  and  C12_12 
REMARK    2  A    between atoms: C20_20  and  O22_21 
ROOT
ATOM      1  O1  ZIN A   1      18.306  -1.546  13.421  0.00  0.00    -0.268 OA
ATOM      2  C2  ZIN A   1      18.612  -1.804  12.276  0.00  0.00     0.272 C 
ATOM      3  N3  ZIN A   1      18.067  -1.100  11.286  0.00  0.00    -0.323 N 
ATOM      4  C4  ZIN A   1      18.369  -1.251   9.940  0.00  0.00     0.047 A 
ATOM      5  C5  ZIN A   1      18.475  -0.089   9.174  0.00  0.00     0.032 A 
ATOM      6  C6  ZIN A   1      18.770  -0.159   7.830  0.00  0.00     0.026 A 
ATOM      7  C7  ZIN A   1      18.962  -1.390   7.224  0.00  0.00     0.035 A 
ATOM      8 Cl8  ZIN A   1      19.332  -1.475   5.530  0.00  0.00    -0.084 Cl
ATOM      9  C9  ZIN A   1      18.862  -2.546   7.966  0.00  0.00     0.040 A 
ATOM     10  C10 ZIN A   1      18.564  -2.490   9.335  0.00  0.00     0.022 A 
ATOM     11  C11 ZIN A   1      18.476  -3.764  10.066  0.00  0.00     0.079 C 
ATOM     12  N19 ZIN A   1      18.932  -3.965  11.251  0.00  0.00    -0.247 NA
ATOM     13  C20 ZIN A   1      19.602  -2.905  12.012  0.00  0.00     0.335 C 
ATOM     14  H23 ZIN A   1      17.408  -0.430  11.525  0.00  0.00     0.169 HD
ENDROOT
BRANCH  11  15
ATOM     15  C12 ZIN A   1      17.812  -4.901   9.386  0.00  0.00     0.015 A 
ATOM     16  C17 ZIN A   1      18.578  -5.918   8.812  0.00  0.00     0.046 A 
ATOM     17  C16 ZIN A   1      17.952  -6.977   8.183  0.00  0.00     0.025 A 
ATOM     18 Cl18 ZIN A   1      20.311  -5.859   8.900  0.00  0.00    -0.083 Cl
ATOM     19  C15 ZIN A   1      16.571  -7.024   8.113  0.00  0.00     0.002 A 
ATOM     20  C14 ZIN A   1      15.809  -6.017   8.675  0.00  0.00     0.001 A 
ATOM     21  C13 ZIN A   1      16.421  -4.956   9.311  0.00  0.00     0.015 A 
ENDBRANCH  11  15
BRANCH  13  22
ATOM     22  O22 ZIN A   1      20.705  -2.399  11.258  0.00  0.00    -0.367 OA
ATOM     23  H31 ZIN A   1      20.471  -1.687  10.647  0.00  0.00     0.212 HD
ENDBRANCH  13  22
TORSDOF 2
ENDMDL
MODEL 6
REMARK VINA RESULT:      -7.3      4.503      6.039
REMARK  2 active torsions:
REMARK  status: ('A' for Active; 'I' for Inactive)
REMARK    1  A    between atoms: C11_11  and  C12_12 
REMARK    2  A    between atoms: C20_20  and  O22_21 
ROOT
ATOM      1  O1  ZIN A   1      18.913  -6.597   5.931  0.00  0.00    -0.268 OA
ATOM      2  C2  ZIN A   1      18.968  -5.755   6.802  0.00  0.00     0.272 C 
ATOM      3  N3  ZIN A   1      17.899  -5.545   7.567  0.00  0.00    -0.323 N 
ATOM      4  C4  ZIN A   1      17.842  -4.657   8.632  0.00  0.00     0.047 A 
ATOM      5  C5  ZIN A   1      17.159  -5.072   9.776  0.00  0.00     0.032 A 
ATOM      6  C6  ZIN A   1      17.058  -4.244  10.873  0.00  0.00     0.026 A 
ATOM      7  C7  ZIN A   1      17.636  -2.985  10.848  0.00  0.00     0.035 A 
ATOM      8 Cl8  ZIN A   1      17.506  -1.944  12.232  0.00  0.00    -0.084 Cl
ATOM      9  C9  ZIN A   1      18.314  -2.560   9.728  0.00  0.00     0.040 A 
ATOM     10  C10 ZIN A   1      18.426  -3.393   8.604  0.00  0.00     0.022 A 
ATOM     11  C11 ZIN A   1      19.168  -2.876   7.444  0.00  0.00     0.079 C 
ATOM     12  N19 ZIN A   1      19.978  -3.566   6.722  0.00  0.00    -0.247 NA
ATOM     13  C20 ZIN A   1      20.243  -4.982   6.995  0.00  0.00     0.335 C 
ATOM     14  H23 ZIN A   1      17.097  -6.052   7.365  0.00  0.00     0.169 HD
ENDROOT
BRANCH  11  15
ATOM     15  C12 ZIN A   1      18.968  -1.453   7.080  0.00  0.00     0.015 A 
ATOM     16  C17 ZIN A   1      18.329  -1.119   5.884  0.00  0.00     0.046 A 
ATOM     17  C16 ZIN A   1      18.141   0.209   5.554  0.00  0.00     0.025 A 
ATOM     18 Cl18 ZIN A   1      17.760  -2.369   4.822  0.00  0.00    -0.083 Cl
ATOM     19  C15 ZIN A   1      18.593   1.205   6.401  0.00  0.00     0.002 A 
ATOM     20  C14 ZIN A   1      19.231   0.879   7.583  0.00  0.00     0.001 A 
ATOM     21  C13 ZIN A   1      19.421  -0.444   7.928  0.00  0.00     0.015 A 
ENDBRANCH  11  15
BRANCH  13  22
ATOM     22  O22 ZIN A   1      20.706  -5.131   8.339  0.00  0.00    -0.367 OA
ATOM     23  H31 ZIN A   1      21.551  -4.697   8.515  0.00  0.00     0.212 HD
ENDBRANCH  13  22
TORSDOF 2
ENDMDL
MODEL 7
REMARK VINA RESULT:      -7.3      3.601      5.258
REMARK  2 active torsions:
REMARK  status: ('A' for Active; 'I' for Inactive)
REMARK    1  A    between atoms: C11_11  and  C12_12 
REMARK    2  A    between atoms: C20_20  and  O22_21 
ROOT
ATOM      1  O1  ZIN A   1      19.897   5.598  13.982  0.00  0.00    -0.268 OA
ATOM      2  C2  ZIN A   1      19.233   4.608  14.204  0.00  0.00     0.272 C 
ATOM      3  N3  ZIN A   1      19.719   3.673  15.018  0.00  0.00    -0.323 N 
ATOM      4  C4  ZIN A   1      19.046   2.521  15.402  0.00  0.00     0.047 A 
ATOM      5  C5  ZIN A   1      19.171   2.120  16.732  0.00  0.00     0.032 A 
ATOM      6  C6  ZIN A   1      18.534   0.986  17.187  0.00  0.00     0.026 A 
ATOM      7  C7  ZIN A   1      17.761   0.229  16.321  0.00  0.00     0.035 A 
ATOM      8 Cl8  ZIN A   1      16.961  -1.200  16.897  0.00  0.00    -0.084 Cl
ATOM      9  C9  ZIN A   1      17.626   0.611  15.005  0.00  0.00     0.040 A 
ATOM     10  C10 ZIN A   1      18.268   1.764  14.529  0.00  0.00     0.022 A 
ATOM     11  C11 ZIN A   1      18.077   2.115  13.112  0.00  0.00     0.079 C 
ATOM     12  N19 ZIN A   1      17.903   3.308  12.668  0.00  0.00    -0.247 NA
ATOM     13  C20 ZIN A   1      17.881   4.471  13.560  0.00  0.00     0.335 C 
ATOM     14  H23 ZIN A   1      20.613   3.806  15.369  0.00  0.00     0.169 HD
ENDROOT
BRANCH  11  15
ATOM     15  C12 ZIN A   1      18.086   1.010  12.126  0.00  0.00     0.015 A 
ATOM     16  C17 ZIN A   1      19.293   0.415  11.750  0.00  0.00     0.046 A 
ATOM     17  C16 ZIN A   1      19.292  -0.618  10.832  0.00  0.00     0.025 A 
ATOM     18 Cl18 ZIN A   1      20.786   0.964  12.444  0.00  0.00    -0.083 Cl
ATOM     19  C15 ZIN A   1      18.102  -1.055  10.280  0.00  0.00     0.002 A 
ATOM     20  C14 ZIN A   1      16.906  -0.466  10.645  0.00  0.00     0.001 A 
ATOM     21  C13 ZIN A   1      16.890   0.563  11.564  0.00  0.00     0.015 A 
ENDBRANCH  11  15
BRANCH  13  22
ATOM     22  O22 ZIN A   1      16.880   4.286  14.563  0.00  0.00    -0.367 OA
ATOM     23  H31 ZIN A   1      17.162   4.538  15.453  0.00  0.00     0.212 HD
ENDBRANCH  13  22
TORSDOF 2
ENDMDL
MODEL 8
REMARK VINA RESULT:      -7.2      2.565      4.680
REMARK  2 active torsions:
REMARK  status: ('A' for Active; 'I' for Inactive)
REMARK    1  A    between atoms: C11_11  and  C12_12 
REMARK    2  A    between atoms: C20_20  and  O22_21 
ROOT
ATOM      1  O1  ZIN A   1      18.872   0.969  13.464  0.00  0.00    -0.268 OA
ATOM      2  C2  ZIN A   1      18.597   0.142  12.620  0.00  0.00     0.272 C 
ATOM      3  N3  ZIN A   1      19.532  -0.721  12.230  0.00  0.00    -0.323 N 
ATOM      4  C4  ZIN A   1      19.338  -1.749  11.318  0.00  0.00     0.047 A 
ATOM      5  C5  ZIN A   1      19.946  -2.975  11.596  0.00  0.00     0.032 A 
ATOM      6  C6  ZIN A   1      19.801  -4.041  10.736  0.00  0.00     0.026 A 
ATOM      7  C7  ZIN A   1      19.047  -3.905   9.581  0.00  0.00     0.035 A 
ATOM      8 Cl8  ZIN A   1      18.867  -5.251   8.500  0.00  0.00    -0.084 Cl
ATOM      9  C9  ZIN A   1      18.439  -2.704   9.293  0.00  0.00     0.040 A 
ATOM     10  C10 ZIN A   1      18.578  -1.609  10.159  0.00  0.00     0.022 A 
ATOM     11  C11 ZIN A   1      17.898  -0.357   9.791  0.00  0.00     0.079 C 
ATOM     12  N19 ZIN A   1      17.285   0.417  10.614  0.00  0.00    -0.247 NA
ATOM     13  C20 ZIN A   1      17.207   0.115  12.047  0.00  0.00     0.335 C 
ATOM     14  H23 ZIN A   1      20.418  -0.624  12.613  0.00  0.00     0.169 HD
ENDROOT
BRANCH  11  15
ATOM     15  C12 ZIN A   1      17.922   0.041   8.364  0.00  0.00     0.015 A 
ATOM     16  C17 ZIN A   1      18.858   0.974   7.912  0.00  0.00     0.046 A 
ATOM     17  C16 ZIN A   1      18.877   1.336   6.579  0.00  0.00     0.025 A 
ATOM     18 Cl18 ZIN A   1      20.002   1.665   9.019  0.00  0.00    -0.083 Cl
ATOM     19  C15 ZIN A   1      17.966   0.785   5.696  0.00  0.00     0.002 A 
ATOM     20  C14 ZIN A   1      17.034  -0.135   6.140  0.00  0.00     0.001 A 
ATOM     21  C13 ZIN A   1      17.007  -0.510   7.468  0.00  0.00     0.015 A 
ENDBRANCH  11  15
BRANCH  13  22
ATOM     22  O22 ZIN A   1      16.627  -1.177  12.233  0.00  0.00    -0.367 OA
ATOM     23  H31 ZIN A   1      16.912  -1.624  13.042  0.00  0.00     0.212 HD
ENDBRANCH  13  22
TORSDOF 2
ENDMDL
MODEL 9
REMARK VINA RESULT:      -7.2      3.582      6.558
REMARK  2 active torsions:
REMARK  status: ('A' for Active; 'I' for Inactive)
REMARK    1  A    between atoms: C11_11  and  C12_12 
REMARK    2  A    between atoms: C20_20  and  O22_21 
ROOT
ATOM      1  O1  ZIN A   1      18.205   1.983   9.687  0.00  0.00    -0.268 OA
ATOM      2  C2  ZIN A   1      18.523   2.189  10.839  0.00  0.00     0.272 C 
ATOM      3  N3  ZIN A   1      17.916   1.509  11.810  0.00  0.00    -0.323 N 
ATOM      4  C4  ZIN A   1      18.219   1.604  13.161  0.00  0.00     0.047 A 
ATOM      5  C5  ZIN A   1      18.227   0.421  13.900  0.00  0.00     0.032 A 
ATOM      6  C6  ZIN A   1      18.516   0.436  15.247  0.00  0.00     0.026 A 
ATOM      7  C7  ZIN A   1      18.803   1.633  15.883  0.00  0.00     0.035 A 
ATOM      8 Cl8  ZIN A   1      19.167   1.649  17.580  0.00  0.00    -0.084 Cl
ATOM      9  C9  ZIN A   1      18.802   2.810  15.167  0.00  0.00     0.040 A 
ATOM     10  C10 ZIN A   1      18.509   2.810  13.796  0.00  0.00     0.022 A 
ATOM     11  C11 ZIN A   1      18.530   4.103  13.094  0.00  0.00     0.079 C 
ATOM     12  N19 ZIN A   1      19.009   4.293  11.916  0.00  0.00    -0.247 NA
ATOM     13  C20 ZIN A   1      19.597   3.200  11.134  0.00  0.00     0.335 C 
ATOM     14  H23 ZIN A   1      17.207   0.900  11.552  0.00  0.00     0.169 HD
ENDROOT
BRANCH  11  15
ATOM     15  C12 ZIN A   1      17.956   5.273  13.797  0.00  0.00     0.015 A 
ATOM     16  C17 ZIN A   1      18.793   6.175  14.457  0.00  0.00     0.046 A 
ATOM     17  C16 ZIN A   1      18.250   7.267  15.107  0.00  0.00     0.025 A 
ATOM     18 Cl18 ZIN A   1      20.512   5.932  14.450  0.00  0.00    -0.083 Cl
ATOM     19  C15 ZIN A   1      16.881   7.461  15.113  0.00  0.00     0.002 A 
ATOM     20  C14 ZIN A   1      16.047   6.568  14.465  0.00  0.00     0.001 A 
ATOM     21  C13 ZIN A   1      16.576   5.476  13.807  0.00  0.00     0.015 A 
ENDBRANCH  11  15
BRANCH  13  22
ATOM     22  O22 ZIN A   1      20.650   2.589  11.882  0.00  0.00    -0.367 OA
ATOM     23  H31 ZIN A   1      21.531   2.926  11.670  0.00  0.00     0.212 HD
ENDBRANCH  13  22
TORSDOF 2
ENDMDL
