MODEL 1
REMARK VINA RESULT:      -3.8      0.000      0.000
REMARK  1 active torsions:
REMARK  status: ('A' for Active; 'I' for Inactive)
REMARK    1  A    between atoms: N1_1  and  C2_2 
ROOT
ATOM      1  C2  <0> d   1      17.873  -1.034   5.591  0.00  0.00     0.325 C 
ATOM      2  C4  <0> d   1      18.092  -2.096   4.486  0.00  0.00     0.248 C 
ATOM      3  O5  <0> d   1      19.519  -2.017   4.288  0.00  0.00    -0.252 OA
ATOM      4  N6  <0> d   1      19.932  -0.725   4.683  0.00  0.00    -0.107 NA
ATOM      5  C7  <0> d   1      19.069  -0.118   5.413  0.00  0.00     0.238 C 
ATOM      6  O8  <0> d   1      19.206   1.122   5.933  0.00  0.00    -0.170 OA
ENDROOT
BRANCH   1   7
ATOM      7  N1  <0> d   1      17.885  -1.656   6.922  0.00  0.00     0.093 N 
ATOM      8  H9  <0> d   1      18.798  -1.584   7.346  0.00  0.00     0.313 HD
ATOM      9  H10 <0> d   1      17.178  -1.251   7.516  0.00  0.00     0.313 HD
ENDBRANCH   1   7
TORSDOF 1
ENDMDL
MODEL 2
REMARK VINA RESULT:      -3.8     11.713     12.607
REMARK  1 active torsions:
REMARK  status: ('A' for Active; 'I' for Inactive)
REMARK    1  A    between atoms: N1_1  and  C2_2 
ROOT
ATOM      1  C2  <0> d   1      18.663   1.951  16.719  0.00  0.00     0.325 C 
ATOM      2  C4  <0> d   1      18.769   2.896  17.940  0.00  0.00     0.248 C 
ATOM      3  O5  <0> d   1      19.768   2.227  18.736  0.00  0.00    -0.252 OA
ATOM      4  N6  <0> d   1      19.740   0.856  18.392  0.00  0.00    -0.107 NA
ATOM      5  C7  <0> d   1      19.144   0.626  17.280  0.00  0.00     0.238 C 
ATOM      6  O8  <0> d   1      18.977  -0.588  16.710  0.00  0.00    -0.170 OA
ENDROOT
BRANCH   1   7
ATOM      7  N1  <0> d   1      19.539   2.405  15.630  0.00  0.00     0.093 N 
ATOM      8  H9  <0> d   1      19.331   1.917  14.772  0.00  0.00     0.313 HD
ATOM      9  H10 <0> d   1      19.471   3.403  15.504  0.00  0.00     0.313 HD
ENDBRANCH   1   7
TORSDOF 1
ENDMDL
MODEL 3
REMARK VINA RESULT:      -3.7      1.806      2.153
REMARK  1 active torsions:
REMARK  status: ('A' for Active; 'I' for Inactive)
REMARK    1  A    between atoms: N1_1  and  C2_2 
ROOT
ATOM      1  C2  <0> d   1      18.515  -0.466   6.121  0.00  0.00     0.325 C 
ATOM      2  C4  <0> d   1      19.275  -0.119   4.818  0.00  0.00     0.248 C 
ATOM      3  O5  <0> d   1      19.683  -1.426   4.364  0.00  0.00    -0.252 OA
ATOM      4  N6  <0> d   1      19.750  -2.268   5.498  0.00  0.00    -0.107 NA
ATOM      5  C7  <0> d   1      19.120  -1.801   6.513  0.00  0.00     0.238 C 
ATOM      6  O8  <0> d   1      19.015  -2.398   7.721  0.00  0.00    -0.170 OA
ENDROOT
BRANCH   1   7
ATOM      7  N1  <0> d   1      17.075  -0.601   5.865  0.00  0.00     0.093 N 
ATOM      8  H9  <0> d   1      16.899  -1.272   5.133  0.00  0.00     0.313 HD
ATOM      9  H10 <0> d   1      16.580  -0.848   6.708  0.00  0.00     0.313 HD
ENDBRANCH   1   7
TORSDOF 1
ENDMDL
MODEL 4
REMARK VINA RESULT:      -3.7     11.659     12.326
REMARK  1 active torsions:
REMARK  status: ('A' for Active; 'I' for Inactive)
REMARK    1  A    between atoms: N1_1  and  C2_2 
ROOT
ATOM      1  C2  <0> d   1      18.523   0.680  16.936  0.00  0.00     0.325 C 
ATOM      2  C4  <0> d   1      19.409   0.303  18.148  0.00  0.00     0.248 C 
ATOM      3  O5  <0> d   1      19.729   1.603  18.686  0.00  0.00    -0.252 OA
ATOM      4  N6  <0> d   1      19.632   2.537  17.631  0.00  0.00    -0.107 NA
ATOM      5  C7  <0> d   1      18.972   2.095  16.624  0.00  0.00     0.238 C 
ATOM      6  O8  <0> d   1      18.720   2.776  15.484  0.00  0.00    -0.170 OA
ENDROOT
BRANCH   1   7
ATOM      7  N1  <0> d   1      17.100   0.652  17.301  0.00  0.00     0.093 N 
ATOM      8  H9  <0> d   1      16.543   1.146  16.620  0.00  0.00     0.313 HD
ATOM      9  H10 <0> d   1      16.775  -0.295  17.415  0.00  0.00     0.313 HD
ENDBRANCH   1   7
TORSDOF 1
ENDMDL
MODEL 5
REMARK VINA RESULT:      -3.4      7.060      7.876
REMARK  1 active torsions:
REMARK  status: ('A' for Active; 'I' for Inactive)
REMARK    1  A    between atoms: N1_1  and  C2_2 
ROOT
ATOM      1  C2  <0> d   1      20.122   0.473  12.381  0.00  0.00     0.325 C 
ATOM      2  C4  <0> d   1      19.794   0.435  13.893  0.00  0.00     0.248 C 
ATOM      3  O5  <0> d   1      19.724  -0.985  14.137  0.00  0.00    -0.252 OA
ATOM      4  N6  <0> d   1      19.394  -1.611  12.914  0.00  0.00    -0.107 NA
ATOM      5  C7  <0> d   1      19.593  -0.862  11.892  0.00  0.00     0.238 C 
ATOM      6  O8  <0> d   1      19.370  -1.206  10.604  0.00  0.00    -0.170 OA
ENDROOT
BRANCH   1   7
ATOM      7  N1  <0> d   1      21.571   0.572  12.163  0.00  0.00     0.093 N 
ATOM      8  H9  <0> d   1      22.074   0.489  13.034  0.00  0.00     0.313 HD
ATOM      9  H10 <0> d   1      21.884  -0.117  11.497  0.00  0.00     0.313 HD
ENDBRANCH   1   7
TORSDOF 1
ENDMDL
MODEL 6
REMARK VINA RESULT:      -3.4      6.199      6.972
REMARK  1 active torsions:
REMARK  status: ('A' for Active; 'I' for Inactive)
REMARK    1  A    between atoms: N1_1  and  C2_2 
ROOT
ATOM      1  C2  <0> d   1      20.173  -0.324  11.295  0.00  0.00     0.325 C 
ATOM      2  C4  <0> d   1      19.435   0.455  10.180  0.00  0.00     0.248 C 
ATOM      3  O5  <0> d   1      19.570   1.815  10.640  0.00  0.00    -0.252 OA
ATOM      4  N6  <0> d   1      19.735   1.775  12.043  0.00  0.00    -0.107 NA
ATOM      5  C7  <0> d   1      20.074   0.618  12.480  0.00  0.00     0.238 C 
ATOM      6  O8  <0> d   1      20.304   0.298  13.773  0.00  0.00    -0.170 OA
ENDROOT
BRANCH   1   7
ATOM      7  N1  <0> d   1      21.577  -0.557  10.929  0.00  0.00     0.093 N 
ATOM      8  H9  <0> d   1      21.839   0.003  10.132  0.00  0.00     0.313 HD
ATOM      9  H10 <0> d   1      22.188  -0.381  11.711  0.00  0.00     0.313 HD
ENDBRANCH   1   7
TORSDOF 1
ENDMDL
MODEL 7
REMARK VINA RESULT:      -3.4      7.836      8.522
REMARK  1 active torsions:
REMARK  status: ('A' for Active; 'I' for Inactive)
REMARK    1  A    between atoms: N1_1  and  C2_2 
ROOT
ATOM      1  C2  <0> d   1      20.119   0.440  12.252  0.00  0.00     0.325 C 
ATOM      2  C4  <0> d   1      19.408   1.782  11.951  0.00  0.00     0.248 C 
ATOM      3  O5  <0> d   1      19.226   2.316  13.278  0.00  0.00    -0.252 OA
ATOM      4  N6  <0> d   1      19.205   1.226  14.177  0.00  0.00    -0.107 NA
ATOM      5  C7  <0> d   1      19.689   0.148  13.677  0.00  0.00     0.238 C 
ATOM      6  O8  <0> d   1      19.796  -1.039  14.313  0.00  0.00    -0.170 OA
ENDROOT
BRANCH   1   7
ATOM      7  N1  <0> d   1      21.577   0.592  12.168  0.00  0.00     0.093 N 
ATOM      8  H9  <0> d   1      21.829   1.277  11.471  0.00  0.00     0.313 HD
ATOM      9  H10 <0> d   1      21.968   0.830  13.066  0.00  0.00     0.313 HD
ENDBRANCH   1   7
TORSDOF 1
ENDMDL
MODEL 8
REMARK VINA RESULT:      -3.4      6.141      7.242
REMARK  1 active torsions:
REMARK  status: ('A' for Active; 'I' for Inactive)
REMARK    1  A    between atoms: N1_1  and  C2_2 
ROOT
ATOM      1  C2  <0> d   1      19.444   3.226  11.243  0.00  0.00     0.325 C 
ATOM      2  C4  <0> d   1      18.369   3.584  12.298  0.00  0.00     0.248 C 
ATOM      3  O5  <0> d   1      17.311   2.665  11.956  0.00  0.00    -0.252 OA
ATOM      4  N6  <0> d   1      17.459   2.336  10.590  0.00  0.00    -0.107 NA
ATOM      5  C7  <0> d   1      18.621   2.616  10.124  0.00  0.00     0.238 C 
ATOM      6  O8  <0> d   1      19.036   2.403   8.856  0.00  0.00    -0.170 OA
ENDROOT
BRANCH   1   7
ATOM      7  N1  <0> d   1      20.398   2.247  11.781  0.00  0.00     0.093 N 
ATOM      8  H9  <0> d   1      20.489   1.454  11.165  0.00  0.00     0.313 HD
ATOM      9  H10 <0> d   1      21.295   2.675  11.954  0.00  0.00     0.313 HD
ENDBRANCH   1   7
TORSDOF 1
ENDMDL
MODEL 9
REMARK VINA RESULT:      -3.4      4.725      5.177
REMARK  1 active torsions:
REMARK  status: ('A' for Active; 'I' for Inactive)
REMARK    1  A    between atoms: N1_1  and  C2_2 
ROOT
ATOM      1  C2  <0> d   1      20.128  -0.495  10.841  0.00  0.00     0.325 C 
ATOM      2  C4  <0> d   1      19.463  -1.833  11.244  0.00  0.00     0.248 C 
ATOM      3  O5  <0> d   1      19.296  -2.470   9.960  0.00  0.00    -0.252 OA
ATOM      4  N6  <0> d   1      19.236  -1.450   8.984  0.00  0.00    -0.107 NA
ATOM      5  C7  <0> d   1      19.685  -0.323   9.401  0.00  0.00     0.238 C 
ATOM      6  O8  <0> d   1      19.751   0.817   8.678  0.00  0.00    -0.170 OA
ENDROOT
BRANCH   1   7
ATOM      7  N1  <0> d   1      21.591  -0.592  10.929  0.00  0.00     0.093 N 
ATOM      8  H9  <0> d   1      21.884  -0.771  11.878  0.00  0.00     0.313 HD
ATOM      9  H10 <0> d   1      21.945  -1.297  10.302  0.00  0.00     0.313 HD
ENDBRANCH   1   7
TORSDOF 1
ENDMDL
