MODEL 1
REMARK VINA RESULT:     -10.3      0.000      0.000
REMARK  16 active torsions:
REMARK  status: ('A' for Active; 'I' for Inactive)
REMARK    1  A    between atoms: C8_8  and  O9_9 
REMARK    2  A    between atoms: O9_9  and  C10_10 
REMARK    3  A    between atoms: C10_10  and  C11_11 
REMARK       I    between atoms: C11_11  and  N13_13 
REMARK    4  A    between atoms: N13_13  and  C14_14 
REMARK    5  A    between atoms: C14_14  and  C16_15 
REMARK    6  A    between atoms: C14_14  and  C23_22 
REMARK    7  A    between atoms: C16_15  and  C17_16 
REMARK    8  A    between atoms: C23_22  and  O25_23 
REMARK    9  A    between atoms: C23_22  and  C26_24 
REMARK   10  A    between atoms: C26_24  and  C27_25 
REMARK   11  A    between atoms: C27_25  and  C29_26 
REMARK   12  A    between atoms: C27_25  and  N36_33 
REMARK   13  A    between atoms: C29_26  and  C30_27 
REMARK       I    between atoms: N36_33  and  C37_34 
REMARK   14  A    between atoms: C37_34  and  C39_36 
REMARK   15  A    between atoms: C39_36  and  C41_37 
REMARK   16  A    between atoms: C39_36  and  N44_40 
ROOT
ATOM      1  C23 ZIN A   1      20.064   0.066  11.584  0.00  0.00     0.143 C 
ENDROOT
BRANCH   1   2
ATOM      2  C14 ZIN A   1      19.451   1.193  12.419  0.00  0.00     0.117 C 
BRANCH   2   3
ATOM      3  N13 ZIN A   1      19.777   0.987  13.831  0.00  0.00    -0.352 N 
ATOM      4  C11 ZIN A   1      18.803   1.037  14.762  0.00  0.00     0.242 C 
ATOM      5  O12 ZIN A   1      17.657   1.252  14.429  0.00  0.00    -0.271 OA
ATOM      6  H62 ZIN A   1      20.693   0.814  14.099  0.00  0.00     0.163 HD
BRANCH   4   7
ATOM      7  C10 ZIN A   1      19.138   0.825  16.216  0.00  0.00     0.278 C 
BRANCH   7   8
ATOM      8  O9  ZIN A   1      19.640   2.041  16.772  0.00  0.00    -0.341 OA
BRANCH   8   9
ATOM      9  C8  ZIN A   1      18.766   2.800  17.486  0.00  0.00     0.081 A 
ATOM     10  C2  ZIN A   1      17.972   2.213  18.459  0.00  0.00    -0.028 A 
ATOM     11  C1  ZIN A   1      18.080   0.736  18.732  0.00  0.00     0.051 C 
ATOM     12  C3  ZIN A   1      17.085   2.987  19.183  0.00  0.00     0.009 A 
ATOM     13  C4  ZIN A   1      16.985   4.343  18.934  0.00  0.00     0.001 A 
ATOM     14  C5  ZIN A   1      17.773   4.929  17.960  0.00  0.00     0.009 A 
ATOM     15  C6  ZIN A   1      18.661   4.161  17.233  0.00  0.00    -0.028 A 
ATOM     16  C7  ZIN A   1      19.519   4.799  16.172  0.00  0.00     0.051 C 
ENDBRANCH   8   9
ENDBRANCH   7   8
ENDBRANCH   4   7
ENDBRANCH   2   3
BRANCH   2  17
ATOM     17  C16 ZIN A   1      20.017   2.536  11.955  0.00  0.00     0.066 C 
BRANCH  17  18
ATOM     18  C17 ZIN A   1      18.895   3.532  11.812  0.00  0.00    -0.056 A 
ATOM     19  C22 ZIN A   1      18.285   3.713  10.585  0.00  0.00     0.007 A 
ATOM     20  C21 ZIN A   1      17.252   4.623  10.454  0.00  0.00     0.001 A 
ATOM     21  C20 ZIN A   1      16.836   5.358  11.548  0.00  0.00     0.000 A 
ATOM     22  C19 ZIN A   1      17.451   5.180  12.774  0.00  0.00     0.001 A 
ATOM     23  C18 ZIN A   1      18.480   4.268  12.905  0.00  0.00     0.007 A 
ENDBRANCH  17  18
ENDBRANCH   2  17
ENDBRANCH   1   2
BRANCH   1  24
ATOM     24  O25 ZIN A   1      21.489   0.165  11.624  0.00  0.00    -0.393 OA
ATOM     25  H70 ZIN A   1      21.947  -0.564  11.183  0.00  0.00     0.210 HD
ENDBRANCH   1  24
BRANCH   1  26
ATOM     26  C26 ZIN A   1      19.630  -1.286  12.156  0.00  0.00     0.059 C 
BRANCH  26  27
ATOM     27  C27 ZIN A   1      19.235  -2.221  11.010  0.00  0.00     0.091 C 
BRANCH  27  28
ATOM     28  C29 ZIN A   1      19.906  -3.581  11.209  0.00  0.00     0.063 C 
BRANCH  28  29
ATOM     29  C30 ZIN A   1      19.078  -4.651  10.546  0.00  0.00    -0.056 A 
ATOM     30  C35 ZIN A   1      19.538  -5.272   9.399  0.00  0.00     0.007 A 
ATOM     31  C34 ZIN A   1      18.779  -6.256   8.794  0.00  0.00     0.001 A 
ATOM     32  C33 ZIN A   1      17.557  -6.614   9.330  0.00  0.00     0.000 A 
ATOM     33  C32 ZIN A   1      17.095  -5.990  10.474  0.00  0.00     0.001 A 
ATOM     34  C31 ZIN A   1      17.854  -5.008  11.081  0.00  0.00     0.007 A 
ENDBRANCH  28  29
ENDBRANCH  27  28
BRANCH  27  35
ATOM     35  N36 ZIN A   1      19.669  -1.643   9.736  0.00  0.00    -0.354 N 
ATOM     36  C37 ZIN A   1      18.797  -1.533   8.715  0.00  0.00     0.241 C 
ATOM     37  O38 ZIN A   1      17.632  -1.832   8.876  0.00  0.00    -0.271 OA
ATOM     38  H80 ZIN A   1      20.583  -1.338   9.628  0.00  0.00     0.162 HD
BRANCH  36  39
ATOM     39  C39 ZIN A   1      19.269  -1.040   7.371  0.00  0.00     0.184 C 
BRANCH  39  40
ATOM     40  C41 ZIN A   1      18.807   0.405   7.169  0.00  0.00     0.010 C 
ATOM     41  C42 ZIN A   1      19.373   1.282   8.288  0.00  0.00     0.012 C 
ATOM     42  C43 ZIN A   1      19.309   0.917   5.816  0.00  0.00     0.012 C 
ENDBRANCH  39  40
BRANCH  39  43
ATOM     43  N44 ZIN A   1      18.705  -1.885   6.315  0.00  0.00    -0.320 N 
ATOM     44  C49 ZIN A   1      19.337  -3.017   5.972  0.00  0.00     0.319 C 
ATOM     45  N48 ZIN A   1      18.882  -3.836   5.012  0.00  0.00    -0.343 N 
ATOM     46  O50 ZIN A   1      20.356  -3.319   6.563  0.00  0.00    -0.247 OA
ATOM     47  C47 ZIN A   1      17.655  -3.536   4.273  0.00  0.00     0.126 C 
ATOM     48  H94 ZIN A   1      19.379  -4.642   4.799  0.00  0.00     0.164 HD
ATOM     49  C46 ZIN A   1      17.459  -2.016   4.219  0.00  0.00     0.040 C 
ATOM     50  C45 ZIN A   1      17.467  -1.472   5.651  0.00  0.00     0.130 C 
ENDBRANCH  39  43
ENDBRANCH  36  39
ENDBRANCH  27  35
ENDBRANCH  26  27
ENDBRANCH   1  26
TORSDOF 16
ENDMDL
MODEL 2
REMARK VINA RESULT:     -10.3      1.576      4.066
REMARK  16 active torsions:
REMARK  status: ('A' for Active; 'I' for Inactive)
REMARK    1  A    between atoms: C8_8  and  O9_9 
REMARK    2  A    between atoms: O9_9  and  C10_10 
REMARK    3  A    between atoms: C10_10  and  C11_11 
REMARK       I    between atoms: C11_11  and  N13_13 
REMARK    4  A    between atoms: N13_13  and  C14_14 
REMARK    5  A    between atoms: C14_14  and  C16_15 
REMARK    6  A    between atoms: C14_14  and  C23_22 
REMARK    7  A    between atoms: C16_15  and  C17_16 
REMARK    8  A    between atoms: C23_22  and  O25_23 
REMARK    9  A    between atoms: C23_22  and  C26_24 
REMARK   10  A    between atoms: C26_24  and  C27_25 
REMARK   11  A    between atoms: C27_25  and  C29_26 
REMARK   12  A    between atoms: C27_25  and  N36_33 
REMARK   13  A    between atoms: C29_26  and  C30_27 
REMARK       I    between atoms: N36_33  and  C37_34 
REMARK   14  A    between atoms: C37_34  and  C39_36 
REMARK   15  A    between atoms: C39_36  and  C41_37 
REMARK   16  A    between atoms: C39_36  and  N44_40 
ROOT
ATOM      1  C23 ZIN A   1      18.132  -1.663  12.583  0.00  0.00     0.143 C 
ENDROOT
BRANCH   1   2
ATOM      2  C14 ZIN A   1      18.517  -0.389  13.338  0.00  0.00     0.117 C 
BRANCH   2   3
ATOM      3  N13 ZIN A   1      18.555   0.739  12.406  0.00  0.00    -0.352 N 
ATOM      4  C11 ZIN A   1      19.719   1.377  12.165  0.00  0.00     0.242 C 
ATOM      5  O12 ZIN A   1      20.733   1.016  12.722  0.00  0.00    -0.271 OA
ATOM      6  H62 ZIN A   1      17.744   1.029  11.960  0.00  0.00     0.163 HD
BRANCH   4   7
ATOM      7  C10 ZIN A   1      19.758   2.538  11.206  0.00  0.00     0.278 C 
BRANCH   7   8
ATOM      8  O9  ZIN A   1      19.812   3.762  11.940  0.00  0.00    -0.341 OA
BRANCH   8   9
ATOM      9  C8  ZIN A   1      18.625   4.341  12.262  0.00  0.00     0.081 A 
ATOM     10  C2  ZIN A   1      18.341   4.657  13.582  0.00  0.00    -0.028 A 
ATOM     11  C1  ZIN A   1      19.350   4.364  14.661  0.00  0.00     0.051 C 
ATOM     12  C3  ZIN A   1      17.134   5.245  13.905  0.00  0.00     0.009 A 
ATOM     13  C4  ZIN A   1      16.207   5.515  12.915  0.00  0.00     0.001 A 
ATOM     14  C5  ZIN A   1      16.486   5.196  11.598  0.00  0.00     0.009 A 
ATOM     15  C6  ZIN A   1      17.691   4.607  11.270  0.00  0.00    -0.028 A 
ATOM     16  C7  ZIN A   1      17.996   4.259   9.835  0.00  0.00     0.051 C 
ENDBRANCH   8   9
ENDBRANCH   7   8
ENDBRANCH   4   7
ENDBRANCH   2   3
BRANCH   2  17
ATOM     17  C16 ZIN A   1      17.484  -0.113  14.432  0.00  0.00     0.066 C 
BRANCH  17  18
ATOM     18  C17 ZIN A   1      18.187   0.078  15.751  0.00  0.00    -0.056 A 
ATOM     19  C22 ZIN A   1      18.567  -1.023  16.497  0.00  0.00     0.007 A 
ATOM     20  C21 ZIN A   1      19.216  -0.848  17.705  0.00  0.00     0.001 A 
ATOM     21  C20 ZIN A   1      19.477   0.426  18.172  0.00  0.00     0.000 A 
ATOM     22  C19 ZIN A   1      19.093   1.527  17.427  0.00  0.00     0.001 A 
ATOM     23  C18 ZIN A   1      18.448   1.352  16.219  0.00  0.00     0.007 A 
ENDBRANCH  17  18
ENDBRANCH   2  17
ENDBRANCH   1   2
BRANCH   1  24
ATOM     24  O25 ZIN A   1      16.967  -1.413  11.793  0.00  0.00    -0.393 OA
ATOM     25  H70 ZIN A   1      17.005  -0.591  11.285  0.00  0.00     0.210 HD
ENDBRANCH   1  24
BRANCH   1  26
ATOM     26  C26 ZIN A   1      19.286  -2.084  11.671  0.00  0.00     0.059 C 
BRANCH  26  27
ATOM     27  C27 ZIN A   1      18.733  -2.864  10.476  0.00  0.00     0.091 C 
BRANCH  27  28
ATOM     28  C29 ZIN A   1      19.096  -4.343  10.621  0.00  0.00     0.063 C 
BRANCH  28  29
ATOM     29  C30 ZIN A   1      18.136  -5.176   9.812  0.00  0.00    -0.056 A 
ATOM     30  C35 ZIN A   1      16.779  -4.915   9.864  0.00  0.00     0.007 A 
ATOM     31  C34 ZIN A   1      15.899  -5.677   9.119  0.00  0.00     0.001 A 
ATOM     32  C33 ZIN A   1      16.375  -6.705   8.326  0.00  0.00     0.000 A 
ATOM     33  C32 ZIN A   1      17.731  -6.969   8.278  0.00  0.00     0.001 A 
ATOM     34  C31 ZIN A   1      18.612  -6.205   9.021  0.00  0.00     0.007 A 
ENDBRANCH  28  29
ENDBRANCH  27  28
BRANCH  27  35
ATOM     35  N36 ZIN A   1      19.314  -2.338   9.239  0.00  0.00    -0.354 N 
ATOM     36  C37 ZIN A   1      18.560  -1.597   8.403  0.00  0.00     0.241 C 
ATOM     37  O38 ZIN A   1      17.428  -1.293   8.714  0.00  0.00    -0.271 OA
ATOM     38  H80 ZIN A   1      20.241  -2.521   9.021  0.00  0.00     0.162 HD
BRANCH  36  39
ATOM     39  C39 ZIN A   1      19.123  -1.147   7.079  0.00  0.00     0.184 C 
BRANCH  39  40
ATOM     40  C41 ZIN A   1      18.743   0.316   6.836  0.00  0.00     0.010 C 
ATOM     41  C42 ZIN A   1      19.269   1.177   7.985  0.00  0.00     0.012 C 
ATOM     42  C43 ZIN A   1      19.361   0.791   5.518  0.00  0.00     0.012 C 
ENDBRANCH  39  40
BRANCH  39  43
ATOM     43  N44 ZIN A   1      18.574  -1.979   6.005  0.00  0.00    -0.320 N 
ATOM     44  C49 ZIN A   1      19.204  -3.115   5.668  0.00  0.00     0.319 C 
ATOM     45  N48 ZIN A   1      18.762  -3.923   4.692  0.00  0.00    -0.343 N 
ATOM     46  O50 ZIN A   1      20.207  -3.430   6.277  0.00  0.00    -0.247 OA
ATOM     47  C47 ZIN A   1      17.553  -3.607   3.931  0.00  0.00     0.126 C 
ATOM     48  H94 ZIN A   1      19.256  -4.732   4.485  0.00  0.00     0.164 HD
ATOM     49  C46 ZIN A   1      17.372  -2.085   3.883  0.00  0.00     0.040 C 
ATOM     50  C45 ZIN A   1      17.354  -1.551   5.319  0.00  0.00     0.130 C 
ENDBRANCH  39  43
ENDBRANCH  36  39
ENDBRANCH  27  35
ENDBRANCH  26  27
ENDBRANCH   1  26
TORSDOF 16
ENDMDL
MODEL 3
REMARK VINA RESULT:     -10.2      1.465     10.739
REMARK  16 active torsions:
REMARK  status: ('A' for Active; 'I' for Inactive)
REMARK    1  A    between atoms: C8_8  and  O9_9 
REMARK    2  A    between atoms: O9_9  and  C10_10 
REMARK    3  A    between atoms: C10_10  and  C11_11 
REMARK       I    between atoms: C11_11  and  N13_13 
REMARK    4  A    between atoms: N13_13  and  C14_14 
REMARK    5  A    between atoms: C14_14  and  C16_15 
REMARK    6  A    between atoms: C14_14  and  C23_22 
REMARK    7  A    between atoms: C16_15  and  C17_16 
REMARK    8  A    between atoms: C23_22  and  O25_23 
REMARK    9  A    between atoms: C23_22  and  C26_24 
REMARK   10  A    between atoms: C26_24  and  C27_25 
REMARK   11  A    between atoms: C27_25  and  C29_26 
REMARK   12  A    between atoms: C27_25  and  N36_33 
REMARK   13  A    between atoms: C29_26  and  C30_27 
REMARK       I    between atoms: N36_33  and  C37_34 
REMARK   14  A    between atoms: C37_34  and  C39_36 
REMARK   15  A    between atoms: C39_36  and  C41_37 
REMARK   16  A    between atoms: C39_36  and  N44_40 
ROOT
ATOM      1  C23 ZIN A   1      20.072  -0.114  11.466  0.00  0.00     0.143 C 
ENDROOT
BRANCH   1   2
ATOM      2  C14 ZIN A   1      19.500  -1.242  10.604  0.00  0.00     0.117 C 
BRANCH   2   3
ATOM      3  N13 ZIN A   1      19.858  -1.014   9.202  0.00  0.00    -0.352 N 
ATOM      4  C11 ZIN A   1      18.932  -1.178   8.235  0.00  0.00     0.242 C 
ATOM      5  O12 ZIN A   1      17.805  -1.514   8.527  0.00  0.00    -0.271 OA
ATOM      6  H62 ZIN A   1      20.760  -0.744   8.968  0.00  0.00     0.163 HD
BRANCH   4   7
ATOM      7  C10 ZIN A   1      19.299  -0.943   6.793  0.00  0.00     0.278 C 
BRANCH   7   8
ATOM      8  O9  ZIN A   1      19.687  -2.180   6.192  0.00  0.00    -0.341 OA
BRANCH   8   9
ATOM      9  C8  ZIN A   1      18.740  -2.841   5.476  0.00  0.00     0.081 A 
ATOM     10  C2  ZIN A   1      17.970  -2.159   4.545  0.00  0.00    -0.028 A 
ATOM     11  C1  ZIN A   1      18.187  -0.685   4.322  0.00  0.00     0.051 C 
ATOM     12  C3  ZIN A   1      17.008  -2.834   3.819  0.00  0.00     0.009 A 
ATOM     13  C4  ZIN A   1      16.809  -4.187   4.022  0.00  0.00     0.001 A 
ATOM     14  C5  ZIN A   1      17.571  -4.868   4.954  0.00  0.00     0.009 A 
ATOM     15  C6  ZIN A   1      18.534  -4.198   5.683  0.00  0.00    -0.028 A 
ATOM     16  C7  ZIN A   1      19.365  -4.940   6.697  0.00  0.00     0.051 C 
ENDBRANCH   8   9
ENDBRANCH   7   8
ENDBRANCH   4   7
ENDBRANCH   2   3
BRANCH   2  17
ATOM     17  C16 ZIN A   1      20.079  -2.581  11.066  0.00  0.00     0.066 C 
BRANCH  17  18
ATOM     18  C17 ZIN A   1      19.024  -3.650  10.953  0.00  0.00    -0.056 A 
ATOM     19  C22 ZIN A   1      17.786  -3.464  11.540  0.00  0.00     0.007 A 
ATOM     20  C21 ZIN A   1      16.816  -4.443  11.432  0.00  0.00     0.001 A 
ATOM     21  C20 ZIN A   1      17.087  -5.612  10.747  0.00  0.00     0.000 A 
ATOM     22  C19 ZIN A   1      18.328  -5.800  10.165  0.00  0.00     0.001 A 
ATOM     23  C18 ZIN A   1      19.296  -4.820  10.269  0.00  0.00     0.007 A 
ENDBRANCH  17  18
ENDBRANCH   2  17
ENDBRANCH   1   2
BRANCH   1  24
ATOM     24  O25 ZIN A   1      21.499  -0.132  11.388  0.00  0.00    -0.393 OA
ATOM     25  H70 ZIN A   1      21.931  -0.480  12.180  0.00  0.00     0.210 HD
ENDBRANCH   1  24
BRANCH   1  26
ATOM     26  C26 ZIN A   1      19.550   1.231  10.957  0.00  0.00     0.059 C 
BRANCH  26  27
ATOM     27  C27 ZIN A   1      19.068   2.073  12.141  0.00  0.00     0.091 C 
BRANCH  27  28
ATOM     28  C29 ZIN A   1      19.639   3.487  12.027  0.00  0.00     0.063 C 
BRANCH  28  29
ATOM     29  C30 ZIN A   1      18.670   4.470  12.632  0.00  0.00    -0.056 A 
ATOM     30  C35 ZIN A   1      19.023   5.181  13.764  0.00  0.00     0.007 A 
ATOM     31  C34 ZIN A   1      18.135   6.085  14.317  0.00  0.00     0.001 A 
ATOM     32  C33 ZIN A   1      16.892   6.273  13.741  0.00  0.00     0.000 A 
ATOM     33  C32 ZIN A   1      16.539   5.559  12.612  0.00  0.00     0.001 A 
ATOM     34  C31 ZIN A   1      17.427   4.657  12.057  0.00  0.00     0.007 A 
ENDBRANCH  28  29
ENDBRANCH  27  28
BRANCH  27  35
ATOM     35  N36 ZIN A   1      19.523   1.461  13.391  0.00  0.00    -0.354 N 
ATOM     36  C37 ZIN A   1      18.631   1.148  14.351  0.00  0.00     0.241 C 
ATOM     37  O38 ZIN A   1      17.443   1.291  14.147  0.00  0.00    -0.271 OA
ATOM     38  H80 ZIN A   1      20.465   1.281  13.529  0.00  0.00     0.162 HD
BRANCH  36  39
ATOM     39  C39 ZIN A   1      19.107   0.620  15.680  0.00  0.00     0.184 C 
BRANCH  39  40
ATOM     40  C41 ZIN A   1      18.639  -0.828  15.850  0.00  0.00     0.010 C 
ATOM     41  C42 ZIN A   1      18.859  -1.591  14.542  0.00  0.00     0.012 C 
ATOM     42  C43 ZIN A   1      19.441  -1.494  16.971  0.00  0.00     0.012 C 
ENDBRANCH  39  40
BRANCH  39  43
ATOM     43  N44 ZIN A   1      18.554   1.441  16.760  0.00  0.00    -0.320 N 
ATOM     44  C49 ZIN A   1      19.112   2.631  17.032  0.00  0.00     0.319 C 
ATOM     45  N48 ZIN A   1      18.661   3.433  18.008  0.00  0.00    -0.343 N 
ATOM     46  O50 ZIN A   1      20.055   3.001  16.360  0.00  0.00    -0.247 OA
ATOM     47  C47 ZIN A   1      17.522   3.051  18.843  0.00  0.00     0.126 C 
ATOM     48  H94 ZIN A   1      19.103   4.283  18.167  0.00  0.00     0.164 HD
ATOM     49  C46 ZIN A   1      17.460   1.523  18.941  0.00  0.00     0.040 C 
ATOM     50  C45 ZIN A   1      17.408   0.945  17.524  0.00  0.00     0.130 C 
ENDBRANCH  39  43
ENDBRANCH  36  39
ENDBRANCH  27  35
ENDBRANCH  26  27
ENDBRANCH   1  26
TORSDOF 16
ENDMDL
MODEL 4
REMARK VINA RESULT:     -10.2      1.237      2.163
REMARK  16 active torsions:
REMARK  status: ('A' for Active; 'I' for Inactive)
REMARK    1  A    between atoms: C8_8  and  O9_9 
REMARK    2  A    between atoms: O9_9  and  C10_10 
REMARK    3  A    between atoms: C10_10  and  C11_11 
REMARK       I    between atoms: C11_11  and  N13_13 
REMARK    4  A    between atoms: N13_13  and  C14_14 
REMARK    5  A    between atoms: C14_14  and  C16_15 
REMARK    6  A    between atoms: C14_14  and  C23_22 
REMARK    7  A    between atoms: C16_15  and  C17_16 
REMARK    8  A    between atoms: C23_22  and  O25_23 
REMARK    9  A    between atoms: C23_22  and  C26_24 
REMARK   10  A    between atoms: C26_24  and  C27_25 
REMARK   11  A    between atoms: C27_25  and  C29_26 
REMARK   12  A    between atoms: C27_25  and  N36_33 
REMARK   13  A    between atoms: C29_26  and  C30_27 
REMARK       I    between atoms: N36_33  and  C37_34 
REMARK   14  A    between atoms: C37_34  and  C39_36 
REMARK   15  A    between atoms: C39_36  and  C41_37 
REMARK   16  A    between atoms: C39_36  and  N44_40 
ROOT
ATOM      1  C23 ZIN A   1      20.328  -0.533  10.581  0.00  0.00     0.143 C 
ENDROOT
BRANCH   1   2
ATOM      2  C14 ZIN A   1      19.338   0.602  10.855  0.00  0.00     0.117 C 
BRANCH   2   3
ATOM      3  N13 ZIN A   1      19.047   0.660  12.289  0.00  0.00    -0.352 N 
ATOM      4  C11 ZIN A   1      17.770   0.611  12.721  0.00  0.00     0.242 C 
ATOM      5  O12 ZIN A   1      16.864   0.518  11.921  0.00  0.00    -0.271 OA
ATOM      6  H62 ZIN A   1      19.771   0.734  12.930  0.00  0.00     0.163 HD
BRANCH   4   7
ATOM      7  C10 ZIN A   1      17.470   0.670  14.196  0.00  0.00     0.278 C 
BRANCH   7   8
ATOM      8  O9  ZIN A   1      18.695   0.682  14.931  0.00  0.00    -0.341 OA
BRANCH   8   9
ATOM      9  C8  ZIN A   1      18.609   0.915  16.268  0.00  0.00     0.081 A 
ATOM     10  C2  ZIN A   1      18.836   2.189  16.767  0.00  0.00    -0.028 A 
ATOM     11  C1  ZIN A   1      19.172   3.318  15.828  0.00  0.00     0.051 C 
ATOM     12  C3  ZIN A   1      18.749   2.422  18.126  0.00  0.00     0.009 A 
ATOM     13  C4  ZIN A   1      18.441   1.387  18.988  0.00  0.00     0.001 A 
ATOM     14  C5  ZIN A   1      18.219   0.114  18.493  0.00  0.00     0.009 A 
ATOM     15  C6  ZIN A   1      18.306  -0.124  17.136  0.00  0.00    -0.028 A 
ATOM     16  C7  ZIN A   1      18.064  -1.511  16.596  0.00  0.00     0.051 C 
ENDBRANCH   8   9
ENDBRANCH   7   8
ENDBRANCH   4   7
ENDBRANCH   2   3
BRANCH   2  17
ATOM     17  C16 ZIN A   1      19.948   1.931  10.404  0.00  0.00     0.066 C 
BRANCH  17  18
ATOM     18  C17 ZIN A   1      19.087   3.068  10.889  0.00  0.00    -0.056 A 
ATOM     19  C22 ZIN A   1      17.932   3.400  10.205  0.00  0.00     0.007 A 
ATOM     20  C21 ZIN A   1      17.139   4.441  10.652  0.00  0.00     0.001 A 
ATOM     21  C20 ZIN A   1      17.507   5.157  11.776  0.00  0.00     0.000 A 
ATOM     22  C19 ZIN A   1      18.665   4.828  12.456  0.00  0.00     0.001 A 
ATOM     23  C18 ZIN A   1      19.455   3.785  12.012  0.00  0.00     0.007 A 
ENDBRANCH  17  18
ENDBRANCH   2  17
ENDBRANCH   1   2
BRANCH   1  24
ATOM     24  O25 ZIN A   1      21.611  -0.182  11.106  0.00  0.00    -0.393 OA
ATOM     25  H70 ZIN A   1      21.577   0.256  11.968  0.00  0.00     0.210 HD
ENDBRANCH   1  24
BRANCH   1  26
ATOM     26  C26 ZIN A   1      19.834  -1.814  11.255  0.00  0.00     0.059 C 
BRANCH  26  27
ATOM     27  C27 ZIN A   1      19.068  -2.663  10.238  0.00  0.00     0.091 C 
BRANCH  27  28
ATOM     28  C29 ZIN A   1      19.330  -4.145  10.510  0.00  0.00     0.063 C 
BRANCH  28  29
ATOM     29  C30 ZIN A   1      18.309  -4.978   9.780  0.00  0.00    -0.056 A 
ATOM     30  C35 ZIN A   1      16.960  -4.734   9.961  0.00  0.00     0.007 A 
ATOM     31  C34 ZIN A   1      16.023  -5.495   9.287  0.00  0.00     0.001 A 
ATOM     32  C33 ZIN A   1      16.435  -6.505   8.438  0.00  0.00     0.000 A 
ATOM     33  C32 ZIN A   1      17.784  -6.752   8.260  0.00  0.00     0.001 A 
ATOM     34  C31 ZIN A   1      18.721  -5.989   8.932  0.00  0.00     0.007 A 
ENDBRANCH  28  29
ENDBRANCH  27  28
BRANCH  27  35
ATOM     35  N36 ZIN A   1      19.517  -2.327   8.885  0.00  0.00    -0.354 N 
ATOM     36  C37 ZIN A   1      18.656  -1.777   8.007  0.00  0.00     0.241 C 
ATOM     37  O38 ZIN A   1      17.534  -1.479   8.361  0.00  0.00    -0.271 OA
ATOM     38  H80 ZIN A   1      20.434  -2.500   8.622  0.00  0.00     0.162 HD
BRANCH  36  39
ATOM     39  C39 ZIN A   1      19.085  -1.531   6.584  0.00  0.00     0.184 C 
BRANCH  39  40
ATOM     40  C41 ZIN A   1      18.596  -0.152   6.135  0.00  0.00     0.010 C 
ATOM     41  C42 ZIN A   1      18.990   0.893   7.181  0.00  0.00     0.012 C 
ATOM     42  C43 ZIN A   1      19.238   0.205   4.792  0.00  0.00     0.012 C 
ENDBRANCH  39  40
BRANCH  39  43
ATOM     43  N44 ZIN A   1      18.508  -2.560   5.714  0.00  0.00    -0.320 N 
ATOM     44  C49 ZIN A   1      19.126  -3.745   5.600  0.00  0.00     0.319 C 
ATOM     45  N48 ZIN A   1      18.658  -4.731   4.819  0.00  0.00    -0.343 N 
ATOM     46  O50 ZIN A   1      20.143  -3.938   6.237  0.00  0.00    -0.247 OA
ATOM     47  C47 ZIN A   1      17.432  -4.566   4.038  0.00  0.00     0.126 C 
ATOM     48  H94 ZIN A   1      19.145  -5.569   4.769  0.00  0.00     0.164 HD
ATOM     49  C46 ZIN A   1      17.254  -3.085   3.686  0.00  0.00     0.040 C 
ATOM     50  C45 ZIN A   1      17.273  -2.271   4.984  0.00  0.00     0.130 C 
ENDBRANCH  39  43
ENDBRANCH  36  39
ENDBRANCH  27  35
ENDBRANCH  26  27
ENDBRANCH   1  26
TORSDOF 16
ENDMDL
MODEL 5
REMARK VINA RESULT:     -10.0      2.339      9.097
REMARK  16 active torsions:
REMARK  status: ('A' for Active; 'I' for Inactive)
REMARK    1  A    between atoms: C8_8  and  O9_9 
REMARK    2  A    between atoms: O9_9  and  C10_10 
REMARK    3  A    between atoms: C10_10  and  C11_11 
REMARK       I    between atoms: C11_11  and  N13_13 
REMARK    4  A    between atoms: N13_13  and  C14_14 
REMARK    5  A    between atoms: C14_14  and  C16_15 
REMARK    6  A    between atoms: C14_14  and  C23_22 
REMARK    7  A    between atoms: C16_15  and  C17_16 
REMARK    8  A    between atoms: C23_22  and  O25_23 
REMARK    9  A    between atoms: C23_22  and  C26_24 
REMARK   10  A    between atoms: C26_24  and  C27_25 
REMARK   11  A    between atoms: C27_25  and  C29_26 
REMARK   12  A    between atoms: C27_25  and  N36_33 
REMARK   13  A    between atoms: C29_26  and  C30_27 
REMARK       I    between atoms: N36_33  and  C37_34 
REMARK   14  A    between atoms: C37_34  and  C39_36 
REMARK   15  A    between atoms: C39_36  and  C41_37 
REMARK   16  A    between atoms: C39_36  and  N44_40 
ROOT
ATOM      1  C23 ZIN A   1      20.163   0.577  12.762  0.00  0.00     0.143 C 
ENDROOT
BRANCH   1   2
ATOM      2  C14 ZIN A   1      19.353  -0.721  12.729  0.00  0.00     0.117 C 
BRANCH   2   3
ATOM      3  N13 ZIN A   1      19.667  -1.461  11.505  0.00  0.00    -0.352 N 
ATOM      4  C11 ZIN A   1      18.697  -2.143  10.862  0.00  0.00     0.242 C 
ATOM      5  O12 ZIN A   1      17.565  -2.142  11.298  0.00  0.00    -0.271 OA
ATOM      6  H62 ZIN A   1      20.572  -1.462  11.156  0.00  0.00     0.163 HD
BRANCH   4   7
ATOM      7  C10 ZIN A   1      19.018  -2.904   9.603  0.00  0.00     0.278 C 
BRANCH   7   8
ATOM      8  O9  ZIN A   1      19.361  -4.251   9.935  0.00  0.00    -0.341 OA
BRANCH   8   9
ATOM      9  C8  ZIN A   1      18.667  -5.236   9.306  0.00  0.00     0.081 A 
ATOM     10  C2  ZIN A   1      18.972  -5.573   7.996  0.00  0.00    -0.028 A 
ATOM     11  C1  ZIN A   1      20.076  -4.852   7.269  0.00  0.00     0.051 C 
ATOM     12  C3  ZIN A   1      18.264  -6.575   7.359  0.00  0.00     0.009 A 
ATOM     13  C4  ZIN A   1      17.251  -7.238   8.025  0.00  0.00     0.001 A 
ATOM     14  C5  ZIN A   1      16.942  -6.900   9.331  0.00  0.00     0.009 A 
ATOM     15  C6  ZIN A   1      17.645  -5.899   9.971  0.00  0.00    -0.028 A 
ATOM     16  C7  ZIN A   1      17.309  -5.531  11.393  0.00  0.00     0.051 C 
ENDBRANCH   8   9
ENDBRANCH   7   8
ENDBRANCH   4   7
ENDBRANCH   2   3
BRANCH   2  17
ATOM     17  C16 ZIN A   1      19.710  -1.575  13.948  0.00  0.00     0.066 C 
BRANCH  17  18
ATOM     18  C17 ZIN A   1      18.951  -1.077  15.150  0.00  0.00    -0.056 A 
ATOM     19  C22 ZIN A   1      17.743  -0.426  14.983  0.00  0.00     0.007 A 
ATOM     20  C21 ZIN A   1      17.044   0.028  16.087  0.00  0.00     0.001 A 
ATOM     21  C20 ZIN A   1      17.558  -0.160  17.356  0.00  0.00     0.000 A 
ATOM     22  C19 ZIN A   1      18.770  -0.807  17.522  0.00  0.00     0.001 A 
ATOM     23  C18 ZIN A   1      19.466  -1.263  16.419  0.00  0.00     0.007 A 
ENDBRANCH  17  18
ENDBRANCH   2  17
ENDBRANCH   1   2
BRANCH   1  24
ATOM     24  O25 ZIN A   1      21.463   0.314  13.295  0.00  0.00    -0.393 OA
ATOM     25  H70 ZIN A   1      21.609  -0.611  13.535  0.00  0.00     0.210 HD
ENDBRANCH   1  24
BRANCH   1  26
ATOM     26  C26 ZIN A   1      20.297   1.131  11.342  0.00  0.00     0.059 C 
BRANCH  26  27
ATOM     27  C27 ZIN A   1      19.053   1.952  10.995  0.00  0.00     0.091 C 
BRANCH  27  28
ATOM     28  C29 ZIN A   1      19.215   2.559   9.600  0.00  0.00     0.063 C 
BRANCH  28  29
ATOM     29  C30 ZIN A   1      18.665   1.606   8.572  0.00  0.00    -0.056 A 
ATOM     30  C35 ZIN A   1      17.702   0.680   8.931  0.00  0.00     0.007 A 
ATOM     31  C34 ZIN A   1      17.195  -0.192   7.986  0.00  0.00     0.001 A 
ATOM     32  C33 ZIN A   1      17.655  -0.144   6.683  0.00  0.00     0.000 A 
ATOM     33  C32 ZIN A   1      18.621   0.779   6.326  0.00  0.00     0.001 A 
ATOM     34  C31 ZIN A   1      19.126   1.653   7.269  0.00  0.00     0.007 A 
ENDBRANCH  28  29
ENDBRANCH  27  28
BRANCH  27  35
ATOM     35  N36 ZIN A   1      18.887   3.025  11.978  0.00  0.00    -0.354 N 
ATOM     36  C37 ZIN A   1      17.809   3.037  12.787  0.00  0.00     0.241 C 
ATOM     37  O38 ZIN A   1      17.021   2.115  12.762  0.00  0.00    -0.271 OA
ATOM     38  H80 ZIN A   1      19.553   3.726  12.049  0.00  0.00     0.162 HD
BRANCH  36  39
ATOM     39  C39 ZIN A   1      17.582   4.196  13.723  0.00  0.00     0.184 C 
BRANCH  39  40
ATOM     40  C41 ZIN A   1      17.019   5.383  12.937  0.00  0.00     0.010 C 
ATOM     41  C42 ZIN A   1      16.588   4.914  11.546  0.00  0.00     0.012 C 
ATOM     42  C43 ZIN A   1      15.811   5.959  13.679  0.00  0.00     0.012 C 
ENDBRANCH  39  40
BRANCH  39  43
ATOM     43  N44 ZIN A   1      18.853   4.580  14.343  0.00  0.00    -0.320 N 
ATOM     44  C49 ZIN A   1      19.205   4.028  15.514  0.00  0.00     0.319 C 
ATOM     45  N48 ZIN A   1      20.351   4.335  16.142  0.00  0.00    -0.343 N 
ATOM     46  O50 ZIN A   1      18.463   3.208  16.020  0.00  0.00    -0.247 OA
ATOM     47  C47 ZIN A   1      21.292   5.303  15.578  0.00  0.00     0.126 C 
ATOM     48  H94 ZIN A   1      20.557   3.910  16.989  0.00  0.00     0.164 HD
ATOM     49  C46 ZIN A   1      20.519   6.321  14.731  0.00  0.00     0.040 C 
ATOM     50  C45 ZIN A   1      19.708   5.563  13.676  0.00  0.00     0.130 C 
ENDBRANCH  39  43
ENDBRANCH  36  39
ENDBRANCH  27  35
ENDBRANCH  26  27
ENDBRANCH   1  26
TORSDOF 16
ENDMDL
MODEL 6
REMARK VINA RESULT:     -10.0      1.925      9.962
REMARK  16 active torsions:
REMARK  status: ('A' for Active; 'I' for Inactive)
REMARK    1  A    between atoms: C8_8  and  O9_9 
REMARK    2  A    between atoms: O9_9  and  C10_10 
REMARK    3  A    between atoms: C10_10  and  C11_11 
REMARK       I    between atoms: C11_11  and  N13_13 
REMARK    4  A    between atoms: N13_13  and  C14_14 
REMARK    5  A    between atoms: C14_14  and  C16_15 
REMARK    6  A    between atoms: C14_14  and  C23_22 
REMARK    7  A    between atoms: C16_15  and  C17_16 
REMARK    8  A    between atoms: C23_22  and  O25_23 
REMARK    9  A    between atoms: C23_22  and  C26_24 
REMARK   10  A    between atoms: C26_24  and  C27_25 
REMARK   11  A    between atoms: C27_25  and  C29_26 
REMARK   12  A    between atoms: C27_25  and  N36_33 
REMARK   13  A    between atoms: C29_26  and  C30_27 
REMARK       I    between atoms: N36_33  and  C37_34 
REMARK   14  A    between atoms: C37_34  and  C39_36 
REMARK   15  A    between atoms: C39_36  and  C41_37 
REMARK   16  A    between atoms: C39_36  and  N44_40 
ROOT
ATOM      1  C23 ZIN A   1      17.980   1.429  10.448  0.00  0.00     0.143 C 
ENDROOT
BRANCH   1   2
ATOM      2  C14 ZIN A   1      18.256   0.233   9.534  0.00  0.00     0.117 C 
BRANCH   2   3
ATOM      3  N13 ZIN A   1      18.235  -1.000  10.324  0.00  0.00    -0.352 N 
ATOM      4  C11 ZIN A   1      19.381  -1.672  10.554  0.00  0.00     0.242 C 
ATOM      5  O12 ZIN A   1      20.428  -1.256  10.106  0.00  0.00    -0.271 OA
ATOM      6  H62 ZIN A   1      17.398  -1.333  10.683  0.00  0.00     0.163 HD
BRANCH   4   7
ATOM      7  C10 ZIN A   1      19.361  -2.941  11.367  0.00  0.00     0.278 C 
BRANCH   7   8
ATOM      8  O9  ZIN A   1      19.550  -4.063  10.503  0.00  0.00    -0.341 OA
BRANCH   8   9
ATOM      9  C8  ZIN A   1      18.447  -4.551   9.876  0.00  0.00     0.081 A 
ATOM     10  C2  ZIN A   1      17.467  -5.209  10.603  0.00  0.00    -0.028 A 
ATOM     11  C1  ZIN A   1      17.620  -5.380  12.092  0.00  0.00     0.051 C 
ATOM     12  C3  ZIN A   1      16.347  -5.704   9.962  0.00  0.00     0.009 A 
ATOM     13  C4  ZIN A   1      16.206  -5.547   8.596  0.00  0.00     0.001 A 
ATOM     14  C5  ZIN A   1      17.184  -4.895   7.867  0.00  0.00     0.009 A 
ATOM     15  C6  ZIN A   1      18.305  -4.400   8.503  0.00  0.00    -0.028 A 
ATOM     16  C7  ZIN A   1      19.371  -3.689   7.709  0.00  0.00     0.051 C 
ENDBRANCH   8   9
ENDBRANCH   7   8
ENDBRANCH   4   7
ENDBRANCH   2   3
BRANCH   2  17
ATOM     17  C16 ZIN A   1      17.179   0.162   8.449  0.00  0.00     0.066 C 
BRANCH  17  18
ATOM     18  C17 ZIN A   1      17.835   0.080   7.095  0.00  0.00    -0.056 A 
ATOM     19  C22 ZIN A   1      18.872   0.937   6.777  0.00  0.00     0.007 A 
ATOM     20  C21 ZIN A   1      19.477   0.860   5.536  0.00  0.00     0.001 A 
ATOM     21  C20 ZIN A   1      19.040  -0.069   4.611  0.00  0.00     0.000 A 
ATOM     22  C19 ZIN A   1      17.999  -0.923   4.928  0.00  0.00     0.001 A 
ATOM     23  C18 ZIN A   1      17.397  -0.848   6.169  0.00  0.00     0.007 A 
ENDBRANCH  17  18
ENDBRANCH   2  17
ENDBRANCH   1   2
BRANCH   1  24
ATOM     24  O25 ZIN A   1      17.005   1.065  11.428  0.00  0.00    -0.393 OA
ATOM     25  H70 ZIN A   1      16.823   0.116  11.467  0.00  0.00     0.210 HD
ENDBRANCH   1  24
BRANCH   1  26
ATOM     26  C26 ZIN A   1      19.276   1.846  11.147  0.00  0.00     0.059 C 
BRANCH  26  27
ATOM     27  C27 ZIN A   1      18.943   2.706  12.368  0.00  0.00     0.091 C 
BRANCH  27  28
ATOM     28  C29 ZIN A   1      19.594   4.082  12.216  0.00  0.00     0.063 C 
BRANCH  28  29
ATOM     29  C30 ZIN A   1      18.958   5.048  13.181  0.00  0.00    -0.056 A 
ATOM     30  C35 ZIN A   1      17.597   5.289  13.122  0.00  0.00     0.007 A 
ATOM     31  C34 ZIN A   1      17.013   6.172  14.011  0.00  0.00     0.001 A 
ATOM     32  C33 ZIN A   1      17.790   6.820  14.953  0.00  0.00     0.000 A 
ATOM     33  C32 ZIN A   1      19.151   6.583  15.008  0.00  0.00     0.001 A 
ATOM     34  C31 ZIN A   1      19.735   5.697  14.122  0.00  0.00     0.007 A 
ENDBRANCH  28  29
ENDBRANCH  27  28
BRANCH  27  35
ATOM     35  N36 ZIN A   1      19.452   2.055  13.578  0.00  0.00    -0.354 N 
ATOM     36  C37 ZIN A   1      18.593   1.521  14.468  0.00  0.00     0.241 C 
ATOM     37  O38 ZIN A   1      17.403   1.502  14.228  0.00  0.00    -0.271 OA
ATOM     38  H80 ZIN A   1      20.407   2.008  13.738  0.00  0.00     0.162 HD
BRANCH  36  39
ATOM     39  C39 ZIN A   1      19.108   0.948  15.763  0.00  0.00     0.184 C 
BRANCH  39  40
ATOM     40  C41 ZIN A   1      18.671  -0.514  15.882  0.00  0.00     0.010 C 
ATOM     41  C42 ZIN A   1      19.061  -1.268  14.610  0.00  0.00     0.012 C 
ATOM     42  C43 ZIN A   1      19.363  -1.155  17.088  0.00  0.00     0.012 C 
ENDBRANCH  39  40
BRANCH  39  43
ATOM     43  N44 ZIN A   1      18.563   1.714  16.887  0.00  0.00    -0.320 N 
ATOM     44  C49 ZIN A   1      19.168   2.851  17.262  0.00  0.00     0.319 C 
ATOM     45  N48 ZIN A   1      18.729   3.600  18.285  0.00  0.00    -0.343 N 
ATOM     46  O50 ZIN A   1      20.147   3.223  16.644  0.00  0.00    -0.247 OA
ATOM     47  C47 ZIN A   1      17.549   3.213  19.060  0.00  0.00     0.126 C 
ATOM     48  H94 ZIN A   1      19.205   4.413  18.518  0.00  0.00     0.164 HD
ATOM     49  C46 ZIN A   1      17.412   1.687  19.040  0.00  0.00     0.040 C 
ATOM     50  C45 ZIN A   1      17.373   1.219  17.582  0.00  0.00     0.130 C 
ENDBRANCH  39  43
ENDBRANCH  36  39
ENDBRANCH  27  35
ENDBRANCH  26  27
ENDBRANCH   1  26
TORSDOF 16
ENDMDL
MODEL 7
REMARK VINA RESULT:     -10.0      1.538      3.720
REMARK  16 active torsions:
REMARK  status: ('A' for Active; 'I' for Inactive)
REMARK    1  A    between atoms: C8_8  and  O9_9 
REMARK    2  A    between atoms: O9_9  and  C10_10 
REMARK    3  A    between atoms: C10_10  and  C11_11 
REMARK       I    between atoms: C11_11  and  N13_13 
REMARK    4  A    between atoms: N13_13  and  C14_14 
REMARK    5  A    between atoms: C14_14  and  C16_15 
REMARK    6  A    between atoms: C14_14  and  C23_22 
REMARK    7  A    between atoms: C16_15  and  C17_16 
REMARK    8  A    between atoms: C23_22  and  O25_23 
REMARK    9  A    between atoms: C23_22  and  C26_24 
REMARK   10  A    between atoms: C26_24  and  C27_25 
REMARK   11  A    between atoms: C27_25  and  C29_26 
REMARK   12  A    between atoms: C27_25  and  N36_33 
REMARK   13  A    between atoms: C29_26  and  C30_27 
REMARK       I    between atoms: N36_33  and  C37_34 
REMARK   14  A    between atoms: C37_34  and  C39_36 
REMARK   15  A    between atoms: C39_36  and  C41_37 
REMARK   16  A    between atoms: C39_36  and  N44_40 
ROOT
ATOM      1  C23 ZIN A   1      19.729  -1.164  11.756  0.00  0.00     0.143 C 
ENDROOT
BRANCH   1   2
ATOM      2  C14 ZIN A   1      19.407  -0.558  13.124  0.00  0.00     0.117 C 
BRANCH   2   3
ATOM      3  N13 ZIN A   1      18.611   0.658  12.944  0.00  0.00    -0.352 N 
ATOM      4  C11 ZIN A   1      19.195   1.785  12.489  0.00  0.00     0.242 C 
ATOM      5  O12 ZIN A   1      20.379   1.791  12.228  0.00  0.00    -0.271 OA
ATOM      6  H62 ZIN A   1      17.664   0.654  13.152  0.00  0.00     0.163 HD
BRANCH   4   7
ATOM      7  C10 ZIN A   1      18.376   3.036  12.304  0.00  0.00     0.278 C 
BRANCH   7   8
ATOM      8  O9  ZIN A   1      17.603   3.278  13.481  0.00  0.00    -0.341 OA
BRANCH   8   9
ATOM      9  C8  ZIN A   1      17.899   4.397  14.193  0.00  0.00     0.081 A 
ATOM     10  C2  ZIN A   1      17.434   5.633  13.771  0.00  0.00    -0.028 A 
ATOM     11  C1  ZIN A   1      16.595   5.737  12.524  0.00  0.00     0.051 C 
ATOM     12  C3  ZIN A   1      17.737   6.769  14.498  0.00  0.00     0.009 A 
ATOM     13  C4  ZIN A   1      18.507   6.674  15.642  0.00  0.00     0.001 A 
ATOM     14  C5  ZIN A   1      18.976   5.442  16.063  0.00  0.00     0.009 A 
ATOM     15  C6  ZIN A   1      18.677   4.304  15.340  0.00  0.00    -0.028 A 
ATOM     16  C7  ZIN A   1      19.187   2.963  15.797  0.00  0.00     0.051 C 
ENDBRANCH   8   9
ENDBRANCH   7   8
ENDBRANCH   4   7
ENDBRANCH   2   3
BRANCH   2  17
ATOM     17  C16 ZIN A   1      18.614  -1.569  13.955  0.00  0.00     0.066 C 
BRANCH  17  18
ATOM     18  C17 ZIN A   1      18.481  -1.064  15.368  0.00  0.00    -0.056 A 
ATOM     19  C22 ZIN A   1      17.339  -0.387  15.754  0.00  0.00     0.007 A 
ATOM     20  C21 ZIN A   1      17.214   0.074  17.052  0.00  0.00     0.001 A 
ATOM     21  C20 ZIN A   1      18.236  -0.134  17.960  0.00  0.00     0.000 A 
ATOM     22  C19 ZIN A   1      19.380  -0.806  17.571  0.00  0.00     0.001 A 
ATOM     23  C18 ZIN A   1      19.503  -1.270  16.276  0.00  0.00     0.007 A 
ENDBRANCH  17  18
ENDBRANCH   2  17
ENDBRANCH   1   2
BRANCH   1  24
ATOM     24  O25 ZIN A   1      21.050  -0.782  11.365  0.00  0.00    -0.393 OA
ATOM     25  H70 ZIN A   1      21.081  -0.224  10.576  0.00  0.00     0.210 HD
ENDBRANCH   1  24
BRANCH   1  26
ATOM     26  C26 ZIN A   1      19.643  -2.689  11.840  0.00  0.00     0.059 C 
BRANCH  26  27
ATOM     27  C27 ZIN A   1      18.945  -3.231  10.590  0.00  0.00     0.091 C 
BRANCH  27  28
ATOM     28  C29 ZIN A   1      19.190  -4.737  10.481  0.00  0.00     0.063 C 
BRANCH  28  29
ATOM     29  C30 ZIN A   1      18.130  -5.355   9.608  0.00  0.00    -0.056 A 
ATOM     30  C35 ZIN A   1      16.797  -5.051   9.816  0.00  0.00     0.007 A 
ATOM     31  C34 ZIN A   1      15.825  -5.616   9.012  0.00  0.00     0.001 A 
ATOM     32  C33 ZIN A   1      16.185  -6.490   8.004  0.00  0.00     0.000 A 
ATOM     33  C32 ZIN A   1      17.517  -6.798   7.798  0.00  0.00     0.001 A 
ATOM     34  C31 ZIN A   1      18.489  -6.231   8.601  0.00  0.00     0.007 A 
ENDBRANCH  28  29
ENDBRANCH  27  28
BRANCH  27  35
ATOM     35  N36 ZIN A   1      19.479  -2.561   9.403  0.00  0.00    -0.354 N 
ATOM     36  C37 ZIN A   1      18.667  -1.820   8.624  0.00  0.00     0.241 C 
ATOM     37  O38 ZIN A   1      17.513  -1.636   8.951  0.00  0.00    -0.271 OA
ATOM     38  H80 ZIN A   1      20.418  -2.649   9.178  0.00  0.00     0.162 HD
BRANCH  36  39
ATOM     39  C39 ZIN A   1      19.191  -1.220   7.344  0.00  0.00     0.184 C 
BRANCH  39  40
ATOM     40  C41 ZIN A   1      18.772   0.250   7.263  0.00  0.00     0.010 C 
ATOM     41  C42 ZIN A   1      19.340   1.009   8.464  0.00  0.00     0.012 C 
ATOM     42  C43 ZIN A   1      19.313   0.863   5.969  0.00  0.00     0.012 C 
ENDBRANCH  39  40
BRANCH  39  43
ATOM     43  N44 ZIN A   1      18.637  -1.949   6.200  0.00  0.00    -0.320 N 
ATOM     44  C49 ZIN A   1      19.255  -3.059   5.768  0.00  0.00     0.319 C 
ATOM     45  N48 ZIN A   1      18.808  -3.774   4.724  0.00  0.00    -0.343 N 
ATOM     46  O50 ZIN A   1      20.252  -3.438   6.352  0.00  0.00    -0.247 OA
ATOM     47  C47 ZIN A   1      17.607  -3.378   3.988  0.00  0.00     0.126 C 
ATOM     48  H94 ZIN A   1      19.294  -4.568   4.449  0.00  0.00     0.164 HD
ATOM     49  C46 ZIN A   1      17.445  -1.856   4.072  0.00  0.00     0.040 C 
ATOM     50  C45 ZIN A   1      17.426  -1.448   5.548  0.00  0.00     0.130 C 
ENDBRANCH  39  43
ENDBRANCH  36  39
ENDBRANCH  27  35
ENDBRANCH  26  27
ENDBRANCH   1  26
TORSDOF 16
ENDMDL
MODEL 8
REMARK VINA RESULT:      -9.8      2.076      5.264
REMARK  16 active torsions:
REMARK  status: ('A' for Active; 'I' for Inactive)
REMARK    1  A    between atoms: C8_8  and  O9_9 
REMARK    2  A    between atoms: O9_9  and  C10_10 
REMARK    3  A    between atoms: C10_10  and  C11_11 
REMARK       I    between atoms: C11_11  and  N13_13 
REMARK    4  A    between atoms: N13_13  and  C14_14 
REMARK    5  A    between atoms: C14_14  and  C16_15 
REMARK    6  A    between atoms: C14_14  and  C23_22 
REMARK    7  A    between atoms: C16_15  and  C17_16 
REMARK    8  A    between atoms: C23_22  and  O25_23 
REMARK    9  A    between atoms: C23_22  and  C26_24 
REMARK   10  A    between atoms: C26_24  and  C27_25 
REMARK   11  A    between atoms: C27_25  and  C29_26 
REMARK   12  A    between atoms: C27_25  and  N36_33 
REMARK   13  A    between atoms: C29_26  and  C30_27 
REMARK       I    between atoms: N36_33  and  C37_34 
REMARK   14  A    between atoms: C37_34  and  C39_36 
REMARK   15  A    between atoms: C39_36  and  C41_37 
REMARK   16  A    between atoms: C39_36  and  N44_40 
ROOT
ATOM      1  C23 ZIN A   1      19.970  -0.195  10.286  0.00  0.00     0.143 C 
ENDROOT
BRANCH   1   2
ATOM      2  C14 ZIN A   1      19.209   1.107  10.025  0.00  0.00     0.117 C 
BRANCH   2   3
ATOM      3  N13 ZIN A   1      19.561   2.091  11.051  0.00  0.00    -0.352 N 
ATOM      4  C11 ZIN A   1      18.592   2.677  11.784  0.00  0.00     0.242 C 
ATOM      5  O12 ZIN A   1      17.431   2.387  11.594  0.00  0.00    -0.271 OA
ATOM      6  H62 ZIN A   1      20.490   2.323  11.204  0.00  0.00     0.163 HD
BRANCH   4   7
ATOM      7  C10 ZIN A   1      18.953   3.689  12.840  0.00  0.00     0.278 C 
BRANCH   7   8
ATOM      8  O9  ZIN A   1      17.971   3.667  13.877  0.00  0.00    -0.341 OA
BRANCH   8   9
ATOM      9  C8  ZIN A   1      17.944   4.730  14.724  0.00  0.00     0.081 A 
ATOM     10  C2  ZIN A   1      17.208   5.859  14.398  0.00  0.00    -0.028 A 
ATOM     11  C1  ZIN A   1      16.431   5.907  13.108  0.00  0.00     0.051 C 
ATOM     12  C3  ZIN A   1      17.183   6.938  15.261  0.00  0.00     0.009 A 
ATOM     13  C4  ZIN A   1      17.895   6.895  16.445  0.00  0.00     0.001 A 
ATOM     14  C5  ZIN A   1      18.634   5.772  16.769  0.00  0.00     0.009 A 
ATOM     15  C6  ZIN A   1      18.663   4.691  15.910  0.00  0.00    -0.028 A 
ATOM     16  C7  ZIN A   1      19.468   3.467  16.264  0.00  0.00     0.051 C 
ENDBRANCH   8   9
ENDBRANCH   7   8
ENDBRANCH   4   7
ENDBRANCH   2   3
BRANCH   2  17
ATOM     17  C16 ZIN A   1      19.586   1.650   8.646  0.00  0.00     0.066 C 
BRANCH  17  18
ATOM     18  C17 ZIN A   1      18.773   0.948   7.590  0.00  0.00    -0.056 A 
ATOM     19  C22 ZIN A   1      17.582   0.334   7.930  0.00  0.00     0.007 A 
ATOM     20  C21 ZIN A   1      16.833  -0.307   6.960  0.00  0.00     0.001 A 
ATOM     21  C20 ZIN A   1      17.281  -0.343   5.653  0.00  0.00     0.000 A 
ATOM     22  C19 ZIN A   1      18.475   0.266   5.314  0.00  0.00     0.001 A 
ATOM     23  C18 ZIN A   1      19.221   0.910   6.283  0.00  0.00     0.007 A 
ENDBRANCH  17  18
ENDBRANCH   2  17
ENDBRANCH   1   2
BRANCH   1  24
ATOM     24  O25 ZIN A   1      21.134  -0.240   9.457  0.00  0.00    -0.393 OA
ATOM     25  H70 ZIN A   1      21.601  -1.087   9.481  0.00  0.00     0.210 HD
ENDBRANCH   1  24
BRANCH   1  26
ATOM     26  C26 ZIN A   1      20.389  -0.256  11.756  0.00  0.00     0.059 C 
BRANCH  26  27
ATOM     27  C27 ZIN A   1      19.333  -1.023  12.556  0.00  0.00     0.091 C 
BRANCH  27  28
ATOM     28  C29 ZIN A   1      19.861  -1.296  13.966  0.00  0.00     0.063 C 
BRANCH  28  29
ATOM     29  C30 ZIN A   1      18.837  -0.855  14.979  0.00  0.00    -0.056 A 
ATOM     30  C35 ZIN A   1      18.661  -1.579  16.144  0.00  0.00     0.007 A 
ATOM     31  C34 ZIN A   1      17.724  -1.172  17.076  0.00  0.00     0.001 A 
ATOM     32  C33 ZIN A   1      16.958  -0.045  16.839  0.00  0.00     0.000 A 
ATOM     33  C32 ZIN A   1      17.132   0.676  15.672  0.00  0.00     0.001 A 
ATOM     34  C31 ZIN A   1      18.071   0.270  14.742  0.00  0.00     0.007 A 
ENDBRANCH  28  29
ENDBRANCH  27  28
BRANCH  27  35
ATOM     35  N36 ZIN A   1      19.042  -2.293  11.888  0.00  0.00    -0.354 N 
ATOM     36  C37 ZIN A   1      17.813  -2.525  11.387  0.00  0.00     0.241 C 
ATOM     37  O38 ZIN A   1      16.973  -1.650  11.411  0.00  0.00    -0.271 OA
ATOM     38  H80 ZIN A   1      19.734  -2.967  11.805  0.00  0.00     0.162 HD
BRANCH  36  39
ATOM     39  C39 ZIN A   1      17.481  -3.871  10.796  0.00  0.00     0.184 C 
BRANCH  39  40
ATOM     40  C41 ZIN A   1      18.368  -4.941  11.437  0.00  0.00     0.010 C 
ATOM     41  C42 ZIN A   1      17.489  -6.035  12.045  0.00  0.00     0.012 C 
ATOM     42  C43 ZIN A   1      19.280  -5.553  10.370  0.00  0.00     0.012 C 
ENDBRANCH  39  40
BRANCH  39  43
ATOM     43  N44 ZIN A   1      17.718  -3.842   9.351  0.00  0.00    -0.320 N 
ATOM     44  C49 ZIN A   1      16.956  -4.598   8.545  0.00  0.00     0.319 C 
ATOM     45  N48 ZIN A   1      17.120  -4.626   7.214  0.00  0.00    -0.343 N 
ATOM     46  O50 ZIN A   1      16.077  -5.276   9.040  0.00  0.00    -0.247 OA
ATOM     47  C47 ZIN A   1      18.152  -3.824   6.556  0.00  0.00     0.126 C 
ATOM     48  H94 ZIN A   1      16.544  -5.193   6.676  0.00  0.00     0.164 HD
ATOM     49  C46 ZIN A   1      19.323  -3.619   7.524  0.00  0.00     0.040 C 
ATOM     50  C45 ZIN A   1      18.785  -2.994   8.815  0.00  0.00     0.130 C 
ENDBRANCH  39  43
ENDBRANCH  36  39
ENDBRANCH  27  35
ENDBRANCH  26  27
ENDBRANCH   1  26
TORSDOF 16
ENDMDL
MODEL 9
REMARK VINA RESULT:      -9.7      1.774     10.117
REMARK  16 active torsions:
REMARK  status: ('A' for Active; 'I' for Inactive)
REMARK    1  A    between atoms: C8_8  and  O9_9 
REMARK    2  A    between atoms: O9_9  and  C10_10 
REMARK    3  A    between atoms: C10_10  and  C11_11 
REMARK       I    between atoms: C11_11  and  N13_13 
REMARK    4  A    between atoms: N13_13  and  C14_14 
REMARK    5  A    between atoms: C14_14  and  C16_15 
REMARK    6  A    between atoms: C14_14  and  C23_22 
REMARK    7  A    between atoms: C16_15  and  C17_16 
REMARK    8  A    between atoms: C23_22  and  O25_23 
REMARK    9  A    between atoms: C23_22  and  C26_24 
REMARK   10  A    between atoms: C26_24  and  C27_25 
REMARK   11  A    between atoms: C27_25  and  C29_26 
REMARK   12  A    between atoms: C27_25  and  N36_33 
REMARK   13  A    between atoms: C29_26  and  C30_27 
REMARK       I    between atoms: N36_33  and  C37_34 
REMARK   14  A    between atoms: C37_34  and  C39_36 
REMARK   15  A    between atoms: C39_36  and  C41_37 
REMARK   16  A    between atoms: C39_36  and  N44_40 
ROOT
ATOM      1  C23 ZIN A   1      19.285  -1.846  11.774  0.00  0.00     0.143 C 
ENDROOT
BRANCH   1   2
ATOM      2  C14 ZIN A   1      18.865  -2.583  10.500  0.00  0.00     0.117 C 
BRANCH   2   3
ATOM      3  N13 ZIN A   1      19.460  -1.924   9.336  0.00  0.00    -0.352 N 
ATOM      4  C11 ZIN A   1      18.668  -1.330   8.420  0.00  0.00     0.242 C 
ATOM      5  O12 ZIN A   1      17.464  -1.342   8.561  0.00  0.00    -0.271 OA
ATOM      6  H62 ZIN A   1      20.423  -1.913   9.222  0.00  0.00     0.163 HD
BRANCH   4   7
ATOM      7  C10 ZIN A   1      19.279  -0.650   7.222  0.00  0.00     0.278 C 
BRANCH   7   8
ATOM      8  O9  ZIN A   1      19.828  -1.635   6.345  0.00  0.00    -0.341 OA
BRANCH   8   9
ATOM      9  C8  ZIN A   1      18.948  -2.380   5.625  0.00  0.00     0.081 A 
ATOM     10  C2  ZIN A   1      18.937  -3.760   5.754  0.00  0.00    -0.028 A 
ATOM     11  C1  ZIN A   1      19.897  -4.437   6.698  0.00  0.00     0.051 C 
ATOM     12  C3  ZIN A   1      18.041  -4.515   5.021  0.00  0.00     0.009 A 
ATOM     13  C4  ZIN A   1      17.159  -3.895   4.156  0.00  0.00     0.001 A 
ATOM     14  C5  ZIN A   1      17.172  -2.518   4.021  0.00  0.00     0.009 A 
ATOM     15  C6  ZIN A   1      18.066  -1.760   4.751  0.00  0.00    -0.028 A 
ATOM     16  C7  ZIN A   1      18.079  -0.260   4.605  0.00  0.00     0.051 C 
ENDBRANCH   8   9
ENDBRANCH   7   8
ENDBRANCH   4   7
ENDBRANCH   2   3
BRANCH   2  17
ATOM     17  C16 ZIN A   1      19.350  -4.033  10.568  0.00  0.00     0.066 C 
BRANCH  17  18
ATOM     18  C17 ZIN A   1      18.343  -4.931   9.897  0.00  0.00    -0.056 A 
ATOM     19  C22 ZIN A   1      17.002  -4.596   9.911  0.00  0.00     0.007 A 
ATOM     20  C21 ZIN A   1      16.077  -5.418   9.292  0.00  0.00     0.001 A 
ATOM     21  C20 ZIN A   1      16.494  -6.578   8.668  0.00  0.00     0.000 A 
ATOM     22  C19 ZIN A   1      17.835  -6.915   8.658  0.00  0.00     0.001 A 
ATOM     23  C18 ZIN A   1      18.758  -6.093   9.273  0.00  0.00     0.007 A 
ENDBRANCH  17  18
ENDBRANCH   2  17
ENDBRANCH   1   2
BRANCH   1  24
ATOM     24  O25 ZIN A   1      20.386  -0.982  11.482  0.00  0.00    -0.393 OA
ATOM     25  H70 ZIN A   1      21.195  -1.448  11.230  0.00  0.00     0.210 HD
ENDBRANCH   1  24
BRANCH   1  26
ATOM     26  C26 ZIN A   1      18.109  -1.016  12.293  0.00  0.00     0.059 C 
BRANCH  26  27
ATOM     27  C27 ZIN A   1      18.461  -0.433  13.663  0.00  0.00     0.091 C 
BRANCH  27  28
ATOM     28  C29 ZIN A   1      17.869  -1.319  14.761  0.00  0.00     0.063 C 
BRANCH  28  29
ATOM     29  C30 ZIN A   1      18.068  -0.658  16.100  0.00  0.00    -0.056 A 
ATOM     30  C35 ZIN A   1      16.995  -0.078  16.752  0.00  0.00     0.007 A 
ATOM     31  C34 ZIN A   1      17.177   0.525  17.983  0.00  0.00     0.001 A 
ATOM     32  C33 ZIN A   1      18.434   0.554  18.559  0.00  0.00     0.000 A 
ATOM     33  C32 ZIN A   1      19.507  -0.021  17.905  0.00  0.00     0.001 A 
ATOM     34  C31 ZIN A   1      19.325  -0.627  16.676  0.00  0.00     0.007 A 
ENDBRANCH  28  29
ENDBRANCH  27  28
BRANCH  27  35
ATOM     35  N36 ZIN A   1      17.910   0.919  13.775  0.00  0.00    -0.354 N 
ATOM     36  C37 ZIN A   1      18.587   1.967  13.268  0.00  0.00     0.241 C 
ATOM     37  O38 ZIN A   1      19.611   1.784  12.643  0.00  0.00    -0.271 OA
ATOM     38  H80 ZIN A   1      17.056   1.060  14.214  0.00  0.00     0.162 HD
BRANCH  36  39
ATOM     39  C39 ZIN A   1      18.075   3.369  13.478  0.00  0.00     0.184 C 
BRANCH  39  40
ATOM     40  C41 ZIN A   1      17.797   4.018  12.119  0.00  0.00     0.010 C 
ATOM     41  C42 ZIN A   1      17.434   2.934  11.102  0.00  0.00     0.012 C 
ATOM     42  C43 ZIN A   1      16.632   5.002  12.253  0.00  0.00     0.012 C 
ENDBRANCH  39  40
BRANCH  39  43
ATOM     43  N44 ZIN A   1      19.081   4.155  14.197  0.00  0.00    -0.320 N 
ATOM     44  C49 ZIN A   1      19.287   3.922  15.502  0.00  0.00     0.319 C 
ATOM     45  N48 ZIN A   1      20.187   4.606  16.225  0.00  0.00    -0.343 N 
ATOM     46  O50 ZIN A   1      18.640   3.049  16.048  0.00  0.00    -0.247 OA
ATOM     47  C47 ZIN A   1      21.005   5.659  15.622  0.00  0.00     0.126 C 
ATOM     48  H94 ZIN A   1      20.294   4.400  17.167  0.00  0.00     0.164 HD
ATOM     49  C46 ZIN A   1      20.235   6.291  14.458  0.00  0.00     0.040 C 
ATOM     50  C45 ZIN A   1      19.836   5.183  13.478  0.00  0.00     0.130 C 
ENDBRANCH  39  43
ENDBRANCH  36  39
ENDBRANCH  27  35
ENDBRANCH  26  27
ENDBRANCH   1  26
TORSDOF 16
ENDMDL
