MODEL 1
REMARK VINA RESULT:      -9.5      0.000      0.000
REMARK  7 active torsions:
REMARK  status: ('A' for Active; 'I' for Inactive)
REMARK    1  A    between atoms: C7_7  and  C8_8 
REMARK    2  A    between atoms: C10_10  and  N11_11 
REMARK    3  A    between atoms: C20_20  and  N21_21 
REMARK       I    between atoms: N21_21  and  C23_23 
REMARK    4  A    between atoms: C23_23  and  C25_25 
REMARK    5  A    between atoms: C25_25  and  C28_28 
REMARK    6  A    between atoms: C30_30  and  C31_31 
REMARK    7  A    between atoms: C36_36  and  C37_37 
ROOT
ATOM      1  N21 ZIN A   1      18.908  -1.238  11.594  0.00  0.00    -0.319 N 
ATOM      2  C22 ZIN A   1      20.260  -1.404  11.052  0.00  0.00     0.159 C 
ATOM      3  C23 ZIN A   1      18.080  -2.297  11.675  0.00  0.00     0.236 C 
ATOM      4  O24 ZIN A   1      16.932  -2.142  12.034  0.00  0.00    -0.272 OA
ENDROOT
BRANCH   1   5
ATOM      5  C20 ZIN A   1      18.479   0.022  12.028  0.00  0.00     0.065 A 
ATOM      6  C8  ZIN A   1      18.037   0.983  11.103  0.00  0.00     0.006 A 
ATOM      7  C9  ZIN A   1      17.622   2.222  11.586  0.00  0.00     0.059 A 
ATOM      8  C10 ZIN A   1      17.665   2.461  12.954  0.00  0.00     0.106 A 
ATOM      9  N18 ZIN A   1      18.094   1.531  13.793  0.00  0.00    -0.246 NA
ATOM     10  C19 ZIN A   1      18.496   0.345  13.375  0.00  0.00     0.149 A 
BRANCH   6  11
ATOM     11  C7  ZIN A   1      18.007   0.683   9.650  0.00  0.00    -0.018 A 
ATOM     12  C2  ZIN A   1      18.921   1.291   8.791  0.00  0.00    -0.051 A 
ATOM     13  C1  ZIN A   1      19.946   2.251   9.337  0.00  0.00     0.049 C 
ATOM     14  C3  ZIN A   1      18.888   1.008   7.442  0.00  0.00     0.007 A 
ATOM     15  C4  ZIN A   1      17.948   0.126   6.939  0.00  0.00     0.001 A 
ATOM     16  C5  ZIN A   1      17.036  -0.476   7.786  0.00  0.00     0.001 A 
ATOM     17  C6  ZIN A   1      17.059  -0.201   9.138  0.00  0.00     0.013 A 
ENDBRANCH   6  11
BRANCH   8  18
ATOM     18  N11 ZIN A   1      17.253   3.695  13.450  0.00  0.00    -0.265 NA
ATOM     19  C17 ZIN A   1      18.131   4.146  14.537  0.00  0.00     0.127 C 
ATOM     20  C16 ZIN A   1      17.598   5.463  15.107  0.00  0.00     0.286 C 
ATOM     21  N14 ZIN A   1      17.534   6.467  14.035  0.00  0.00     0.086 N 
ATOM     22  C13 ZIN A   1      16.655   6.015  12.947  0.00  0.00     0.286 C 
ATOM     23  C15 ZIN A   1      17.098   7.769  14.558  0.00  0.00     0.310 C 
ATOM     24  C12 ZIN A   1      17.187   4.698  12.377  0.00  0.00     0.127 C 
ENDBRANCH   8  18
ENDBRANCH   1   5
BRANCH   3  25
ATOM     25  C25 ZIN A   1      18.579  -3.673  11.318  0.00  0.00     0.061 C 
ATOM     26  C26 ZIN A   1      20.104  -3.713  11.450  0.00  0.00     0.030 C 
ATOM     27  C27 ZIN A   1      17.959  -4.702  12.266  0.00  0.00     0.030 C 
BRANCH  25  28
ATOM     28  C28 ZIN A   1      18.190  -3.997   9.899  0.00  0.00    -0.039 A 
ATOM     29  C41 ZIN A   1      17.111  -4.827   9.650  0.00  0.00     0.024 A 
ATOM     30  C36 ZIN A   1      16.751  -5.120   8.348  0.00  0.00     0.049 A 
ATOM     31  C35 ZIN A   1      17.475  -4.593   7.295  0.00  0.00     0.032 A 
ATOM     32  C30 ZIN A   1      18.556  -3.769   7.544  0.00  0.00     0.049 A 
ATOM     33  C29 ZIN A   1      18.914  -3.471   8.846  0.00  0.00     0.024 A 
BRANCH  30  34
ATOM     34  C37 ZIN A   1      15.573  -6.019   8.077  0.00  0.00     0.417 C 
ATOM     35  F38 ZIN A   1      15.898  -7.333   8.430  0.00  0.00    -0.166 F 
ATOM     36  F39 ZIN A   1      14.475  -5.591   8.830  0.00  0.00    -0.166 F 
ATOM     37  F40 ZIN A   1      15.252  -5.969   6.716  0.00  0.00    -0.166 F 
ENDBRANCH  30  34
BRANCH  32  38
ATOM     38  C31 ZIN A   1      19.346  -3.194   6.396  0.00  0.00     0.417 C 
ATOM     39  F32 ZIN A   1      18.468  -2.786   5.385  0.00  0.00    -0.166 F 
ATOM     40  F33 ZIN A   1      20.085  -2.094   6.843  0.00  0.00    -0.166 F 
ATOM     41  F34 ZIN A   1      20.216  -4.167   5.894  0.00  0.00    -0.166 F 
ENDBRANCH  32  38
ENDBRANCH  25  28
ENDBRANCH   3  25
TORSDOF 7
ENDMDL
MODEL 2
REMARK VINA RESULT:      -9.5      0.048      2.682
REMARK  7 active torsions:
REMARK  status: ('A' for Active; 'I' for Inactive)
REMARK    1  A    between atoms: C7_7  and  C8_8 
REMARK    2  A    between atoms: C10_10  and  N11_11 
REMARK    3  A    between atoms: C20_20  and  N21_21 
REMARK       I    between atoms: N21_21  and  C23_23 
REMARK    4  A    between atoms: C23_23  and  C25_25 
REMARK    5  A    between atoms: C25_25  and  C28_28 
REMARK    6  A    between atoms: C30_30  and  C31_31 
REMARK    7  A    between atoms: C36_36  and  C37_37 
ROOT
ATOM      1  N21 ZIN A   1      18.897  -1.242  11.558  0.00  0.00    -0.319 N 
ATOM      2  C22 ZIN A   1      20.252  -1.406  11.024  0.00  0.00     0.159 C 
ATOM      3  C23 ZIN A   1      18.068  -2.301  11.630  0.00  0.00     0.236 C 
ATOM      4  O24 ZIN A   1      16.918  -2.149  11.982  0.00  0.00    -0.272 OA
ENDROOT
BRANCH   1   5
ATOM      5  C20 ZIN A   1      18.465   0.016  11.994  0.00  0.00     0.065 A 
ATOM      6  C8  ZIN A   1      18.023   0.978  11.070  0.00  0.00     0.006 A 
ATOM      7  C9  ZIN A   1      17.604   2.216  11.555  0.00  0.00     0.059 A 
ATOM      8  C10 ZIN A   1      17.645   2.452  12.923  0.00  0.00     0.106 A 
ATOM      9  N18 ZIN A   1      18.074   1.520  13.761  0.00  0.00    -0.246 NA
ATOM     10  C19 ZIN A   1      18.478   0.336  13.342  0.00  0.00     0.149 A 
BRANCH   6  11
ATOM     11  C7  ZIN A   1      17.996   0.681   9.617  0.00  0.00    -0.018 A 
ATOM     12  C2  ZIN A   1      18.916   1.286   8.762  0.00  0.00    -0.051 A 
ATOM     13  C1  ZIN A   1      19.944   2.240   9.313  0.00  0.00     0.049 C 
ATOM     14  C3  ZIN A   1      18.886   1.007   7.412  0.00  0.00     0.007 A 
ATOM     15  C4  ZIN A   1      17.944   0.130   6.905  0.00  0.00     0.001 A 
ATOM     16  C5  ZIN A   1      17.025  -0.469   7.747  0.00  0.00     0.001 A 
ATOM     17  C6  ZIN A   1      17.045  -0.196   9.100  0.00  0.00     0.013 A 
ENDBRANCH   6  11
BRANCH   8  18
ATOM     18  N11 ZIN A   1      17.229   3.684  13.421  0.00  0.00    -0.265 NA
ATOM     19  C17 ZIN A   1      18.080   4.115  14.538  0.00  0.00     0.127 C 
ATOM     20  C16 ZIN A   1      17.543   5.430  15.107  0.00  0.00     0.286 C 
ATOM     21  N14 ZIN A   1      17.518   6.446  14.045  0.00  0.00     0.086 N 
ATOM     22  C13 ZIN A   1      16.667   6.015  12.928  0.00  0.00     0.286 C 
ATOM     23  C15 ZIN A   1      17.079   7.747  14.571  0.00  0.00     0.310 C 
ATOM     24  C12 ZIN A   1      17.203   4.699  12.359  0.00  0.00     0.127 C 
ENDBRANCH   8  18
ENDBRANCH   1   5
BRANCH   3  25
ATOM     25  C25 ZIN A   1      18.570  -3.676  11.271  0.00  0.00     0.061 C 
ATOM     26  C26 ZIN A   1      20.095  -3.710  11.392  0.00  0.00     0.030 C 
ATOM     27  C27 ZIN A   1      17.961  -4.706  12.225  0.00  0.00     0.030 C 
BRANCH  25  28
ATOM     28  C28 ZIN A   1      18.171  -4.004   9.856  0.00  0.00    -0.039 A 
ATOM     29  C41 ZIN A   1      18.880  -3.469   8.796  0.00  0.00     0.024 A 
ATOM     30  C36 ZIN A   1      18.516  -3.774   7.497  0.00  0.00     0.049 A 
ATOM     31  C35 ZIN A   1      17.437  -4.605   7.258  0.00  0.00     0.032 A 
ATOM     32  C30 ZIN A   1      16.725  -5.135   8.318  0.00  0.00     0.049 A 
ATOM     33  C29 ZIN A   1      17.092  -4.834   9.617  0.00  0.00     0.024 A 
BRANCH  30  34
ATOM     34  C37 ZIN A   1      19.291  -3.195   6.342  0.00  0.00     0.417 C 
ATOM     35  F38 ZIN A   1      20.145  -4.172   5.818  0.00  0.00    -0.166 F 
ATOM     36  F39 ZIN A   1      18.402  -2.769   5.349  0.00  0.00    -0.166 F 
ATOM     37  F40 ZIN A   1      20.048  -2.106   6.788  0.00  0.00    -0.166 F 
ENDBRANCH  30  34
BRANCH  32  38
ATOM     38  C31 ZIN A   1      15.549  -6.041   8.058  0.00  0.00     0.417 C 
ATOM     39  F32 ZIN A   1      15.876  -7.348   8.436  0.00  0.00    -0.166 F 
ATOM     40  F33 ZIN A   1      14.450  -5.602   8.802  0.00  0.00    -0.166 F 
ATOM     41  F34 ZIN A   1      15.232  -6.014   6.696  0.00  0.00    -0.166 F 
ENDBRANCH  32  38
ENDBRANCH  25  28
ENDBRANCH   3  25
TORSDOF 7
ENDMDL
MODEL 3
REMARK VINA RESULT:      -8.9      4.554      9.217
REMARK  7 active torsions:
REMARK  status: ('A' for Active; 'I' for Inactive)
REMARK    1  A    between atoms: C7_7  and  C8_8 
REMARK    2  A    between atoms: C10_10  and  N11_11 
REMARK    3  A    between atoms: C20_20  and  N21_21 
REMARK       I    between atoms: N21_21  and  C23_23 
REMARK    4  A    between atoms: C23_23  and  C25_25 
REMARK    5  A    between atoms: C25_25  and  C28_28 
REMARK    6  A    between atoms: C30_30  and  C31_31 
REMARK    7  A    between atoms: C36_36  and  C37_37 
ROOT
ATOM      1  N21 ZIN A   1      18.551  -1.351  10.799  0.00  0.00    -0.319 N 
ATOM      2  C22 ZIN A   1      20.006  -1.184  10.774  0.00  0.00     0.159 C 
ATOM      3  C23 ZIN A   1      17.766  -0.360  11.262  0.00  0.00     0.236 C 
ATOM      4  O24 ZIN A   1      16.570  -0.533  11.371  0.00  0.00    -0.272 OA
ENDROOT
BRANCH   1   5
ATOM      5  C20 ZIN A   1      17.977  -2.543  10.339  0.00  0.00     0.065 A 
ATOM      6  C8  ZIN A   1      17.730  -2.733   8.969  0.00  0.00     0.006 A 
ATOM      7  C9  ZIN A   1      17.155  -3.936   8.563  0.00  0.00     0.059 A 
ATOM      8  C10 ZIN A   1      16.846  -4.892   9.521  0.00  0.00     0.106 A 
ATOM      9  N18 ZIN A   1      17.090  -4.672  10.804  0.00  0.00    -0.246 NA
ATOM     10  C19 ZIN A   1      17.632  -3.546  11.229  0.00  0.00     0.149 A 
BRANCH   6  11
ATOM     11  C7  ZIN A   1      18.077  -1.683   7.980  0.00  0.00    -0.018 A 
ATOM     12  C2  ZIN A   1      19.072  -1.916   7.033  0.00  0.00    -0.051 A 
ATOM     13  C1  ZIN A   1      19.795  -3.238   7.007  0.00  0.00     0.049 C 
ATOM     14  C3  ZIN A   1      19.391  -0.936   6.116  0.00  0.00     0.007 A 
ATOM     15  C4  ZIN A   1      18.728   0.278   6.138  0.00  0.00     0.001 A 
ATOM     16  C5  ZIN A   1      17.743   0.517   7.079  0.00  0.00     0.001 A 
ATOM     17  C6  ZIN A   1      17.416  -0.456   8.002  0.00  0.00     0.013 A 
ENDBRANCH   6  11
BRANCH   8  18
ATOM     18  N11 ZIN A   1      16.272  -6.099   9.129  0.00  0.00    -0.265 NA
ATOM     19  C17 ZIN A   1      15.062  -5.871   8.329  0.00  0.00     0.127 C 
ATOM     20  C16 ZIN A   1      14.419  -7.217   7.986  0.00  0.00     0.286 C 
ATOM     21  N14 ZIN A   1      15.386  -8.046   7.251  0.00  0.00     0.086 N 
ATOM     22  C13 ZIN A   1      16.596  -8.274   8.053  0.00  0.00     0.286 C 
ATOM     23  C15 ZIN A   1      14.780  -9.320   6.838  0.00  0.00     0.310 C 
ATOM     24  C12 ZIN A   1      17.239  -6.928   8.395  0.00  0.00     0.127 C 
ENDBRANCH   8  18
ENDBRANCH   1   5
BRANCH   3  25
ATOM     25  C25 ZIN A   1      18.373   0.964  11.647  0.00  0.00     0.061 C 
ATOM     26  C26 ZIN A   1      19.777   1.075  11.048  0.00  0.00     0.030 C 
ATOM     27  C27 ZIN A   1      17.500   2.101  11.111  0.00  0.00     0.030 C 
BRANCH  25  28
ATOM     28  C28 ZIN A   1      18.458   1.061  13.148  0.00  0.00    -0.039 A 
ATOM     29  C41 ZIN A   1      18.723   2.279  13.749  0.00  0.00     0.024 A 
ATOM     30  C36 ZIN A   1      18.796   2.368  15.126  0.00  0.00     0.049 A 
ATOM     31  C35 ZIN A   1      18.616   1.239  15.903  0.00  0.00     0.032 A 
ATOM     32  C30 ZIN A   1      18.357   0.021  15.303  0.00  0.00     0.049 A 
ATOM     33  C29 ZIN A   1      18.279  -0.067  13.925  0.00  0.00     0.024 A 
BRANCH  30  34
ATOM     34  C37 ZIN A   1      19.079   3.696  15.781  0.00  0.00     0.417 C 
ATOM     35  F38 ZIN A   1      20.261   3.608  16.523  0.00  0.00    -0.166 F 
ATOM     36  F39 ZIN A   1      19.216   4.682  14.798  0.00  0.00    -0.166 F 
ATOM     37  F40 ZIN A   1      18.019   4.031  16.631  0.00  0.00    -0.166 F 
ENDBRANCH  30  34
BRANCH  32  38
ATOM     38  C31 ZIN A   1      18.161  -1.210  16.149  0.00  0.00     0.417 C 
ATOM     39  F32 ZIN A   1      19.100  -1.217  17.187  0.00  0.00    -0.166 F 
ATOM     40  F33 ZIN A   1      16.871  -1.203  16.689  0.00  0.00    -0.166 F 
ATOM     41  F34 ZIN A   1      18.331  -2.351  15.359  0.00  0.00    -0.166 F 
ENDBRANCH  32  38
ENDBRANCH  25  28
ENDBRANCH   3  25
TORSDOF 7
ENDMDL
MODEL 4
REMARK VINA RESULT:      -8.9      4.559      8.960
REMARK  7 active torsions:
REMARK  status: ('A' for Active; 'I' for Inactive)
REMARK    1  A    between atoms: C7_7  and  C8_8 
REMARK    2  A    between atoms: C10_10  and  N11_11 
REMARK    3  A    between atoms: C20_20  and  N21_21 
REMARK       I    between atoms: N21_21  and  C23_23 
REMARK    4  A    between atoms: C23_23  and  C25_25 
REMARK    5  A    between atoms: C25_25  and  C28_28 
REMARK    6  A    between atoms: C30_30  and  C31_31 
REMARK    7  A    between atoms: C36_36  and  C37_37 
ROOT
ATOM      1  N21 ZIN A   1      18.553  -1.371  10.826  0.00  0.00    -0.319 N 
ATOM      2  C22 ZIN A   1      20.010  -1.211  10.807  0.00  0.00     0.159 C 
ATOM      3  C23 ZIN A   1      17.771  -0.376  11.286  0.00  0.00     0.236 C 
ATOM      4  O24 ZIN A   1      16.575  -0.543  11.391  0.00  0.00    -0.272 OA
ENDROOT
BRANCH   1   5
ATOM      5  C20 ZIN A   1      17.974  -2.560  10.365  0.00  0.00     0.065 A 
ATOM      6  C8  ZIN A   1      17.729  -2.748   8.994  0.00  0.00     0.006 A 
ATOM      7  C9  ZIN A   1      17.150  -3.949   8.587  0.00  0.00     0.059 A 
ATOM      8  C10 ZIN A   1      16.835  -4.905   9.544  0.00  0.00     0.106 A 
ATOM      9  N18 ZIN A   1      17.078  -4.686  10.827  0.00  0.00    -0.246 NA
ATOM     10  C19 ZIN A   1      17.625  -3.563  11.254  0.00  0.00     0.149 A 
BRANCH   6  11
ATOM     11  C7  ZIN A   1      18.082  -1.699   8.006  0.00  0.00    -0.018 A 
ATOM     12  C2  ZIN A   1      19.083  -1.932   7.066  0.00  0.00    -0.051 A 
ATOM     13  C1  ZIN A   1      19.807  -3.254   7.046  0.00  0.00     0.049 C 
ATOM     14  C3  ZIN A   1      19.408  -0.953   6.150  0.00  0.00     0.007 A 
ATOM     15  C4  ZIN A   1      18.743   0.260   6.166  0.00  0.00     0.001 A 
ATOM     16  C5  ZIN A   1      17.752   0.499   7.101  0.00  0.00     0.001 A 
ATOM     17  C6  ZIN A   1      17.420  -0.473   8.022  0.00  0.00     0.013 A 
ENDBRANCH   6  11
BRANCH   8  18
ATOM     18  N11 ZIN A   1      16.257  -6.108   9.150  0.00  0.00    -0.265 NA
ATOM     19  C17 ZIN A   1      15.059  -5.875   8.334  0.00  0.00     0.127 C 
ATOM     20  C16 ZIN A   1      14.410  -7.218   7.989  0.00  0.00     0.286 C 
ATOM     21  N14 ZIN A   1      15.379  -8.057   7.270  0.00  0.00     0.086 N 
ATOM     22  C13 ZIN A   1      16.577  -8.291   8.088  0.00  0.00     0.286 C 
ATOM     23  C15 ZIN A   1      14.769  -9.328   6.855  0.00  0.00     0.310 C 
ATOM     24  C12 ZIN A   1      17.227  -6.948   8.432  0.00  0.00     0.127 C 
ENDBRANCH   8  18
ENDBRANCH   1   5
BRANCH   3  25
ATOM     25  C25 ZIN A   1      18.384   0.945  11.673  0.00  0.00     0.061 C 
ATOM     26  C26 ZIN A   1      19.790   1.050  11.075  0.00  0.00     0.030 C 
ATOM     27  C27 ZIN A   1      17.517   2.086  11.136  0.00  0.00     0.030 C 
BRANCH  25  28
ATOM     28  C28 ZIN A   1      18.468   1.041  13.174  0.00  0.00    -0.039 A 
ATOM     29  C41 ZIN A   1      18.270  -0.085  13.951  0.00  0.00     0.024 A 
ATOM     30  C36 ZIN A   1      18.351   0.002  15.329  0.00  0.00     0.049 A 
ATOM     31  C35 ZIN A   1      18.620   1.218  15.929  0.00  0.00     0.032 A 
ATOM     32  C30 ZIN A   1      18.811   2.346  15.152  0.00  0.00     0.049 A 
ATOM     33  C29 ZIN A   1      18.735   2.257  13.775  0.00  0.00     0.024 A 
BRANCH  30  34
ATOM     34  C37 ZIN A   1      18.142  -1.226  16.175  0.00  0.00     0.417 C 
ATOM     35  F38 ZIN A   1      16.864  -1.190  16.741  0.00  0.00    -0.166 F 
ATOM     36  F39 ZIN A   1      18.270  -2.370  15.379  0.00  0.00    -0.166 F 
ATOM     37  F40 ZIN A   1      19.101  -1.259  17.194  0.00  0.00    -0.166 F 
ENDBRANCH  30  34
BRANCH  32  38
ATOM     38  C31 ZIN A   1      19.104   3.671  15.807  0.00  0.00     0.417 C 
ATOM     39  F32 ZIN A   1      19.676   4.538  14.869  0.00  0.00    -0.166 F 
ATOM     40  F33 ZIN A   1      17.913   4.226  16.287  0.00  0.00    -0.166 F 
ATOM     41  F34 ZIN A   1      19.992   3.481  16.870  0.00  0.00    -0.166 F 
ENDBRANCH  32  38
ENDBRANCH  25  28
ENDBRANCH   3  25
TORSDOF 7
ENDMDL
MODEL 5
REMARK VINA RESULT:      -8.7      2.118      4.577
REMARK  7 active torsions:
REMARK  status: ('A' for Active; 'I' for Inactive)
REMARK    1  A    between atoms: C7_7  and  C8_8 
REMARK    2  A    between atoms: C10_10  and  N11_11 
REMARK    3  A    between atoms: C20_20  and  N21_21 
REMARK       I    between atoms: N21_21  and  C23_23 
REMARK    4  A    between atoms: C23_23  and  C25_25 
REMARK    5  A    between atoms: C25_25  and  C28_28 
REMARK    6  A    between atoms: C30_30  and  C31_31 
REMARK    7  A    between atoms: C36_36  and  C37_37 
ROOT
ATOM      1  N21 ZIN A   1      18.724   1.189  12.204  0.00  0.00    -0.319 N 
ATOM      2  C22 ZIN A   1      20.155   0.900  12.332  0.00  0.00     0.159 C 
ATOM      3  C23 ZIN A   1      17.897   0.272  11.665  0.00  0.00     0.236 C 
ATOM      4  O24 ZIN A   1      16.732   0.546  11.472  0.00  0.00    -0.272 OA
ENDROOT
BRANCH   1   5
ATOM      5  C20 ZIN A   1      18.217   2.417  12.644  0.00  0.00     0.065 A 
ATOM      6  C8  ZIN A   1      17.915   2.619  14.002  0.00  0.00     0.006 A 
ATOM      7  C9  ZIN A   1      17.411   3.860  14.388  0.00  0.00     0.059 A 
ATOM      8  C10 ZIN A   1      17.223   4.841  13.423  0.00  0.00     0.106 A 
ATOM      9  N18 ZIN A   1      17.515   4.608  12.152  0.00  0.00    -0.246 NA
ATOM     10  C19 ZIN A   1      17.993   3.447  11.746  0.00  0.00     0.149 A 
BRANCH   6  11
ATOM     11  C7  ZIN A   1      18.134   1.542  14.998  0.00  0.00    -0.018 A 
ATOM     12  C2  ZIN A   1      18.994   1.749  16.074  0.00  0.00    -0.051 A 
ATOM     13  C1  ZIN A   1      19.702   3.070  16.232  0.00  0.00     0.049 C 
ATOM     14  C3  ZIN A   1      19.194   0.744  16.998  0.00  0.00     0.007 A 
ATOM     15  C4  ZIN A   1      18.544  -0.469  16.855  0.00  0.00     0.001 A 
ATOM     16  C5  ZIN A   1      17.693  -0.682  15.786  0.00  0.00     0.001 A 
ATOM     17  C6  ZIN A   1      17.486   0.316  14.856  0.00  0.00     0.013 A 
ENDBRANCH   6  11
BRANCH   8  18
ATOM     18  N11 ZIN A   1      16.721   6.085  13.796  0.00  0.00    -0.265 NA
ATOM     19  C17 ZIN A   1      15.534   5.940  14.649  0.00  0.00     0.127 C 
ATOM     20  C16 ZIN A   1      14.967   7.325  14.970  0.00  0.00     0.286 C 
ATOM     21  N14 ZIN A   1      15.999   8.131  15.639  0.00  0.00     0.086 N 
ATOM     22  C13 ZIN A   1      17.186   8.276  14.784  0.00  0.00     0.286 C 
ATOM     23  C15 ZIN A   1      15.469   9.444  16.032  0.00  0.00     0.310 C 
ATOM     24  C12 ZIN A   1      17.753   6.891  14.463  0.00  0.00     0.127 C 
ENDBRANCH   8  18
ENDBRANCH   1   5
BRANCH   3  25
ATOM     25  C25 ZIN A   1      18.421  -1.092  11.299  0.00  0.00     0.061 C 
ATOM     26  C26 ZIN A   1      19.753  -1.336  12.014  0.00  0.00     0.030 C 
ATOM     27  C27 ZIN A   1      17.411  -2.158  11.729  0.00  0.00     0.030 C 
BRANCH  25  28
ATOM     28  C28 ZIN A   1      18.629  -1.169   9.809  0.00  0.00    -0.039 A 
ATOM     29  C41 ZIN A   1      18.843  -2.393   9.203  0.00  0.00     0.024 A 
ATOM     30  C36 ZIN A   1      19.029  -2.464   7.835  0.00  0.00     0.049 A 
ATOM     31  C35 ZIN A   1      19.012  -1.309   7.074  0.00  0.00     0.032 A 
ATOM     32  C30 ZIN A   1      18.804  -0.085   7.682  0.00  0.00     0.049 A 
ATOM     33  C29 ZIN A   1      18.613  -0.015   9.049  0.00  0.00     0.024 A 
BRANCH  30  34
ATOM     34  C37 ZIN A   1      19.256  -3.798   7.173  0.00  0.00     0.417 C 
ATOM     35  F38 ZIN A   1      18.023  -4.396   6.893  0.00  0.00    -0.166 F 
ATOM     36  F39 ZIN A   1      19.967  -3.614   5.982  0.00  0.00    -0.166 F 
ATOM     37  F40 ZIN A   1      19.991  -4.624   8.030  0.00  0.00    -0.166 F 
ENDBRANCH  30  34
BRANCH  32  38
ATOM     38  C31 ZIN A   1      18.785   1.174   6.853  0.00  0.00     0.417 C 
ATOM     39  F32 ZIN A   1      19.843   1.144   5.937  0.00  0.00    -0.166 F 
ATOM     40  F33 ZIN A   1      17.573   1.259   6.162  0.00  0.00    -0.166 F 
ATOM     41  F34 ZIN A   1      18.924   2.286   7.690  0.00  0.00    -0.166 F 
ENDBRANCH  32  38
ENDBRANCH  25  28
ENDBRANCH   3  25
TORSDOF 7
ENDMDL
MODEL 6
REMARK VINA RESULT:      -8.7      2.076      4.858
REMARK  7 active torsions:
REMARK  status: ('A' for Active; 'I' for Inactive)
REMARK    1  A    between atoms: C7_7  and  C8_8 
REMARK    2  A    between atoms: C10_10  and  N11_11 
REMARK    3  A    between atoms: C20_20  and  N21_21 
REMARK       I    between atoms: N21_21  and  C23_23 
REMARK    4  A    between atoms: C23_23  and  C25_25 
REMARK    5  A    between atoms: C25_25  and  C28_28 
REMARK    6  A    between atoms: C30_30  and  C31_31 
REMARK    7  A    between atoms: C36_36  and  C37_37 
ROOT
ATOM      1  N21 ZIN A   1      18.772   1.095  12.096  0.00  0.00    -0.319 N 
ATOM      2  C22 ZIN A   1      20.197   0.780  12.228  0.00  0.00     0.159 C 
ATOM      3  C23 ZIN A   1      17.933   0.201  11.538  0.00  0.00     0.236 C 
ATOM      4  O24 ZIN A   1      16.774   0.498  11.342  0.00  0.00    -0.272 OA
ENDROOT
BRANCH   1   5
ATOM      5  C20 ZIN A   1      18.283   2.325  12.552  0.00  0.00     0.065 A 
ATOM      6  C8  ZIN A   1      17.980   2.512  13.912  0.00  0.00     0.006 A 
ATOM      7  C9  ZIN A   1      17.495   3.755  14.314  0.00  0.00     0.059 A 
ATOM      8  C10 ZIN A   1      17.325   4.753  13.363  0.00  0.00     0.106 A 
ATOM      9  N18 ZIN A   1      17.617   4.534  12.090  0.00  0.00    -0.246 NA
ATOM     10  C19 ZIN A   1      18.078   3.371  11.668  0.00  0.00     0.149 A 
BRANCH   6  11
ATOM     11  C7  ZIN A   1      18.179   1.418  14.893  0.00  0.00    -0.018 A 
ATOM     12  C2  ZIN A   1      18.989   1.618  16.009  0.00  0.00    -0.051 A 
ATOM     13  C1  ZIN A   1      19.661   2.949  16.226  0.00  0.00     0.049 C 
ATOM     14  C3  ZIN A   1      19.170   0.596  16.919  0.00  0.00     0.007 A 
ATOM     15  C4  ZIN A   1      18.552  -0.626  16.722  0.00  0.00     0.001 A 
ATOM     16  C5  ZIN A   1      17.751  -0.831  15.614  0.00  0.00     0.001 A 
ATOM     17  C6  ZIN A   1      17.564   0.183  14.697  0.00  0.00     0.013 A 
ENDBRANCH   6  11
BRANCH   8  18
ATOM     18  N11 ZIN A   1      16.841   5.999  13.752  0.00  0.00    -0.265 NA
ATOM     19  C17 ZIN A   1      15.645   5.861  14.593  0.00  0.00     0.127 C 
ATOM     20  C16 ZIN A   1      15.100   7.250  14.932  0.00  0.00     0.286 C 
ATOM     21  N14 ZIN A   1      16.139   8.027  15.622  0.00  0.00     0.086 N 
ATOM     22  C13 ZIN A   1      17.336   8.165  14.780  0.00  0.00     0.286 C 
ATOM     23  C15 ZIN A   1      15.629   9.343  16.032  0.00  0.00     0.310 C 
ATOM     24  C12 ZIN A   1      17.881   6.776  14.441  0.00  0.00     0.127 C 
ENDBRANCH   8  18
ENDBRANCH   1   5
BRANCH   3  25
ATOM     25  C25 ZIN A   1      18.436  -1.166  11.154  0.00  0.00     0.061 C 
ATOM     26  C26 ZIN A   1      19.760  -1.443  11.871  0.00  0.00     0.030 C 
ATOM     27  C27 ZIN A   1      17.406  -2.222  11.563  0.00  0.00     0.030 C 
BRANCH  25  28
ATOM     28  C28 ZIN A   1      18.651  -1.224   9.664  0.00  0.00    -0.039 A 
ATOM     29  C41 ZIN A   1      18.612  -0.062   8.914  0.00  0.00     0.024 A 
ATOM     30  C36 ZIN A   1      18.814  -0.115   7.547  0.00  0.00     0.049 A 
ATOM     31  C35 ZIN A   1      19.043  -1.330   6.929  0.00  0.00     0.032 A 
ATOM     32  C30 ZIN A   1      19.075  -2.492   7.678  0.00  0.00     0.049 A 
ATOM     33  C29 ZIN A   1      18.879  -2.438   9.045  0.00  0.00     0.024 A 
BRANCH  30  34
ATOM     34  C37 ZIN A   1      18.778   1.150   6.731  0.00  0.00     0.417 C 
ATOM     35  F38 ZIN A   1      18.930   2.255   7.576  0.00  0.00    -0.166 F 
ATOM     36  F39 ZIN A   1      19.817   1.132   5.794  0.00  0.00    -0.166 F 
ATOM     37  F40 ZIN A   1      17.551   1.240   6.063  0.00  0.00    -0.166 F 
ENDBRANCH  30  34
BRANCH  32  38
ATOM     38  C31 ZIN A   1      19.325  -3.816   7.004  0.00  0.00     0.417 C 
ATOM     39  F32 ZIN A   1      18.901  -4.854   7.843  0.00  0.00    -0.166 F 
ATOM     40  F33 ZIN A   1      18.612  -3.869   5.802  0.00  0.00    -0.166 F 
ATOM     41  F34 ZIN A   1      20.691  -3.957   6.742  0.00  0.00    -0.166 F 
ENDBRANCH  32  38
ENDBRANCH  25  28
ENDBRANCH   3  25
TORSDOF 7
ENDMDL
MODEL 7
REMARK VINA RESULT:      -8.6      1.385      1.860
REMARK  7 active torsions:
REMARK  status: ('A' for Active; 'I' for Inactive)
REMARK    1  A    between atoms: C7_7  and  C8_8 
REMARK    2  A    between atoms: C10_10  and  N11_11 
REMARK    3  A    between atoms: C20_20  and  N21_21 
REMARK       I    between atoms: N21_21  and  C23_23 
REMARK    4  A    between atoms: C23_23  and  C25_25 
REMARK    5  A    between atoms: C25_25  and  C28_28 
REMARK    6  A    between atoms: C30_30  and  C31_31 
REMARK    7  A    between atoms: C36_36  and  C37_37 
ROOT
ATOM      1  N21 ZIN A   1      19.183  -2.513  12.206  0.00  0.00    -0.319 N 
ATOM      2  C22 ZIN A   1      20.562  -2.894  11.889  0.00  0.00     0.159 C 
ATOM      3  C23 ZIN A   1      18.163  -3.322  11.861  0.00  0.00     0.236 C 
ATOM      4  O24 ZIN A   1      17.018  -2.964  12.037  0.00  0.00    -0.272 OA
ENDROOT
BRANCH   1   5
ATOM      5  C20 ZIN A   1      18.926  -1.306  12.868  0.00  0.00     0.065 A 
ATOM      6  C8  ZIN A   1      18.722  -0.122  12.140  0.00  0.00     0.006 A 
ATOM      7  C9  ZIN A   1      18.472   1.052  12.846  0.00  0.00     0.059 A 
ATOM      8  C10 ZIN A   1      18.439   1.010  14.234  0.00  0.00     0.106 A 
ATOM      9  N18 ZIN A   1      18.642  -0.126  14.884  0.00  0.00    -0.246 NA
ATOM     10  C19 ZIN A   1      18.882  -1.259  14.252  0.00  0.00     0.149 A 
BRANCH   6  11
ATOM     11  C7  ZIN A   1      18.766  -0.124  10.657  0.00  0.00    -0.018 A 
ATOM     12  C2  ZIN A   1      17.582  -0.129   9.922  0.00  0.00    -0.051 A 
ATOM     13  C1  ZIN A   1      16.253  -0.127  10.632  0.00  0.00     0.049 C 
ATOM     14  C3  ZIN A   1      17.629  -0.131   8.543  0.00  0.00     0.007 A 
ATOM     15  C4  ZIN A   1      18.848  -0.133   7.890  0.00  0.00     0.001 A 
ATOM     16  C5  ZIN A   1      20.027  -0.133   8.614  0.00  0.00     0.001 A 
ATOM     17  C6  ZIN A   1      19.992  -0.131   9.993  0.00  0.00     0.013 A 
ENDBRANCH   6  11
BRANCH   8  18
ATOM     18  N11 ZIN A   1      18.189   2.177  14.952  0.00  0.00    -0.265 NA
ATOM     19  C17 ZIN A   1      19.201   2.378  15.997  0.00  0.00     0.127 C 
ATOM     20  C16 ZIN A   1      18.847   3.624  16.813  0.00  0.00     0.286 C 
ATOM     21  N14 ZIN A   1      18.777   4.789  15.919  0.00  0.00     0.086 N 
ATOM     22  C13 ZIN A   1      17.764   4.586  14.873  0.00  0.00     0.286 C 
ATOM     23  C15 ZIN A   1      18.513   6.020  16.677  0.00  0.00     0.310 C 
ATOM     24  C12 ZIN A   1      18.118   3.340  14.058  0.00  0.00     0.127 C 
ENDBRANCH   8  18
ENDBRANCH   1   5
BRANCH   3  25
ATOM     25  C25 ZIN A   1      18.445  -4.672  11.254  0.00  0.00     0.061 C 
ATOM     26  C26 ZIN A   1      19.955  -4.924  11.249  0.00  0.00     0.030 C 
ATOM     27  C27 ZIN A   1      17.752  -5.758  12.081  0.00  0.00     0.030 C 
BRANCH  25  28
ATOM     28  C28 ZIN A   1      17.925  -4.708   9.841  0.00  0.00    -0.039 A 
ATOM     29  C41 ZIN A   1      16.759  -5.392   9.550  0.00  0.00     0.024 A 
ATOM     30  C36 ZIN A   1      16.279  -5.421   8.254  0.00  0.00     0.049 A 
ATOM     31  C35 ZIN A   1      16.970  -4.774   7.247  0.00  0.00     0.032 A 
ATOM     32  C30 ZIN A   1      18.139  -4.094   7.537  0.00  0.00     0.049 A 
ATOM     33  C29 ZIN A   1      18.616  -4.062   8.834  0.00  0.00     0.024 A 
BRANCH  30  34
ATOM     34  C37 ZIN A   1      15.006  -6.162   7.938  0.00  0.00     0.417 C 
ATOM     35  F38 ZIN A   1      15.222  -7.537   8.069  0.00  0.00    -0.166 F 
ATOM     36  F39 ZIN A   1      14.000  -5.760   8.823  0.00  0.00    -0.166 F 
ATOM     37  F40 ZIN A   1      14.613  -5.875   6.626  0.00  0.00    -0.166 F 
ENDBRANCH  30  34
BRANCH  32  38
ATOM     38  C31 ZIN A   1      18.893  -3.389   6.439  0.00  0.00     0.417 C 
ATOM     39  F32 ZIN A   1      18.133  -2.310   5.970  0.00  0.00    -0.166 F 
ATOM     40  F33 ZIN A   1      20.111  -2.918   6.938  0.00  0.00    -0.166 F 
ATOM     41  F34 ZIN A   1      19.133  -4.281   5.389  0.00  0.00    -0.166 F 
ENDBRANCH  32  38
ENDBRANCH  25  28
ENDBRANCH   3  25
TORSDOF 7
ENDMDL
MODEL 8
REMARK VINA RESULT:      -8.1      2.414      3.719
REMARK  7 active torsions:
REMARK  status: ('A' for Active; 'I' for Inactive)
REMARK    1  A    between atoms: C7_7  and  C8_8 
REMARK    2  A    between atoms: C10_10  and  N11_11 
REMARK    3  A    between atoms: C20_20  and  N21_21 
REMARK       I    between atoms: N21_21  and  C23_23 
REMARK    4  A    between atoms: C23_23  and  C25_25 
REMARK    5  A    between atoms: C25_25  and  C28_28 
REMARK    6  A    between atoms: C30_30  and  C31_31 
REMARK    7  A    between atoms: C36_36  and  C37_37 
ROOT
ATOM      1  N21 ZIN A   1      19.117  -2.250  12.576  0.00  0.00    -0.319 N 
ATOM      2  C22 ZIN A   1      20.374  -2.925  12.242  0.00  0.00     0.159 C 
ATOM      3  C23 ZIN A   1      17.986  -2.569  11.917  0.00  0.00     0.236 C 
ATOM      4  O24 ZIN A   1      16.966  -1.946  12.126  0.00  0.00    -0.272 OA
ENDROOT
BRANCH   1   5
ATOM      5  C20 ZIN A   1      19.092  -1.274  13.579  0.00  0.00     0.065 A 
ATOM      6  C8  ZIN A   1      19.303   0.079  13.264  0.00  0.00     0.006 A 
ATOM      7  C9  ZIN A   1      19.269   1.010  14.300  0.00  0.00     0.059 A 
ATOM      8  C10 ZIN A   1      19.035   0.569  15.596  0.00  0.00     0.106 A 
ATOM      9  N18 ZIN A   1      18.847  -0.716  15.852  0.00  0.00    -0.246 NA
ATOM     10  C19 ZIN A   1      18.871  -1.630  14.899  0.00  0.00     0.149 A 
BRANCH   6  11
ATOM     11  C7  ZIN A   1      19.548   0.504  11.864  0.00  0.00    -0.018 A 
ATOM     12  C2  ZIN A   1      18.834   1.571  11.322  0.00  0.00    -0.051 A 
ATOM     13  C1  ZIN A   1      17.814   2.299  12.158  0.00  0.00     0.049 C 
ATOM     14  C3  ZIN A   1      19.066   1.963  10.019  0.00  0.00     0.007 A 
ATOM     15  C4  ZIN A   1      20.003   1.296   9.251  0.00  0.00     0.001 A 
ATOM     16  C5  ZIN A   1      20.711   0.233   9.782  0.00  0.00     0.001 A 
ATOM     17  C6  ZIN A   1      20.487  -0.168  11.083  0.00  0.00     0.013 A 
ENDBRANCH   6  11
BRANCH   8  18
ATOM     18  N11 ZIN A   1      18.999   1.490  16.640  0.00  0.00    -0.265 NA
ATOM     19  C17 ZIN A   1      18.758   2.848  16.136  0.00  0.00     0.127 C 
ATOM     20  C16 ZIN A   1      18.804   3.838  17.303  0.00  0.00     0.286 C 
ATOM     21  N14 ZIN A   1      17.794   3.462  18.301  0.00  0.00     0.086 N 
ATOM     22  C13 ZIN A   1      18.036   2.103  18.805  0.00  0.00     0.286 C 
ATOM     23  C15 ZIN A   1      17.755   4.433  19.404  0.00  0.00     0.310 C 
ATOM     24  C12 ZIN A   1      17.989   1.113  17.639  0.00  0.00     0.127 C 
ENDBRANCH   8  18
ENDBRANCH   1   5
BRANCH   3  25
ATOM     25  C25 ZIN A   1      17.988  -3.699  10.920  0.00  0.00     0.061 C 
ATOM     26  C26 ZIN A   1      19.136  -4.659  11.240  0.00  0.00     0.030 C 
ATOM     27  C27 ZIN A   1      16.657  -4.452  11.000  0.00  0.00     0.030 C 
BRANCH  25  28
ATOM     28  C28 ZIN A   1      18.168  -3.144   9.531  0.00  0.00    -0.039 A 
ATOM     29  C41 ZIN A   1      17.673  -1.892   9.217  0.00  0.00     0.024 A 
ATOM     30  C36 ZIN A   1      17.843  -1.381   7.943  0.00  0.00     0.049 A 
ATOM     31  C35 ZIN A   1      18.498  -2.127   6.981  0.00  0.00     0.032 A 
ATOM     32  C30 ZIN A   1      18.988  -3.381   7.294  0.00  0.00     0.049 A 
ATOM     33  C29 ZIN A   1      18.822  -3.890   8.569  0.00  0.00     0.024 A 
BRANCH  30  34
ATOM     34  C37 ZIN A   1      17.309  -0.014   7.602  0.00  0.00     0.417 C 
ATOM     35  F38 ZIN A   1      16.247  -0.140   6.701  0.00  0.00    -0.166 F 
ATOM     36  F39 ZIN A   1      16.860   0.617   8.768  0.00  0.00    -0.166 F 
ATOM     37  F40 ZIN A   1      18.326   0.752   7.021  0.00  0.00    -0.166 F 
ENDBRANCH  30  34
BRANCH  32  38
ATOM     38  C31 ZIN A   1      19.702  -4.195   6.246  0.00  0.00     0.417 C 
ATOM     39  F32 ZIN A   1      19.625  -3.536   5.013  0.00  0.00    -0.166 F 
ATOM     40  F33 ZIN A   1      21.044  -4.347   6.608  0.00  0.00    -0.166 F 
ATOM     41  F34 ZIN A   1      19.101  -5.453   6.141  0.00  0.00    -0.166 F 
ENDBRANCH  32  38
ENDBRANCH  25  28
ENDBRANCH   3  25
TORSDOF 7
ENDMDL
MODEL 9
REMARK VINA RESULT:      -8.0      1.884      3.590
REMARK  7 active torsions:
REMARK  status: ('A' for Active; 'I' for Inactive)
REMARK    1  A    between atoms: C7_7  and  C8_8 
REMARK    2  A    between atoms: C10_10  and  N11_11 
REMARK    3  A    between atoms: C20_20  and  N21_21 
REMARK       I    between atoms: N21_21  and  C23_23 
REMARK    4  A    between atoms: C23_23  and  C25_25 
REMARK    5  A    between atoms: C25_25  and  C28_28 
REMARK    6  A    between atoms: C30_30  and  C31_31 
REMARK    7  A    between atoms: C36_36  and  C37_37 
ROOT
ATOM      1  N21 ZIN A   1      18.562   1.362   9.272  0.00  0.00    -0.319 N 
ATOM      2  C22 ZIN A   1      19.628   1.653   8.309  0.00  0.00     0.159 C 
ATOM      3  C23 ZIN A   1      17.695   0.359   9.035  0.00  0.00     0.236 C 
ATOM      4  O24 ZIN A   1      16.757   0.178   9.782  0.00  0.00    -0.272 OA
ENDROOT
BRANCH   1   5
ATOM      5  C20 ZIN A   1      18.446   2.127  10.439  0.00  0.00     0.065 A 
ATOM      6  C8  ZIN A   1      18.784   1.578  11.687  0.00  0.00     0.006 A 
ATOM      7  C9  ZIN A   1      18.649   2.380  12.819  0.00  0.00     0.059 A 
ATOM      8  C10 ZIN A   1      18.184   3.681  12.672  0.00  0.00     0.106 A 
ATOM      9  N18 ZIN A   1      17.870   4.158  11.477  0.00  0.00    -0.246 NA
ATOM     10  C19 ZIN A   1      17.984   3.431  10.381  0.00  0.00     0.149 A 
BRANCH   6  11
ATOM     11  C7  ZIN A   1      19.278   0.183  11.797  0.00  0.00    -0.018 A 
ATOM     12  C2  ZIN A   1      18.692  -0.697  12.704  0.00  0.00    -0.051 A 
ATOM     13  C1  ZIN A   1      17.550  -0.236  13.573  0.00  0.00     0.049 C 
ATOM     14  C3  ZIN A   1      19.155  -1.993  12.802  0.00  0.00     0.007 A 
ATOM     15  C4  ZIN A   1      20.203  -2.417  12.005  0.00  0.00     0.001 A 
ATOM     16  C5  ZIN A   1      20.792  -1.546  11.107  0.00  0.00     0.001 A 
ATOM     17  C6  ZIN A   1      20.337  -0.248  11.001  0.00  0.00     0.013 A 
ENDBRANCH   6  11
BRANCH   8  18
ATOM     18  N11 ZIN A   1      18.045   4.493  13.794  0.00  0.00    -0.265 NA
ATOM     19  C17 ZIN A   1      19.251   5.304  14.010  0.00  0.00     0.127 C 
ATOM     20  C16 ZIN A   1      19.090   6.121  15.294  0.00  0.00     0.286 C 
ATOM     21  N14 ZIN A   1      17.897   6.974  15.182  0.00  0.00     0.086 N 
ATOM     22  C13 ZIN A   1      16.691   6.162  14.967  0.00  0.00     0.286 C 
ATOM     23  C15 ZIN A   1      17.750   7.831  16.367  0.00  0.00     0.310 C 
ATOM     24  C12 ZIN A   1      16.852   5.345  13.683  0.00  0.00     0.127 C 
ENDBRANCH   8  18
ENDBRANCH   1   5
BRANCH   3  25
ATOM     25  C25 ZIN A   1      17.890  -0.538   7.839  0.00  0.00     0.061 C 
ATOM     26  C26 ZIN A   1      16.630  -0.510   6.970  0.00  0.00     0.030 C 
ATOM     27  C27 ZIN A   1      19.084  -0.043   7.020  0.00  0.00     0.030 C 
BRANCH  25  28
ATOM     28  C28 ZIN A   1      18.148  -1.947   8.304  0.00  0.00    -0.039 A 
ATOM     29  C41 ZIN A   1      17.505  -2.434   9.427  0.00  0.00     0.024 A 
ATOM     30  C36 ZIN A   1      17.739  -3.730   9.850  0.00  0.00     0.049 A 
ATOM     31  C35 ZIN A   1      18.624  -4.534   9.157  0.00  0.00     0.032 A 
ATOM     32  C30 ZIN A   1      19.272  -4.045   8.038  0.00  0.00     0.049 A 
ATOM     33  C29 ZIN A   1      19.034  -2.751   7.612  0.00  0.00     0.024 A 
BRANCH  30  34
ATOM     34  C37 ZIN A   1      17.033  -4.263  11.070  0.00  0.00     0.417 C 
ATOM     35  F38 ZIN A   1      17.903  -5.088  11.788  0.00  0.00    -0.166 F 
ATOM     36  F39 ZIN A   1      16.627  -3.195  11.879  0.00  0.00    -0.166 F 
ATOM     37  F40 ZIN A   1      15.911  -5.000  10.675  0.00  0.00    -0.166 F 
ENDBRANCH  30  34
BRANCH  32  38
ATOM     38  C31 ZIN A   1      20.237  -4.922   7.282  0.00  0.00     0.417 C 
ATOM     39  F32 ZIN A   1      19.533  -5.700   6.356  0.00  0.00    -0.166 F 
ATOM     40  F33 ZIN A   1      21.164  -4.121   6.608  0.00  0.00    -0.166 F 
ATOM     41  F34 ZIN A   1      20.908  -5.758   8.180  0.00  0.00    -0.166 F 
ENDBRANCH  32  38
ENDBRANCH  25  28
ENDBRANCH   3  25
TORSDOF 7
ENDMDL
