MODEL 1
REMARK VINA RESULT:      -5.2      0.000      0.000
REMARK  21 active torsions:
REMARK  status: ('A' for Active; 'I' for Inactive)
REMARK    1  A    between atoms: C2_2  and  C3_3 
REMARK    2  A    between atoms: C3_3  and  C4_4 
REMARK    3  A    between atoms: C4_4  and  C5_5 
REMARK    4  A    between atoms: C5_5  and  C6_6 
REMARK    5  A    between atoms: C6_6  and  C7_7 
REMARK    6  A    between atoms: C7_7  and  C8_8 
REMARK    7  A    between atoms: C8_8  and  C9_9 
REMARK    8  A    between atoms: C9_9  and  C10_10 
REMARK    9  A    between atoms: C10_10  and  C11_11 
REMARK   10  A    between atoms: C11_11  and  C12_12 
REMARK   11  A    between atoms: C12_12  and  C13_13 
REMARK   12  A    between atoms: C13_13  and  C14_14 
REMARK   13  A    between atoms: C14_14  and  C15_15 
REMARK   14  A    between atoms: C15_15  and  C16_16 
REMARK   15  A    between atoms: C16_16  and  C17_17 
REMARK   16  A    between atoms: C17_17  and  C18_18 
REMARK   17  A    between atoms: C18_18  and  C19_19 
REMARK   18  A    between atoms: C19_19  and  C20_20 
REMARK   19  A    between atoms: C20_20  and  C21_21 
REMARK   20  A    between atoms: C21_21  and  C22_22 
REMARK   21  A    between atoms: C22_22  and  O23_23 
ROOT
ATOM      1  C12 <0> d   1      16.973  -0.334  11.561  0.00  0.00     0.000 C 
ENDROOT
BRANCH   1   2
ATOM      2  C11 <0> d   1      17.370   0.023  12.995  0.00  0.00     0.000 C 
BRANCH   2   3
ATOM      3  C10 <0> d   1      18.739   0.707  12.989  0.00  0.00     0.000 C 
BRANCH   3   4
ATOM      4  C9  <0> d   1      19.597   0.140  14.122  0.00  0.00     0.000 C 
BRANCH   4   5
ATOM      5  C8  <0> d   1      19.090  -1.253  14.499  0.00  0.00     0.000 C 
BRANCH   5   6
ATOM      6  C7  <0> d   1      19.066  -1.392  16.023  0.00  0.00     0.000 C 
BRANCH   6   7
ATOM      7  C6  <0> d   1      17.623  -1.291  16.521  0.00  0.00     0.000 C 
BRANCH   7   8
ATOM      8  C5  <0> d   1      17.450   0.002  17.323  0.00  0.00     0.000 C 
BRANCH   8   9
ATOM      9  C4  <0> d   1      18.560   0.104  18.371  0.00  0.00     0.000 C 
BRANCH   9  10
ATOM     10  C3  <0> d   1      19.130   1.523  18.375  0.00  0.00    -0.000 C 
BRANCH  10  11
ATOM     11  C2  <0> d   1      18.532   2.317  17.213  0.00  0.00    -0.005 C 
ATOM     12  C1  <0> d   1      19.626   3.160  16.554  0.00  0.00     0.005 C 
ENDBRANCH  10  11
ENDBRANCH   9  10
ENDBRANCH   8   9
ENDBRANCH   7   8
ENDBRANCH   6   7
ENDBRANCH   5   6
ENDBRANCH   4   5
ENDBRANCH   3   4
ENDBRANCH   2   3
ENDBRANCH   1   2
BRANCH   1  13
ATOM     13  C13 <0> d   1      18.202  -0.239  10.653  0.00  0.00     0.000 C 
BRANCH  13  14
ATOM     14  C14 <0> d   1      17.751  -0.132   9.195  0.00  0.00     0.000 C 
BRANCH  14  15
ATOM     15  C15 <0> d   1      18.506   1.008   8.510  0.00  0.00     0.000 C 
BRANCH  15  16
ATOM     16  C16 <0> d   1      19.155   1.899   9.572  0.00  0.00     0.000 C 
BRANCH  16  17
ATOM     17  C17 <0> d   1      18.492   3.278   9.556  0.00  0.00     0.000 C 
BRANCH  17  18
ATOM     18  C18 <0> d   1      17.597   3.428  10.787  0.00  0.00     0.000 C 
BRANCH  18  19
ATOM     19  C19 <0> d   1      18.075   4.616  11.623  0.00  0.00     0.000 C 
BRANCH  19  20
ATOM     20  C20 <0> d   1      19.438   4.293  12.240  0.00  0.00     0.002 C 
BRANCH  20  21
ATOM     21  C21 <0> d   1      19.671   5.186  13.459  0.00  0.00     0.026 C 
BRANCH  21  22
ATOM     22  C22 <0> d   1      18.323   5.580  14.067  0.00  0.00     0.164 C 
BRANCH  22  23
ATOM     23  O23 <0> d   1      18.426   6.881  14.650  0.00  0.00    -0.401 OA
ATOM     24  H69 <0> d   1      19.333   7.155  14.845  0.00  0.00     0.209 HD
ENDBRANCH  22  23
ENDBRANCH  21  22
ENDBRANCH  20  21
ENDBRANCH  19  20
ENDBRANCH  18  19
ENDBRANCH  17  18
ENDBRANCH  16  17
ENDBRANCH  15  16
ENDBRANCH  14  15
ENDBRANCH  13  14
ENDBRANCH   1  13
TORSDOF 21
ENDMDL
MODEL 2
REMARK VINA RESULT:      -5.1      3.044      7.807
REMARK  21 active torsions:
REMARK  status: ('A' for Active; 'I' for Inactive)
REMARK    1  A    between atoms: C2_2  and  C3_3 
REMARK    2  A    between atoms: C3_3  and  C4_4 
REMARK    3  A    between atoms: C4_4  and  C5_5 
REMARK    4  A    between atoms: C5_5  and  C6_6 
REMARK    5  A    between atoms: C6_6  and  C7_7 
REMARK    6  A    between atoms: C7_7  and  C8_8 
REMARK    7  A    between atoms: C8_8  and  C9_9 
REMARK    8  A    between atoms: C9_9  and  C10_10 
REMARK    9  A    between atoms: C10_10  and  C11_11 
REMARK   10  A    between atoms: C11_11  and  C12_12 
REMARK   11  A    between atoms: C12_12  and  C13_13 
REMARK   12  A    between atoms: C13_13  and  C14_14 
REMARK   13  A    between atoms: C14_14  and  C15_15 
REMARK   14  A    between atoms: C15_15  and  C16_16 
REMARK   15  A    between atoms: C16_16  and  C17_17 
REMARK   16  A    between atoms: C17_17  and  C18_18 
REMARK   17  A    between atoms: C18_18  and  C19_19 
REMARK   18  A    between atoms: C19_19  and  C20_20 
REMARK   19  A    between atoms: C20_20  and  C21_21 
REMARK   20  A    between atoms: C21_21  and  C22_22 
REMARK   21  A    between atoms: C22_22  and  O23_23 
ROOT
ATOM      1  C12 <0> d   1      17.946   0.462   8.602  0.00  0.00     0.000 C 
ENDROOT
BRANCH   1   2
ATOM      2  C11 <0> d   1      19.202   1.024   7.933  0.00  0.00     0.000 C 
BRANCH   2   3
ATOM      3  C10 <0> d   1      18.871   1.446   6.501  0.00  0.00     0.000 C 
BRANCH   3   4
ATOM      4  C9  <0> d   1      18.284   0.255   5.740  0.00  0.00     0.000 C 
BRANCH   4   5
ATOM      5  C8  <0> d   1      19.386  -0.421   4.922  0.00  0.00     0.000 C 
BRANCH   5   6
ATOM      6  C7  <0> d   1      19.013  -1.885   4.676  0.00  0.00     0.000 C 
BRANCH   6   7
ATOM      7  C6  <0> d   1      18.442  -2.488   5.961  0.00  0.00     0.000 C 
BRANCH   7   8
ATOM      8  C5  <0> d   1      19.582  -2.762   6.945  0.00  0.00     0.000 C 
BRANCH   8   9
ATOM      9  C4  <0> d   1      19.023  -2.829   8.367  0.00  0.00     0.000 C 
BRANCH   9  10
ATOM     10  C3  <0> d   1      18.895  -4.291   8.797  0.00  0.00    -0.000 C 
BRANCH  10  11
ATOM     11  C2  <0> d   1      18.126  -4.370  10.117  0.00  0.00    -0.005 C 
ATOM     12  C1  <0> d   1      19.116  -4.486  11.278  0.00  0.00     0.005 C 
ENDBRANCH  10  11
ENDBRANCH   9  10
ENDBRANCH   8   9
ENDBRANCH   7   8
ENDBRANCH   6   7
ENDBRANCH   5   6
ENDBRANCH   4   5
ENDBRANCH   3   4
ENDBRANCH   2   3
ENDBRANCH   1   2
BRANCH   1  13
ATOM     13  C13 <0> d   1      18.034   0.677  10.115  0.00  0.00     0.000 C 
BRANCH  13  14
ATOM     14  C14 <0> d   1      16.838   0.008  10.796  0.00  0.00     0.000 C 
BRANCH  14  15
ATOM     15  C15 <0> d   1      17.332  -1.135  11.685  0.00  0.00     0.000 C 
BRANCH  15  16
ATOM     16  C16 <0> d   1      18.293  -0.581  12.739  0.00  0.00     0.000 C 
BRANCH  16  17
ATOM     17  C17 <0> d   1      18.630  -1.681  13.749  0.00  0.00     0.000 C 
BRANCH  17  18
ATOM     18  C18 <0> d   1      19.175  -1.047  15.030  0.00  0.00     0.000 C 
BRANCH  18  19
ATOM     19  C19 <0> d   1      18.472  -1.661  16.242  0.00  0.00     0.000 C 
BRANCH  19  20
ATOM     20  C20 <0> d   1      17.324  -0.751  16.683  0.00  0.00     0.002 C 
BRANCH  20  21
ATOM     21  C21 <0> d   1      17.894   0.543  17.267  0.00  0.00     0.026 C 
BRANCH  21  22
ATOM     22  C22 <0> d   1      18.625   0.233  18.575  0.00  0.00     0.164 C 
BRANCH  22  23
ATOM     23  O23 <0> d   1      20.005   0.583  18.445  0.00  0.00    -0.401 OA
ATOM     24  H69 <0> d   1      20.535  -0.074  17.974  0.00  0.00     0.209 HD
ENDBRANCH  22  23
ENDBRANCH  21  22
ENDBRANCH  20  21
ENDBRANCH  19  20
ENDBRANCH  18  19
ENDBRANCH  17  18
ENDBRANCH  16  17
ENDBRANCH  15  16
ENDBRANCH  14  15
ENDBRANCH  13  14
ENDBRANCH   1  13
TORSDOF 21
ENDMDL
MODEL 3
REMARK VINA RESULT:      -5.1      1.701      6.484
REMARK  21 active torsions:
REMARK  status: ('A' for Active; 'I' for Inactive)
REMARK    1  A    between atoms: C2_2  and  C3_3 
REMARK    2  A    between atoms: C3_3  and  C4_4 
REMARK    3  A    between atoms: C4_4  and  C5_5 
REMARK    4  A    between atoms: C5_5  and  C6_6 
REMARK    5  A    between atoms: C6_6  and  C7_7 
REMARK    6  A    between atoms: C7_7  and  C8_8 
REMARK    7  A    between atoms: C8_8  and  C9_9 
REMARK    8  A    between atoms: C9_9  and  C10_10 
REMARK    9  A    between atoms: C10_10  and  C11_11 
REMARK   10  A    between atoms: C11_11  and  C12_12 
REMARK   11  A    between atoms: C12_12  and  C13_13 
REMARK   12  A    between atoms: C13_13  and  C14_14 
REMARK   13  A    between atoms: C14_14  and  C15_15 
REMARK   14  A    between atoms: C15_15  and  C16_16 
REMARK   15  A    between atoms: C16_16  and  C17_17 
REMARK   16  A    between atoms: C17_17  and  C18_18 
REMARK   17  A    between atoms: C18_18  and  C19_19 
REMARK   18  A    between atoms: C19_19  and  C20_20 
REMARK   19  A    between atoms: C20_20  and  C21_21 
REMARK   20  A    between atoms: C21_21  and  C22_22 
REMARK   21  A    between atoms: C22_22  and  O23_23 
ROOT
ATOM      1  C12 <0> d   1      17.668   1.257  12.203  0.00  0.00     0.000 C 
ENDROOT
BRANCH   1   2
ATOM      2  C11 <0> d   1      17.749   2.785  12.182  0.00  0.00     0.000 C 
BRANCH   2   3
ATOM      3  C10 <0> d   1      18.914   3.221  11.291  0.00  0.00     0.000 C 
BRANCH   3   4
ATOM      4  C9  <0> d   1      19.393   2.030  10.458  0.00  0.00     0.000 C 
BRANCH   4   5
ATOM      5  C8  <0> d   1      18.919   2.194   9.013  0.00  0.00     0.000 C 
BRANCH   5   6
ATOM      6  C7  <0> d   1      18.274   0.890   8.536  0.00  0.00     0.000 C 
BRANCH   6   7
ATOM      7  C6  <0> d   1      19.368  -0.106   8.145  0.00  0.00     0.000 C 
BRANCH   7   8
ATOM      8  C5  <0> d   1      19.026  -1.486   8.710  0.00  0.00     0.000 C 
BRANCH   8   9
ATOM      9  C4  <0> d   1      17.873  -1.357   9.707  0.00  0.00     0.000 C 
BRANCH   9  10
ATOM     10  C3  <0> d   1      18.149  -2.240  10.925  0.00  0.00    -0.000 C 
BRANCH  10  11
ATOM     11  C2  <0> d   1      19.657  -2.452  11.070  0.00  0.00    -0.005 C 
ATOM     12  C1  <0> d   1      19.927  -3.879  11.554  0.00  0.00     0.005 C 
ENDBRANCH  10  11
ENDBRANCH   9  10
ENDBRANCH   8   9
ENDBRANCH   7   8
ENDBRANCH   6   7
ENDBRANCH   5   6
ENDBRANCH   4   5
ENDBRANCH   3   4
ENDBRANCH   2   3
ENDBRANCH   1   2
BRANCH   1  13
ATOM     13  C13 <0> d   1      18.022   0.747  13.602  0.00  0.00     0.000 C 
BRANCH  13  14
ATOM     14  C14 <0> d   1      19.457   0.217  13.604  0.00  0.00     0.000 C 
BRANCH  14  15
ATOM     15  C15 <0> d   1      19.519  -1.080  14.413  0.00  0.00     0.000 C 
BRANCH  15  16
ATOM     16  C16 <0> d   1      18.328  -1.141  15.371  0.00  0.00     0.000 C 
BRANCH  16  17
ATOM     17  C17 <0> d   1      18.829  -1.405  16.793  0.00  0.00     0.000 C 
BRANCH  17  18
ATOM     18  C18 <0> d   1      18.339  -0.293  17.721  0.00  0.00     0.000 C 
BRANCH  18  19
ATOM     19  C19 <0> d   1      19.461   0.725  17.935  0.00  0.00     0.000 C 
BRANCH  19  20
ATOM     20  C20 <0> d   1      18.907   2.141  17.765  0.00  0.00     0.002 C 
BRANCH  20  21
ATOM     21  C21 <0> d   1      19.273   2.669  16.377  0.00  0.00     0.026 C 
BRANCH  21  22
ATOM     22  C22 <0> d   1      19.610   4.159  16.472  0.00  0.00     0.164 C 
BRANCH  22  23
ATOM     23  O23 <0> d   1      21.027   4.322  16.564  0.00  0.00    -0.401 OA
ATOM     24  H69 <0> d   1      21.335   5.212  16.344  0.00  0.00     0.209 HD
ENDBRANCH  22  23
ENDBRANCH  21  22
ENDBRANCH  20  21
ENDBRANCH  19  20
ENDBRANCH  18  19
ENDBRANCH  17  18
ENDBRANCH  16  17
ENDBRANCH  15  16
ENDBRANCH  14  15
ENDBRANCH  13  14
ENDBRANCH   1  13
TORSDOF 21
ENDMDL
MODEL 4
REMARK VINA RESULT:      -5.0      3.575      5.860
REMARK  21 active torsions:
REMARK  status: ('A' for Active; 'I' for Inactive)
REMARK    1  A    between atoms: C2_2  and  C3_3 
REMARK    2  A    between atoms: C3_3  and  C4_4 
REMARK    3  A    between atoms: C4_4  and  C5_5 
REMARK    4  A    between atoms: C5_5  and  C6_6 
REMARK    5  A    between atoms: C6_6  and  C7_7 
REMARK    6  A    between atoms: C7_7  and  C8_8 
REMARK    7  A    between atoms: C8_8  and  C9_9 
REMARK    8  A    between atoms: C9_9  and  C10_10 
REMARK    9  A    between atoms: C10_10  and  C11_11 
REMARK   10  A    between atoms: C11_11  and  C12_12 
REMARK   11  A    between atoms: C12_12  and  C13_13 
REMARK   12  A    between atoms: C13_13  and  C14_14 
REMARK   13  A    between atoms: C14_14  and  C15_15 
REMARK   14  A    between atoms: C15_15  and  C16_16 
REMARK   15  A    between atoms: C16_16  and  C17_17 
REMARK   16  A    between atoms: C17_17  and  C18_18 
REMARK   17  A    between atoms: C18_18  and  C19_19 
REMARK   18  A    between atoms: C19_19  and  C20_20 
REMARK   19  A    between atoms: C20_20  and  C21_21 
REMARK   20  A    between atoms: C21_21  and  C22_22 
REMARK   21  A    between atoms: C22_22  and  O23_23 
ROOT
ATOM      1  C12 <0> d   1      18.490   3.241   9.938  0.00  0.00     0.000 C 
ENDROOT
BRANCH   1   2
ATOM      2  C11 <0> d   1      17.949   3.122  11.364  0.00  0.00     0.000 C 
BRANCH   2   3
ATOM      3  C10 <0> d   1      19.117   3.058  12.349  0.00  0.00     0.000 C 
BRANCH   3   4
ATOM      4  C9  <0> d   1      18.806   2.035  13.443  0.00  0.00     0.000 C 
BRANCH   4   5
ATOM      5  C8  <0> d   1      17.604   1.187  13.024  0.00  0.00     0.000 C 
BRANCH   5   6
ATOM      6  C7  <0> d   1      17.853  -0.275  13.401  0.00  0.00     0.000 C 
BRANCH   6   7
ATOM      7  C6  <0> d   1      19.308  -0.444  13.846  0.00  0.00     0.000 C 
BRANCH   7   8
ATOM      8  C5  <0> d   1      19.393  -1.557  14.893  0.00  0.00     0.000 C 
BRANCH   8   9
ATOM      9  C4  <0> d   1      18.244  -1.408  15.891  0.00  0.00     0.000 C 
BRANCH   9  10
ATOM     10  C3  <0> d   1      18.748  -0.697  17.148  0.00  0.00    -0.000 C 
BRANCH  10  11
ATOM     11  C2  <0> d   1      18.045   0.654  17.289  0.00  0.00    -0.005 C 
ATOM     12  C1  <0> d   1      19.078   1.779  17.195  0.00  0.00     0.005 C 
ENDBRANCH  10  11
ENDBRANCH   9  10
ENDBRANCH   8   9
ENDBRANCH   7   8
ENDBRANCH   6   7
ENDBRANCH   5   6
ENDBRANCH   4   5
ENDBRANCH   3   4
ENDBRANCH   2   3
ENDBRANCH   1   2
BRANCH   1  13
ATOM     13  C13 <0> d   1      19.147   1.920   9.530  0.00  0.00     0.000 C 
BRANCH  13  14
ATOM     14  C14 <0> d   1      18.128   1.051   8.790  0.00  0.00     0.000 C 
BRANCH  14  15
ATOM     15  C15 <0> d   1      17.826  -0.197   9.620  0.00  0.00     0.000 C 
BRANCH  15  16
ATOM     16  C16 <0> d   1      19.138  -0.815  10.108  0.00  0.00     0.000 C 
BRANCH  16  17
ATOM     17  C17 <0> d   1      19.078  -2.336   9.945  0.00  0.00     0.000 C 
BRANCH  17  18
ATOM     18  C18 <0> d   1      19.742  -3.004  11.149  0.00  0.00     0.000 C 
BRANCH  18  19
ATOM     19  C19 <0> d   1      18.683  -3.745  11.969  0.00  0.00     0.000 C 
BRANCH  19  20
ATOM     20  C20 <0> d   1      17.312  -3.568  11.313  0.00  0.00     0.002 C 
BRANCH  20  21
ATOM     21  C21 <0> d   1      16.619  -4.927  11.206  0.00  0.00     0.026 C 
BRANCH  21  22
ATOM     22  C22 <0> d   1      16.767  -5.464   9.781  0.00  0.00     0.164 C 
BRANCH  22  23
ATOM     23  O23 <0> d   1      15.496  -5.440   9.128  0.00  0.00    -0.401 OA
ATOM     24  H69 <0> d   1      15.220  -6.296   8.773  0.00  0.00     0.209 HD
ENDBRANCH  22  23
ENDBRANCH  21  22
ENDBRANCH  20  21
ENDBRANCH  19  20
ENDBRANCH  18  19
ENDBRANCH  17  18
ENDBRANCH  16  17
ENDBRANCH  15  16
ENDBRANCH  14  15
ENDBRANCH  13  14
ENDBRANCH   1  13
TORSDOF 21
ENDMDL
MODEL 5
REMARK VINA RESULT:      -4.9      2.078      6.221
REMARK  21 active torsions:
REMARK  status: ('A' for Active; 'I' for Inactive)
REMARK    1  A    between atoms: C2_2  and  C3_3 
REMARK    2  A    between atoms: C3_3  and  C4_4 
REMARK    3  A    between atoms: C4_4  and  C5_5 
REMARK    4  A    between atoms: C5_5  and  C6_6 
REMARK    5  A    between atoms: C6_6  and  C7_7 
REMARK    6  A    between atoms: C7_7  and  C8_8 
REMARK    7  A    between atoms: C8_8  and  C9_9 
REMARK    8  A    between atoms: C9_9  and  C10_10 
REMARK    9  A    between atoms: C10_10  and  C11_11 
REMARK   10  A    between atoms: C11_11  and  C12_12 
REMARK   11  A    between atoms: C12_12  and  C13_13 
REMARK   12  A    between atoms: C13_13  and  C14_14 
REMARK   13  A    between atoms: C14_14  and  C15_15 
REMARK   14  A    between atoms: C15_15  and  C16_16 
REMARK   15  A    between atoms: C16_16  and  C17_17 
REMARK   16  A    between atoms: C17_17  and  C18_18 
REMARK   17  A    between atoms: C18_18  and  C19_19 
REMARK   18  A    between atoms: C19_19  and  C20_20 
REMARK   19  A    between atoms: C20_20  and  C21_21 
REMARK   20  A    between atoms: C21_21  and  C22_22 
REMARK   21  A    between atoms: C22_22  and  O23_23 
ROOT
ATOM      1  C12 <0> d   1      18.912  -3.355   9.903  0.00  0.00     0.000 C 
ENDROOT
BRANCH   1   2
ATOM      2  C11 <0> d   1      19.138  -2.102   9.055  0.00  0.00     0.000 C 
BRANCH   2   3
ATOM      3  C10 <0> d   1      17.792  -1.437   8.760  0.00  0.00     0.000 C 
BRANCH   3   4
ATOM      4  C9  <0> d   1      17.994  -0.298   7.758  0.00  0.00     0.000 C 
BRANCH   4   5
ATOM      5  C8  <0> d   1      19.344   0.375   8.014  0.00  0.00     0.000 C 
BRANCH   5   6
ATOM      6  C7  <0> d   1      19.115   1.791   8.546  0.00  0.00     0.000 C 
BRANCH   6   7
ATOM      7  C6  <0> d   1      19.143   1.771  10.076  0.00  0.00     0.000 C 
BRANCH   7   8
ATOM      8  C5  <0> d   1      17.851   2.387  10.617  0.00  0.00     0.000 C 
BRANCH   8   9
ATOM      9  C4  <0> d   1      17.891   3.904  10.429  0.00  0.00     0.000 C 
BRANCH   9  10
ATOM     10  C3  <0> d   1      18.531   4.555  11.655  0.00  0.00    -0.000 C 
BRANCH  10  11
ATOM     11  C2  <0> d   1      17.586   4.433  12.851  0.00  0.00    -0.005 C 
ATOM     12  C1  <0> d   1      16.473   5.476  12.730  0.00  0.00     0.005 C 
ENDBRANCH  10  11
ENDBRANCH   9  10
ENDBRANCH   8   9
ENDBRANCH   7   8
ENDBRANCH   6   7
ENDBRANCH   5   6
ENDBRANCH   4   5
ENDBRANCH   3   4
ENDBRANCH   2   3
ENDBRANCH   1   2
BRANCH   1  13
ATOM     13  C13 <0> d   1      19.616  -3.191  11.252  0.00  0.00     0.000 C 
BRANCH  13  14
ATOM     14  C14 <0> d   1      18.579  -2.883  12.335  0.00  0.00     0.000 C 
BRANCH  14  15
ATOM     15  C15 <0> d   1      19.038  -1.673  13.150  0.00  0.00     0.000 C 
BRANCH  15  16
ATOM     16  C16 <0> d   1      18.008  -0.549  13.017  0.00  0.00     0.000 C 
BRANCH  16  17
ATOM     17  C17 <0> d   1      17.711   0.036  14.400  0.00  0.00     0.000 C 
BRANCH  17  18
ATOM     18  C18 <0> d   1      18.438  -0.783  15.467  0.00  0.00     0.000 C 
BRANCH  18  19
ATOM     19  C19 <0> d   1      17.472  -1.102  16.610  0.00  0.00     0.000 C 
BRANCH  19  20
ATOM     20  C20 <0> d   1      17.104   0.189  17.344  0.00  0.00     0.002 C 
BRANCH  20  21
ATOM     21  C21 <0> d   1      18.137   0.466  18.438  0.00  0.00     0.026 C 
BRANCH  21  22
ATOM     22  C22 <0> d   1      19.149   1.497  17.933  0.00  0.00     0.164 C 
BRANCH  22  23
ATOM     23  O23 <0> d   1      19.684   2.221  19.043  0.00  0.00    -0.401 OA
ATOM     24  H69 <0> d   1      19.960   3.123  18.828  0.00  0.00     0.209 HD
ENDBRANCH  22  23
ENDBRANCH  21  22
ENDBRANCH  20  21
ENDBRANCH  19  20
ENDBRANCH  18  19
ENDBRANCH  17  18
ENDBRANCH  16  17
ENDBRANCH  15  16
ENDBRANCH  14  15
ENDBRANCH  13  14
ENDBRANCH   1  13
TORSDOF 21
ENDMDL
MODEL 6
REMARK VINA RESULT:      -4.9      2.766      6.512
REMARK  21 active torsions:
REMARK  status: ('A' for Active; 'I' for Inactive)
REMARK    1  A    between atoms: C2_2  and  C3_3 
REMARK    2  A    between atoms: C3_3  and  C4_4 
REMARK    3  A    between atoms: C4_4  and  C5_5 
REMARK    4  A    between atoms: C5_5  and  C6_6 
REMARK    5  A    between atoms: C6_6  and  C7_7 
REMARK    6  A    between atoms: C7_7  and  C8_8 
REMARK    7  A    between atoms: C8_8  and  C9_9 
REMARK    8  A    between atoms: C9_9  and  C10_10 
REMARK    9  A    between atoms: C10_10  and  C11_11 
REMARK   10  A    between atoms: C11_11  and  C12_12 
REMARK   11  A    between atoms: C12_12  and  C13_13 
REMARK   12  A    between atoms: C13_13  and  C14_14 
REMARK   13  A    between atoms: C14_14  and  C15_15 
REMARK   14  A    between atoms: C15_15  and  C16_16 
REMARK   15  A    between atoms: C16_16  and  C17_17 
REMARK   16  A    between atoms: C17_17  and  C18_18 
REMARK   17  A    between atoms: C18_18  and  C19_19 
REMARK   18  A    between atoms: C19_19  and  C20_20 
REMARK   19  A    between atoms: C20_20  and  C21_21 
REMARK   20  A    between atoms: C21_21  and  C22_22 
REMARK   21  A    between atoms: C22_22  and  O23_23 
ROOT
ATOM      1  C12 <0> d   1      17.424  -4.399   9.589  0.00  0.00     0.000 C 
ENDROOT
BRANCH   1   2
ATOM      2  C11 <0> d   1      17.928  -4.227   8.154  0.00  0.00     0.000 C 
BRANCH   2   3
ATOM      3  C10 <0> d   1      18.938  -3.080   8.103  0.00  0.00     0.000 C 
BRANCH   3   4
ATOM      4  C9  <0> d   1      18.199  -1.759   7.878  0.00  0.00     0.000 C 
BRANCH   4   5
ATOM      5  C8  <0> d   1      19.175  -0.592   8.046  0.00  0.00     0.000 C 
BRANCH   5   6
ATOM      6  C7  <0> d   1      18.493   0.709   7.620  0.00  0.00     0.000 C 
BRANCH   6   7
ATOM      7  C6  <0> d   1      19.213   1.896   8.263  0.00  0.00     0.000 C 
BRANCH   7   8
ATOM      8  C5  <0> d   1      19.132   1.776   9.787  0.00  0.00     0.000 C 
BRANCH   8   9
ATOM      9  C4  <0> d   1      17.804   2.356  10.275  0.00  0.00     0.000 C 
BRANCH   9  10
ATOM     10  C3  <0> d   1      18.001   2.999  11.648  0.00  0.00    -0.000 C 
BRANCH  10  11
ATOM     11  C2  <0> d   1      17.247   4.329  11.703  0.00  0.00    -0.005 C 
ATOM     12  C1  <0> d   1      17.307   5.006  10.333  0.00  0.00     0.005 C 
ENDBRANCH  10  11
ENDBRANCH   9  10
ENDBRANCH   8   9
ENDBRANCH   7   8
ENDBRANCH   6   7
ENDBRANCH   5   6
ENDBRANCH   4   5
ENDBRANCH   3   4
ENDBRANCH   2   3
ENDBRANCH   1   2
BRANCH   1  13
ATOM     13  C13 <0> d   1      18.608  -4.693  10.513  0.00  0.00     0.000 C 
BRANCH  13  14
ATOM     14  C14 <0> d   1      18.522  -3.801  11.753  0.00  0.00     0.000 C 
BRANCH  14  15
ATOM     15  C15 <0> d   1      17.455  -2.727  11.534  0.00  0.00     0.000 C 
BRANCH  15  16
ATOM     16  C16 <0> d   1      18.112  -1.345  11.552  0.00  0.00     0.000 C 
BRANCH  16  17
ATOM     17  C17 <0> d   1      19.231  -1.326  12.596  0.00  0.00     0.000 C 
BRANCH  17  18
ATOM     18  C18 <0> d   1      19.408   0.097  13.129  0.00  0.00     0.000 C 
BRANCH  18  19
ATOM     19  C19 <0> d   1      19.514   0.061  14.654  0.00  0.00     0.000 C 
BRANCH  19  20
ATOM     20  C20 <0> d   1      18.457  -0.891  15.218  0.00  0.00     0.002 C 
BRANCH  20  21
ATOM     21  C21 <0> d   1      18.918  -1.416  16.579  0.00  0.00     0.026 C 
BRANCH  21  22
ATOM     22  C22 <0> d   1      18.639  -0.363  17.653  0.00  0.00     0.164 C 
BRANCH  22  23
ATOM     23  O23 <0> d   1      19.854  -0.041  18.333  0.00  0.00    -0.401 OA
ATOM     24  H69 <0> d   1      19.822   0.793  18.822  0.00  0.00     0.209 HD
ENDBRANCH  22  23
ENDBRANCH  21  22
ENDBRANCH  20  21
ENDBRANCH  19  20
ENDBRANCH  18  19
ENDBRANCH  17  18
ENDBRANCH  16  17
ENDBRANCH  15  16
ENDBRANCH  14  15
ENDBRANCH  13  14
ENDBRANCH   1  13
TORSDOF 21
ENDMDL
MODEL 7
REMARK VINA RESULT:      -4.9      4.785      8.040
REMARK  21 active torsions:
REMARK  status: ('A' for Active; 'I' for Inactive)
REMARK    1  A    between atoms: C2_2  and  C3_3 
REMARK    2  A    between atoms: C3_3  and  C4_4 
REMARK    3  A    between atoms: C4_4  and  C5_5 
REMARK    4  A    between atoms: C5_5  and  C6_6 
REMARK    5  A    between atoms: C6_6  and  C7_7 
REMARK    6  A    between atoms: C7_7  and  C8_8 
REMARK    7  A    between atoms: C8_8  and  C9_9 
REMARK    8  A    between atoms: C9_9  and  C10_10 
REMARK    9  A    between atoms: C10_10  and  C11_11 
REMARK   10  A    between atoms: C11_11  and  C12_12 
REMARK   11  A    between atoms: C12_12  and  C13_13 
REMARK   12  A    between atoms: C13_13  and  C14_14 
REMARK   13  A    between atoms: C14_14  and  C15_15 
REMARK   14  A    between atoms: C15_15  and  C16_16 
REMARK   15  A    between atoms: C16_16  and  C17_17 
REMARK   16  A    between atoms: C17_17  and  C18_18 
REMARK   17  A    between atoms: C18_18  and  C19_19 
REMARK   18  A    between atoms: C19_19  and  C20_20 
REMARK   19  A    between atoms: C20_20  and  C21_21 
REMARK   20  A    between atoms: C21_21  and  C22_22 
REMARK   21  A    between atoms: C22_22  and  O23_23 
ROOT
ATOM      1  C12 <0> d   1      17.352  -1.080  11.242  0.00  0.00     0.000 C 
ENDROOT
BRANCH   1   2
ATOM      2  C11 <0> d   1      17.672  -1.085  12.738  0.00  0.00     0.000 C 
BRANCH   2   3
ATOM      3  C10 <0> d   1      18.758  -2.123  13.024  0.00  0.00     0.000 C 
BRANCH   3   4
ATOM      4  C9  <0> d   1      19.744  -2.165  11.854  0.00  0.00     0.000 C 
BRANCH   4   5
ATOM      5  C8  <0> d   1      20.056  -3.620  11.501  0.00  0.00     0.000 C 
BRANCH   5   6
ATOM      6  C7  <0> d   1      18.761  -4.435  11.504  0.00  0.00     0.000 C 
BRANCH   6   7
ATOM      7  C6  <0> d   1      18.568  -5.089  10.134  0.00  0.00     0.000 C 
BRANCH   7   8
ATOM      8  C5  <0> d   1      17.380  -4.438   9.422  0.00  0.00     0.000 C 
BRANCH   8   9
ATOM      9  C4  <0> d   1      16.820  -5.403   8.376  0.00  0.00     0.000 C 
BRANCH   9  10
ATOM     10  C3  <0> d   1      16.849  -6.829   8.929  0.00  0.00    -0.000 C 
BRANCH  10  11
ATOM     11  C2  <0> d   1      16.088  -7.760   7.984  0.00  0.00    -0.005 C 
ATOM     12  C1  <0> d   1      17.084  -8.536   7.120  0.00  0.00     0.005 C 
ENDBRANCH  10  11
ENDBRANCH   9  10
ENDBRANCH   8   9
ENDBRANCH   7   8
ENDBRANCH   6   7
ENDBRANCH   5   6
ENDBRANCH   4   5
ENDBRANCH   3   4
ENDBRANCH   2   3
ENDBRANCH   1   2
BRANCH   1  13
ATOM     13  C13 <0> d   1      16.787   0.286  10.845  0.00  0.00     0.000 C 
BRANCH  13  14
ATOM     14  C14 <0> d   1      17.798   1.379  11.196  0.00  0.00     0.000 C 
BRANCH  14  15
ATOM     15  C15 <0> d   1      17.926   2.351  10.023  0.00  0.00     0.000 C 
BRANCH  15  16
ATOM     16  C16 <0> d   1      19.224   2.066   9.264  0.00  0.00     0.000 C 
BRANCH  16  17
ATOM     17  C17 <0> d   1      18.909   1.264   7.999  0.00  0.00     0.000 C 
BRANCH  17  18
ATOM     18  C18 <0> d   1      19.330  -0.192   8.201  0.00  0.00     0.000 C 
BRANCH  18  19
ATOM     19  C19 <0> d   1      18.301  -1.116   7.547  0.00  0.00     0.000 C 
BRANCH  19  20
ATOM     20  C20 <0> d   1      17.473  -0.324   6.534  0.00  0.00     0.002 C 
BRANCH  20  21
ATOM     21  C21 <0> d   1      17.606  -0.966   5.152  0.00  0.00     0.026 C 
BRANCH  21  22
ATOM     22  C22 <0> d   1      18.795  -0.346   4.415  0.00  0.00     0.164 C 
BRANCH  22  23
ATOM     23  O23 <0> d   1      19.925  -1.217   4.516  0.00  0.00    -0.401 OA
ATOM     24  H69 <0> d   1      19.957  -1.900   3.832  0.00  0.00     0.209 HD
ENDBRANCH  22  23
ENDBRANCH  21  22
ENDBRANCH  20  21
ENDBRANCH  19  20
ENDBRANCH  18  19
ENDBRANCH  17  18
ENDBRANCH  16  17
ENDBRANCH  15  16
ENDBRANCH  14  15
ENDBRANCH  13  14
ENDBRANCH   1  13
TORSDOF 21
ENDMDL
MODEL 8
REMARK VINA RESULT:      -4.9      2.292      6.392
REMARK  21 active torsions:
REMARK  status: ('A' for Active; 'I' for Inactive)
REMARK    1  A    between atoms: C2_2  and  C3_3 
REMARK    2  A    between atoms: C3_3  and  C4_4 
REMARK    3  A    between atoms: C4_4  and  C5_5 
REMARK    4  A    between atoms: C5_5  and  C6_6 
REMARK    5  A    between atoms: C6_6  and  C7_7 
REMARK    6  A    between atoms: C7_7  and  C8_8 
REMARK    7  A    between atoms: C8_8  and  C9_9 
REMARK    8  A    between atoms: C9_9  and  C10_10 
REMARK    9  A    between atoms: C10_10  and  C11_11 
REMARK   10  A    between atoms: C11_11  and  C12_12 
REMARK   11  A    between atoms: C12_12  and  C13_13 
REMARK   12  A    between atoms: C13_13  and  C14_14 
REMARK   13  A    between atoms: C14_14  and  C15_15 
REMARK   14  A    between atoms: C15_15  and  C16_16 
REMARK   15  A    between atoms: C16_16  and  C17_17 
REMARK   16  A    between atoms: C17_17  and  C18_18 
REMARK   17  A    between atoms: C18_18  and  C19_19 
REMARK   18  A    between atoms: C19_19  and  C20_20 
REMARK   19  A    between atoms: C20_20  and  C21_21 
REMARK   20  A    between atoms: C21_21  and  C22_22 
REMARK   21  A    between atoms: C22_22  and  O23_23 
ROOT
ATOM      1  C12 <0> d   1      18.040   4.578  10.728  0.00  0.00     0.000 C 
ENDROOT
BRANCH   1   2
ATOM      2  C11 <0> d   1      17.876   3.121  10.289  0.00  0.00     0.000 C 
BRANCH   2   3
ATOM      3  C10 <0> d   1      19.170   2.637   9.634  0.00  0.00     0.000 C 
BRANCH   3   4
ATOM      4  C9  <0> d   1      18.855   1.506   8.653  0.00  0.00     0.000 C 
BRANCH   4   5
ATOM      5  C8  <0> d   1      17.684   0.679   9.187  0.00  0.00     0.000 C 
BRANCH   5   6
ATOM      6  C7  <0> d   1      17.495  -0.562   8.312  0.00  0.00     0.000 C 
BRANCH   6   7
ATOM      7  C6  <0> d   1      18.108  -1.777   9.012  0.00  0.00     0.000 C 
BRANCH   7   8
ATOM      8  C5  <0> d   1      18.323  -1.456  10.493  0.00  0.00     0.000 C 
BRANCH   8   9
ATOM      9  C4  <0> d   1      17.399  -2.329  11.344  0.00  0.00     0.000 C 
BRANCH   9  10
ATOM     10  C3  <0> d   1      18.237  -3.197  12.282  0.00  0.00    -0.000 C 
BRANCH  10  11
ATOM     11  C2  <0> d   1      19.707  -3.133  11.862  0.00  0.00    -0.005 C 
ATOM     12  C1  <0> d   1      20.119  -4.469  11.241  0.00  0.00     0.005 C 
ENDBRANCH  10  11
ENDBRANCH   9  10
ENDBRANCH   8   9
ENDBRANCH   7   8
ENDBRANCH   6   7
ENDBRANCH   5   6
ENDBRANCH   4   5
ENDBRANCH   3   4
ENDBRANCH   2   3
ENDBRANCH   1   2
BRANCH   1  13
ATOM     13  C13 <0> d   1      17.042   4.890  11.846  0.00  0.00     0.000 C 
BRANCH  13  14
ATOM     14  C14 <0> d   1      17.127   3.805  12.922  0.00  0.00     0.000 C 
BRANCH  14  15
ATOM     15  C15 <0> d   1      18.450   3.940  13.678  0.00  0.00     0.000 C 
BRANCH  15  16
ATOM     16  C16 <0> d   1      18.729   2.649  14.449  0.00  0.00     0.000 C 
BRANCH  16  17
ATOM     17  C17 <0> d   1      18.687   1.460  13.486  0.00  0.00     0.000 C 
BRANCH  17  18
ATOM     18  C18 <0> d   1      17.836   0.343  14.093  0.00  0.00     0.000 C 
BRANCH  18  19
ATOM     19  C19 <0> d   1      18.741  -0.643  14.834  0.00  0.00     0.000 C 
BRANCH  19  20
ATOM     20  C20 <0> d   1      18.072  -1.067  16.143  0.00  0.00     0.002 C 
BRANCH  20  21
ATOM     21  C21 <0> d   1      18.093   0.103  17.128  0.00  0.00     0.026 C 
BRANCH  21  22
ATOM     22  C22 <0> d   1      19.217  -0.108  18.145  0.00  0.00     0.164 C 
BRANCH  22  23
ATOM     23  O23 <0> d   1      19.883   1.135  18.382  0.00  0.00    -0.401 OA
ATOM     24  H69 <0> d   1      20.741   1.211  17.942  0.00  0.00     0.209 HD
ENDBRANCH  22  23
ENDBRANCH  21  22
ENDBRANCH  20  21
ENDBRANCH  19  20
ENDBRANCH  18  19
ENDBRANCH  17  18
ENDBRANCH  16  17
ENDBRANCH  15  16
ENDBRANCH  14  15
ENDBRANCH  13  14
ENDBRANCH   1  13
TORSDOF 21
ENDMDL
MODEL 9
REMARK VINA RESULT:      -4.8      1.703      7.203
REMARK  21 active torsions:
REMARK  status: ('A' for Active; 'I' for Inactive)
REMARK    1  A    between atoms: C2_2  and  C3_3 
REMARK    2  A    between atoms: C3_3  and  C4_4 
REMARK    3  A    between atoms: C4_4  and  C5_5 
REMARK    4  A    between atoms: C5_5  and  C6_6 
REMARK    5  A    between atoms: C6_6  and  C7_7 
REMARK    6  A    between atoms: C7_7  and  C8_8 
REMARK    7  A    between atoms: C8_8  and  C9_9 
REMARK    8  A    between atoms: C9_9  and  C10_10 
REMARK    9  A    between atoms: C10_10  and  C11_11 
REMARK   10  A    between atoms: C11_11  and  C12_12 
REMARK   11  A    between atoms: C12_12  and  C13_13 
REMARK   12  A    between atoms: C13_13  and  C14_14 
REMARK   13  A    between atoms: C14_14  and  C15_15 
REMARK   14  A    between atoms: C15_15  and  C16_16 
REMARK   15  A    between atoms: C16_16  and  C17_17 
REMARK   16  A    between atoms: C17_17  and  C18_18 
REMARK   17  A    between atoms: C18_18  and  C19_19 
REMARK   18  A    between atoms: C19_19  and  C20_20 
REMARK   19  A    between atoms: C20_20  and  C21_21 
REMARK   20  A    between atoms: C21_21  and  C22_22 
REMARK   21  A    between atoms: C22_22  and  O23_23 
ROOT
ATOM      1  C12 <0> d   1      17.885  -0.350  14.419  0.00  0.00     0.000 C 
ENDROOT
BRANCH   1   2
ATOM      2  C11 <0> d   1      18.121  -0.207  12.914  0.00  0.00     0.000 C 
BRANCH   2   3
ATOM      3  C10 <0> d   1      19.604  -0.418  12.608  0.00  0.00     0.000 C 
BRANCH   3   4
ATOM      4  C9  <0> d   1      20.053   0.580  11.539  0.00  0.00     0.000 C 
BRANCH   4   5
ATOM      5  C8  <0> d   1      19.792   2.006  12.029  0.00  0.00     0.000 C 
BRANCH   5   6
ATOM      6  C7  <0> d   1      19.542   2.921  10.829  0.00  0.00     0.000 C 
BRANCH   6   7
ATOM      7  C6  <0> d   1      18.475   2.297   9.926  0.00  0.00     0.000 C 
BRANCH   7   8
ATOM      8  C5  <0> d   1      18.972   2.290   8.479  0.00  0.00     0.000 C 
BRANCH   8   9
ATOM      9  C4  <0> d   1      19.287   0.855   8.055  0.00  0.00     0.000 C 
BRANCH   9  10
ATOM     10  C3  <0> d   1      18.350   0.440   6.920  0.00  0.00    -0.000 C 
BRANCH  10  11
ATOM     11  C2  <0> d   1      19.108  -0.446   5.929  0.00  0.00    -0.005 C 
ATOM     12  C1  <0> d   1      18.700  -0.079   4.501  0.00  0.00     0.005 C 
ENDBRANCH  10  11
ENDBRANCH   9  10
ENDBRANCH   8   9
ENDBRANCH   7   8
ENDBRANCH   6   7
ENDBRANCH   5   6
ENDBRANCH   4   5
ENDBRANCH   3   4
ENDBRANCH   2   3
ENDBRANCH   1   2
BRANCH   1  13
ATOM     13  C13 <0> d   1      18.919  -1.313  15.008  0.00  0.00     0.000 C 
BRANCH  13  14
ATOM     14  C14 <0> d   1      18.782  -1.339  16.531  0.00  0.00     0.000 C 
BRANCH  14  15
ATOM     15  C15 <0> d   1      17.387  -0.853  16.926  0.00  0.00     0.000 C 
BRANCH  15  16
ATOM     16  C16 <0> d   1      17.513   0.319  17.902  0.00  0.00     0.000 C 
BRANCH  16  17
ATOM     17  C17 <0> d   1      18.983   0.510  18.283  0.00  0.00     0.000 C 
BRANCH  17  18
ATOM     18  C18 <0> d   1      19.361   1.984  18.135  0.00  0.00     0.000 C 
BRANCH  18  19
ATOM     19  C19 <0> d   1      19.231   2.400  16.669  0.00  0.00     0.000 C 
BRANCH  19  20
ATOM     20  C20 <0> d   1      19.734   3.835  16.498  0.00  0.00     0.002 C 
BRANCH  20  21
ATOM     21  C21 <0> d   1      19.297   4.368  15.132  0.00  0.00     0.026 C 
BRANCH  21  22
ATOM     22  C22 <0> d   1      17.979   3.707  14.724  0.00  0.00     0.164 C 
BRANCH  22  23
ATOM     23  O23 <0> d   1      16.887   4.546  15.107  0.00  0.00    -0.401 OA
ATOM     24  H69 <0> d   1      17.066   5.492  15.014  0.00  0.00     0.209 HD
ENDBRANCH  22  23
ENDBRANCH  21  22
ENDBRANCH  20  21
ENDBRANCH  19  20
ENDBRANCH  18  19
ENDBRANCH  17  18
ENDBRANCH  16  17
ENDBRANCH  15  16
ENDBRANCH  14  15
ENDBRANCH  13  14
ENDBRANCH   1  13
TORSDOF 21
ENDMDL
