MODEL 1
REMARK VINA RESULT:      -7.8      0.000      0.000
REMARK  8 active torsions:
REMARK  status: ('A' for Active; 'I' for Inactive)
REMARK    1  A    between atoms: C2_2  and  N4_3 
REMARK    2  A    between atoms: C2_2  and  C20_18 
REMARK    3  A    between atoms: N4_3  and  C7_6 
REMARK    4  A    between atoms: C7_6  and  C9_7 
REMARK    5  A    between atoms: C7_6  and  C17_15 
REMARK    6  A    between atoms: C9_7  and  C10_8 
REMARK    7  A    between atoms: C10_8  and  C11_9 
REMARK       I    between atoms: C20_18  and  N22_20 
REMARK    8  A    between atoms: C26_24  and  C28_25 
ROOT
ATOM      1  N4  ZIN A   1      17.957   3.620  12.826  0.00  0.00    -0.049 N 
ATOM      2  H5  ZIN A   1      17.633   2.673  12.694  0.00  0.00     0.279 HD
ATOM      3  H6  ZIN A   1      17.184   4.203  13.112  0.00  0.00     0.279 HD
ENDROOT
BRANCH   1   4
ATOM      4  C2  ZIN A   1      18.997   3.642  13.864  0.00  0.00     0.274 C 
ATOM      5  C1  ZIN A   1      19.471   5.080  14.080  0.00  0.00     0.050 C 
BRANCH   4   6
ATOM      6  C20 ZIN A   1      18.433   3.098  15.152  0.00  0.00     0.251 C 
ATOM      7  O21 ZIN A   1      17.858   3.838  15.922  0.00  0.00    -0.271 OA
ATOM      8  N22 ZIN A   1      18.568   1.790  15.446  0.00  0.00    -0.336 N 
ATOM      9  C26 ZIN A   1      18.069   1.130  16.662  0.00  0.00     0.188 C 
ATOM     10  C23 ZIN A   1      19.246   0.785  14.608  0.00  0.00     0.127 C 
ATOM     11  C25 ZIN A   1      18.429  -0.367  16.551  0.00  0.00     0.038 C 
ATOM     12  C24 ZIN A   1      18.618  -0.568  15.025  0.00  0.00     0.022 C 
BRANCH   9  13
ATOM     13  C28 ZIN A   1      18.721   1.725  17.884  0.00  0.00     0.196 C 
ATOM     14  O29 ZIN A   1      18.065   2.399  18.659  0.00  0.00    -0.646 OA
ATOM     15  O30 ZIN A   1      19.907   1.532  18.096  0.00  0.00    -0.646 OA
ENDBRANCH   9  13
ENDBRANCH   4   6
ENDBRANCH   1   4
BRANCH   1  16
ATOM     16  C7  ZIN A   1      18.513   4.127  11.565  0.00  0.00     0.287 C 
BRANCH  16  17
ATOM     17  C9  ZIN A   1      19.195   2.983  10.811  0.00  0.00     0.049 C 
BRANCH  17  18
ATOM     18  C10 ZIN A   1      18.226   1.805  10.687  0.00  0.00     0.041 C 
BRANCH  18  19
ATOM     19  C11 ZIN A   1      18.233   1.296   9.269  0.00  0.00    -0.058 A 
ATOM     20  C16 ZIN A   1      19.023   1.913   8.317  0.00  0.00     0.007 A 
ATOM     21  C15 ZIN A   1      19.034   1.444   7.017  0.00  0.00     0.001 A 
ATOM     22  C14 ZIN A   1      18.247   0.362   6.667  0.00  0.00     0.000 A 
ATOM     23  C13 ZIN A   1      17.454  -0.252   7.617  0.00  0.00     0.001 A 
ATOM     24  C12 ZIN A   1      17.447   0.215   8.919  0.00  0.00     0.007 A 
ENDBRANCH  18  19
ENDBRANCH  17  18
ENDBRANCH  16  17
BRANCH  16  25
ATOM     25  C17 ZIN A   1      17.403   4.695  10.719  0.00  0.00     0.204 C 
ATOM     26  O18 ZIN A   1      17.651   5.155   9.617  0.00  0.00    -0.646 OA
ATOM     27  O19 ZIN A   1      16.258   4.695  11.135  0.00  0.00    -0.646 OA
ENDBRANCH  16  25
ENDBRANCH   1  16
TORSDOF 8
ENDMDL
MODEL 2
REMARK VINA RESULT:      -7.6      3.911      8.312
REMARK  8 active torsions:
REMARK  status: ('A' for Active; 'I' for Inactive)
REMARK    1  A    between atoms: C2_2  and  N4_3 
REMARK    2  A    between atoms: C2_2  and  C20_18 
REMARK    3  A    between atoms: N4_3  and  C7_6 
REMARK    4  A    between atoms: C7_6  and  C9_7 
REMARK    5  A    between atoms: C7_6  and  C17_15 
REMARK    6  A    between atoms: C9_7  and  C10_8 
REMARK    7  A    between atoms: C10_8  and  C11_9 
REMARK       I    between atoms: C20_18  and  N22_20 
REMARK    8  A    between atoms: C26_24  and  C28_25 
ROOT
ATOM      1  N4  ZIN A   1      17.572  -2.260  11.534  0.00  0.00    -0.049 N 
ATOM      2  H5  ZIN A   1      16.720  -2.137  11.007  0.00  0.00     0.279 HD
ATOM      3  H6  ZIN A   1      17.536  -3.138  12.029  0.00  0.00     0.279 HD
ENDROOT
BRANCH   1   4
ATOM      4  C2  ZIN A   1      18.719  -2.261  10.616  0.00  0.00     0.274 C 
ATOM      5  C1  ZIN A   1      19.422  -3.619  10.680  0.00  0.00     0.050 C 
BRANCH   4   6
ATOM      6  C20 ZIN A   1      18.239  -2.007   9.210  0.00  0.00     0.251 C 
ATOM      7  O21 ZIN A   1      17.507  -2.807   8.666  0.00  0.00    -0.271 OA
ATOM      8  N22 ZIN A   1      18.623  -0.892   8.559  0.00  0.00    -0.336 N 
ATOM      9  C26 ZIN A   1      18.230  -0.522   7.191  0.00  0.00     0.188 C 
ATOM     10  C23 ZIN A   1      19.510   0.156   9.096  0.00  0.00     0.127 C 
ATOM     11  C25 ZIN A   1      18.884   0.842   6.881  0.00  0.00     0.038 C 
ATOM     12  C24 ZIN A   1      19.151   1.430   8.291  0.00  0.00     0.022 C 
BRANCH   9  13
ATOM     13  C28 ZIN A   1      18.717  -1.557   6.210  0.00  0.00     0.196 C 
ATOM     14  O29 ZIN A   1      19.882  -1.917   6.231  0.00  0.00    -0.646 OA
ATOM     15  O30 ZIN A   1      17.946  -2.034   5.394  0.00  0.00    -0.646 OA
ENDBRANCH   9  13
ENDBRANCH   4   6
ENDBRANCH   1   4
BRANCH   1  16
ATOM     16  C7  ZIN A   1      17.715  -1.160  12.496  0.00  0.00     0.287 C 
BRANCH  16  17
ATOM     17  C9  ZIN A   1      19.201  -0.874  12.726  0.00  0.00     0.049 C 
BRANCH  17  18
ATOM     18  C10 ZIN A   1      19.637  -1.484  14.061  0.00  0.00     0.041 C 
BRANCH  18  19
ATOM     19  C11 ZIN A   1      18.948  -0.764  15.190  0.00  0.00    -0.058 A 
ATOM     20  C16 ZIN A   1      19.083   0.606  15.321  0.00  0.00     0.007 A 
ATOM     21  C15 ZIN A   1      18.447   1.267  16.355  0.00  0.00     0.001 A 
ATOM     22  C14 ZIN A   1      17.684   0.558  17.264  0.00  0.00     0.000 A 
ATOM     23  C13 ZIN A   1      17.553  -0.811  17.136  0.00  0.00     0.001 A 
ATOM     24  C12 ZIN A   1      18.185  -1.473  16.099  0.00  0.00     0.007 A 
ENDBRANCH  18  19
ENDBRANCH  17  18
ENDBRANCH  16  17
BRANCH  16  25
ATOM     25  C17 ZIN A   1      17.045   0.074  11.952  0.00  0.00     0.204 C 
ATOM     26  O18 ZIN A   1      17.633   1.142  11.960  0.00  0.00    -0.646 OA
ATOM     27  O19 ZIN A   1      15.914   0.006  11.502  0.00  0.00    -0.646 OA
ENDBRANCH  16  25
ENDBRANCH   1  16
TORSDOF 8
ENDMDL
MODEL 3
REMARK VINA RESULT:      -7.5      1.965      2.670
REMARK  8 active torsions:
REMARK  status: ('A' for Active; 'I' for Inactive)
REMARK    1  A    between atoms: C2_2  and  N4_3 
REMARK    2  A    between atoms: C2_2  and  C20_18 
REMARK    3  A    between atoms: N4_3  and  C7_6 
REMARK    4  A    between atoms: C7_6  and  C9_7 
REMARK    5  A    between atoms: C7_6  and  C17_15 
REMARK    6  A    between atoms: C9_7  and  C10_8 
REMARK    7  A    between atoms: C10_8  and  C11_9 
REMARK       I    between atoms: C20_18  and  N22_20 
REMARK    8  A    between atoms: C26_24  and  C28_25 
ROOT
ATOM      1  N4  ZIN A   1      17.577   2.576  11.441  0.00  0.00    -0.049 N 
ATOM      2  H5  ZIN A   1      16.736   2.504  11.993  0.00  0.00     0.279 HD
ATOM      3  H6  ZIN A   1      17.583   3.457  10.949  0.00  0.00     0.279 HD
ENDROOT
BRANCH   1   4
ATOM      4  C2  ZIN A   1      18.749   2.501  12.324  0.00  0.00     0.274 C 
ATOM      5  C1  ZIN A   1      19.594   3.766  12.159  0.00  0.00     0.050 C 
BRANCH   4   6
ATOM      6  C20 ZIN A   1      18.293   2.384  13.755  0.00  0.00     0.251 C 
ATOM      7  O21 ZIN A   1      17.589   3.244  14.240  0.00  0.00    -0.271 OA
ATOM      8  N22 ZIN A   1      18.668   1.322  14.496  0.00  0.00    -0.336 N 
ATOM      9  C26 ZIN A   1      18.297   1.083  15.899  0.00  0.00     0.188 C 
ATOM     10  C23 ZIN A   1      19.523   0.212  14.038  0.00  0.00     0.127 C 
ATOM     11  C25 ZIN A   1      18.929  -0.262  16.317  0.00  0.00     0.038 C 
ATOM     12  C24 ZIN A   1      19.157  -0.978  14.959  0.00  0.00     0.022 C 
BRANCH   9  13
ATOM     13  C28 ZIN A   1      18.824   2.190  16.775  0.00  0.00     0.196 C 
ATOM     14  O29 ZIN A   1      19.964   2.596  16.625  0.00  0.00    -0.646 OA
ATOM     15  O30 ZIN A   1      18.110   2.680  17.634  0.00  0.00    -0.646 OA
ENDBRANCH   9  13
ENDBRANCH   4   6
ENDBRANCH   1   4
BRANCH   1  16
ATOM     16  C7  ZIN A   1      17.623   1.473  10.472  0.00  0.00     0.287 C 
BRANCH  16  17
ATOM     17  C9  ZIN A   1      19.066   1.265  10.004  0.00  0.00     0.049 C 
BRANCH  17  18
ATOM     18  C10 ZIN A   1      19.245   1.882   8.615  0.00  0.00     0.041 C 
BRANCH  18  19
ATOM     19  C11 ZIN A   1      19.148   0.801   7.570  0.00  0.00    -0.058 A 
ATOM     20  C16 ZIN A   1      19.260  -0.528   7.936  0.00  0.00     0.007 A 
ATOM     21  C15 ZIN A   1      19.166  -1.519   6.978  0.00  0.00     0.001 A 
ATOM     22  C14 ZIN A   1      18.969  -1.182   5.651  0.00  0.00     0.000 A 
ATOM     23  C13 ZIN A   1      18.861   0.146   5.285  0.00  0.00     0.001 A 
ATOM     24  C12 ZIN A   1      18.951   1.138   6.244  0.00  0.00     0.007 A 
ENDBRANCH  18  19
ENDBRANCH  17  18
ENDBRANCH  16  17
BRANCH  16  25
ATOM     25  C17 ZIN A   1      17.119   0.212  11.123  0.00  0.00     0.204 C 
ATOM     26  O18 ZIN A   1      16.004   0.184  11.617  0.00  0.00    -0.646 OA
ATOM     27  O19 ZIN A   1      17.825  -0.781  11.156  0.00  0.00    -0.646 OA
ENDBRANCH  16  25
ENDBRANCH   1  16
TORSDOF 8
ENDMDL
MODEL 4
REMARK VINA RESULT:      -7.4      4.455      7.468
REMARK  8 active torsions:
REMARK  status: ('A' for Active; 'I' for Inactive)
REMARK    1  A    between atoms: C2_2  and  N4_3 
REMARK    2  A    between atoms: C2_2  and  C20_18 
REMARK    3  A    between atoms: N4_3  and  C7_6 
REMARK    4  A    between atoms: C7_6  and  C9_7 
REMARK    5  A    between atoms: C7_6  and  C17_15 
REMARK    6  A    between atoms: C9_7  and  C10_8 
REMARK    7  A    between atoms: C10_8  and  C11_9 
REMARK       I    between atoms: C20_18  and  N22_20 
REMARK    8  A    between atoms: C26_24  and  C28_25 
ROOT
ATOM      1  N4  ZIN A   1      18.373   0.366   9.955  0.00  0.00    -0.049 N 
ATOM      2  H5  ZIN A   1      18.919  -0.127  10.645  0.00  0.00     0.279 HD
ATOM      3  H6  ZIN A   1      18.975   0.970   9.418  0.00  0.00     0.279 HD
ENDROOT
BRANCH   1   4
ATOM      4  C2  ZIN A   1      17.726  -0.603   9.060  0.00  0.00     0.274 C 
ATOM      5  C1  ZIN A   1      17.543   0.025   7.676  0.00  0.00     0.050 C 
BRANCH   4   6
ATOM      6  C20 ZIN A   1      18.588  -1.834   8.944  0.00  0.00     0.251 C 
ATOM      7  O21 ZIN A   1      19.402  -1.923   8.050  0.00  0.00    -0.271 OA
ATOM      8  N22 ZIN A   1      18.452  -2.836   9.835  0.00  0.00    -0.336 N 
ATOM      9  C26 ZIN A   1      19.225  -4.087   9.840  0.00  0.00     0.188 C 
ATOM     10  C23 ZIN A   1      17.502  -2.863  10.962  0.00  0.00     0.127 C 
ATOM     11  C25 ZIN A   1      18.748  -4.915  11.053  0.00  0.00     0.038 C 
ATOM     12  C24 ZIN A   1      18.129  -3.841  11.986  0.00  0.00     0.022 C 
BRANCH   9  13
ATOM     13  C28 ZIN A   1      18.980  -4.857   8.568  0.00  0.00     0.196 C 
ATOM     14  O29 ZIN A   1      19.919  -5.193   7.867  0.00  0.00    -0.646 OA
ATOM     15  O30 ZIN A   1      17.840  -5.143   8.239  0.00  0.00    -0.646 OA
ENDBRANCH   9  13
ENDBRANCH   4   6
ENDBRANCH   1   4
BRANCH   1  16
ATOM     16  C7  ZIN A   1      17.345   1.171  10.629  0.00  0.00     0.287 C 
BRANCH  16  17
ATOM     17  C9  ZIN A   1      17.207   0.710  12.082  0.00  0.00     0.049 C 
BRANCH  17  18
ATOM     18  C10 ZIN A   1      18.561   0.208  12.589  0.00  0.00     0.041 C 
BRANCH  18  19
ATOM     19  C11 ZIN A   1      18.431  -0.218  14.028  0.00  0.00    -0.058 A 
ATOM     20  C16 ZIN A   1      19.238  -1.223  14.527  0.00  0.00     0.007 A 
ATOM     21  C15 ZIN A   1      19.121  -1.611  15.849  0.00  0.00     0.001 A 
ATOM     22  C14 ZIN A   1      18.191  -1.001  16.669  0.00  0.00     0.000 A 
ATOM     23  C13 ZIN A   1      17.381   0.001  16.169  0.00  0.00     0.001 A 
ATOM     24  C12 ZIN A   1      17.500   0.392  14.848  0.00  0.00     0.007 A 
ENDBRANCH  18  19
ENDBRANCH  17  18
ENDBRANCH  16  17
BRANCH  16  25
ATOM     25  C17 ZIN A   1      17.746   2.623  10.599  0.00  0.00     0.204 C 
ATOM     26  O18 ZIN A   1      16.995   3.472  11.048  0.00  0.00    -0.646 OA
ATOM     27  O19 ZIN A   1      18.822   2.949  10.128  0.00  0.00    -0.646 OA
ENDBRANCH  16  25
ENDBRANCH   1  16
TORSDOF 8
ENDMDL
MODEL 5
REMARK VINA RESULT:      -7.3      3.588      7.192
REMARK  8 active torsions:
REMARK  status: ('A' for Active; 'I' for Inactive)
REMARK    1  A    between atoms: C2_2  and  N4_3 
REMARK    2  A    between atoms: C2_2  and  C20_18 
REMARK    3  A    between atoms: N4_3  and  C7_6 
REMARK    4  A    between atoms: C7_6  and  C9_7 
REMARK    5  A    between atoms: C7_6  and  C17_15 
REMARK    6  A    between atoms: C9_7  and  C10_8 
REMARK    7  A    between atoms: C10_8  and  C11_9 
REMARK       I    between atoms: C20_18  and  N22_20 
REMARK    8  A    between atoms: C26_24  and  C28_25 
ROOT
ATOM      1  N4  ZIN A   1      18.633   1.203  11.453  0.00  0.00    -0.049 N 
ATOM      2  H5  ZIN A   1      19.092   0.334  11.223  0.00  0.00     0.279 HD
ATOM      3  H6  ZIN A   1      19.322   1.882  11.737  0.00  0.00     0.279 HD
ENDROOT
BRANCH   1   4
ATOM      4  C2  ZIN A   1      17.911   1.702  10.275  0.00  0.00     0.274 C 
ATOM      5  C1  ZIN A   1      17.824   3.228  10.338  0.00  0.00     0.050 C 
BRANCH   4   6
ATOM      6  C20 ZIN A   1      18.644   1.291   9.024  0.00  0.00     0.251 C 
ATOM      7  O21 ZIN A   1      19.413   2.062   8.491  0.00  0.00    -0.271 OA
ATOM      8  N22 ZIN A   1      18.444   0.066   8.499  0.00  0.00    -0.336 N 
ATOM      9  C26 ZIN A   1      19.092  -0.463   7.288  0.00  0.00     0.188 C 
ATOM     10  C23 ZIN A   1      17.537  -0.964   9.037  0.00  0.00     0.127 C 
ATOM     11  C25 ZIN A   1      18.581  -1.906   7.089  0.00  0.00     0.038 C 
ATOM     12  C24 ZIN A   1      18.103  -2.306   8.510  0.00  0.00     0.022 C 
BRANCH   9  13
ATOM     13  C28 ZIN A   1      18.727   0.379   6.092  0.00  0.00     0.196 C 
ATOM     14  O29 ZIN A   1      17.556   0.552   5.803  0.00  0.00    -0.646 OA
ATOM     15  O30 ZIN A   1      19.605   0.884   5.412  0.00  0.00    -0.646 OA
ENDBRANCH   9  13
ENDBRANCH   4   6
ENDBRANCH   1   4
BRANCH   1  16
ATOM     16  C7  ZIN A   1      17.684   0.980  12.551  0.00  0.00     0.287 C 
BRANCH  16  17
ATOM     17  C9  ZIN A   1      17.561  -0.522  12.822  0.00  0.00     0.049 C 
BRANCH  17  18
ATOM     18  C10 ZIN A   1      18.946  -1.169  12.741  0.00  0.00     0.041 C 
BRANCH  18  19
ATOM     19  C11 ZIN A   1      18.822  -2.547  12.145  0.00  0.00    -0.058 A 
ATOM     20  C16 ZIN A   1      17.584  -3.159  12.069  0.00  0.00     0.007 A 
ATOM     21  C15 ZIN A   1      17.469  -4.421  11.518  0.00  0.00     0.001 A 
ATOM     22  C14 ZIN A   1      18.594  -5.076  11.050  0.00  0.00     0.000 A 
ATOM     23  C13 ZIN A   1      19.831  -4.467  11.130  0.00  0.00     0.001 A 
ATOM     24  C12 ZIN A   1      19.946  -3.202  11.678  0.00  0.00     0.007 A 
ENDBRANCH  18  19
ENDBRANCH  17  18
ENDBRANCH  16  17
BRANCH  16  25
ATOM     25  C17 ZIN A   1      18.179   1.675  13.792  0.00  0.00     0.204 C 
ATOM     26  O18 ZIN A   1      17.733   1.365  14.884  0.00  0.00    -0.646 OA
ATOM     27  O19 ZIN A   1      19.026   2.547  13.706  0.00  0.00    -0.646 OA
ENDBRANCH  16  25
ENDBRANCH   1  16
TORSDOF 8
ENDMDL
MODEL 6
REMARK VINA RESULT:      -7.3      3.925      5.543
REMARK  8 active torsions:
REMARK  status: ('A' for Active; 'I' for Inactive)
REMARK    1  A    between atoms: C2_2  and  N4_3 
REMARK    2  A    between atoms: C2_2  and  C20_18 
REMARK    3  A    between atoms: N4_3  and  C7_6 
REMARK    4  A    between atoms: C7_6  and  C9_7 
REMARK    5  A    between atoms: C7_6  and  C17_15 
REMARK    6  A    between atoms: C9_7  and  C10_8 
REMARK    7  A    between atoms: C10_8  and  C11_9 
REMARK       I    between atoms: C20_18  and  N22_20 
REMARK    8  A    between atoms: C26_24  and  C28_25 
ROOT
ATOM      1  N4  ZIN A   1      17.814   1.050  10.977  0.00  0.00    -0.049 N 
ATOM      2  H5  ZIN A   1      17.148   0.855  10.244  0.00  0.00     0.279 HD
ATOM      3  H6  ZIN A   1      17.322   1.267  11.830  0.00  0.00     0.279 HD
ENDROOT
BRANCH   1   4
ATOM      4  C2  ZIN A   1      18.667  -0.127  11.188  0.00  0.00     0.274 C 
ATOM      5  C1  ZIN A   1      19.260  -0.080  12.598  0.00  0.00     0.050 C 
BRANCH   4   6
ATOM      6  C20 ZIN A   1      17.845  -1.379  11.030  0.00  0.00     0.251 C 
ATOM      7  O21 ZIN A   1      16.888  -1.572  11.750  0.00  0.00    -0.271 OA
ATOM      8  N22 ZIN A   1      18.173  -2.285  10.087  0.00  0.00    -0.336 N 
ATOM      9  C26 ZIN A   1      17.460  -3.545   9.825  0.00  0.00     0.188 C 
ATOM     10  C23 ZIN A   1      19.308  -2.182   9.152  0.00  0.00     0.127 C 
ATOM     11  C25 ZIN A   1      18.174  -4.238   8.645  0.00  0.00     0.038 C 
ATOM     12  C24 ZIN A   1      18.909  -3.065   7.944  0.00  0.00     0.022 C 
BRANCH   9  13
ATOM     13  C28 ZIN A   1      17.503  -4.432  11.043  0.00  0.00     0.196 C 
ATOM     14  O29 ZIN A   1      16.467  -4.840  11.538  0.00  0.00    -0.646 OA
ATOM     15  O30 ZIN A   1      18.577  -4.741  11.533  0.00  0.00    -0.646 OA
ENDBRANCH   9  13
ENDBRANCH   4   6
ENDBRANCH   1   4
BRANCH   1  16
ATOM     16  C7  ZIN A   1      18.647   2.195  10.588  0.00  0.00     0.287 C 
BRANCH  16  17
ATOM     17  C9  ZIN A   1      18.462   2.477   9.094  0.00  0.00     0.049 C 
BRANCH  17  18
ATOM     18  C10 ZIN A   1      19.504   1.691   8.295  0.00  0.00     0.041 C 
BRANCH  18  19
ATOM     19  C11 ZIN A   1      18.817   0.926   7.193  0.00  0.00    -0.058 A 
ATOM     20  C16 ZIN A   1      19.441   0.765   5.970  0.00  0.00     0.007 A 
ATOM     21  C15 ZIN A   1      18.813   0.059   4.961  0.00  0.00     0.001 A 
ATOM     22  C14 ZIN A   1      17.557  -0.477   5.171  0.00  0.00     0.000 A 
ATOM     23  C13 ZIN A   1      16.931  -0.312   6.392  0.00  0.00     0.001 A 
ATOM     24  C12 ZIN A   1      17.561   0.389   7.403  0.00  0.00     0.007 A 
ENDBRANCH  18  19
ENDBRANCH  17  18
ENDBRANCH  16  17
BRANCH  16  25
ATOM     25  C17 ZIN A   1      18.236   3.408  11.382  0.00  0.00     0.204 C 
ATOM     26  O18 ZIN A   1      17.060   3.594  11.647  0.00  0.00    -0.646 OA
ATOM     27  O19 ZIN A   1      19.079   4.203  11.761  0.00  0.00    -0.646 OA
ENDBRANCH  16  25
ENDBRANCH   1  16
TORSDOF 8
ENDMDL
MODEL 7
REMARK VINA RESULT:      -7.3      2.571      4.770
REMARK  8 active torsions:
REMARK  status: ('A' for Active; 'I' for Inactive)
REMARK    1  A    between atoms: C2_2  and  N4_3 
REMARK    2  A    between atoms: C2_2  and  C20_18 
REMARK    3  A    between atoms: N4_3  and  C7_6 
REMARK    4  A    between atoms: C7_6  and  C9_7 
REMARK    5  A    between atoms: C7_6  and  C17_15 
REMARK    6  A    between atoms: C9_7  and  C10_8 
REMARK    7  A    between atoms: C10_8  and  C11_9 
REMARK       I    between atoms: C20_18  and  N22_20 
REMARK    8  A    between atoms: C26_24  and  C28_25 
ROOT
ATOM      1  N4  ZIN A   1      18.967   0.962  11.457  0.00  0.00    -0.049 N 
ATOM      2  H5  ZIN A   1      19.594   1.621  11.894  0.00  0.00     0.279 HD
ATOM      3  H6  ZIN A   1      19.439   0.079  11.334  0.00  0.00     0.279 HD
ENDROOT
BRANCH   1   4
ATOM      4  C2  ZIN A   1      17.785   0.772  12.308  0.00  0.00     0.274 C 
ATOM      5  C1  ZIN A   1      16.731  -0.032  11.544  0.00  0.00     0.050 C 
BRANCH   4   6
ATOM      6  C20 ZIN A   1      18.180   0.026  13.557  0.00  0.00     0.251 C 
ATOM      7  O21 ZIN A   1      18.281  -1.182  13.535  0.00  0.00    -0.271 OA
ATOM      8  N22 ZIN A   1      18.420   0.703  14.697  0.00  0.00    -0.336 N 
ATOM      9  C26 ZIN A   1      18.812   0.104  15.982  0.00  0.00     0.188 C 
ATOM     10  C23 ZIN A   1      18.329   2.165  14.866  0.00  0.00     0.127 C 
ATOM     11  C25 ZIN A   1      19.004   1.260  16.987  0.00  0.00     0.038 C 
ATOM     12  C24 ZIN A   1      19.254   2.484  16.067  0.00  0.00     0.022 C 
BRANCH   9  13
ATOM     13  C28 ZIN A   1      17.734  -0.827  16.474  0.00  0.00     0.196 C 
ATOM     14  O29 ZIN A   1      16.646  -0.384  16.799  0.00  0.00    -0.646 OA
ATOM     15  O30 ZIN A   1      17.950  -2.026  16.547  0.00  0.00    -0.646 OA
ENDBRANCH   9  13
ENDBRANCH   4   6
ENDBRANCH   1   4
BRANCH   1  16
ATOM     16  C7  ZIN A   1      18.549   1.480  10.147  0.00  0.00     0.287 C 
BRANCH  16  17
ATOM     17  C9  ZIN A   1      18.840   2.981  10.076  0.00  0.00     0.049 C 
BRANCH  17  18
ATOM     18  C10 ZIN A   1      17.606   3.761  10.535  0.00  0.00     0.041 C 
BRANCH  18  19
ATOM     19  C11 ZIN A   1      17.920   4.486  11.818  0.00  0.00    -0.058 A 
ATOM     20  C16 ZIN A   1      16.900   5.056  12.558  0.00  0.00     0.007 A 
ATOM     21  C15 ZIN A   1      17.188   5.717  13.737  0.00  0.00     0.001 A 
ATOM     22  C14 ZIN A   1      18.497   5.816  14.172  0.00  0.00     0.000 A 
ATOM     23  C13 ZIN A   1      19.516   5.251  13.431  0.00  0.00     0.001 A 
ATOM     24  C12 ZIN A   1      19.228   4.586  12.253  0.00  0.00     0.007 A 
ENDBRANCH  18  19
ENDBRANCH  17  18
ENDBRANCH  16  17
BRANCH  16  25
ATOM     25  C17 ZIN A   1      19.311   0.768   9.059  0.00  0.00     0.204 C 
ATOM     26  O18 ZIN A   1      19.541   1.336   8.005  0.00  0.00    -0.646 OA
ATOM     27  O19 ZIN A   1      19.699  -0.374   9.233  0.00  0.00    -0.646 OA
ENDBRANCH  16  25
ENDBRANCH   1  16
TORSDOF 8
ENDMDL
MODEL 8
REMARK VINA RESULT:      -7.3      4.611      8.192
REMARK  8 active torsions:
REMARK  status: ('A' for Active; 'I' for Inactive)
REMARK    1  A    between atoms: C2_2  and  N4_3 
REMARK    2  A    between atoms: C2_2  and  C20_18 
REMARK    3  A    between atoms: N4_3  and  C7_6 
REMARK    4  A    between atoms: C7_6  and  C9_7 
REMARK    5  A    between atoms: C7_6  and  C17_15 
REMARK    6  A    between atoms: C9_7  and  C10_8 
REMARK    7  A    between atoms: C10_8  and  C11_9 
REMARK       I    between atoms: C20_18  and  N22_20 
REMARK    8  A    between atoms: C26_24  and  C28_25 
ROOT
ATOM      1  N4  ZIN A   1      19.433  -0.549  10.557  0.00  0.00    -0.049 N 
ATOM      2  H5  ZIN A   1      19.702  -1.516  10.459  0.00  0.00     0.279 HD
ATOM      3  H6  ZIN A   1      20.226   0.042  10.362  0.00  0.00     0.279 HD
ENDROOT
BRANCH   1   4
ATOM      4  C2  ZIN A   1      18.349  -0.244   9.614  0.00  0.00     0.274 C 
ATOM      5  C1  ZIN A   1      17.767   1.134   9.935  0.00  0.00     0.050 C 
BRANCH   4   6
ATOM      6  C20 ZIN A   1      18.892  -0.245   8.208  0.00  0.00     0.251 C 
ATOM      7  O21 ZIN A   1      19.351   0.772   7.733  0.00  0.00    -0.271 OA
ATOM      8  N22 ZIN A   1      18.866  -1.378   7.478  0.00  0.00    -0.336 N 
ATOM      9  C26 ZIN A   1      19.360  -1.520   6.100  0.00  0.00     0.188 C 
ATOM     10  C23 ZIN A   1      18.334  -2.678   7.925  0.00  0.00     0.127 C 
ATOM     11  C25 ZIN A   1      19.151  -2.993   5.688  0.00  0.00     0.038 C 
ATOM     12  C24 ZIN A   1      19.065  -3.728   7.052  0.00  0.00     0.022 C 
BRANCH   9  13
ATOM     13  C28 ZIN A   1      18.589  -0.615   5.173  0.00  0.00     0.196 C 
ATOM     14  O29 ZIN A   1      19.179   0.205   4.491  0.00  0.00    -0.646 OA
ATOM     15  O30 ZIN A   1      17.375  -0.703   5.108  0.00  0.00    -0.646 OA
ENDBRANCH   9  13
ENDBRANCH   4   6
ENDBRANCH   1   4
BRANCH   1  16
ATOM     16  C7  ZIN A   1      18.969  -0.308  11.930  0.00  0.00     0.287 C 
BRANCH  16  17
ATOM     17  C9  ZIN A   1      18.502  -1.627  12.550  0.00  0.00     0.049 C 
BRANCH  17  18
ATOM     18  C10 ZIN A   1      19.482  -2.741  12.177  0.00  0.00     0.041 C 
BRANCH  18  19
ATOM     19  C11 ZIN A   1      18.743  -3.839  11.458  0.00  0.00    -0.058 A 
ATOM     20  C16 ZIN A   1      19.440  -4.755  10.692  0.00  0.00     0.007 A 
ATOM     21  C15 ZIN A   1      18.763  -5.766  10.036  0.00  0.00     0.001 A 
ATOM     22  C14 ZIN A   1      17.387  -5.855  10.138  0.00  0.00     0.000 A 
ATOM     23  C13 ZIN A   1      16.690  -4.937  10.899  0.00  0.00     0.001 A 
ATOM     24  C12 ZIN A   1      17.368  -3.928  11.560  0.00  0.00     0.007 A 
ENDBRANCH  18  19
ENDBRANCH  17  18
ENDBRANCH  16  17
BRANCH  16  25
ATOM     25  C17 ZIN A   1      20.099   0.260  12.750  0.00  0.00     0.204 C 
ATOM     26  O18 ZIN A   1      19.995   0.333  13.962  0.00  0.00    -0.646 OA
ATOM     27  O19 ZIN A   1      21.116   0.645  12.201  0.00  0.00    -0.646 OA
ENDBRANCH  16  25
ENDBRANCH   1  16
TORSDOF 8
ENDMDL
MODEL 9
REMARK VINA RESULT:      -7.1      5.233      7.627
REMARK  8 active torsions:
REMARK  status: ('A' for Active; 'I' for Inactive)
REMARK    1  A    between atoms: C2_2  and  N4_3 
REMARK    2  A    between atoms: C2_2  and  C20_18 
REMARK    3  A    between atoms: N4_3  and  C7_6 
REMARK    4  A    between atoms: C7_6  and  C9_7 
REMARK    5  A    between atoms: C7_6  and  C17_15 
REMARK    6  A    between atoms: C9_7  and  C10_8 
REMARK    7  A    between atoms: C10_8  and  C11_9 
REMARK       I    between atoms: C20_18  and  N22_20 
REMARK    8  A    between atoms: C26_24  and  C28_25 
ROOT
ATOM      1  N4  ZIN A   1      17.742  -1.257  10.429  0.00  0.00    -0.049 N 
ATOM      2  H5  ZIN A   1      16.969  -1.294   9.782  0.00  0.00     0.279 HD
ATOM      3  H6  ZIN A   1      17.431  -1.551  11.342  0.00  0.00     0.279 HD
ENDROOT
BRANCH   1   4
ATOM      4  C2  ZIN A   1      18.812  -2.150   9.965  0.00  0.00     0.274 C 
ATOM      5  C1  ZIN A   1      19.692  -2.551  11.151  0.00  0.00     0.050 C 
BRANCH   4   6
ATOM      6  C20 ZIN A   1      18.204  -3.384   9.349  0.00  0.00     0.251 C 
ATOM      7  O21 ZIN A   1      17.361  -4.012   9.954  0.00  0.00    -0.271 OA
ATOM      8  N22 ZIN A   1      18.598  -3.790   8.126  0.00  0.00    -0.336 N 
ATOM      9  C26 ZIN A   1      18.091  -4.970   7.410  0.00  0.00     0.188 C 
ATOM     10  C23 ZIN A   1      19.614  -3.129   7.286  0.00  0.00     0.127 C 
ATOM     11  C25 ZIN A   1      18.807  -5.020   6.044  0.00  0.00     0.038 C 
ATOM     12  C24 ZIN A   1      19.267  -3.553   5.837  0.00  0.00     0.022 C 
BRANCH   9  13
ATOM     13  C28 ZIN A   1      18.391  -6.224   8.192  0.00  0.00     0.196 C 
ATOM     14  O29 ZIN A   1      17.488  -6.983   8.497  0.00  0.00    -0.646 OA
ATOM     15  O30 ZIN A   1      19.539  -6.476   8.520  0.00  0.00    -0.646 OA
ENDBRANCH   9  13
ENDBRANCH   4   6
ENDBRANCH   1   4
BRANCH   1  16
ATOM     16  C7  ZIN A   1      18.252   0.119  10.505  0.00  0.00     0.287 C 
BRANCH  16  17
ATOM     17  C9  ZIN A   1      17.734   0.921   9.309  0.00  0.00     0.049 C 
BRANCH  17  18
ATOM     18  C10 ZIN A   1      18.894   1.218   8.354  0.00  0.00     0.041 C 
BRANCH  18  19
ATOM     19  C11 ZIN A   1      18.603   0.608   7.008  0.00  0.00    -0.058 A 
ATOM     20  C16 ZIN A   1      19.508   0.753   5.973  0.00  0.00     0.007 A 
ATOM     21  C15 ZIN A   1      19.244   0.189   4.739  0.00  0.00     0.001 A 
ATOM     22  C14 ZIN A   1      18.069  -0.511   4.536  0.00  0.00     0.000 A 
ATOM     23  C13 ZIN A   1      17.162  -0.652   5.569  0.00  0.00     0.001 A 
ATOM     24  C12 ZIN A   1      17.428  -0.092   6.805  0.00  0.00     0.007 A 
ENDBRANCH  18  19
ENDBRANCH  17  18
ENDBRANCH  16  17
BRANCH  16  25
ATOM     25  C17 ZIN A   1      17.777   0.760  11.783  0.00  0.00     0.204 C 
ATOM     26  O18 ZIN A   1      16.625   0.604  12.152  0.00  0.00    -0.646 OA
ATOM     27  O19 ZIN A   1      18.544   1.434  12.448  0.00  0.00    -0.646 OA
ENDBRANCH  16  25
ENDBRANCH   1  16
TORSDOF 8
ENDMDL
