MODEL 1
REMARK VINA RESULT:      -5.0      0.000      0.000
REMARK  2 active torsions:
REMARK  status: ('A' for Active; 'I' for Inactive)
REMARK    1  A    between atoms: C2_2  and  C3_3 
REMARK    2  A    between atoms: C3_3  and  C4_4 
ROOT
ATOM      1  C4  <0> d   1      18.980   0.486   7.204  0.00  0.00     0.017 A 
ATOM      2  C5  <0> d   1      19.298   0.239   5.915  0.00  0.00     0.099 A 
ATOM      3  C6  <0> d   1      19.346  -1.101   5.461  0.00  0.00     0.249 A 
ATOM      4  O7  <0> d   1      19.630  -1.348   4.304  0.00  0.00    -0.268 OA
ATOM      5  N8  <0> d   1      19.075  -2.101   6.324  0.00  0.00    -0.300 N 
ATOM      6  C9  <0> d   1      18.761  -1.826   7.604  0.00  0.00     0.178 A 
ATOM      7  S10 <0> d   1      18.420  -3.111   8.683  0.00  0.00    -0.040 SA
ATOM      8  N11 <0> d   1      18.718  -0.557   8.048  0.00  0.00    -0.337 N 
ATOM      9  H20 <0> d   1      19.106  -3.022   6.021  0.00  0.00     0.171 HD
ATOM     10  H21 <0> d   1      18.490  -0.380   8.974  0.00  0.00     0.168 HD
ENDROOT
BRANCH   1  11
ATOM     11  C3  <0> d   1      18.923   1.904   7.712  0.00  0.00     0.057 C 
BRANCH  11  12
ATOM     12  C2  <0> d   1      19.212   1.919   9.215  0.00  0.00     0.002 C 
ATOM     13  C1  <0> d   1      18.465   3.085   9.867  0.00  0.00     0.005 C 
ENDBRANCH  11  12
ENDBRANCH   1  11
TORSDOF 2
ENDMDL
MODEL 2
REMARK VINA RESULT:      -4.9      5.794      6.603
REMARK  2 active torsions:
REMARK  status: ('A' for Active; 'I' for Inactive)
REMARK    1  A    between atoms: C2_2  and  C3_3 
REMARK    2  A    between atoms: C3_3  and  C4_4 
ROOT
ATOM      1  C4  <0> d   1      18.493  -1.113  13.721  0.00  0.00     0.017 A 
ATOM      2  C5  <0> d   1      17.558  -0.306  13.177  0.00  0.00     0.099 A 
ATOM      3  C6  <0> d   1      17.019  -0.633  11.909  0.00  0.00     0.249 A 
ATOM      4  O7  <0> d   1      16.175   0.079  11.398  0.00  0.00    -0.268 OA
ATOM      5  N8  <0> d   1      17.450  -1.741  11.274  0.00  0.00    -0.300 N 
ATOM      6  C9  <0> d   1      18.383  -2.529  11.841  0.00  0.00     0.178 A 
ATOM      7  S10 <0> d   1      18.917  -3.932  11.017  0.00  0.00    -0.040 SA
ATOM      8  N11 <0> d   1      18.907  -2.225  13.042  0.00  0.00    -0.337 N 
ATOM      9  H20 <0> d   1      17.086  -1.973  10.405  0.00  0.00     0.171 HD
ATOM     10  H21 <0> d   1      19.579  -2.805  13.433  0.00  0.00     0.168 HD
ENDROOT
BRANCH   1  11
ATOM     11  C3  <0> d   1      19.083  -0.787  15.069  0.00  0.00     0.057 C 
BRANCH  11  12
ATOM     12  C2  <0> d   1      18.376  -1.610  16.148  0.00  0.00     0.002 C 
ATOM     13  C1  <0> d   1      17.261  -0.773  16.780  0.00  0.00     0.005 C 
ENDBRANCH  11  12
ENDBRANCH   1  11
TORSDOF 2
ENDMDL
MODEL 3
REMARK VINA RESULT:      -4.8      4.015      5.491
REMARK  2 active torsions:
REMARK  status: ('A' for Active; 'I' for Inactive)
REMARK    1  A    between atoms: C2_2  and  C3_3 
REMARK    2  A    between atoms: C3_3  and  C4_4 
ROOT
ATOM      1  C4  <0> d   1      19.052   1.979   9.635  0.00  0.00     0.017 A 
ATOM      2  C5  <0> d   1      18.106   2.880   9.977  0.00  0.00     0.099 A 
ATOM      3  C6  <0> d   1      17.775   3.045  11.344  0.00  0.00     0.249 A 
ATOM      4  O7  <0> d   1      16.925   3.851  11.677  0.00  0.00    -0.268 OA
ATOM      5  N8  <0> d   1      18.408   2.302  12.273  0.00  0.00    -0.300 N 
ATOM      6  C9  <0> d   1      19.348   1.411  11.903  0.00  0.00     0.178 A 
ATOM      7  S10 <0> d   1      20.141   0.477  13.099  0.00  0.00    -0.040 SA
ATOM      8  N11 <0> d   1      19.667   1.241  10.607  0.00  0.00    -0.337 N 
ATOM      9  H20 <0> d   1      18.187   2.409  13.211  0.00  0.00     0.171 HD
ATOM     10  H21 <0> d   1      20.346   0.593  10.361  0.00  0.00     0.168 HD
ENDROOT
BRANCH   1  11
ATOM     11  C3  <0> d   1      19.422   1.783   8.187  0.00  0.00     0.057 C 
BRANCH  11  12
ATOM     12  C2  <0> d   1      18.540   0.691   7.579  0.00  0.00     0.002 C 
ATOM     13  C1  <0> d   1      18.615   0.765   6.052  0.00  0.00     0.005 C 
ENDBRANCH  11  12
ENDBRANCH   1  11
TORSDOF 2
ENDMDL
MODEL 4
REMARK VINA RESULT:      -4.8      4.357      5.600
REMARK  2 active torsions:
REMARK  status: ('A' for Active; 'I' for Inactive)
REMARK    1  A    between atoms: C2_2  and  C3_3 
REMARK    2  A    between atoms: C3_3  and  C4_4 
ROOT
ATOM      1  C4  <0> d   1      18.757   1.911   9.499  0.00  0.00     0.017 A 
ATOM      2  C5  <0> d   1      17.818   1.050   9.946  0.00  0.00     0.099 A 
ATOM      3  C6  <0> d   1      17.314   1.202  11.260  0.00  0.00     0.249 A 
ATOM      4  O7  <0> d   1      16.467   0.438  11.686  0.00  0.00    -0.268 OA
ATOM      5  N8  <0> d   1      17.781   2.201  12.036  0.00  0.00    -0.300 N 
ATOM      6  C9  <0> d   1      18.717   3.045  11.564  0.00  0.00     0.178 A 
ATOM      7  S10 <0> d   1      19.297   4.307  12.565  0.00  0.00    -0.040 SA
ATOM      8  N11 <0> d   1      19.208   2.907  10.319  0.00  0.00    -0.337 N 
ATOM      9  H20 <0> d   1      17.441   2.312  12.938  0.00  0.00     0.171 HD
ATOM     10  H21 <0> d   1      19.883   3.525   9.998  0.00  0.00     0.168 HD
ENDROOT
BRANCH   1  11
ATOM     11  C3  <0> d   1      19.310   1.770   8.104  0.00  0.00     0.057 C 
BRANCH  11  12
ATOM     12  C2  <0> d   1      18.704   0.532   7.438  0.00  0.00     0.002 C 
ATOM     13  C1  <0> d   1      18.844   0.649   5.919  0.00  0.00     0.005 C 
ENDBRANCH  11  12
ENDBRANCH   1  11
TORSDOF 2
ENDMDL
MODEL 5
REMARK VINA RESULT:      -4.7      2.472      3.385
REMARK  2 active torsions:
REMARK  status: ('A' for Active; 'I' for Inactive)
REMARK    1  A    between atoms: C2_2  and  C3_3 
REMARK    2  A    between atoms: C3_3  and  C4_4 
ROOT
ATOM      1  C4  <0> d   1      19.012   2.319  10.206  0.00  0.00     0.017 A 
ATOM      2  C5  <0> d   1      18.971   2.333   8.856  0.00  0.00     0.099 A 
ATOM      3  C6  <0> d   1      19.232   1.136   8.146  0.00  0.00     0.249 A 
ATOM      4  O7  <0> d   1      19.200   1.125   6.929  0.00  0.00    -0.268 OA
ATOM      5  N8  <0> d   1      19.516   0.010   8.830  0.00  0.00    -0.300 N 
ATOM      6  C9  <0> d   1      19.550   0.025  10.177  0.00  0.00     0.178 A 
ATOM      7  S10 <0> d   1      19.913  -1.417  11.027  0.00  0.00    -0.040 SA
ATOM      8  N11 <0> d   1      19.310   1.157  10.862  0.00  0.00    -0.337 N 
ATOM      9  H20 <0> d   1      19.696  -0.814   8.352  0.00  0.00     0.171 HD
ATOM     10  H21 <0> d   1      19.340   1.147  11.832  0.00  0.00     0.168 HD
ENDROOT
BRANCH   1  11
ATOM     11  C3  <0> d   1      18.739   3.580  10.985  0.00  0.00     0.057 C 
BRANCH  11  12
ATOM     12  C2  <0> d   1      17.727   4.440  10.224  0.00  0.00     0.002 C 
ATOM     13  C1  <0> d   1      16.677   4.975  11.199  0.00  0.00     0.005 C 
ENDBRANCH  11  12
ENDBRANCH   1  11
TORSDOF 2
ENDMDL
MODEL 6
REMARK VINA RESULT:      -4.7      4.826      6.334
REMARK  2 active torsions:
REMARK  status: ('A' for Active; 'I' for Inactive)
REMARK    1  A    between atoms: C2_2  and  C3_3 
REMARK    2  A    between atoms: C3_3  and  C4_4 
ROOT
ATOM      1  C4  <0> d   1      18.636   2.530  10.485  0.00  0.00     0.017 A 
ATOM      2  C5  <0> d   1      18.163   3.623   9.848  0.00  0.00     0.099 A 
ATOM      3  C6  <0> d   1      17.638   4.692  10.614  0.00  0.00     0.249 A 
ATOM      4  O7  <0> d   1      17.205   5.688  10.063  0.00  0.00    -0.268 OA
ATOM      5  N8  <0> d   1      17.620   4.597  11.958  0.00  0.00    -0.300 N 
ATOM      6  C9  <0> d   1      18.099   3.494  12.567  0.00  0.00     0.178 A 
ATOM      7  S10 <0> d   1      18.068   3.393  14.276  0.00  0.00    -0.040 SA
ATOM      8  N11 <0> d   1      18.595   2.470  11.850  0.00  0.00    -0.337 N 
ATOM      9  H20 <0> d   1      17.262   5.324  12.491  0.00  0.00     0.171 HD
ATOM     10  H21 <0> d   1      18.934   1.684  12.307  0.00  0.00     0.168 HD
ENDROOT
BRANCH   1  11
ATOM     11  C3  <0> d   1      19.199   1.378   9.693  0.00  0.00     0.057 C 
BRANCH  11  12
ATOM     12  C2  <0> d   1      19.328   1.785   8.223  0.00  0.00     0.002 C 
ATOM     13  C1  <0> d   1      18.613   0.756   7.344  0.00  0.00     0.005 C 
ENDBRANCH  11  12
ENDBRANCH   1  11
TORSDOF 2
ENDMDL
MODEL 7
REMARK VINA RESULT:      -4.6     10.636     11.635
REMARK  2 active torsions:
REMARK  status: ('A' for Active; 'I' for Inactive)
REMARK    1  A    between atoms: C2_2  and  C3_3 
REMARK    2  A    between atoms: C3_3  and  C4_4 
ROOT
ATOM      1  C4  <0> d   1      18.218   1.385  18.139  0.00  0.00     0.017 A 
ATOM      2  C5  <0> d   1      19.201   1.933  17.394  0.00  0.00     0.099 A 
ATOM      3  C6  <0> d   1      19.367   3.340  17.401  0.00  0.00     0.249 A 
ATOM      4  O7  <0> d   1      20.247   3.857  16.737  0.00  0.00    -0.268 OA
ATOM      5  N8  <0> d   1      18.542   4.099  18.148  0.00  0.00    -0.300 N 
ATOM      6  C9  <0> d   1      17.570   3.525  18.882  0.00  0.00     0.178 A 
ATOM      7  S10 <0> d   1      16.532   4.508  19.824  0.00  0.00    -0.040 SA
ATOM      8  N11 <0> d   1      17.399   2.191  18.879  0.00  0.00    -0.337 N 
ATOM      9  H20 <0> d   1      18.648   5.063  18.158  0.00  0.00     0.171 HD
ATOM     10  H21 <0> d   1      16.692   1.797  19.414  0.00  0.00     0.168 HD
ENDROOT
BRANCH   1  11
ATOM     11  C3  <0> d   1      18.020  -0.110  18.150  0.00  0.00     0.057 C 
BRANCH  11  12
ATOM     12  C2  <0> d   1      17.315  -0.539  16.861  0.00  0.00     0.002 C 
ATOM     13  C1  <0> d   1      18.231  -1.470  16.063  0.00  0.00     0.005 C 
ENDBRANCH  11  12
ENDBRANCH   1  11
TORSDOF 2
ENDMDL
MODEL 8
REMARK VINA RESULT:      -4.6      2.633      3.573
REMARK  2 active torsions:
REMARK  status: ('A' for Active; 'I' for Inactive)
REMARK    1  A    between atoms: C2_2  and  C3_3 
REMARK    2  A    between atoms: C3_3  and  C4_4 
ROOT
ATOM      1  C4  <0> d   1      18.159  -0.809   7.742  0.00  0.00     0.017 A 
ATOM      2  C5  <0> d   1      19.123  -0.227   8.488  0.00  0.00     0.099 A 
ATOM      3  C6  <0> d   1      19.709  -0.959   9.549  0.00  0.00     0.249 A 
ATOM      4  O7  <0> d   1      20.579  -0.455  10.235  0.00  0.00    -0.268 OA
ATOM      5  N8  <0> d   1      19.294  -2.218   9.791  0.00  0.00    -0.300 N 
ATOM      6  C9  <0> d   1      18.332  -2.774   9.031  0.00  0.00     0.178 A 
ATOM      7  S10 <0> d   1      17.820  -4.375   9.356  0.00  0.00    -0.040 SA
ATOM      8  N11 <0> d   1      17.763  -2.086   8.025  0.00  0.00    -0.337 N 
ATOM      9  H20 <0> d   1      19.691  -2.726  10.516  0.00  0.00     0.171 HD
ATOM     10  H21 <0> d   1      17.071  -2.504   7.489  0.00  0.00     0.168 HD
ENDROOT
BRANCH   1  11
ATOM     11  C3  <0> d   1      17.518  -0.051   6.608  0.00  0.00     0.057 C 
BRANCH  11  12
ATOM     12  C2  <0> d   1      18.581   0.783   5.888  0.00  0.00     0.002 C 
ATOM     13  C1  <0> d   1      19.160  -0.022   4.723  0.00  0.00     0.005 C 
ENDBRANCH  11  12
ENDBRANCH   1  11
TORSDOF 2
ENDMDL
MODEL 9
REMARK VINA RESULT:      -4.6      2.846      4.376
REMARK  2 active torsions:
REMARK  status: ('A' for Active; 'I' for Inactive)
REMARK    1  A    between atoms: C2_2  and  C3_3 
REMARK    2  A    between atoms: C3_3  and  C4_4 
ROOT
ATOM      1  C4  <0> d   1      19.075   1.034   7.896  0.00  0.00     0.017 A 
ATOM      2  C5  <0> d   1      19.069   2.202   8.572  0.00  0.00     0.099 A 
ATOM      3  C6  <0> d   1      19.248   2.186   9.977  0.00  0.00     0.249 A 
ATOM      4  O7  <0> d   1      19.246   3.226  10.609  0.00  0.00    -0.268 OA
ATOM      5  N8  <0> d   1      19.419   1.007  10.608  0.00  0.00    -0.300 N 
ATOM      6  C9  <0> d   1      19.421  -0.143   9.908  0.00  0.00     0.178 A 
ATOM      7  S10 <0> d   1      19.641  -1.630  10.728  0.00  0.00    -0.040 SA
ATOM      8  N11 <0> d   1      19.246  -0.141   8.574  0.00  0.00    -0.337 N 
ATOM      9  H20 <0> d   1      19.542   0.987  11.570  0.00  0.00     0.171 HD
ATOM     10  H21 <0> d   1      19.250  -0.980   8.088  0.00  0.00     0.168 HD
ENDROOT
BRANCH   1  11
ATOM     11  C3  <0> d   1      18.887   1.024   6.400  0.00  0.00     0.057 C 
BRANCH  11  12
ATOM     12  C2  <0> d   1      19.021  -0.409   5.879  0.00  0.00     0.002 C 
ATOM     13  C1  <0> d   1      18.692  -0.442   4.385  0.00  0.00     0.005 C 
ENDBRANCH  11  12
ENDBRANCH   1  11
TORSDOF 2
ENDMDL
