MODEL 1
REMARK VINA RESULT:      -7.9      0.000      0.000
REMARK  6 active torsions:
REMARK  status: ('A' for Active; 'I' for Inactive)
REMARK    1  A    between atoms: N5_5  and  C7_7 
REMARK    2  A    between atoms: C7_7  and  C10_9 
REMARK    3  A    between atoms: C10_9  and  O11_10 
REMARK    4  A    between atoms: C10_9  and  C12_11 
REMARK    5  A    between atoms: C10_9  and  C18_17 
REMARK    6  A    between atoms: C12_11  and  N13_12 
ROOT
ATOM      1  C10 ZIN A   1      19.354  -1.008  10.967  0.00  0.00     0.134 C 
ENDROOT
BRANCH   1   2
ATOM      2  C7  ZIN A   1      19.972  -0.499  12.271  0.00  0.00     0.225 C 
ATOM      3  C9  ZIN A   1      20.455   0.941  12.078  0.00  0.00     0.044 C 
BRANCH   2   4
ATOM      4  N5  ZIN A   1      18.963  -0.539  13.339  0.00  0.00    -0.063 N 
ATOM      5  C4  ZIN A   1      18.671   0.830  13.783  0.00  0.00     0.239 C 
ATOM      6  C3  ZIN A   1      17.502   0.806  14.773  0.00  0.00     0.061 C 
ATOM      7  C2  ZIN A   1      17.846  -0.159  15.889  0.00  0.00    -0.086 C 
ATOM      8  C1  ZIN A   1      17.698   0.179  17.146  0.00  0.00     0.014 C 
ATOM      9  C27 ZIN A   1      18.373  -1.524  15.501  0.00  0.00     0.061 C 
ATOM     10  C26 ZIN A   1      19.476  -1.337  14.458  0.00  0.00     0.239 C 
ATOM     11  H6  ZIN A   1      18.118  -0.962  12.984  0.00  0.00     0.280 HD
ENDBRANCH   2   4
ENDBRANCH   1   2
BRANCH   1  12
ATOM     12  O11 ZIN A   1      20.345  -1.009   9.938  0.00  0.00    -0.381 OA
ATOM     13  H37 ZIN A   1      21.122  -0.471  10.139  0.00  0.00     0.211 HD
ENDBRANCH   1  12
BRANCH   1  14
ATOM     14  C12 ZIN A   1      18.196  -0.095  10.560  0.00  0.00     0.197 C 
BRANCH  14  15
ATOM     15  N13 ZIN A   1      18.309   0.231   9.136  0.00  0.00    -0.259 N 
ATOM     16  N17 ZIN A   1      19.202   1.141   8.548  0.00  0.00    -0.165 NA
ATOM     17  C16 ZIN A   1      18.968   1.124   7.263  0.00  0.00     0.256 A 
ATOM     18  N15 ZIN A   1      17.978   0.266   7.015  0.00  0.00    -0.234 NA
ATOM     19  C14 ZIN A   1      17.573  -0.279   8.132  0.00  0.00     0.230 A 
ENDBRANCH  14  15
ENDBRANCH   1  14
BRANCH   1  20
ATOM     20  C18 ZIN A   1      18.840  -2.411  11.170  0.00  0.00     0.018 A 
ATOM     21  C24 ZIN A   1      19.729  -3.453  11.368  0.00  0.00     0.128 A 
ATOM     22  C23 ZIN A   1      19.257  -4.740  11.559  0.00  0.00     0.085 A 
ATOM     23  F25 ZIN A   1      21.059  -3.212  11.387  0.00  0.00    -0.205 F 
ATOM     24  C21 ZIN A   1      17.894  -4.985  11.539  0.00  0.00     0.119 A 
ATOM     25  C20 ZIN A   1      17.006  -3.942  11.335  0.00  0.00     0.043 A 
ATOM     26  F22 ZIN A   1      17.431  -6.241  11.719  0.00  0.00    -0.206 F 
ATOM     27  C19 ZIN A   1      17.480  -2.657  11.150  0.00  0.00     0.016 A 
ENDBRANCH   1  20
TORSDOF 6
ENDMDL
MODEL 2
REMARK VINA RESULT:      -7.8      3.051      4.515
REMARK  6 active torsions:
REMARK  status: ('A' for Active; 'I' for Inactive)
REMARK    1  A    between atoms: N5_5  and  C7_7 
REMARK    2  A    between atoms: C7_7  and  C10_9 
REMARK    3  A    between atoms: C10_9  and  O11_10 
REMARK    4  A    between atoms: C10_9  and  C12_11 
REMARK    5  A    between atoms: C10_9  and  C18_17 
REMARK    6  A    between atoms: C12_11  and  N13_12 
ROOT
ATOM      1  C10 ZIN A   1      18.887   1.436  10.957  0.00  0.00     0.134 C 
ENDROOT
BRANCH   1   2
ATOM      2  C7  ZIN A   1      19.584   0.268  11.657  0.00  0.00     0.225 C 
ATOM      3  C9  ZIN A   1      21.071   0.589  11.827  0.00  0.00     0.044 C 
BRANCH   2   4
ATOM      4  N5  ZIN A   1      18.974   0.055  12.977  0.00  0.00    -0.063 N 
ATOM      5  C4  ZIN A   1      19.777   0.738  13.999  0.00  0.00     0.239 C 
ATOM      6  C3  ZIN A   1      19.056   0.662  15.349  0.00  0.00     0.061 C 
ATOM      7  C2  ZIN A   1      18.763  -0.794  15.648  0.00  0.00    -0.086 C 
ATOM      8  C1  ZIN A   1      19.049  -1.318  16.815  0.00  0.00     0.014 C 
ATOM      9  C27 ZIN A   1      18.137  -1.625  14.548  0.00  0.00     0.061 C 
ATOM     10  C26 ZIN A   1      18.918  -1.385  13.256  0.00  0.00     0.239 C 
ATOM     11  H6  ZIN A   1      18.039   0.434  12.979  0.00  0.00     0.280 HD
ENDBRANCH   2   4
ENDBRANCH   1   2
BRANCH   1  12
ATOM     12  O11 ZIN A   1      19.745   2.579  10.969  0.00  0.00    -0.381 OA
ATOM     13  H37 ZIN A   1      19.367   3.359  10.540  0.00  0.00     0.211 HD
ENDBRANCH   1  12
BRANCH   1  14
ATOM     14  C12 ZIN A   1      17.586   1.768  11.691  0.00  0.00     0.197 C 
BRANCH  14  15
ATOM     15  N13 ZIN A   1      17.432   3.222  11.780  0.00  0.00    -0.259 N 
ATOM     16  N17 ZIN A   1      17.050   4.094  10.747  0.00  0.00    -0.165 NA
ATOM     17  C16 ZIN A   1      17.036   5.298  11.254  0.00  0.00     0.256 A 
ATOM     18  N15 ZIN A   1      17.393   5.231  12.536  0.00  0.00    -0.234 NA
ATOM     19  C14 ZIN A   1      17.634   3.989  12.866  0.00  0.00     0.230 A 
ENDBRANCH  14  15
ENDBRANCH   1  14
BRANCH   1  20
ATOM     20  C18 ZIN A   1      18.577   1.056   9.532  0.00  0.00     0.018 A 
ATOM     21  C24 ZIN A   1      17.635   0.077   9.266  0.00  0.00     0.128 A 
ATOM     22  C23 ZIN A   1      17.347  -0.270   7.957  0.00  0.00     0.085 A 
ATOM     23  F25 ZIN A   1      16.988  -0.533  10.284  0.00  0.00    -0.205 F 
ATOM     24  C21 ZIN A   1      18.010   0.356   6.915  0.00  0.00     0.119 A 
ATOM     25  C20 ZIN A   1      18.957   1.331   7.183  0.00  0.00     0.043 A 
ATOM     26  F22 ZIN A   1      17.735   0.015   5.638  0.00  0.00    -0.206 F 
ATOM     27  C19 ZIN A   1      19.239   1.679   8.492  0.00  0.00     0.016 A 
ENDBRANCH   1  20
TORSDOF 6
ENDMDL
MODEL 3
REMARK VINA RESULT:      -7.7      2.764      5.739
REMARK  6 active torsions:
REMARK  status: ('A' for Active; 'I' for Inactive)
REMARK    1  A    between atoms: N5_5  and  C7_7 
REMARK    2  A    between atoms: C7_7  and  C10_9 
REMARK    3  A    between atoms: C10_9  and  O11_10 
REMARK    4  A    between atoms: C10_9  and  C12_11 
REMARK    5  A    between atoms: C10_9  and  C18_17 
REMARK    6  A    between atoms: C12_11  and  N13_12 
ROOT
ATOM      1  C10 ZIN A   1      18.873  -1.348  12.691  0.00  0.00     0.134 C 
ENDROOT
BRANCH   1   2
ATOM      2  C7  ZIN A   1      19.198  -0.066  11.921  0.00  0.00     0.225 C 
ATOM      3  C9  ZIN A   1      20.696   0.228  12.030  0.00  0.00     0.044 C 
BRANCH   2   4
ATOM      4  N5  ZIN A   1      18.835  -0.240  10.507  0.00  0.00    -0.063 N 
ATOM      5  C4  ZIN A   1      20.056  -0.280   9.693  0.00  0.00     0.239 C 
ATOM      6  C3  ZIN A   1      19.693  -0.628   8.246  0.00  0.00     0.061 C 
ATOM      7  C2  ZIN A   1      18.650   0.360   7.768  0.00  0.00    -0.086 C 
ATOM      8  C1  ZIN A   1      18.773   0.972   6.616  0.00  0.00     0.014 C 
ATOM      9  C27 ZIN A   1      17.464   0.623   8.672  0.00  0.00     0.061 C 
ATOM     10  C26 ZIN A   1      17.983   0.879  10.088  0.00  0.00     0.239 C 
ATOM     11  H6  ZIN A   1      18.331  -1.106  10.396  0.00  0.00     0.280 HD
ENDBRANCH   2   4
ENDBRANCH   1   2
BRANCH   1  12
ATOM     12  O11 ZIN A   1      19.977  -2.250  12.602  0.00  0.00    -0.381 OA
ATOM     13  H37 ZIN A   1      20.764  -1.870  12.190  0.00  0.00     0.211 HD
ENDBRANCH   1  12
BRANCH   1  14
ATOM     14  C12 ZIN A   1      17.628  -2.003  12.088  0.00  0.00     0.197 C 
BRANCH  14  15
ATOM     15  N13 ZIN A   1      17.998  -3.283  11.476  0.00  0.00    -0.259 N 
ATOM     16  N17 ZIN A   1      18.829  -3.473  10.360  0.00  0.00    -0.165 NA
ATOM     17  C16 ZIN A   1      18.894  -4.762  10.154  0.00  0.00     0.256 A 
ATOM     18  N15 ZIN A   1      18.149  -5.385  11.066  0.00  0.00    -0.234 NA
ATOM     19  C14 ZIN A   1      17.604  -4.507  11.868  0.00  0.00     0.230 A 
ENDBRANCH  14  15
ENDBRANCH   1  14
BRANCH   1  20
ATOM     20  C18 ZIN A   1      18.613  -1.013  14.137  0.00  0.00     0.018 A 
ATOM     21  C24 ZIN A   1      17.696  -0.029  14.466  0.00  0.00     0.128 A 
ATOM     22  C23 ZIN A   1      17.454   0.277  15.794  0.00  0.00     0.085 A 
ATOM     23  F25 ZIN A   1      17.030   0.627  13.490  0.00  0.00    -0.205 F 
ATOM     24  C21 ZIN A   1      18.137  -0.396  16.793  0.00  0.00     0.119 A 
ATOM     25  C20 ZIN A   1      19.058  -1.377  16.462  0.00  0.00     0.043 A 
ATOM     26  F22 ZIN A   1      17.907  -0.097  18.089  0.00  0.00    -0.206 F 
ATOM     27  C19 ZIN A   1      19.295  -1.683  15.134  0.00  0.00     0.016 A 
ENDBRANCH   1  20
TORSDOF 6
ENDMDL
MODEL 4
REMARK VINA RESULT:      -7.7      3.138      5.584
REMARK  6 active torsions:
REMARK  status: ('A' for Active; 'I' for Inactive)
REMARK    1  A    between atoms: N5_5  and  C7_7 
REMARK    2  A    between atoms: C7_7  and  C10_9 
REMARK    3  A    between atoms: C10_9  and  O11_10 
REMARK    4  A    between atoms: C10_9  and  C12_11 
REMARK    5  A    between atoms: C10_9  and  C18_17 
REMARK    6  A    between atoms: C12_11  and  N13_12 
ROOT
ATOM      1  C10 ZIN A   1      19.069  -0.161  13.736  0.00  0.00     0.134 C 
ENDROOT
BRANCH   1   2
ATOM      2  C7  ZIN A   1      19.735   1.065  13.108  0.00  0.00     0.225 C 
ATOM      3  C9  ZIN A   1      20.880   0.614  12.199  0.00  0.00     0.044 C 
BRANCH   2   4
ATOM      4  N5  ZIN A   1      18.744   1.807  12.316  0.00  0.00    -0.063 N 
ATOM      5  C4  ZIN A   1      19.247   1.979  10.947  0.00  0.00     0.239 C 
ATOM      6  C3  ZIN A   1      18.150   2.601  10.076  0.00  0.00     0.061 C 
ATOM      7  C2  ZIN A   1      17.684   3.879  10.741  0.00  0.00    -0.086 C 
ATOM      8  C1  ZIN A   1      17.570   4.995  10.063  0.00  0.00     0.014 C 
ATOM      9  C27 ZIN A   1      17.363   3.825  12.220  0.00  0.00     0.061 C 
ATOM     10  C26 ZIN A   1      18.510   3.115  12.938  0.00  0.00     0.239 C 
ATOM     11  H6  ZIN A   1      17.879   1.288  12.291  0.00  0.00     0.280 HD
ENDBRANCH   2   4
ENDBRANCH   1   2
BRANCH   1  12
ATOM     12  O11 ZIN A   1      19.933  -1.292  13.607  0.00  0.00    -0.381 OA
ATOM     13  H37 ZIN A   1      20.441  -1.492  14.405  0.00  0.00     0.211 HD
ENDBRANCH   1  12
BRANCH   1  14
ATOM     14  C12 ZIN A   1      17.746  -0.446  13.022  0.00  0.00     0.197 C 
BRANCH  14  15
ATOM     15  N13 ZIN A   1      17.933  -1.541  12.066  0.00  0.00    -0.259 N 
ATOM     16  N17 ZIN A   1      18.024  -2.910  12.361  0.00  0.00    -0.165 NA
ATOM     17  C16 ZIN A   1      18.184  -3.533  11.224  0.00  0.00     0.256 A 
ATOM     18  N15 ZIN A   1      18.208  -2.635  10.239  0.00  0.00    -0.234 NA
ATOM     19  C14 ZIN A   1      18.058  -1.433  10.731  0.00  0.00     0.230 A 
ENDBRANCH  14  15
ENDBRANCH   1  14
BRANCH   1  20
ATOM     20  C18 ZIN A   1      18.804   0.104  15.196  0.00  0.00     0.018 A 
ATOM     21  C24 ZIN A   1      18.234  -0.879  15.986  0.00  0.00     0.128 A 
ATOM     22  C23 ZIN A   1      17.994  -0.638  17.328  0.00  0.00     0.085 A 
ATOM     23  F25 ZIN A   1      17.920  -2.079  15.450  0.00  0.00    -0.205 F 
ATOM     24  C21 ZIN A   1      18.316   0.592  17.876  0.00  0.00     0.119 A 
ATOM     25  C20 ZIN A   1      18.881   1.577  17.083  0.00  0.00     0.043 A 
ATOM     26  F22 ZIN A   1      18.078   0.832  19.184  0.00  0.00    -0.206 F 
ATOM     27  C19 ZIN A   1      19.124   1.331  15.744  0.00  0.00     0.016 A 
ENDBRANCH   1  20
TORSDOF 6
ENDMDL
MODEL 5
REMARK VINA RESULT:      -7.6      3.355      5.420
REMARK  6 active torsions:
REMARK  status: ('A' for Active; 'I' for Inactive)
REMARK    1  A    between atoms: N5_5  and  C7_7 
REMARK    2  A    between atoms: C7_7  and  C10_9 
REMARK    3  A    between atoms: C10_9  and  O11_10 
REMARK    4  A    between atoms: C10_9  and  C12_11 
REMARK    5  A    between atoms: C10_9  and  C18_17 
REMARK    6  A    between atoms: C12_11  and  N13_12 
ROOT
ATOM      1  C10 ZIN A   1      19.134   0.234   9.362  0.00  0.00     0.134 C 
ENDROOT
BRANCH   1   2
ATOM      2  C7  ZIN A   1      19.779  -1.039   9.912  0.00  0.00     0.225 C 
ATOM      3  C9  ZIN A   1      20.782  -0.670  11.008  0.00  0.00     0.044 C 
BRANCH   2   4
ATOM      4  N5  ZIN A   1      18.737  -1.911  10.475  0.00  0.00    -0.063 N 
ATOM      5  C4  ZIN A   1      19.080  -2.244  11.863  0.00  0.00     0.239 C 
ATOM      6  C3  ZIN A   1      17.919  -3.010  12.505  0.00  0.00     0.061 C 
ATOM      7  C2  ZIN A   1      17.598  -4.204  11.631  0.00  0.00    -0.086 C 
ATOM      8  C1  ZIN A   1      17.457  -5.402  12.144  0.00  0.00     0.014 C 
ATOM      9  C27 ZIN A   1      17.454  -3.968  10.142  0.00  0.00     0.061 C 
ATOM     10  C26 ZIN A   1      18.643  -3.133   9.668  0.00  0.00     0.239 C 
ATOM     11  H6  ZIN A   1      17.852  -1.427  10.456  0.00  0.00     0.280 HD
ENDBRANCH   2   4
ENDBRANCH   1   2
BRANCH   1  12
ATOM     12  O11 ZIN A   1      19.903   1.370   9.763  0.00  0.00    -0.381 OA
ATOM     13  H37 ZIN A   1      20.201   1.338  10.682  0.00  0.00     0.211 HD
ENDBRANCH   1  12
BRANCH   1  14
ATOM     14  C12 ZIN A   1      17.711   0.363   9.908  0.00  0.00     0.197 C 
BRANCH  14  15
ATOM     15  N13 ZIN A   1      17.666   1.432  10.909  0.00  0.00    -0.259 N 
ATOM     16  N17 ZIN A   1      17.485   2.803  10.669  0.00  0.00    -0.165 NA
ATOM     17  C16 ZIN A   1      17.507   3.397  11.833  0.00  0.00     0.256 A 
ATOM     18  N15 ZIN A   1      17.700   2.481  12.782  0.00  0.00    -0.234 NA
ATOM     19  C14 ZIN A   1      17.797   1.295  12.240  0.00  0.00     0.230 A 
ENDBRANCH  14  15
ENDBRANCH   1  14
BRANCH   1  20
ATOM     20  C18 ZIN A   1      19.090   0.164   7.856  0.00  0.00     0.018 A 
ATOM     21  C24 ZIN A   1      18.963   1.325   7.113  0.00  0.00     0.128 A 
ATOM     22  C23 ZIN A   1      18.927   1.262   5.731  0.00  0.00     0.085 A 
ATOM     23  F25 ZIN A   1      18.885   2.521   7.736  0.00  0.00    -0.205 F 
ATOM     24  C21 ZIN A   1      19.007   0.035   5.093  0.00  0.00     0.119 A 
ATOM     25  C20 ZIN A   1      19.129  -1.126   5.839  0.00  0.00     0.043 A 
ATOM     26  F22 ZIN A   1      18.967  -0.030   3.745  0.00  0.00    -0.206 F 
ATOM     27  C19 ZIN A   1      19.170  -1.060   7.220  0.00  0.00     0.016 A 
ENDBRANCH   1  20
TORSDOF 6
ENDMDL
MODEL 6
REMARK VINA RESULT:      -7.5      3.627      5.818
REMARK  6 active torsions:
REMARK  status: ('A' for Active; 'I' for Inactive)
REMARK    1  A    between atoms: N5_5  and  C7_7 
REMARK    2  A    between atoms: C7_7  and  C10_9 
REMARK    3  A    between atoms: C10_9  and  O11_10 
REMARK    4  A    between atoms: C10_9  and  C12_11 
REMARK    5  A    between atoms: C10_9  and  C18_17 
REMARK    6  A    between atoms: C12_11  and  N13_12 
ROOT
ATOM      1  C10 ZIN A   1      18.269   2.075  11.145  0.00  0.00     0.134 C 
ENDROOT
BRANCH   1   2
ATOM      2  C7  ZIN A   1      18.556   3.577  11.129  0.00  0.00     0.225 C 
ATOM      3  C9  ZIN A   1      17.473   4.295  10.320  0.00  0.00     0.044 C 
BRANCH   2   4
ATOM      4  N5  ZIN A   1      18.558   4.090  12.506  0.00  0.00    -0.063 N 
ATOM      5  C4  ZIN A   1      17.342   4.880  12.733  0.00  0.00     0.239 C 
ATOM      6  C3  ZIN A   1      17.258   5.274  14.211  0.00  0.00     0.061 C 
ATOM      7  C2  ZIN A   1      18.546   5.977  14.588  0.00  0.00    -0.086 C 
ATOM      8  C1  ZIN A   1      18.532   7.115  15.238  0.00  0.00     0.014 C 
ATOM      9  C27 ZIN A   1      19.849   5.323  14.181  0.00  0.00     0.061 C 
ATOM     10  C26 ZIN A   1      19.750   4.923  12.709  0.00  0.00     0.239 C 
ATOM     11  H6  ZIN A   1      18.578   3.314  13.151  0.00  0.00     0.280 HD
ENDBRANCH   2   4
ENDBRANCH   1   2
BRANCH   1  12
ATOM     12  O11 ZIN A   1      16.970   1.843  11.693  0.00  0.00    -0.381 OA
ATOM     13  H37 ZIN A   1      16.531   2.642  12.015  0.00  0.00     0.211 HD
ENDBRANCH   1  12
BRANCH   1  14
ATOM     14  C12 ZIN A   1      19.319   1.364  12.003  0.00  0.00     0.197 C 
BRANCH  14  15
ATOM     15  N13 ZIN A   1      18.672   0.780  13.181  0.00  0.00    -0.259 N 
ATOM     16  N17 ZIN A   1      18.084   1.474  14.250  0.00  0.00    -0.165 NA
ATOM     17  C16 ZIN A   1      17.627   0.575  15.080  0.00  0.00     0.256 A 
ATOM     18  N15 ZIN A   1      17.901  -0.637  14.598  0.00  0.00    -0.234 NA
ATOM     19  C14 ZIN A   1      18.530  -0.529  13.456  0.00  0.00     0.230 A 
ENDBRANCH  14  15
ENDBRANCH   1  14
BRANCH   1  20
ATOM     20  C18 ZIN A   1      18.323   1.538   9.738  0.00  0.00     0.018 A 
ATOM     21  C24 ZIN A   1      17.532   0.461   9.377  0.00  0.00     0.128 A 
ATOM     22  C23 ZIN A   1      17.578  -0.030   8.084  0.00  0.00     0.085 A 
ATOM     23  F25 ZIN A   1      16.705  -0.104  10.284  0.00  0.00    -0.205 F 
ATOM     24  C21 ZIN A   1      18.425   0.550   7.155  0.00  0.00     0.119 A 
ATOM     25  C20 ZIN A   1      19.221   1.624   7.519  0.00  0.00     0.043 A 
ATOM     26  F22 ZIN A   1      18.476   0.070   5.893  0.00  0.00    -0.206 F 
ATOM     27  C19 ZIN A   1      19.169   2.115   8.811  0.00  0.00     0.016 A 
ENDBRANCH   1  20
TORSDOF 6
ENDMDL
MODEL 7
REMARK VINA RESULT:      -7.4      2.851      4.426
REMARK  6 active torsions:
REMARK  status: ('A' for Active; 'I' for Inactive)
REMARK    1  A    between atoms: N5_5  and  C7_7 
REMARK    2  A    between atoms: C7_7  and  C10_9 
REMARK    3  A    between atoms: C10_9  and  O11_10 
REMARK    4  A    between atoms: C10_9  and  C12_11 
REMARK    5  A    between atoms: C10_9  and  C18_17 
REMARK    6  A    between atoms: C12_11  and  N13_12 
ROOT
ATOM      1  C10 ZIN A   1      18.974   1.561  10.481  0.00  0.00     0.134 C 
ENDROOT
BRANCH   1   2
ATOM      2  C7  ZIN A   1      17.852   1.090  11.408  0.00  0.00     0.225 C 
ATOM      3  C9  ZIN A   1      16.972   0.078  10.671  0.00  0.00     0.044 C 
BRANCH   2   4
ATOM      4  N5  ZIN A   1      18.436   0.455  12.599  0.00  0.00    -0.063 N 
ATOM      5  C4  ZIN A   1      17.952  -0.927  12.699  0.00  0.00     0.239 C 
ATOM      6  C3  ZIN A   1      18.685  -1.643  13.838  0.00  0.00     0.061 C 
ATOM      7  C2  ZIN A   1      18.517  -0.823  15.100  0.00  0.00    -0.086 C 
ATOM      8  C1  ZIN A   1      18.147  -1.380  16.227  0.00  0.00     0.014 C 
ATOM      9  C27 ZIN A   1      18.784   0.665  15.013  0.00  0.00     0.061 C 
ATOM     10  C26 ZIN A   1      18.048   1.217  13.791  0.00  0.00     0.239 C 
ATOM     11  H6  ZIN A   1      19.442   0.451  12.516  0.00  0.00     0.280 HD
ENDBRANCH   2   4
ENDBRANCH   1   2
BRANCH   1  12
ATOM     12  O11 ZIN A   1      20.232   1.417  11.143  0.00  0.00    -0.381 OA
ATOM     13  H37 ZIN A   1      20.877   0.890  10.652  0.00  0.00     0.211 HD
ENDBRANCH   1  12
BRANCH   1  14
ATOM     14  C12 ZIN A   1      18.753   3.031  10.119  0.00  0.00     0.197 C 
BRANCH  14  15
ATOM     15  N13 ZIN A   1      18.772   3.843  11.339  0.00  0.00    -0.259 N 
ATOM     16  N17 ZIN A   1      19.868   4.063  12.187  0.00  0.00    -0.165 NA
ATOM     17  C16 ZIN A   1      19.452   4.844  13.148  0.00  0.00     0.256 A 
ATOM     18  N15 ZIN A   1      18.161   5.116  12.956  0.00  0.00    -0.234 NA
ATOM     19  C14 ZIN A   1      17.739   4.520  11.871  0.00  0.00     0.230 A 
ENDBRANCH  14  15
ENDBRANCH   1  14
BRANCH   1  20
ATOM     20  C18 ZIN A   1      18.970   0.728   9.224  0.00  0.00     0.018 A 
ATOM     21  C24 ZIN A   1      19.545  -0.531   9.226  0.00  0.00     0.128 A 
ATOM     22  C23 ZIN A   1      19.538  -1.298   8.074  0.00  0.00     0.085 A 
ATOM     23  F25 ZIN A   1      20.105  -1.016  10.356  0.00  0.00    -0.205 F 
ATOM     24  C21 ZIN A   1      18.964  -0.799   6.917  0.00  0.00     0.119 A 
ATOM     25  C20 ZIN A   1      18.394   0.463   6.915  0.00  0.00     0.043 A 
ATOM     26  F22 ZIN A   1      18.960  -1.543   5.790  0.00  0.00    -0.206 F 
ATOM     27  C19 ZIN A   1      18.398   1.225   8.069  0.00  0.00     0.016 A 
ENDBRANCH   1  20
TORSDOF 6
ENDMDL
MODEL 8
REMARK VINA RESULT:      -7.3      2.506      3.454
REMARK  6 active torsions:
REMARK  status: ('A' for Active; 'I' for Inactive)
REMARK    1  A    between atoms: N5_5  and  C7_7 
REMARK    2  A    between atoms: C7_7  and  C10_9 
REMARK    3  A    between atoms: C10_9  and  O11_10 
REMARK    4  A    between atoms: C10_9  and  C12_11 
REMARK    5  A    between atoms: C10_9  and  C18_17 
REMARK    6  A    between atoms: C12_11  and  N13_12 
ROOT
ATOM      1  C10 ZIN A   1      18.817  -1.612   9.460  0.00  0.00     0.134 C 
ENDROOT
BRANCH   1   2
ATOM      2  C7  ZIN A   1      19.150  -0.729  10.664  0.00  0.00     0.225 C 
ATOM      3  C9  ZIN A   1      20.668  -0.556  10.765  0.00  0.00     0.044 C 
BRANCH   2   4
ATOM      4  N5  ZIN A   1      18.518   0.587  10.494  0.00  0.00    -0.063 N 
ATOM      5  C4  ZIN A   1      19.472   1.507   9.862  0.00  0.00     0.239 C 
ATOM      6  C3  ZIN A   1      18.765   2.825   9.531  0.00  0.00     0.061 C 
ATOM      7  C2  ZIN A   1      18.128   3.353  10.799  0.00  0.00    -0.086 C 
ATOM      8  C1  ZIN A   1      18.286   4.600  11.169  0.00  0.00     0.014 C 
ATOM      9  C27 ZIN A   1      17.309   2.387  11.629  0.00  0.00     0.061 C 
ATOM     10  C26 ZIN A   1      18.114   1.101  11.808  0.00  0.00     0.239 C 
ATOM     11  H6  ZIN A   1      17.704   0.493   9.906  0.00  0.00     0.280 HD
ENDBRANCH   2   4
ENDBRANCH   1   2
BRANCH   1  12
ATOM     12  O11 ZIN A   1      19.968  -1.733   8.623  0.00  0.00    -0.381 OA
ATOM     13  H37 ZIN A   1      20.057  -2.597   8.198  0.00  0.00     0.211 HD
ENDBRANCH   1  12
BRANCH   1  14
ATOM     14  C12 ZIN A   1      17.672  -0.981   8.665  0.00  0.00     0.197 C 
BRANCH  14  15
ATOM     15  N13 ZIN A   1      18.077  -0.826   7.265  0.00  0.00    -0.259 N 
ATOM     16  N17 ZIN A   1      18.346  -1.854   6.348  0.00  0.00    -0.165 NA
ATOM     17  C16 ZIN A   1      18.668  -1.279   5.220  0.00  0.00     0.256 A 
ATOM     18  N15 ZIN A   1      18.625   0.043   5.380  0.00  0.00    -0.234 NA
ATOM     19  C14 ZIN A   1      18.270   0.330   6.606  0.00  0.00     0.230 A 
ENDBRANCH  14  15
ENDBRANCH   1  14
BRANCH   1  20
ATOM     20  C18 ZIN A   1      18.400  -2.979   9.941  0.00  0.00     0.018 A 
ATOM     21  C24 ZIN A   1      17.487  -3.101  10.975  0.00  0.00     0.128 A 
ATOM     22  C23 ZIN A   1      17.101  -4.355  11.413  0.00  0.00     0.085 A 
ATOM     23  F25 ZIN A   1      16.966  -1.995  11.549  0.00  0.00    -0.205 F 
ATOM     24  C21 ZIN A   1      17.636  -5.488  10.824  0.00  0.00     0.119 A 
ATOM     25  C20 ZIN A   1      18.553  -5.364   9.793  0.00  0.00     0.043 A 
ATOM     26  F22 ZIN A   1      17.265  -6.714  11.253  0.00  0.00    -0.206 F 
ATOM     27  C19 ZIN A   1      18.934  -4.110   9.353  0.00  0.00     0.016 A 
ENDBRANCH   1  20
TORSDOF 6
ENDMDL
MODEL 9
REMARK VINA RESULT:      -6.9      1.793      2.544
REMARK  6 active torsions:
REMARK  status: ('A' for Active; 'I' for Inactive)
REMARK    1  A    between atoms: N5_5  and  C7_7 
REMARK    2  A    between atoms: C7_7  and  C10_9 
REMARK    3  A    between atoms: C10_9  and  O11_10 
REMARK    4  A    between atoms: C10_9  and  C12_11 
REMARK    5  A    between atoms: C10_9  and  C18_17 
REMARK    6  A    between atoms: C12_11  and  N13_12 
ROOT
ATOM      1  C10 ZIN A   1      19.485  -0.785  11.079  0.00  0.00     0.134 C 
ENDROOT
BRANCH   1   2
ATOM      2  C7  ZIN A   1      18.257  -0.510  11.948  0.00  0.00     0.225 C 
ATOM      3  C9  ZIN A   1      17.319  -1.719  11.903  0.00  0.00     0.044 C 
BRANCH   2   4
ATOM      4  N5  ZIN A   1      18.682  -0.272  13.335  0.00  0.00    -0.063 N 
ATOM      5  C4  ZIN A   1      18.293  -1.418  14.166  0.00  0.00     0.239 C 
ATOM      6  C3  ZIN A   1      18.881  -1.251  15.572  0.00  0.00     0.061 C 
ATOM      7  C2  ZIN A   1      18.445   0.095  16.111  0.00  0.00    -0.086 C 
ATOM      8  C1  ZIN A   1      17.936   0.211  17.313  0.00  0.00     0.014 C 
ATOM      9  C27 ZIN A   1      18.609   1.300  15.210  0.00  0.00     0.061 C 
ATOM     10  C26 ZIN A   1      18.046   0.953  13.831  0.00  0.00     0.239 C 
ATOM     11  H6  ZIN A   1      19.685  -0.164  13.363  0.00  0.00     0.280 HD
ENDBRANCH   2   4
ENDBRANCH   1   2
BRANCH   1  12
ATOM     12  O11 ZIN A   1      20.670  -0.605  11.857  0.00  0.00    -0.381 OA
ATOM     13  H37 ZIN A   1      20.505  -0.307  12.763  0.00  0.00     0.211 HD
ENDBRANCH   1  12
BRANCH   1  14
ATOM     14  C12 ZIN A   1      19.500   0.184   9.895  0.00  0.00     0.197 C 
BRANCH  14  15
ATOM     15  N13 ZIN A   1      19.269   1.548  10.377  0.00  0.00    -0.259 N 
ATOM     16  N17 ZIN A   1      20.003   2.228  11.362  0.00  0.00    -0.165 NA
ATOM     17  C16 ZIN A   1      19.466   3.413  11.482  0.00  0.00     0.256 A 
ATOM     18  N15 ZIN A   1      18.439   3.511  10.639  0.00  0.00    -0.234 NA
ATOM     19  C14 ZIN A   1      18.309   2.396   9.967  0.00  0.00     0.230 A 
ENDBRANCH  14  15
ENDBRANCH   1  14
BRANCH   1  20
ATOM     20  C18 ZIN A   1      19.432  -2.202  10.568  0.00  0.00     0.018 A 
ATOM     21  C24 ZIN A   1      19.884  -3.242  11.362  0.00  0.00     0.128 A 
ATOM     22  C23 ZIN A   1      19.831  -4.544  10.895  0.00  0.00     0.085 A 
ATOM     23  F25 ZIN A   1      20.367  -2.988  12.598  0.00  0.00    -0.205 F 
ATOM     24  C21 ZIN A   1      19.335  -4.804   9.628  0.00  0.00     0.119 A 
ATOM     25  C20 ZIN A   1      18.889  -3.761   8.833  0.00  0.00     0.043 A 
ATOM     26  F22 ZIN A   1      19.287  -6.072   9.168  0.00  0.00    -0.206 F 
ATOM     27  C19 ZIN A   1      18.938  -2.462   9.304  0.00  0.00     0.016 A 
ENDBRANCH   1  20
TORSDOF 6
ENDMDL
