MODEL 1
REMARK VINA RESULT:      -7.3      0.000      0.000
REMARK  4 active torsions:
REMARK  status: ('A' for Active; 'I' for Inactive)
REMARK    1  A    between atoms: O1_1  and  C2_2 
REMARK    2  A    between atoms: C5_5  and  C6_6 
REMARK    3  A    between atoms: C17_16  and  O18_17 
REMARK    4  A    between atoms: C19_18  and  O20_19 
ROOT
ATOM      1  C6  ZIN A   1      19.736  -1.586   8.997  0.00  0.00     0.078 C 
ATOM      2  C8  ZIN A   1      19.225  -1.246   7.606  0.00  0.00     0.246 C 
ATOM      3  N9  ZIN A   1      17.779  -1.339   7.511  0.00  0.00    -0.074 N 
ATOM      4  H10 ZIN A   1      17.508  -1.047   6.567  0.00  0.00     0.277 HD
ATOM      5  H11 ZIN A   1      17.461  -2.289   7.603  0.00  0.00     0.277 HD
ATOM      6  C12 ZIN A   1      17.080  -0.475   8.458  0.00  0.00     0.237 C 
ATOM      7  C13 ZIN A   1      17.875   0.810   8.666  0.00  0.00     0.068 C 
ATOM      8  C14 ZIN A   1      18.875   0.670   9.787  0.00  0.00    -0.025 A 
ATOM      9  C15 ZIN A   1      19.702  -0.414   9.941  0.00  0.00    -0.037 A 
ATOM     10  C16 ZIN A   1      20.583  -0.465  11.019  0.00  0.00     0.048 A 
ATOM     11  C17 ZIN A   1      20.642   0.568  11.935  0.00  0.00     0.101 A 
ATOM     12  C19 ZIN A   1      19.814   1.673  11.772  0.00  0.00     0.121 A 
ATOM     13  C21 ZIN A   1      18.939   1.720  10.702  0.00  0.00     0.076 A 
ATOM     14 Cl22 ZIN A   1      17.912   3.105  10.499  0.00  0.00    -0.081 Cl
ENDROOT
BRANCH   1  15
ATOM     15  C5  ZIN A   1      19.013  -2.760   9.595  0.00  0.00    -0.048 A 
ATOM     16  C4  ZIN A   1      18.223  -2.585  10.716  0.00  0.00     0.011 A 
ATOM     17  C3  ZIN A   1      17.557  -3.662  11.267  0.00  0.00     0.037 A 
ATOM     18  C2  ZIN A   1      17.681  -4.920  10.694  0.00  0.00     0.065 A 
ATOM     19  C24 ZIN A   1      18.478  -5.094   9.573  0.00  0.00     0.037 A 
ATOM     20  C23 ZIN A   1      19.139  -4.012   9.022  0.00  0.00     0.011 A 
BRANCH  18  21
ATOM     21  O1  ZIN A   1      17.027  -5.982  11.236  0.00  0.00    -0.361 OA
ATOM     22  H25 ZIN A   1      16.396  -5.743  11.928  0.00  0.00     0.217 HD
ENDBRANCH  18  21
ENDBRANCH   1  15
BRANCH  11  23
ATOM     23  O18 ZIN A   1      21.503   0.505  12.986  0.00  0.00    -0.358 OA
ATOM     24  H35 ZIN A   1      21.545   1.318  13.508  0.00  0.00     0.217 HD
ENDBRANCH  11  23
BRANCH  12  25
ATOM     25  O20 ZIN A   1      19.863   2.702  12.661  0.00  0.00    -0.356 OA
ATOM     26  H36 ZIN A   1      19.013   2.908  13.072  0.00  0.00     0.218 HD
ENDBRANCH  12  25
TORSDOF 4
ENDMDL
MODEL 2
REMARK VINA RESULT:      -7.1      3.314      4.588
REMARK  4 active torsions:
REMARK  status: ('A' for Active; 'I' for Inactive)
REMARK    1  A    between atoms: O1_1  and  C2_2 
REMARK    2  A    between atoms: C5_5  and  C6_6 
REMARK    3  A    between atoms: C17_16  and  O18_17 
REMARK    4  A    between atoms: C19_18  and  O20_19 
ROOT
ATOM      1  C6  ZIN A   1      19.787  -1.185  12.769  0.00  0.00     0.078 C 
ATOM      2  C8  ZIN A   1      19.644  -2.614  12.270  0.00  0.00     0.246 C 
ATOM      3  N9  ZIN A   1      18.276  -3.093  12.353  0.00  0.00    -0.074 N 
ATOM      4  H10 ZIN A   1      18.249  -4.036  11.953  0.00  0.00     0.277 HD
ATOM      5  H11 ZIN A   1      17.975  -3.195  13.308  0.00  0.00     0.277 HD
ATOM      6  C12 ZIN A   1      17.328  -2.271  11.606  0.00  0.00     0.237 C 
ATOM      7  C13 ZIN A   1      18.001  -1.719  10.353  0.00  0.00     0.068 C 
ATOM      8  C14 ZIN A   1      18.679  -0.400  10.622  0.00  0.00    -0.025 A 
ATOM      9  C15 ZIN A   1      19.473  -0.158  11.715  0.00  0.00    -0.037 A 
ATOM     10  C16 ZIN A   1      20.045   1.100  11.890  0.00  0.00     0.048 A 
ATOM     11  C17 ZIN A   1      19.832   2.110  10.971  0.00  0.00     0.101 A 
ATOM     12  C19 ZIN A   1      19.040   1.862   9.855  0.00  0.00     0.121 A 
ATOM     13  C21 ZIN A   1      18.471   0.613   9.686  0.00  0.00     0.076 A 
ATOM     14 Cl22 ZIN A   1      17.488   0.305   8.287  0.00  0.00    -0.081 Cl
ENDROOT
BRANCH   1  15
ATOM     15  C5  ZIN A   1      18.972  -0.933  14.005  0.00  0.00    -0.048 A 
ATOM     16  C4  ZIN A   1      17.972   0.021  13.989  0.00  0.00     0.011 A 
ATOM     17  C3  ZIN A   1      17.220   0.255  15.124  0.00  0.00     0.037 A 
ATOM     18  C2  ZIN A   1      17.470  -0.468  16.281  0.00  0.00     0.065 A 
ATOM     19  C24 ZIN A   1      18.478  -1.421  16.297  0.00  0.00     0.037 A 
ATOM     20  C23 ZIN A   1      19.224  -1.655  15.157  0.00  0.00     0.011 A 
BRANCH  18  21
ATOM     21  O1  ZIN A   1      16.732  -0.239  17.399  0.00  0.00    -0.361 OA
ATOM     22  H25 ZIN A   1      17.058   0.490  17.943  0.00  0.00     0.217 HD
ENDBRANCH  18  21
ENDBRANCH   1  15
BRANCH  11  23
ATOM     23  O18 ZIN A   1      20.392   3.335  11.155  0.00  0.00    -0.358 OA
ATOM     24  H35 ZIN A   1      19.991   4.035  10.622  0.00  0.00     0.217 HD
ENDBRANCH  11  23
BRANCH  12  25
ATOM     25  O20 ZIN A   1      18.824   2.842   8.937  0.00  0.00    -0.356 OA
ATOM     26  H36 ZIN A   1      18.849   3.737   9.303  0.00  0.00     0.218 HD
ENDBRANCH  12  25
TORSDOF 4
ENDMDL
MODEL 3
REMARK VINA RESULT:      -7.1      3.169      6.225
REMARK  4 active torsions:
REMARK  status: ('A' for Active; 'I' for Inactive)
REMARK    1  A    between atoms: O1_1  and  C2_2 
REMARK    2  A    between atoms: C5_5  and  C6_6 
REMARK    3  A    between atoms: C17_16  and  O18_17 
REMARK    4  A    between atoms: C19_18  and  O20_19 
ROOT
ATOM      1  C6  ZIN A   1      20.096   0.668  11.540  0.00  0.00     0.078 C 
ATOM      2  C8  ZIN A   1      20.312   0.298  12.998  0.00  0.00     0.246 C 
ATOM      3  N9  ZIN A   1      19.141   0.562  13.815  0.00  0.00    -0.074 N 
ATOM      4  H10 ZIN A   1      19.344   0.240  14.767  0.00  0.00     0.277 HD
ATOM      5  H11 ZIN A   1      18.959   1.548  13.895  0.00  0.00     0.277 HD
ATOM      6  C12 ZIN A   1      17.946  -0.141  13.357  0.00  0.00     0.237 C 
ATOM      7  C13 ZIN A   1      18.336  -1.497  12.777  0.00  0.00     0.068 C 
ATOM      8  C14 ZIN A   1      18.643  -1.403  11.304  0.00  0.00    -0.025 A 
ATOM      9  C15 ZIN A   1      19.425  -0.422  10.748  0.00  0.00    -0.037 A 
ATOM     10  C16 ZIN A   1      19.640  -0.405   9.371  0.00  0.00     0.048 A 
ATOM     11  C17 ZIN A   1      19.082  -1.371   8.556  0.00  0.00     0.101 A 
ATOM     12  C19 ZIN A   1      18.301  -2.374   9.119  0.00  0.00     0.121 A 
ATOM     13  C21 ZIN A   1      18.088  -2.386  10.486  0.00  0.00     0.076 A 
ATOM     14 Cl22 ZIN A   1      17.118  -3.645  11.187  0.00  0.00    -0.081 Cl
ENDROOT
BRANCH   1  15
ATOM     15  C5  ZIN A   1      19.346   1.961  11.390  0.00  0.00    -0.048 A 
ATOM     16  C4  ZIN A   1      19.833   3.113  11.978  0.00  0.00     0.011 A 
ATOM     17  C3  ZIN A   1      19.146   4.303  11.842  0.00  0.00     0.037 A 
ATOM     18  C2  ZIN A   1      17.965   4.342  11.114  0.00  0.00     0.065 A 
ATOM     19  C24 ZIN A   1      17.475   3.183  10.529  0.00  0.00     0.037 A 
ATOM     20  C23 ZIN A   1      18.169   1.996  10.664  0.00  0.00     0.011 A 
BRANCH  18  21
ATOM     21  O1  ZIN A   1      17.287   5.512  10.979  0.00  0.00    -0.361 OA
ATOM     22  H25 ZIN A   1      16.496   5.447  10.427  0.00  0.00     0.217 HD
ENDBRANCH  18  21
ENDBRANCH   1  15
BRANCH  11  23
ATOM     23  O18 ZIN A   1      19.295  -1.341   7.213  0.00  0.00    -0.358 OA
ATOM     24  H35 ZIN A   1      19.351  -0.449   6.843  0.00  0.00     0.217 HD
ENDBRANCH  11  23
BRANCH  12  25
ATOM     25  O20 ZIN A   1      17.750  -3.336   8.332  0.00  0.00    -0.356 OA
ATOM     26  H36 ZIN A   1      18.283  -4.139   8.259  0.00  0.00     0.218 HD
ENDBRANCH  12  25
TORSDOF 4
ENDMDL
MODEL 4
REMARK VINA RESULT:      -7.0      3.244      4.450
REMARK  4 active torsions:
REMARK  status: ('A' for Active; 'I' for Inactive)
REMARK    1  A    between atoms: O1_1  and  C2_2 
REMARK    2  A    between atoms: C5_5  and  C6_6 
REMARK    3  A    between atoms: C17_16  and  O18_17 
REMARK    4  A    between atoms: C19_18  and  O20_19 
ROOT
ATOM      1  C6  ZIN A   1      19.712   1.336  10.174  0.00  0.00     0.078 C 
ATOM      2  C8  ZIN A   1      19.612   2.841  10.370  0.00  0.00     0.246 C 
ATOM      3  N9  ZIN A   1      18.262   3.335  10.172  0.00  0.00    -0.074 N 
ATOM      4  H10 ZIN A   1      18.263   4.340  10.371  0.00  0.00     0.277 HD
ATOM      5  H11 ZIN A   1      17.972   3.249   9.212  0.00  0.00     0.277 HD
ATOM      6  C12 ZIN A   1      17.282   2.711  11.057  0.00  0.00     0.237 C 
ATOM      7  C13 ZIN A   1      17.926   2.406  12.405  0.00  0.00     0.068 C 
ATOM      8  C14 ZIN A   1      18.563   1.039  12.420  0.00  0.00    -0.025 A 
ATOM      9  C15 ZIN A   1      19.356   0.556  11.410  0.00  0.00    -0.037 A 
ATOM     10  C16 ZIN A   1      19.888  -0.729  11.503  0.00  0.00     0.048 A 
ATOM     11  C17 ZIN A   1      19.634  -1.523  12.605  0.00  0.00     0.101 A 
ATOM     12  C19 ZIN A   1      18.843  -1.029  13.635  0.00  0.00     0.121 A 
ATOM     13  C21 ZIN A   1      18.314   0.245  13.539  0.00  0.00     0.076 A 
ATOM     14 Cl22 ZIN A   1      17.332   0.862  14.832  0.00  0.00    -0.081 Cl
ENDROOT
BRANCH   1  15
ATOM     15  C5  ZIN A   1      18.898   0.863   9.003  0.00  0.00    -0.048 A 
ATOM     16  C4  ZIN A   1      17.852  -0.019   9.203  0.00  0.00     0.011 A 
ATOM     17  C3  ZIN A   1      17.102  -0.455   8.128  0.00  0.00     0.037 A 
ATOM     18  C2  ZIN A   1      17.399  -0.009   6.848  0.00  0.00     0.065 A 
ATOM     19  C24 ZIN A   1      18.453   0.872   6.651  0.00  0.00     0.037 A 
ATOM     20  C23 ZIN A   1      19.198   1.309   7.730  0.00  0.00     0.011 A 
BRANCH  18  21
ATOM     21  O1  ZIN A   1      16.662  -0.438   5.790  0.00  0.00    -0.361 OA
ATOM     22  H25 ZIN A   1      15.804  -0.002   5.706  0.00  0.00     0.217 HD
ENDBRANCH  18  21
ENDBRANCH   1  15
BRANCH  11  23
ATOM     23  O18 ZIN A   1      20.156  -2.777  12.681  0.00  0.00    -0.358 OA
ATOM     24  H35 ZIN A   1      19.705  -3.352  13.315  0.00  0.00     0.217 HD
ENDBRANCH  11  23
BRANCH  12  25
ATOM     25  O20 ZIN A   1      18.588  -1.794  14.730  0.00  0.00    -0.356 OA
ATOM     26  H36 ZIN A   1      19.308  -2.396  14.966  0.00  0.00     0.218 HD
ENDBRANCH  12  25
TORSDOF 4
ENDMDL
MODEL 5
REMARK VINA RESULT:      -6.9      1.606      2.129
REMARK  4 active torsions:
REMARK  status: ('A' for Active; 'I' for Inactive)
REMARK    1  A    between atoms: O1_1  and  C2_2 
REMARK    2  A    between atoms: C5_5  and  C6_6 
REMARK    3  A    between atoms: C17_16  and  O18_17 
REMARK    4  A    between atoms: C19_18  and  O20_19 
ROOT
ATOM      1  C6  ZIN A   1      20.132  -0.613  10.902  0.00  0.00     0.078 C 
ATOM      2  C8  ZIN A   1      20.293  -0.406   9.404  0.00  0.00     0.246 C 
ATOM      3  N9  ZIN A   1      19.092  -0.754   8.666  0.00  0.00    -0.074 N 
ATOM      4  H10 ZIN A   1      19.258  -0.540   7.678  0.00  0.00     0.277 HD
ATOM      5  H11 ZIN A   1      18.908  -1.743   8.702  0.00  0.00     0.277 HD
ATOM      6  C12 ZIN A   1      17.915  -0.001   9.089  0.00  0.00     0.237 C 
ATOM      7  C13 ZIN A   1      18.325   1.409   9.501  0.00  0.00     0.068 C 
ATOM      8  C14 ZIN A   1      18.688   1.476  10.963  0.00  0.00    -0.025 A 
ATOM      9  C15 ZIN A   1      19.491   0.559  11.594  0.00  0.00    -0.037 A 
ATOM     10  C16 ZIN A   1      19.758   0.693  12.955  0.00  0.00     0.048 A 
ATOM     11  C17 ZIN A   1      19.231   1.745  13.680  0.00  0.00     0.101 A 
ATOM     12  C19 ZIN A   1      18.429   2.682  13.040  0.00  0.00     0.121 A 
ATOM     13  C21 ZIN A   1      18.164   2.545  11.689  0.00  0.00     0.076 A 
ATOM     14 Cl22 ZIN A   1      17.167   3.723  10.891  0.00  0.00    -0.081 Cl
ENDROOT
BRANCH   1  15
ATOM     15  C5  ZIN A   1      19.389  -1.879  11.221  0.00  0.00    -0.048 A 
ATOM     16  C4  ZIN A   1      20.039  -3.097  11.147  0.00  0.00     0.011 A 
ATOM     17  C3  ZIN A   1      19.359  -4.263  11.440  0.00  0.00     0.037 A 
ATOM     18  C2  ZIN A   1      18.021  -4.211  11.808  0.00  0.00     0.065 A 
ATOM     19  C24 ZIN A   1      17.371  -2.988  11.876  0.00  0.00     0.037 A 
ATOM     20  C23 ZIN A   1      18.057  -1.824  11.587  0.00  0.00     0.011 A 
BRANCH  18  21
ATOM     21  O1  ZIN A   1      17.350  -5.357  12.097  0.00  0.00    -0.361 OA
ATOM     22  H25 ZIN A   1      17.819  -6.162  11.840  0.00  0.00     0.217 HD
ENDBRANCH  18  21
ENDBRANCH   1  15
BRANCH  11  23
ATOM     23  O18 ZIN A   1      19.496   1.862  15.009  0.00  0.00    -0.358 OA
ATOM     24  H35 ZIN A   1      19.060   2.615  15.432  0.00  0.00     0.217 HD
ENDBRANCH  11  23
BRANCH  12  25
ATOM     25  O20 ZIN A   1      17.907   3.727  13.737  0.00  0.00    -0.356 OA
ATOM     26  H36 ZIN A   1      17.290   4.271  13.228  0.00  0.00     0.218 HD
ENDBRANCH  12  25
TORSDOF 4
ENDMDL
MODEL 6
REMARK VINA RESULT:      -6.8      3.170      4.609
REMARK  4 active torsions:
REMARK  status: ('A' for Active; 'I' for Inactive)
REMARK    1  A    between atoms: O1_1  and  C2_2 
REMARK    2  A    between atoms: C5_5  and  C6_6 
REMARK    3  A    between atoms: C17_16  and  O18_17 
REMARK    4  A    between atoms: C19_18  and  O20_19 
ROOT
ATOM      1  C6  ZIN A   1      17.155  -0.058   9.929  0.00  0.00     0.078 C 
ATOM      2  C8  ZIN A   1      17.149  -1.548  10.232  0.00  0.00     0.246 C 
ATOM      3  N9  ZIN A   1      18.400  -2.190   9.870  0.00  0.00    -0.074 N 
ATOM      4  H10 ZIN A   1      18.341  -3.174  10.150  0.00  0.00     0.277 HD
ATOM      5  H11 ZIN A   1      18.537  -2.200   8.873  0.00  0.00     0.277 HD
ATOM      6  C12 ZIN A   1      19.562  -1.611  10.538  0.00  0.00     0.237 C 
ATOM      7  C13 ZIN A   1      19.175  -1.150  11.939  0.00  0.00     0.068 C 
ATOM      8  C14 ZIN A   1      18.675   0.273  11.938  0.00  0.00    -0.025 A 
ATOM      9  C15 ZIN A   1      17.775   0.765  11.025  0.00  0.00    -0.037 A 
ATOM     10  C16 ZIN A   1      17.383   2.100  11.091  0.00  0.00     0.048 A 
ATOM     11  C17 ZIN A   1      17.882   2.937  12.071  0.00  0.00     0.101 A 
ATOM     12  C19 ZIN A   1      18.782   2.437  13.004  0.00  0.00     0.121 A 
ATOM     13  C21 ZIN A   1      19.171   1.111  12.934  0.00  0.00     0.076 A 
ATOM     14 Cl22 ZIN A   1      20.291   0.488  14.107  0.00  0.00    -0.081 Cl
ENDROOT
BRANCH   1  15
ATOM     15  C5  ZIN A   1      17.807   0.248   8.611  0.00  0.00    -0.048 A 
ATOM     16  C4  ZIN A   1      18.902   1.092   8.564  0.00  0.00     0.011 A 
ATOM     17  C3  ZIN A   1      19.504   1.376   7.354  0.00  0.00     0.037 A 
ATOM     18  C2  ZIN A   1      19.010   0.813   6.185  0.00  0.00     0.065 A 
ATOM     19  C24 ZIN A   1      17.909  -0.028   6.235  0.00  0.00     0.037 A 
ATOM     20  C23 ZIN A   1      17.312  -0.313   7.449  0.00  0.00     0.011 A 
BRANCH  18  21
ATOM     21  O1  ZIN A   1      19.601   1.092   4.993  0.00  0.00    -0.361 OA
ATOM     22  H25 ZIN A   1      20.554   1.241   5.052  0.00  0.00     0.217 HD
ENDBRANCH  18  21
ENDBRANCH   1  15
BRANCH  11  23
ATOM     23  O18 ZIN A   1      17.495   4.240  12.122  0.00  0.00    -0.358 OA
ATOM     24  H35 ZIN A   1      18.085   4.844  11.650  0.00  0.00     0.217 HD
ENDBRANCH  11  23
BRANCH  12  25
ATOM     25  O20 ZIN A   1      19.279   3.245  13.979  0.00  0.00    -0.356 OA
ATOM     26  H36 ZIN A   1      19.547   4.120  13.666  0.00  0.00     0.218 HD
ENDBRANCH  12  25
TORSDOF 4
ENDMDL
MODEL 7
REMARK VINA RESULT:      -6.8      2.524      3.019
REMARK  4 active torsions:
REMARK  status: ('A' for Active; 'I' for Inactive)
REMARK    1  A    between atoms: O1_1  and  C2_2 
REMARK    2  A    between atoms: C5_5  and  C6_6 
REMARK    3  A    between atoms: C17_16  and  O18_17 
REMARK    4  A    between atoms: C19_18  and  O20_19 
ROOT
ATOM      1  C6  ZIN A   1      20.024  -2.088  11.880  0.00  0.00     0.078 C 
ATOM      2  C8  ZIN A   1      20.714  -1.336  10.754  0.00  0.00     0.246 C 
ATOM      3  N9  ZIN A   1      19.838  -1.116   9.617  0.00  0.00    -0.074 N 
ATOM      4  H10 ZIN A   1      20.353  -0.562   8.926  0.00  0.00     0.277 HD
ATOM      5  H11 ZIN A   1      19.606  -1.979   9.154  0.00  0.00     0.277 HD
ATOM      6  C12 ZIN A   1      18.624  -0.379   9.957  0.00  0.00     0.237 C 
ATOM      7  C13 ZIN A   1      18.928   0.638  11.052  0.00  0.00     0.068 C 
ATOM      8  C14 ZIN A   1      18.752   0.043  12.427  0.00  0.00    -0.025 A 
ATOM      9  C15 ZIN A   1      19.235  -1.188  12.793  0.00  0.00    -0.037 A 
ATOM     10  C16 ZIN A   1      19.009  -1.664  14.083  0.00  0.00     0.048 A 
ATOM     11  C17 ZIN A   1      18.309  -0.909  15.004  0.00  0.00     0.101 A 
ATOM     12  C19 ZIN A   1      17.832   0.345  14.639  0.00  0.00     0.121 A 
ATOM     13  C21 ZIN A   1      18.056   0.813  13.357  0.00  0.00     0.076 A 
ATOM     14 Cl22 ZIN A   1      17.464   2.383  12.906  0.00  0.00    -0.081 Cl
ENDROOT
BRANCH   1  15
ATOM     15  C5  ZIN A   1      19.157  -3.203  11.368  0.00  0.00    -0.048 A 
ATOM     16  C4  ZIN A   1      19.719  -4.235  10.641  0.00  0.00     0.011 A 
ATOM     17  C3  ZIN A   1      18.925  -5.262  10.169  0.00  0.00     0.037 A 
ATOM     18  C2  ZIN A   1      17.561  -5.256  10.424  0.00  0.00     0.065 A 
ATOM     19  C24 ZIN A   1      16.998  -4.215  11.149  0.00  0.00     0.037 A 
ATOM     20  C23 ZIN A   1      17.798  -3.193  11.624  0.00  0.00     0.011 A 
BRANCH  18  21
ATOM     21  O1  ZIN A   1      16.777  -6.264   9.960  0.00  0.00    -0.361 OA
ATOM     22  H25 ZIN A   1      16.507  -6.897  10.639  0.00  0.00     0.217 HD
ENDBRANCH  18  21
ENDBRANCH   1  15
BRANCH  11  23
ATOM     23  O18 ZIN A   1      18.091  -1.387  16.259  0.00  0.00    -0.358 OA
ATOM     24  H35 ZIN A   1      18.023  -0.698  16.935  0.00  0.00     0.217 HD
ENDBRANCH  11  23
BRANCH  12  25
ATOM     25  O20 ZIN A   1      17.147   1.104  15.535  0.00  0.00    -0.356 OA
ATOM     26  H36 ZIN A   1      16.286   1.409  15.216  0.00  0.00     0.218 HD
ENDBRANCH  12  25
TORSDOF 4
ENDMDL
MODEL 8
REMARK VINA RESULT:      -6.6      2.574      3.432
REMARK  4 active torsions:
REMARK  status: ('A' for Active; 'I' for Inactive)
REMARK    1  A    between atoms: O1_1  and  C2_2 
REMARK    2  A    between atoms: C5_5  and  C6_6 
REMARK    3  A    between atoms: C17_16  and  O18_17 
REMARK    4  A    between atoms: C19_18  and  O20_19 
ROOT
ATOM      1  C6  ZIN A   1      20.212  -0.135  12.684  0.00  0.00     0.078 C 
ATOM      2  C8  ZIN A   1      21.104   0.240  11.511  0.00  0.00     0.246 C 
ATOM      3  N9  ZIN A   1      20.377   0.276  10.255  0.00  0.00    -0.074 N 
ATOM      4  H10 ZIN A   1      21.027   0.585   9.525  0.00  0.00     0.277 HD
ATOM      5  H11 ZIN A   1      20.073  -0.642   9.975  0.00  0.00     0.277 HD
ATOM      6  C12 ZIN A   1      19.251   1.205  10.264  0.00  0.00     0.237 C 
ATOM      7  C13 ZIN A   1      19.588   2.415  11.128  0.00  0.00     0.068 C 
ATOM      8  C14 ZIN A   1      19.203   2.193  12.569  0.00  0.00    -0.025 A 
ATOM      9  C15 ZIN A   1      19.474   1.041  13.263  0.00  0.00    -0.037 A 
ATOM     10  C16 ZIN A   1      19.063   0.919  14.589  0.00  0.00     0.048 A 
ATOM     11  C17 ZIN A   1      18.391   1.948  15.220  0.00  0.00     0.101 A 
ATOM     12  C19 ZIN A   1      18.128   3.121  14.523  0.00  0.00     0.121 A 
ATOM     13  C21 ZIN A   1      18.535   3.239  13.206  0.00  0.00     0.076 A 
ATOM     14 Cl22 ZIN A   1      18.211   4.709  12.340  0.00  0.00    -0.081 Cl
ENDROOT
BRANCH   1  15
ATOM     15  C5  ZIN A   1      19.252  -1.236  12.335  0.00  0.00    -0.048 A 
ATOM     16  C4  ZIN A   1      17.907  -0.954  12.179  0.00  0.00     0.011 A 
ATOM     17  C3  ZIN A   1      17.022  -1.964  11.857  0.00  0.00     0.037 A 
ATOM     18  C2  ZIN A   1      17.482  -3.263  11.692  0.00  0.00     0.065 A 
ATOM     19  C24 ZIN A   1      18.831  -3.544  11.854  0.00  0.00     0.037 A 
ATOM     20  C23 ZIN A   1      19.714  -2.529  12.171  0.00  0.00     0.011 A 
BRANCH  18  21
ATOM     21  O1  ZIN A   1      16.612  -4.258  11.376  0.00  0.00    -0.361 OA
ATOM     22  H25 ZIN A   1      16.075  -4.562  12.120  0.00  0.00     0.217 HD
ENDBRANCH  18  21
ENDBRANCH   1  15
BRANCH  11  23
ATOM     23  O18 ZIN A   1      17.991   1.815  16.513  0.00  0.00    -0.358 OA
ATOM     24  H35 ZIN A   1      18.309   1.008  16.942  0.00  0.00     0.217 HD
ENDBRANCH  11  23
BRANCH  12  25
ATOM     25  O20 ZIN A   1      17.473   4.147  15.130  0.00  0.00    -0.356 OA
ATOM     26  H36 ZIN A   1      17.421   4.066  16.093  0.00  0.00     0.218 HD
ENDBRANCH  12  25
TORSDOF 4
ENDMDL
MODEL 9
REMARK VINA RESULT:      -6.6      3.185      4.463
REMARK  4 active torsions:
REMARK  status: ('A' for Active; 'I' for Inactive)
REMARK    1  A    between atoms: O1_1  and  C2_2 
REMARK    2  A    between atoms: C5_5  and  C6_6 
REMARK    3  A    between atoms: C17_16  and  O18_17 
REMARK    4  A    between atoms: C19_18  and  O20_19 
ROOT
ATOM      1  C6  ZIN A   1      19.676   2.007  12.264  0.00  0.00     0.078 C 
ATOM      2  C8  ZIN A   1      20.062   2.671  10.951  0.00  0.00     0.246 C 
ATOM      3  N9  ZIN A   1      19.021   2.551   9.946  0.00  0.00    -0.074 N 
ATOM      4  H10 ZIN A   1      19.329   3.064   9.113  0.00  0.00     0.277 HD
ATOM      5  H11 ZIN A   1      18.900   1.598   9.648  0.00  0.00     0.277 HD
ATOM      6  C12 ZIN A   1      17.743   3.120  10.366  0.00  0.00     0.237 C 
ATOM      7  C13 ZIN A   1      17.987   4.338  11.251  0.00  0.00     0.068 C 
ATOM      8  C14 ZIN A   1      18.105   3.954  12.704  0.00  0.00    -0.025 A 
ATOM      9  C15 ZIN A   1      18.855   2.898  13.156  0.00  0.00    -0.037 A 
ATOM     10  C16 ZIN A   1      18.891   2.607  14.519  0.00  0.00     0.048 A 
ATOM     11  C17 ZIN A   1      18.185   3.375  15.425  0.00  0.00     0.101 A 
ATOM     12  C19 ZIN A   1      17.435   4.453  14.970  0.00  0.00     0.121 A 
ATOM     13  C21 ZIN A   1      17.400   4.738  13.617  0.00  0.00     0.076 A 
ATOM     14 Cl22 ZIN A   1      16.468   6.091  13.053  0.00  0.00    -0.081 Cl
ENDROOT
BRANCH   1  15
ATOM     15  C5  ZIN A   1      18.978   0.694  12.051  0.00  0.00    -0.048 A 
ATOM     16  C4  ZIN A   1      17.651   0.552  12.411  0.00  0.00     0.011 A 
ATOM     17  C3  ZIN A   1      17.007  -0.653  12.216  0.00  0.00     0.037 A 
ATOM     18  C2  ZIN A   1      17.692  -1.723  11.658  0.00  0.00     0.065 A 
ATOM     19  C24 ZIN A   1      19.025  -1.580  11.302  0.00  0.00     0.037 A 
ATOM     20  C23 ZIN A   1      19.664  -0.370  11.495  0.00  0.00     0.011 A 
BRANCH  18  21
ATOM     21  O1  ZIN A   1      17.059  -2.911  11.466  0.00  0.00    -0.361 OA
ATOM     22  H25 ZIN A   1      17.089  -3.501  12.231  0.00  0.00     0.217 HD
ENDBRANCH  18  21
ENDBRANCH   1  15
BRANCH  11  23
ATOM     23  O18 ZIN A   1      18.224   3.078  16.752  0.00  0.00    -0.358 OA
ATOM     24  H35 ZIN A   1      18.749   3.697  17.278  0.00  0.00     0.217 HD
ENDBRANCH  11  23
BRANCH  12  25
ATOM     25  O20 ZIN A   1      16.739   5.223  15.849  0.00  0.00    -0.356 OA
ATOM     26  H36 ZIN A   1      16.023   4.755  16.301  0.00  0.00     0.218 HD
ENDBRANCH  12  25
TORSDOF 4
ENDMDL
