MODEL 1
REMARK VINA RESULT:      -7.9      0.000      0.000
REMARK  6 active torsions:
REMARK  status: ('A' for Active; 'I' for Inactive)
REMARK    1  A    between atoms: C3_3  and  C4_4 
REMARK    2  A    between atoms: C4_4  and  C19_18 
REMARK    3  A    between atoms: C5_5  and  C6_6 
REMARK    4  A    between atoms: C6_6  and  C7_7 
REMARK    5  A    between atoms: C7_7  and  N8_8 
REMARK    6  A    between atoms: C13_13  and  C15_14 
ROOT
ATOM      1  C4  ZIN A   1      17.896  -0.378  10.472  0.00  0.00    -0.005 C 
ATOM      2  C5  ZIN A   1      17.098   0.279  11.331  0.00  0.00    -0.011 C 
ENDROOT
BRANCH   1   3
ATOM      3  C3  ZIN A   1      18.470  -1.686  10.849  0.00  0.00     0.022 A 
ATOM      4  C2  ZIN A   1      19.764  -1.911  11.156  0.00  0.00    -0.044 A 
ATOM      5  C1  ZIN A   1      20.802  -0.817  11.149  0.00  0.00     0.049 C 
ATOM      6  C27 ZIN A   1      20.064  -3.219  11.472  0.00  0.00     0.015 A 
ATOM      7  C26 ZIN A   1      19.027  -4.062  11.435  0.00  0.00     0.051 A 
ATOM      8  S25 ZIN A   1      17.571  -3.193  10.968  0.00  0.00    -0.101 SA
ENDBRANCH   1   3
BRANCH   1   9
ATOM      9  C19 ZIN A   1      18.198   0.208   9.150  0.00  0.00     0.022 A 
ATOM     10  S24 ZIN A   1      17.848  -0.545   7.599  0.00  0.00    -0.101 SA
ATOM     11  C23 ZIN A   1      18.527   0.831   6.741  0.00  0.00     0.051 A 
ATOM     12  C22 ZIN A   1      18.969   1.737   7.618  0.00  0.00     0.015 A 
ATOM     13  C20 ZIN A   1      18.791   1.402   8.944  0.00  0.00    -0.044 A 
ATOM     14  C21 ZIN A   1      19.226   2.299  10.074  0.00  0.00     0.049 C 
ENDBRANCH   1   9
BRANCH   2  15
ATOM     15  C6  ZIN A   1      16.883  -0.261  12.722  0.00  0.00     0.056 C 
BRANCH  15  16
ATOM     16  C7  ZIN A   1      17.565   0.658  13.737  0.00  0.00     0.238 C 
BRANCH  16  17
ATOM     17  N8  ZIN A   1      18.916   0.156  14.021  0.00  0.00    -0.070 N 
ATOM     18  H9  ZIN A   1      19.452   0.133  13.166  0.00  0.00     0.279 HD
ATOM     19  C18 ZIN A   1      19.575   1.048  14.984  0.00  0.00     0.250 C 
ATOM     20  C13 ZIN A   1      18.728   1.153  16.252  0.00  0.00     0.112 C 
ATOM     21  C12 ZIN A   1      18.571  -0.239  16.870  0.00  0.00     0.019 C 
ATOM     22  C11 ZIN A   1      17.950  -1.180  15.833  0.00  0.00     0.029 C 
ATOM     23  C10 ZIN A   1      18.827  -1.198  14.579  0.00  0.00     0.235 C 
BRANCH  20  24
ATOM     24  C15 ZIN A   1      19.406   2.068  17.238  0.00  0.00     0.178 C 
ATOM     25  O16 ZIN A   1      19.726   3.196  16.902  0.00  0.00    -0.648 OA
ATOM     26  O17 ZIN A   1      19.635   1.683  18.372  0.00  0.00    -0.648 OA
ENDBRANCH  20  24
ENDBRANCH  16  17
ENDBRANCH  15  16
ENDBRANCH   2  15
TORSDOF 6
ENDMDL
MODEL 2
REMARK VINA RESULT:      -7.7      4.423      7.650
REMARK  6 active torsions:
REMARK  status: ('A' for Active; 'I' for Inactive)
REMARK    1  A    between atoms: C3_3  and  C4_4 
REMARK    2  A    between atoms: C4_4  and  C19_18 
REMARK    3  A    between atoms: C5_5  and  C6_6 
REMARK    4  A    between atoms: C6_6  and  C7_7 
REMARK    5  A    between atoms: C7_7  and  N8_8 
REMARK    6  A    between atoms: C13_13  and  C15_14 
ROOT
ATOM      1  C4  ZIN A   1      17.836   0.523  12.486  0.00  0.00    -0.005 C 
ATOM      2  C5  ZIN A   1      17.117  -0.084  11.527  0.00  0.00    -0.011 C 
ENDROOT
BRANCH   1   3
ATOM      3  C3  ZIN A   1      18.464   1.834  12.221  0.00  0.00     0.022 A 
ATOM      4  C2  ZIN A   1      19.775   2.036  11.982  0.00  0.00    -0.044 A 
ATOM      5  C1  ZIN A   1      20.779   0.912  11.958  0.00  0.00     0.049 C 
ATOM      6  C27 ZIN A   1      20.126   3.352  11.768  0.00  0.00     0.015 A 
ATOM      7  C26 ZIN A   1      19.114   4.224  11.818  0.00  0.00     0.051 A 
ATOM      8  S25 ZIN A   1      17.615   3.373  12.168  0.00  0.00    -0.101 SA
ENDBRANCH   1   3
BRANCH   1   9
ATOM      9  C19 ZIN A   1      17.999  -0.121  13.807  0.00  0.00     0.022 A 
ATOM     10  S24 ZIN A   1      17.497   0.571  15.344  0.00  0.00    -0.101 SA
ATOM     11  C23 ZIN A   1      18.077  -0.846  16.208  0.00  0.00     0.051 A 
ATOM     12  C22 ZIN A   1      18.599  -1.720  15.343  0.00  0.00     0.015 A 
ATOM     13  C20 ZIN A   1      18.559  -1.329  14.021  0.00  0.00    -0.044 A 
ATOM     14  C21 ZIN A   1      19.102  -2.183  12.904  0.00  0.00     0.049 C 
ENDBRANCH   1   9
BRANCH   2  15
ATOM     15  C6  ZIN A   1      17.047   0.513  10.146  0.00  0.00     0.056 C 
BRANCH  15  16
ATOM     16  C7  ZIN A   1      17.609  -0.482   9.130  0.00  0.00     0.238 C 
BRANCH  16  17
ATOM     17  N8  ZIN A   1      19.055  -0.267   8.983  0.00  0.00    -0.070 N 
ATOM     18  H9  ZIN A   1      19.510  -0.431   9.868  0.00  0.00     0.279 HD
ATOM     19  C18 ZIN A   1      19.588  -1.201   7.982  0.00  0.00     0.250 C 
ATOM     20  C13 ZIN A   1      18.846  -1.014   6.658  0.00  0.00     0.112 C 
ATOM     21  C12 ZIN A   1      19.040   0.424   6.169  0.00  0.00     0.019 C 
ATOM     22  C11 ZIN A   1      18.549   1.390   7.251  0.00  0.00     0.029 C 
ATOM     23  C10 ZIN A   1      19.303   1.114   8.554  0.00  0.00     0.235 C 
BRANCH  20  24
ATOM     24  C15 ZIN A   1      19.395  -1.973   5.633  0.00  0.00     0.178 C 
ATOM     25  O16 ZIN A   1      19.552  -3.148   5.920  0.00  0.00    -0.648 OA
ATOM     26  O17 ZIN A   1      19.681  -1.575   4.517  0.00  0.00    -0.648 OA
ENDBRANCH  20  24
ENDBRANCH  16  17
ENDBRANCH  15  16
ENDBRANCH   2  15
TORSDOF 6
ENDMDL
MODEL 3
REMARK VINA RESULT:      -7.7      1.233      3.546
REMARK  6 active torsions:
REMARK  status: ('A' for Active; 'I' for Inactive)
REMARK    1  A    between atoms: C3_3  and  C4_4 
REMARK    2  A    between atoms: C4_4  and  C19_18 
REMARK    3  A    between atoms: C5_5  and  C6_6 
REMARK    4  A    between atoms: C6_6  and  C7_7 
REMARK    5  A    between atoms: C7_7  and  N8_8 
REMARK    6  A    between atoms: C13_13  and  C15_14 
ROOT
ATOM      1  C4  ZIN A   1      18.127  -2.007  10.506  0.00  0.00    -0.005 C 
ATOM      2  C5  ZIN A   1      17.558  -1.810  11.708  0.00  0.00    -0.011 C 
ENDROOT
BRANCH   1   3
ATOM      3  C3  ZIN A   1      18.464  -0.851   9.650  0.00  0.00     0.022 A 
ATOM      4  C2  ZIN A   1      19.604  -0.135   9.721  0.00  0.00    -0.044 A 
ATOM      5  C1  ZIN A   1      20.697  -0.443  10.713  0.00  0.00     0.049 C 
ATOM      6  C27 ZIN A   1      19.689   0.905   8.819  0.00  0.00     0.015 A 
ATOM      7  C26 ZIN A   1      18.636   1.038   8.007  0.00  0.00     0.051 A 
ATOM      8  S25 ZIN A   1      17.439  -0.197   8.379  0.00  0.00    -0.101 SA
ENDBRANCH   1   3
BRANCH   1   9
ATOM      9  C19 ZIN A   1      18.417  -3.380  10.042  0.00  0.00     0.022 A 
ATOM     10  S24 ZIN A   1      17.546  -4.228   8.771  0.00  0.00    -0.101 SA
ATOM     11  C23 ZIN A   1      18.571  -5.643   8.969  0.00  0.00     0.051 A 
ATOM     12  C22 ZIN A   1      19.465  -5.421   9.937  0.00  0.00     0.015 A 
ATOM     13  C20 ZIN A   1      19.387  -4.179  10.531  0.00  0.00    -0.044 A 
ATOM     14  C21 ZIN A   1      20.312  -3.749  11.641  0.00  0.00     0.049 C 
ENDBRANCH   1   9
BRANCH   2  15
ATOM     15  C6  ZIN A   1      17.155  -0.422  12.133  0.00  0.00     0.056 C 
BRANCH  15  16
ATOM     16  C7  ZIN A   1      17.493  -0.223  13.611  0.00  0.00     0.238 C 
BRANCH  16  17
ATOM     17  N8  ZIN A   1      18.947  -0.323  13.799  0.00  0.00    -0.070 N 
ATOM     18  H9  ZIN A   1      19.394  -0.433  12.902  0.00  0.00     0.279 HD
ATOM     19  C18 ZIN A   1      19.440   0.900  14.443  0.00  0.00     0.250 C 
ATOM     20  C13 ZIN A   1      18.707   1.117  15.768  0.00  0.00     0.112 C 
ATOM     21  C12 ZIN A   1      18.961  -0.081  16.687  0.00  0.00     0.019 C 
ATOM     22  C11 ZIN A   1      18.510  -1.361  15.976  0.00  0.00     0.029 C 
ATOM     23  C10 ZIN A   1      19.251  -1.485  14.642  0.00  0.00     0.235 C 
BRANCH  20  24
ATOM     24  C15 ZIN A   1      19.217   2.373  16.427  0.00  0.00     0.178 C 
ATOM     25  O16 ZIN A   1      19.630   2.335  17.574  0.00  0.00    -0.648 OA
ATOM     26  O17 ZIN A   1      19.217   3.426  15.814  0.00  0.00    -0.648 OA
ENDBRANCH  20  24
ENDBRANCH  16  17
ENDBRANCH  15  16
ENDBRANCH   2  15
TORSDOF 6
ENDMDL
MODEL 4
REMARK VINA RESULT:      -7.4      1.820      2.265
REMARK  6 active torsions:
REMARK  status: ('A' for Active; 'I' for Inactive)
REMARK    1  A    between atoms: C3_3  and  C4_4 
REMARK    2  A    between atoms: C4_4  and  C19_18 
REMARK    3  A    between atoms: C5_5  and  C6_6 
REMARK    4  A    between atoms: C6_6  and  C7_7 
REMARK    5  A    between atoms: C7_7  and  N8_8 
REMARK    6  A    between atoms: C13_13  and  C15_14 
ROOT
ATOM      1  C4  ZIN A   1      17.926  -0.483   9.887  0.00  0.00    -0.005 C 
ATOM      2  C5  ZIN A   1      17.093   0.259  10.636  0.00  0.00    -0.011 C 
ENDROOT
BRANCH   1   3
ATOM      3  C3  ZIN A   1      18.526  -1.712  10.445  0.00  0.00     0.022 A 
ATOM      4  C2  ZIN A   1      19.775  -1.815  10.940  0.00  0.00    -0.044 A 
ATOM      5  C1  ZIN A   1      20.731  -0.649  10.980  0.00  0.00     0.049 C 
ATOM      6  C27 ZIN A   1      20.113  -3.069  11.402  0.00  0.00     0.015 A 
ATOM      7  C26 ZIN A   1      19.149  -3.989  11.298  0.00  0.00     0.051 A 
ATOM      8  S25 ZIN A   1      17.718  -3.270  10.569  0.00  0.00    -0.101 SA
ENDBRANCH   1   3
BRANCH   1   9
ATOM      9  C19 ZIN A   1      18.241  -0.070   8.503  0.00  0.00     0.022 A 
ATOM     10  S24 ZIN A   1      17.977  -1.048   7.065  0.00  0.00    -0.101 SA
ATOM     11  C23 ZIN A   1      18.615   0.231   6.040  0.00  0.00     0.051 A 
ATOM     12  C22 ZIN A   1      18.983   1.272   6.792  0.00  0.00     0.015 A 
ATOM     13  C20 ZIN A   1      18.780   1.114   8.148  0.00  0.00    -0.044 A 
ATOM     14  C21 ZIN A   1      19.135   2.181   9.152  0.00  0.00     0.049 C 
ENDBRANCH   1   9
BRANCH   2  15
ATOM     15  C6  ZIN A   1      16.862  -0.096  12.083  0.00  0.00     0.056 C 
BRANCH  15  16
ATOM     16  C7  ZIN A   1      17.284   1.076  12.970  0.00  0.00     0.238 C 
BRANCH  16  17
ATOM     17  N8  ZIN A   1      18.751   1.133  13.041  0.00  0.00    -0.070 N 
ATOM     18  H9  ZIN A   1      19.144   0.538  12.328  0.00  0.00     0.279 HD
ATOM     19  C18 ZIN A   1      19.196   2.515  12.823  0.00  0.00     0.250 C 
ATOM     20  C13 ZIN A   1      18.539   3.436  13.851  0.00  0.00     0.112 C 
ATOM     21  C12 ZIN A   1      18.939   2.987  15.259  0.00  0.00     0.019 C 
ATOM     22  C11 ZIN A   1      18.535   1.522  15.451  0.00  0.00     0.029 C 
ATOM     23  C10 ZIN A   1      19.193   0.671  14.362  0.00  0.00     0.235 C 
BRANCH  20  24
ATOM     24  C15 ZIN A   1      18.998   4.853  13.625  0.00  0.00     0.178 C 
ATOM     25  O16 ZIN A   1      19.993   5.072  12.953  0.00  0.00    -0.648 OA
ATOM     26  O17 ZIN A   1      18.376   5.782  14.112  0.00  0.00    -0.648 OA
ENDBRANCH  20  24
ENDBRANCH  16  17
ENDBRANCH  15  16
ENDBRANCH   2  15
TORSDOF 6
ENDMDL
MODEL 5
REMARK VINA RESULT:      -7.4      4.486      6.930
REMARK  6 active torsions:
REMARK  status: ('A' for Active; 'I' for Inactive)
REMARK    1  A    between atoms: C3_3  and  C4_4 
REMARK    2  A    between atoms: C4_4  and  C19_18 
REMARK    3  A    between atoms: C5_5  and  C6_6 
REMARK    4  A    between atoms: C6_6  and  C7_7 
REMARK    5  A    between atoms: C7_7  and  N8_8 
REMARK    6  A    between atoms: C13_13  and  C15_14 
ROOT
ATOM      1  C4  ZIN A   1      18.285   2.085  12.704  0.00  0.00    -0.005 C 
ATOM      2  C5  ZIN A   1      17.743   1.999  11.477  0.00  0.00    -0.011 C 
ENDROOT
BRANCH   1   3
ATOM      3  C3  ZIN A   1      18.563   0.857  13.477  0.00  0.00     0.022 A 
ATOM      4  C2  ZIN A   1      19.665   0.092  13.354  0.00  0.00    -0.044 A 
ATOM      5  C1  ZIN A   1      20.774   0.413  12.384  0.00  0.00     0.049 C 
ATOM      6  C27 ZIN A   1      19.698  -1.011  14.181  0.00  0.00     0.015 A 
ATOM      7  C26 ZIN A   1      18.638  -1.147  14.985  0.00  0.00     0.051 A 
ATOM      8  S25 ZIN A   1      17.505   0.168  14.701  0.00  0.00    -0.101 SA
ENDBRANCH   1   3
BRANCH   1   9
ATOM      9  C19 ZIN A   1      18.605   3.409  13.279  0.00  0.00     0.022 A 
ATOM     10  S24 ZIN A   1      17.756   4.165  14.622  0.00  0.00    -0.101 SA
ATOM     11  C23 ZIN A   1      18.809   5.572  14.536  0.00  0.00     0.051 A 
ATOM     12  C22 ZIN A   1      19.694   5.414  13.547  0.00  0.00     0.015 A 
ATOM     13  C20 ZIN A   1      19.588   4.227  12.852  0.00  0.00    -0.044 A 
ATOM     14  C21 ZIN A   1      20.499   3.873  11.704  0.00  0.00     0.049 C 
ENDBRANCH   1   9
BRANCH   2  15
ATOM     15  C6  ZIN A   1      17.310   0.661  10.937  0.00  0.00     0.056 C 
BRANCH  15  16
ATOM     16  C7  ZIN A   1      17.634   0.585   9.444  0.00  0.00     0.238 C 
BRANCH  16  17
ATOM     17  N8  ZIN A   1      19.091   0.621   9.256  0.00  0.00    -0.070 N 
ATOM     18  H9  ZIN A   1      19.537   0.828  10.137  0.00  0.00     0.279 HD
ATOM     19  C18 ZIN A   1      19.553  -0.684   8.769  0.00  0.00     0.250 C 
ATOM     20  C13 ZIN A   1      18.820  -1.041   7.476  0.00  0.00     0.112 C 
ATOM     21  C12 ZIN A   1      19.110   0.029   6.420  0.00  0.00     0.019 C 
ATOM     22  C11 ZIN A   1      18.692   1.398   6.966  0.00  0.00     0.029 C 
ATOM     23  C10 ZIN A   1      19.431   1.663   8.280  0.00  0.00     0.235 C 
BRANCH  20  24
ATOM     24  C15 ZIN A   1      19.297  -2.381   6.978  0.00  0.00     0.178 C 
ATOM     25  O16 ZIN A   1      19.202  -3.365   7.693  0.00  0.00    -0.648 OA
ATOM     26  O17 ZIN A   1      19.776  -2.483   5.862  0.00  0.00    -0.648 OA
ENDBRANCH  20  24
ENDBRANCH  16  17
ENDBRANCH  15  16
ENDBRANCH   2  15
TORSDOF 6
ENDMDL
MODEL 6
REMARK VINA RESULT:      -7.2      1.689      3.205
REMARK  6 active torsions:
REMARK  status: ('A' for Active; 'I' for Inactive)
REMARK    1  A    between atoms: C3_3  and  C4_4 
REMARK    2  A    between atoms: C4_4  and  C19_18 
REMARK    3  A    between atoms: C5_5  and  C6_6 
REMARK    4  A    between atoms: C6_6  and  C7_7 
REMARK    5  A    between atoms: C7_7  and  N8_8 
REMARK    6  A    between atoms: C13_13  and  C15_14 
ROOT
ATOM      1  C4  ZIN A   1      18.032  -0.108  11.257  0.00  0.00    -0.005 C 
ATOM      2  C5  ZIN A   1      17.342  -0.554  12.320  0.00  0.00    -0.011 C 
ENDROOT
BRANCH   1   3
ATOM      3  C3  ZIN A   1      18.561   1.271  11.245  0.00  0.00     0.022 A 
ATOM      4  C2  ZIN A   1      19.800   1.634  11.635  0.00  0.00    -0.044 A 
ATOM      5  C1  ZIN A   1      20.815   0.641  12.142  0.00  0.00     0.049 C 
ATOM      6  C27 ZIN A   1      20.064   2.984  11.539  0.00  0.00     0.015 A 
ATOM      7  C26 ZIN A   1      19.057   3.725  11.065  0.00  0.00     0.051 A 
ATOM      8  S25 ZIN A   1      17.673   2.695  10.720  0.00  0.00    -0.101 SA
ENDBRANCH   1   3
BRANCH   1   9
ATOM      9  C19 ZIN A   1      18.261  -0.997  10.099  0.00  0.00     0.022 A 
ATOM     10  S24 ZIN A   1      17.675  -0.710   8.465  0.00  0.00    -0.101 SA
ATOM     11  C23 ZIN A   1      18.416  -2.203   7.903  0.00  0.00     0.051 A 
ATOM     12  C22 ZIN A   1      19.028  -2.815   8.922  0.00  0.00     0.015 A 
ATOM     13  C20 ZIN A   1      18.947  -2.158  10.132  0.00  0.00    -0.044 A 
ATOM     14  C21 ZIN A   1      19.576  -2.695  11.392  0.00  0.00     0.049 C 
ENDBRANCH   1   9
BRANCH   2  15
ATOM     15  C6  ZIN A   1      17.008   0.385  13.450  0.00  0.00     0.056 C 
BRANCH  15  16
ATOM     16  C7  ZIN A   1      17.512  -0.203  14.769  0.00  0.00     0.238 C 
BRANCH  16  17
ATOM     17  N8  ZIN A   1      18.950   0.067  14.908  0.00  0.00    -0.070 N 
ATOM     18  H9  ZIN A   1      19.325   0.351  14.016  0.00  0.00     0.279 HD
ATOM     19  C18 ZIN A   1      19.151   1.143  15.886  0.00  0.00     0.250 C 
ATOM     20  C13 ZIN A   1      18.513   0.753  17.220  0.00  0.00     0.112 C 
ATOM     21  C12 ZIN A   1      19.164  -0.532  17.735  0.00  0.00     0.019 C 
ATOM     22  C11 ZIN A   1      19.013  -1.629  16.676  0.00  0.00     0.029 C 
ATOM     23  C10 ZIN A   1      19.634  -1.150  15.361  0.00  0.00     0.235 C 
BRANCH  20  24
ATOM     24  C15 ZIN A   1      18.721   1.860  18.221  0.00  0.00     0.178 C 
ATOM     25  O16 ZIN A   1      17.810   2.630  18.477  0.00  0.00    -0.648 OA
ATOM     26  O17 ZIN A   1      19.799   1.985  18.777  0.00  0.00    -0.648 OA
ENDBRANCH  20  24
ENDBRANCH  16  17
ENDBRANCH  15  16
ENDBRANCH   2  15
TORSDOF 6
ENDMDL
MODEL 7
REMARK VINA RESULT:      -7.1      4.184      7.072
REMARK  6 active torsions:
REMARK  status: ('A' for Active; 'I' for Inactive)
REMARK    1  A    between atoms: C3_3  and  C4_4 
REMARK    2  A    between atoms: C4_4  and  C19_18 
REMARK    3  A    between atoms: C5_5  and  C6_6 
REMARK    4  A    between atoms: C6_6  and  C7_7 
REMARK    5  A    between atoms: C7_7  and  N8_8 
REMARK    6  A    between atoms: C13_13  and  C15_14 
ROOT
ATOM      1  C4  ZIN A   1      18.041  -0.379  12.064  0.00  0.00    -0.005 C 
ATOM      2  C5  ZIN A   1      17.273   0.201  11.126  0.00  0.00    -0.011 C 
ENDROOT
BRANCH   1   3
ATOM      3  C3  ZIN A   1      18.635  -1.709  11.815  0.00  0.00     0.022 A 
ATOM      4  C2  ZIN A   1      19.895  -1.933  11.393  0.00  0.00    -0.044 A 
ATOM      5  C1  ZIN A   1      20.871  -0.817  11.120  0.00  0.00     0.049 C 
ATOM      6  C27 ZIN A   1      20.220  -3.262  11.226  0.00  0.00     0.015 A 
ATOM      7  C26 ZIN A   1      19.242  -4.125  11.517  0.00  0.00     0.051 A 
ATOM      8  S25 ZIN A   1      17.805  -3.245  12.025  0.00  0.00    -0.101 SA
ENDBRANCH   1   3
BRANCH   1   9
ATOM      9  C19 ZIN A   1      18.293   0.315  13.345  0.00  0.00     0.022 A 
ATOM     10  S24 ZIN A   1      17.855  -0.296  14.935  0.00  0.00    -0.101 SA
ATOM     11  C23 ZIN A   1      18.527   1.135  15.705  0.00  0.00     0.051 A 
ATOM     12  C22 ZIN A   1      19.014   1.962  14.775  0.00  0.00     0.015 A 
ATOM     13  C20 ZIN A   1      18.889   1.518  13.475  0.00  0.00    -0.044 A 
ATOM     14  C21 ZIN A   1      19.379   2.315  12.293  0.00  0.00     0.049 C 
ENDBRANCH   1   9
BRANCH   2  15
ATOM     15  C6  ZIN A   1      16.921  -0.552   9.870  0.00  0.00     0.056 C 
BRANCH  15  16
ATOM     16  C7  ZIN A   1      17.422   0.224   8.651  0.00  0.00     0.238 C 
BRANCH  16  17
ATOM     17  N8  ZIN A   1      18.888   0.148   8.591  0.00  0.00    -0.070 N 
ATOM     18  H9  ZIN A   1      19.254  -0.012   9.518  0.00  0.00     0.279 HD
ATOM     19  C18 ZIN A   1      19.283  -0.961   7.714  0.00  0.00     0.250 C 
ATOM     20  C13 ZIN A   1      18.665  -0.766   6.329  0.00  0.00     0.112 C 
ATOM     21  C12 ZIN A   1      19.161   0.556   5.736  0.00  0.00     0.019 C 
ATOM     22  C11 ZIN A   1      18.809   1.697   6.694  0.00  0.00     0.029 C 
ATOM     23  C10 ZIN A   1      19.422   1.410   8.068  0.00  0.00     0.235 C 
BRANCH  20  24
ATOM     24  C15 ZIN A   1      19.073  -1.905   5.430  0.00  0.00     0.178 C 
ATOM     25  O16 ZIN A   1      18.765  -3.050   5.719  0.00  0.00    -0.648 OA
ATOM     26  O17 ZIN A   1      19.709  -1.684   4.414  0.00  0.00    -0.648 OA
ENDBRANCH  20  24
ENDBRANCH  16  17
ENDBRANCH  15  16
ENDBRANCH   2  15
TORSDOF 6
ENDMDL
MODEL 8
REMARK VINA RESULT:      -7.1      4.575      7.290
REMARK  6 active torsions:
REMARK  status: ('A' for Active; 'I' for Inactive)
REMARK    1  A    between atoms: C3_3  and  C4_4 
REMARK    2  A    between atoms: C4_4  and  C19_18 
REMARK    3  A    between atoms: C5_5  and  C6_6 
REMARK    4  A    between atoms: C6_6  and  C7_7 
REMARK    5  A    between atoms: C7_7  and  N8_8 
REMARK    6  A    between atoms: C13_13  and  C15_14 
ROOT
ATOM      1  C4  ZIN A   1      17.937   0.414  10.691  0.00  0.00    -0.005 C 
ATOM      2  C5  ZIN A   1      17.349   0.615   9.499  0.00  0.00    -0.011 C 
ENDROOT
BRANCH   1   3
ATOM      3  C3  ZIN A   1      18.446  -0.927  11.046  0.00  0.00     0.022 A 
ATOM      4  C2  ZIN A   1      19.726  -1.332  10.924  0.00  0.00    -0.044 A 
ATOM      5  C1  ZIN A   1      20.816  -0.434  10.395  0.00  0.00     0.049 C 
ATOM      6  C27 ZIN A   1      19.960  -2.633  11.317  0.00  0.00     0.015 A 
ATOM      7  C26 ZIN A   1      18.887  -3.290  11.767  0.00  0.00     0.051 A 
ATOM      8  S25 ZIN A   1      17.476  -2.241  11.696  0.00  0.00    -0.101 SA
ENDBRANCH   1   3
BRANCH   1   9
ATOM      9  C19 ZIN A   1      18.075   1.534  11.644  0.00  0.00     0.022 A 
ATOM     10  S24 ZIN A   1      17.894   1.412  13.390  0.00  0.00    -0.101 SA
ATOM     11  C23 ZIN A   1      18.223   3.129  13.577  0.00  0.00     0.051 A 
ATOM     12  C22 ZIN A   1      18.434   3.682  12.378  0.00  0.00     0.015 A 
ATOM     13  C20 ZIN A   1      18.355   2.811  11.311  0.00  0.00    -0.044 A 
ATOM     14  C21 ZIN A   1      18.563   3.252   9.885  0.00  0.00     0.049 C 
ENDBRANCH   1   9
BRANCH   2  15
ATOM     15  C6  ZIN A   1      17.103  -0.549   8.574  0.00  0.00     0.056 C 
BRANCH  15  16
ATOM     16  C7  ZIN A   1      17.425  -0.136   7.137  0.00  0.00     0.238 C 
BRANCH  16  17
ATOM     17  N8  ZIN A   1      18.883  -0.066   6.963  0.00  0.00    -0.070 N 
ATOM     18  H9  ZIN A   1      19.282   0.491   7.703  0.00  0.00     0.279 HD
ATOM     19  C18 ZIN A   1      19.446  -1.421   7.015  0.00  0.00     0.250 C 
ATOM     20  C13 ZIN A   1      18.786  -2.294   5.948  0.00  0.00     0.112 C 
ATOM     21  C12 ZIN A   1      19.046  -1.686   4.567  0.00  0.00     0.019 C 
ATOM     22  C11 ZIN A   1      18.520  -0.248   4.547  0.00  0.00     0.029 C 
ATOM     23  C10 ZIN A   1      19.191   0.550   5.668  0.00  0.00     0.235 C 
BRANCH  20  24
ATOM     24  C15 ZIN A   1      19.366  -3.684   6.004  0.00  0.00     0.178 C 
ATOM     25  O16 ZIN A   1      20.480  -3.861   6.469  0.00  0.00    -0.648 OA
ATOM     26  O17 ZIN A   1      18.723  -4.631   5.586  0.00  0.00    -0.648 OA
ENDBRANCH  20  24
ENDBRANCH  16  17
ENDBRANCH  15  16
ENDBRANCH   2  15
TORSDOF 6
ENDMDL
MODEL 9
REMARK VINA RESULT:      -6.9      3.981      7.021
REMARK  6 active torsions:
REMARK  status: ('A' for Active; 'I' for Inactive)
REMARK    1  A    between atoms: C3_3  and  C4_4 
REMARK    2  A    between atoms: C4_4  and  C19_18 
REMARK    3  A    between atoms: C5_5  and  C6_6 
REMARK    4  A    between atoms: C6_6  and  C7_7 
REMARK    5  A    between atoms: C7_7  and  N8_8 
REMARK    6  A    between atoms: C13_13  and  C15_14 
ROOT
ATOM      1  C4  ZIN A   1      18.168   1.028  14.086  0.00  0.00    -0.005 C 
ATOM      2  C5  ZIN A   1      17.332   0.121  13.553  0.00  0.00    -0.011 C 
ENDROOT
BRANCH   1   3
ATOM      3  C3  ZIN A   1      18.669   2.146  13.261  0.00  0.00     0.022 A 
ATOM      4  C2  ZIN A   1      19.787   2.119  12.507  0.00  0.00    -0.044 A 
ATOM      5  C1  ZIN A   1      20.678   0.906  12.420  0.00  0.00     0.049 C 
ATOM      6  C27 ZIN A   1      20.053   3.288  11.827  0.00  0.00     0.015 A 
ATOM      7  C26 ZIN A   1      19.159   4.265  12.010  0.00  0.00     0.051 A 
ATOM      8  S25 ZIN A   1      17.898   3.719  13.108  0.00  0.00    -0.101 SA
ENDBRANCH   1   3
BRANCH   1   9
ATOM      9  C19 ZIN A   1      18.586   0.906  15.499  0.00  0.00     0.022 A 
ATOM     10  S24 ZIN A   1      18.785   2.249  16.618  0.00  0.00    -0.101 SA
ATOM     11  C23 ZIN A   1      19.253   1.146  17.906  0.00  0.00     0.051 A 
ATOM     12  C22 ZIN A   1      19.245  -0.110  17.450  0.00  0.00     0.015 A 
ATOM     13  C20 ZIN A   1      18.878  -0.250  16.128  0.00  0.00    -0.044 A 
ATOM     14  C21 ZIN A   1      18.812  -1.589  15.440  0.00  0.00     0.049 C 
ENDBRANCH   1   9
BRANCH   2  15
ATOM     15  C6  ZIN A   1      16.997   0.176  12.085  0.00  0.00     0.056 C 
BRANCH  15  16
ATOM     16  C7  ZIN A   1      17.065  -1.233  11.493  0.00  0.00     0.238 C 
BRANCH  16  17
ATOM     17  N8  ZIN A   1      18.367  -1.835  11.811  0.00  0.00    -0.070 N 
ATOM     18  H9  ZIN A   1      18.786  -1.339  12.583  0.00  0.00     0.279 HD
ATOM     19  C18 ZIN A   1      18.176  -3.243  12.183  0.00  0.00     0.250 C 
ATOM     20  C13 ZIN A   1      17.467  -3.983  11.048  0.00  0.00     0.112 C 
ATOM     21  C12 ZIN A   1      18.323  -3.902   9.781  0.00  0.00     0.019 C 
ATOM     22  C11 ZIN A   1      18.578  -2.430   9.443  0.00  0.00     0.029 C 
ATOM     23  C10 ZIN A   1      19.246  -1.746  10.639  0.00  0.00     0.235 C 
BRANCH  20  24
ATOM     24  C15 ZIN A   1      17.272  -5.427  11.432  0.00  0.00     0.178 C 
ATOM     25  O16 ZIN A   1      17.007  -6.255  10.576  0.00  0.00    -0.648 OA
ATOM     26  O17 ZIN A   1      17.382  -5.769  12.597  0.00  0.00    -0.648 OA
ENDBRANCH  20  24
ENDBRANCH  16  17
ENDBRANCH  15  16
ENDBRANCH   2  15
TORSDOF 6
ENDMDL
