MODEL 1
REMARK VINA RESULT:      -7.8      0.000      0.000
REMARK  4 active torsions:
REMARK  status: ('A' for Active; 'I' for Inactive)
REMARK    1  A    between atoms: C5_5  and  O6_6 
REMARK    2  A    between atoms: C13_12  and  O14_13 
REMARK    3  A    between atoms: N20_19  and  C22_21 
REMARK    4  A    between atoms: C22_21  and  C23_22 
ROOT
ATOM      1  O1  ZIN A   1      19.676   0.075  14.630  0.00  0.00    -0.295 OA
ATOM      2  C2  ZIN A   1      19.376  -0.398  13.561  0.00  0.00     0.157 C 
ATOM      3  C3  ZIN A   1      18.101  -1.179  13.456  0.00  0.00     0.084 C 
ATOM      4  C4  ZIN A   1      17.384  -0.846  12.146  0.00  0.00     0.048 C 
ATOM      5  C5  ZIN A   1      18.330  -1.133  10.982  0.00  0.00     0.102 C 
ATOM      6  C7  ZIN A   1      17.631  -0.832   9.652  0.00  0.00     0.227 C 
ATOM      7  C9  ZIN A   1      17.124   0.594   9.517  0.00  0.00     0.075 C 
ATOM      8  C10 ZIN A   1      17.962   1.597  10.240  0.00  0.00    -0.046 A 
ATOM      9  C11 ZIN A   1      17.730   2.961  10.259  0.00  0.00     0.011 A 
ATOM     10  C12 ZIN A   1      18.543   3.796  11.008  0.00  0.00     0.040 A 
ATOM     11  C13 ZIN A   1      19.607   3.338  11.782  0.00  0.00     0.099 A 
ATOM     12  C15 ZIN A   1      19.860   1.962  11.760  0.00  0.00     0.110 A 
ATOM     13  C16 ZIN A   1      19.055   1.169  10.959  0.00  0.00    -0.001 A 
ATOM     14  C17 ZIN A   1      19.551  -0.233  11.067  0.00  0.00     0.058 C 
ATOM     15  C18 ZIN A   1      20.490  -0.541   9.904  0.00  0.00     0.048 C 
ATOM     16  C19 ZIN A   1      19.731  -0.311   8.591  0.00  0.00     0.236 C 
ATOM     17  N20 ZIN A   1      18.542  -1.141   8.544  0.00  0.00    -0.063 N 
ATOM     18  H21 ZIN A   1      18.072  -0.998   7.663  0.00  0.00     0.280 HD
ATOM     19  C26 ZIN A   1      20.293  -0.170  12.394  0.00  0.00     0.214 C 
ATOM     20  O28 ZIN A   1      20.760   1.198  12.417  0.00  0.00    -0.334 OA
ENDROOT
BRANCH  17  21
ATOM     21  C22 ZIN A   1      18.933  -2.552   8.660  0.00  0.00     0.240 C 
BRANCH  21  22
ATOM     22  C23 ZIN A   1      18.658  -3.268   7.336  0.00  0.00     0.011 A 
ATOM     23  C25 ZIN A   1      19.838  -3.958   6.648  0.00  0.00     0.007 A 
ATOM     24  C24 ZIN A   1      19.263  -2.664   6.067  0.00  0.00     0.007 A 
ENDBRANCH  21  22
ENDBRANCH  17  21
BRANCH   5  25
ATOM     25  O6  ZIN A   1      18.739  -2.502  11.021  0.00  0.00    -0.386 OA
ATOM     26  H33 ZIN A   1      18.799  -2.920  10.151  0.00  0.00     0.210 HD
ENDBRANCH   5  25
BRANCH  11  27
ATOM     27  O14 ZIN A   1      20.364   4.189  12.525  0.00  0.00    -0.358 OA
ATOM     28  H38 ZIN A   1      21.170   3.789  12.881  0.00  0.00     0.217 HD
ENDBRANCH  11  27
TORSDOF 4
ENDMDL
MODEL 2
REMARK VINA RESULT:      -7.8      1.539      1.886
REMARK  4 active torsions:
REMARK  status: ('A' for Active; 'I' for Inactive)
REMARK    1  A    between atoms: C5_5  and  O6_6 
REMARK    2  A    between atoms: C13_12  and  O14_13 
REMARK    3  A    between atoms: N20_19  and  C22_21 
REMARK    4  A    between atoms: C22_21  and  C23_22 
ROOT
ATOM      1  O1  ZIN A   1      19.595   0.858  15.201  0.00  0.00    -0.295 OA
ATOM      2  C2  ZIN A   1      19.229   0.118  14.320  0.00  0.00     0.157 C 
ATOM      3  C3  ZIN A   1      17.879  -0.523  14.439  0.00  0.00     0.084 C 
ATOM      4  C4  ZIN A   1      17.176  -0.529  13.079  0.00  0.00     0.048 C 
ATOM      5  C5  ZIN A   1      18.067  -1.249  12.069  0.00  0.00     0.102 C 
ATOM      6  C7  ZIN A   1      17.379  -1.292  10.701  0.00  0.00     0.227 C 
ATOM      7  C9  ZIN A   1      17.018   0.070  10.135  0.00  0.00     0.075 C 
ATOM      8  C10 ZIN A   1      17.966   1.153  10.533  0.00  0.00    -0.046 A 
ATOM      9  C11 ZIN A   1      17.875   2.476  10.136  0.00  0.00     0.011 A 
ATOM     10  C12 ZIN A   1      18.783   3.410  10.609  0.00  0.00     0.040 A 
ATOM     11  C13 ZIN A   1      19.808   3.099  11.500  0.00  0.00     0.099 A 
ATOM     12  C15 ZIN A   1      19.919   1.762  11.898  0.00  0.00     0.110 A 
ATOM     13  C16 ZIN A   1      19.022   0.851  11.363  0.00  0.00    -0.001 A 
ATOM     14  C17 ZIN A   1      19.375  -0.496  11.896  0.00  0.00     0.058 C 
ATOM     15  C18 ZIN A   1      20.257  -1.235  10.892  0.00  0.00     0.048 C 
ATOM     16  C19 ZIN A   1      19.501  -1.334   9.561  0.00  0.00     0.236 C 
ATOM     17  N20 ZIN A   1      18.234  -2.013   9.750  0.00  0.00    -0.063 N 
ATOM     18  H21 ZIN A   1      17.765  -2.095   8.860  0.00  0.00     0.280 HD
ATOM     19  C26 ZIN A   1      20.143  -0.112  13.152  0.00  0.00     0.214 C 
ATOM     20  O28 ZIN A   1      20.748   1.144  12.767  0.00  0.00    -0.334 OA
ENDROOT
BRANCH  17  21
ATOM     21  C22 ZIN A   1      18.480  -3.357  10.292  0.00  0.00     0.240 C 
BRANCH  21  22
ATOM     22  C23 ZIN A   1      17.417  -4.322   9.764  0.00  0.00     0.011 A 
ATOM     23  C25 ZIN A   1      16.540  -5.038  10.793  0.00  0.00     0.007 A 
ATOM     24  C24 ZIN A   1      17.619  -5.814  10.036  0.00  0.00     0.007 A 
ENDBRANCH  21  22
ENDBRANCH  17  21
BRANCH   5  25
ATOM     25  O6  ZIN A   1      18.334  -2.577  12.525  0.00  0.00    -0.386 OA
ATOM     26  H33 ZIN A   1      18.092  -3.267  11.892  0.00  0.00     0.210 HD
ENDBRANCH   5  25
BRANCH  11  27
ATOM     27  O14 ZIN A   1      20.661   4.052  11.962  0.00  0.00    -0.358 OA
ATOM     28  H38 ZIN A   1      21.582   3.761  12.018  0.00  0.00     0.217 HD
ENDBRANCH  11  27
TORSDOF 4
ENDMDL
MODEL 3
REMARK VINA RESULT:      -7.6      2.048      3.956
REMARK  4 active torsions:
REMARK  status: ('A' for Active; 'I' for Inactive)
REMARK    1  A    between atoms: C5_5  and  O6_6 
REMARK    2  A    between atoms: C13_12  and  O14_13 
REMARK    3  A    between atoms: N20_19  and  C22_21 
REMARK    4  A    between atoms: C22_21  and  C23_22 
ROOT
ATOM      1  O1  ZIN A   1      18.646   4.035  13.443  0.00  0.00    -0.295 OA
ATOM      2  C2  ZIN A   1      18.846   3.318  12.494  0.00  0.00     0.157 C 
ATOM      3  C3  ZIN A   1      20.200   3.342  11.850  0.00  0.00     0.084 C 
ATOM      4  C4  ZIN A   1      20.633   1.923  11.478  0.00  0.00     0.048 C 
ATOM      5  C5  ZIN A   1      19.574   1.311  10.562  0.00  0.00     0.102 C 
ATOM      6  C7  ZIN A   1      19.991  -0.105  10.152  0.00  0.00     0.227 C 
ATOM      7  C9  ZIN A   1      20.226  -1.054  11.315  0.00  0.00     0.075 C 
ATOM      8  C10 ZIN A   1      19.359  -0.774  12.499  0.00  0.00    -0.046 A 
ATOM      9  C11 ZIN A   1      19.361  -1.502  13.676  0.00  0.00     0.011 A 
ATOM     10  C12 ZIN A   1      18.551  -1.121  14.733  0.00  0.00     0.040 A 
ATOM     11  C13 ZIN A   1      17.716  -0.006  14.695  0.00  0.00     0.099 A 
ATOM     12  C15 ZIN A   1      17.695   0.730  13.505  0.00  0.00     0.110 A 
ATOM     13  C16 ZIN A   1      18.482   0.286  12.455  0.00  0.00    -0.001 A 
ATOM     14  C17 ZIN A   1      18.249   1.198  11.299  0.00  0.00     0.058 C 
ATOM     15  C18 ZIN A   1      17.201   0.595  10.368  0.00  0.00     0.048 C 
ATOM     16  C19 ZIN A   1      17.692  -0.783   9.909  0.00  0.00     0.236 C 
ATOM     17  N20 ZIN A   1      18.979  -0.667   9.250  0.00  0.00    -0.063 N 
ATOM     18  H21 ZIN A   1      19.272  -1.578   8.930  0.00  0.00     0.280 HD
ATOM     19  C26 ZIN A   1      17.730   2.436  12.014  0.00  0.00     0.214 C 
ATOM     20  O28 ZIN A   1      17.051   1.865  13.156  0.00  0.00    -0.334 OA
ENDROOT
BRANCH  17  21
ATOM     21  C22 ZIN A   1      18.852   0.233   8.096  0.00  0.00     0.240 C 
BRANCH  21  22
ATOM     22  C23 ZIN A   1      18.297  -0.545   6.902  0.00  0.00     0.011 A 
ATOM     23  C25 ZIN A   1      18.266   0.167   5.547  0.00  0.00     0.007 A 
ATOM     24  C24 ZIN A   1      16.964  -0.080   6.312  0.00  0.00     0.007 A 
ENDBRANCH  21  22
ENDBRANCH  17  21
BRANCH   5  25
ATOM     25  O6  ZIN A   1      19.410   2.129   9.403  0.00  0.00    -0.386 OA
ATOM     26  H33 ZIN A   1      19.359   3.076   9.594  0.00  0.00     0.210 HD
ENDBRANCH   5  25
BRANCH  11  27
ATOM     27  O14 ZIN A   1      16.956   0.350  15.765  0.00  0.00    -0.358 OA
ATOM     28  H38 ZIN A   1      16.499   1.196  15.659  0.00  0.00     0.217 HD
ENDBRANCH  11  27
TORSDOF 4
ENDMDL
MODEL 4
REMARK VINA RESULT:      -7.5      2.644      5.399
REMARK  4 active torsions:
REMARK  status: ('A' for Active; 'I' for Inactive)
REMARK    1  A    between atoms: C5_5  and  O6_6 
REMARK    2  A    between atoms: C13_12  and  O14_13 
REMARK    3  A    between atoms: N20_19  and  C22_21 
REMARK    4  A    between atoms: C22_21  and  C23_22 
ROOT
ATOM      1  O1  ZIN A   1      18.971  -3.775   8.877  0.00  0.00    -0.295 OA
ATOM      2  C2  ZIN A   1      18.912  -3.146   9.906  0.00  0.00     0.157 C 
ATOM      3  C3  ZIN A   1      20.043  -3.264  10.883  0.00  0.00     0.084 C 
ATOM      4  C4  ZIN A   1      20.367  -1.894  11.483  0.00  0.00     0.048 C 
ATOM      5  C5  ZIN A   1      19.104  -1.331  12.132  0.00  0.00     0.102 C 
ATOM      6  C7  ZIN A   1      19.404   0.032  12.764  0.00  0.00     0.227 C 
ATOM      7  C9  ZIN A   1      19.947   1.069  11.795  0.00  0.00     0.075 C 
ATOM      8  C10 ZIN A   1      19.429   0.915  10.402  0.00  0.00    -0.046 A 
ATOM      9  C11 ZIN A   1      19.751   1.739   9.339  0.00  0.00     0.011 A 
ATOM     10  C12 ZIN A   1      19.252   1.473   8.074  0.00  0.00     0.040 A 
ATOM     11  C13 ZIN A   1      18.432   0.383   7.788  0.00  0.00     0.099 A 
ATOM     12  C15 ZIN A   1      18.088  -0.450   8.858  0.00  0.00     0.110 A 
ATOM     13  C16 ZIN A   1      18.567  -0.119  10.116  0.00  0.00    -0.001 A 
ATOM     14  C17 ZIN A   1      18.027  -1.119  11.082  0.00  0.00     0.058 C 
ATOM     15  C18 ZIN A   1      16.770  -0.566  11.749  0.00  0.00     0.048 C 
ATOM     16  C19 ZIN A   1      17.127   0.754  12.443  0.00  0.00     0.236 C 
ATOM     17  N20 ZIN A   1      18.189   0.545  13.409  0.00  0.00    -0.063 N 
ATOM     18  H21 ZIN A   1      18.390   1.417  13.875  0.00  0.00     0.280 HD
ATOM     19  C26 ZIN A   1      17.712  -2.276  10.146  0.00  0.00     0.214 C 
ATOM     20  O28 ZIN A   1      17.368  -1.591   8.920  0.00  0.00    -0.334 OA
ENDROOT
BRANCH  17  21
ATOM     21  C22 ZIN A   1      17.752  -0.445  14.402  0.00  0.00     0.240 C 
BRANCH  21  22
ATOM     22  C23 ZIN A   1      18.318  -0.074  15.774  0.00  0.00     0.011 A 
ATOM     23  C25 ZIN A   1      18.886  -1.205  16.634  0.00  0.00     0.007 A 
ATOM     24  C24 ZIN A   1      17.553  -0.555  17.009  0.00  0.00     0.007 A 
ENDBRANCH  21  22
ENDBRANCH  17  21
BRANCH   5  25
ATOM     25  O6  ZIN A   1      18.631  -2.240  13.128  0.00  0.00    -0.386 OA
ATOM     26  H33 ZIN A   1      17.674  -2.208  13.267  0.00  0.00     0.210 HD
ENDBRANCH   5  25
BRANCH  11  27
ATOM     27  O14 ZIN A   1      17.986   0.141   6.526  0.00  0.00    -0.358 OA
ATOM     28  H38 ZIN A   1      17.202   0.652   6.282  0.00  0.00     0.217 HD
ENDBRANCH  11  27
TORSDOF 4
ENDMDL
MODEL 5
REMARK VINA RESULT:      -7.4      2.501      4.261
REMARK  4 active torsions:
REMARK  status: ('A' for Active; 'I' for Inactive)
REMARK    1  A    between atoms: C5_5  and  O6_6 
REMARK    2  A    between atoms: C13_12  and  O14_13 
REMARK    3  A    between atoms: N20_19  and  C22_21 
REMARK    4  A    between atoms: C22_21  and  C23_22 
ROOT
ATOM      1  O1  ZIN A   1      17.545   1.721  10.408  0.00  0.00    -0.295 OA
ATOM      2  C2  ZIN A   1      17.909   0.579  10.263  0.00  0.00     0.157 C 
ATOM      3  C3  ZIN A   1      19.190   0.325   9.525  0.00  0.00     0.084 C 
ATOM      4  C4  ZIN A   1      19.984  -0.786  10.214  0.00  0.00     0.048 C 
ATOM      5  C5  ZIN A   1      19.110  -2.037  10.295  0.00  0.00     0.102 C 
ATOM      6  C7  ZIN A   1      19.888  -3.177  10.960  0.00  0.00     0.227 C 
ATOM      7  C9  ZIN A   1      20.400  -2.860  12.354  0.00  0.00     0.075 C 
ATOM      8  C10 ZIN A   1      19.519  -1.925  13.117  0.00  0.00    -0.046 A 
ATOM      9  C11 ZIN A   1      19.747  -1.495  14.412  0.00  0.00     0.011 A 
ATOM     10  C12 ZIN A   1      18.889  -0.584  15.005  0.00  0.00     0.040 A 
ATOM     11  C13 ZIN A   1      17.781  -0.041  14.358  0.00  0.00     0.099 A 
ATOM     12  C15 ZIN A   1      17.531  -0.478  13.053  0.00  0.00     0.110 A 
ATOM     13  C16 ZIN A   1      18.385  -1.428  12.515  0.00  0.00    -0.001 A 
ATOM     14  C17 ZIN A   1      17.885  -1.763  11.151  0.00  0.00     0.058 C 
ATOM     15  C18 ZIN A   1      17.018  -3.018  11.211  0.00  0.00     0.048 C 
ATOM     16  C19 ZIN A   1      17.855  -4.160  11.802  0.00  0.00     0.236 C 
ATOM     17  N20 ZIN A   1      19.046  -4.379  11.002  0.00  0.00    -0.063 N 
ATOM     18  H21 ZIN A   1      19.568  -5.150  11.389  0.00  0.00     0.280 HD
ATOM     19  C26 ZIN A   1      17.065  -0.521  10.836  0.00  0.00     0.214 C 
ATOM     20  O28 ZIN A   1      16.594  -0.127  12.146  0.00  0.00    -0.334 OA
ENDROOT
BRANCH  17  21
ATOM     21  C22 ZIN A   1      18.651  -4.703   9.625  0.00  0.00     0.240 C 
BRANCH  21  22
ATOM     22  C23 ZIN A   1      18.085  -6.123   9.578  0.00  0.00     0.011 A 
ATOM     23  C25 ZIN A   1      17.909  -6.769   8.201  0.00  0.00     0.007 A 
ATOM     24  C24 ZIN A   1      16.684  -6.308   8.994  0.00  0.00     0.007 A 
ENDBRANCH  21  22
ENDBRANCH  17  21
BRANCH   5  25
ATOM     25  O6  ZIN A   1      18.702  -2.423   8.981  0.00  0.00    -0.386 OA
ATOM     26  H33 ZIN A   1      17.757  -2.306   8.813  0.00  0.00     0.210 HD
ENDBRANCH   5  25
BRANCH  11  27
ATOM     27  O14 ZIN A   1      16.979   0.873  14.968  0.00  0.00    -0.358 OA
ATOM     28  H38 ZIN A   1      17.373   1.753  15.043  0.00  0.00     0.217 HD
ENDBRANCH  11  27
TORSDOF 4
ENDMDL
MODEL 6
REMARK VINA RESULT:      -7.3      2.604      6.145
REMARK  4 active torsions:
REMARK  status: ('A' for Active; 'I' for Inactive)
REMARK    1  A    between atoms: C5_5  and  O6_6 
REMARK    2  A    between atoms: C13_12  and  O14_13 
REMARK    3  A    between atoms: N20_19  and  C22_21 
REMARK    4  A    between atoms: C22_21  and  C23_22 
ROOT
ATOM      1  O1  ZIN A   1      19.258   1.861   8.287  0.00  0.00    -0.295 OA
ATOM      2  C2  ZIN A   1      19.121   1.875   9.486  0.00  0.00     0.157 C 
ATOM      3  C3  ZIN A   1      17.971   2.642  10.066  0.00  0.00     0.084 C 
ATOM      4  C4  ZIN A   1      17.343   1.858  11.221  0.00  0.00     0.048 C 
ATOM      5  C5  ZIN A   1      18.423   1.567  12.262  0.00  0.00     0.102 C 
ATOM      6  C7  ZIN A   1      17.818   0.802  13.443  0.00  0.00     0.227 C 
ATOM      7  C9  ZIN A   1      17.149  -0.510  13.068  0.00  0.00     0.075 C 
ATOM      8  C10 ZIN A   1      17.781  -1.190  11.898  0.00  0.00    -0.046 A 
ATOM      9  C11 ZIN A   1      17.377  -2.403  11.370  0.00  0.00     0.011 A 
ATOM     10  C12 ZIN A   1      18.004  -2.918  10.247  0.00  0.00     0.040 A 
ATOM     11  C13 ZIN A   1      19.040  -2.267   9.581  0.00  0.00     0.099 A 
ATOM     12  C15 ZIN A   1      19.468  -1.045  10.114  0.00  0.00     0.110 A 
ATOM     13  C16 ZIN A   1      18.848  -0.591  11.267  0.00  0.00    -0.001 A 
ATOM     14  C17 ZIN A   1      19.506   0.689  11.658  0.00  0.00     0.058 C 
ATOM     15  C18 ZIN A   1      20.581   0.417  12.708  0.00  0.00     0.048 C 
ATOM     16  C19 ZIN A   1      19.924  -0.271  13.911  0.00  0.00     0.236 C 
ATOM     17  N20 ZIN A   1      18.861   0.556  14.447  0.00  0.00    -0.063 N 
ATOM     18  H21 ZIN A   1      18.460   0.102  15.254  0.00  0.00     0.280 HD
ATOM     19  C26 ZIN A   1      20.107   1.118  10.328  0.00  0.00     0.214 C 
ATOM     20  O28 ZIN A   1      20.392  -0.153   9.699  0.00  0.00    -0.334 OA
ENDROOT
BRANCH  17  21
ATOM     21  C22 ZIN A   1      19.415   1.856  14.850  0.00  0.00     0.240 C 
BRANCH  21  22
ATOM     22  C23 ZIN A   1      18.691   2.352  16.103  0.00  0.00     0.011 A 
ATOM     23  C25 ZIN A   1      19.424   3.362  16.989  0.00  0.00     0.007 A 
ATOM     24  C24 ZIN A   1      19.246   1.917  17.460  0.00  0.00     0.007 A 
ENDBRANCH  21  22
ENDBRANCH  17  21
BRANCH   5  25
ATOM     25  O6  ZIN A   1      18.996   2.795  12.714  0.00  0.00    -0.386 OA
ATOM     26  H33 ZIN A   1      18.523   3.201  13.454  0.00  0.00     0.210 HD
ENDBRANCH   5  25
BRANCH  11  27
ATOM     27  O14 ZIN A   1      19.611  -2.794   8.465  0.00  0.00    -0.358 OA
ATOM     28  H38 ZIN A   1      20.536  -3.053   8.581  0.00  0.00     0.217 HD
ENDBRANCH  11  27
TORSDOF 4
ENDMDL
MODEL 7
REMARK VINA RESULT:      -7.3      2.264      6.005
REMARK  4 active torsions:
REMARK  status: ('A' for Active; 'I' for Inactive)
REMARK    1  A    between atoms: C5_5  and  O6_6 
REMARK    2  A    between atoms: C13_12  and  O14_13 
REMARK    3  A    between atoms: N20_19  and  C22_21 
REMARK    4  A    between atoms: C22_21  and  C23_22 
ROOT
ATOM      1  O1  ZIN A   1      18.266  -1.844   6.355  0.00  0.00    -0.295 OA
ATOM      2  C2  ZIN A   1      18.357  -1.132   7.326  0.00  0.00     0.157 C 
ATOM      3  C3  ZIN A   1      17.294  -0.102   7.560  0.00  0.00     0.084 C 
ATOM      4  C4  ZIN A   1      16.941  -0.036   9.048  0.00  0.00     0.048 C 
ATOM      5  C5  ZIN A   1      18.214   0.261   9.841  0.00  0.00     0.102 C 
ATOM      6  C7  ZIN A   1      17.889   0.357  11.335  0.00  0.00     0.227 C 
ATOM      7  C9  ZIN A   1      17.240  -0.886  11.919  0.00  0.00     0.075 C 
ATOM      8  C10 ZIN A   1      17.679  -2.154  11.263  0.00  0.00    -0.046 A 
ATOM      9  C11 ZIN A   1      17.255  -3.422  11.619  0.00  0.00     0.011 A 
ATOM     10  C12 ZIN A   1      17.689  -4.528  10.907  0.00  0.00     0.040 A 
ATOM     11  C13 ZIN A   1      18.541  -4.446   9.807  0.00  0.00     0.099 A 
ATOM     12  C15 ZIN A   1      18.988  -3.170   9.445  0.00  0.00     0.110 A 
ATOM     13  C16 ZIN A   1      18.570  -2.096  10.216  0.00  0.00    -0.001 A 
ATOM     14  C17 ZIN A   1      19.214  -0.869   9.665  0.00  0.00     0.058 C 
ATOM     15  C18 ZIN A   1      20.481  -0.551  10.454  0.00  0.00     0.048 C 
ATOM     16  C19 ZIN A   1      20.105  -0.377  11.930  0.00  0.00     0.236 C 
ATOM     17  N20 ZIN A   1      19.114   0.672  12.078  0.00  0.00    -0.063 N 
ATOM     18  H21 ZIN A   1      18.901   0.792  13.057  0.00  0.00     0.280 HD
ATOM     19  C26 ZIN A   1      19.526  -1.324   8.247  0.00  0.00     0.214 C 
ATOM     20  O28 ZIN A   1      19.763  -2.739   8.427  0.00  0.00    -0.334 OA
ENDROOT
BRANCH  17  21
ATOM     21  C22 ZIN A   1      19.657   1.929  11.544  0.00  0.00     0.240 C 
BRANCH  21  22
ATOM     22  C23 ZIN A   1      19.096   3.106  12.344  0.00  0.00     0.011 A 
ATOM     23  C25 ZIN A   1      18.504   4.277  11.556  0.00  0.00     0.007 A 
ATOM     24  C24 ZIN A   1      19.849   4.436  12.268  0.00  0.00     0.007 A 
ENDBRANCH  21  22
ENDBRANCH  17  21
BRANCH   5  25
ATOM     25  O6  ZIN A   1      18.788   1.487   9.384  0.00  0.00    -0.386 OA
ATOM     26  H33 ZIN A   1      19.721   1.416   9.137  0.00  0.00     0.210 HD
ENDBRANCH   5  25
BRANCH  11  27
ATOM     27  O14 ZIN A   1      18.921  -5.555   9.118  0.00  0.00    -0.358 OA
ATOM     28  H38 ZIN A   1      18.723  -5.516   8.172  0.00  0.00     0.217 HD
ENDBRANCH  11  27
TORSDOF 4
ENDMDL
MODEL 8
REMARK VINA RESULT:      -7.2      2.309      5.509
REMARK  4 active torsions:
REMARK  status: ('A' for Active; 'I' for Inactive)
REMARK    1  A    between atoms: C5_5  and  O6_6 
REMARK    2  A    between atoms: C13_12  and  O14_13 
REMARK    3  A    between atoms: N20_19  and  C22_21 
REMARK    4  A    between atoms: C22_21  and  C23_22 
ROOT
ATOM      1  O1  ZIN A   1      18.561   2.395   8.883  0.00  0.00    -0.295 OA
ATOM      2  C2  ZIN A   1      18.557   1.717   9.882  0.00  0.00     0.157 C 
ATOM      3  C3  ZIN A   1      17.376   1.803  10.801  0.00  0.00     0.084 C 
ATOM      4  C4  ZIN A   1      17.005   0.409  11.314  0.00  0.00     0.048 C 
ATOM      5  C5  ZIN A   1      18.224  -0.201  12.003  0.00  0.00     0.102 C 
ATOM      6  C7  ZIN A   1      17.877  -1.589  12.550  0.00  0.00     0.227 C 
ATOM      7  C9  ZIN A   1      17.376  -2.570  11.504  0.00  0.00     0.075 C 
ATOM      8  C10 ZIN A   1      17.971  -2.356  10.150  0.00  0.00    -0.046 A 
ATOM      9  C11 ZIN A   1      17.699  -3.124   9.032  0.00  0.00     0.011 A 
ATOM     10  C12 ZIN A   1      18.269  -2.803   7.811  0.00  0.00     0.040 A 
ATOM     11  C13 ZIN A   1      19.115  -1.712   7.623  0.00  0.00     0.099 A 
ATOM     12  C15 ZIN A   1      19.408  -0.936   8.749  0.00  0.00     0.110 A 
ATOM     13  C16 ZIN A   1      18.858  -1.321   9.961  0.00  0.00    -0.001 A 
ATOM     14  C17 ZIN A   1      19.355  -0.376  11.003  0.00  0.00     0.058 C 
ATOM     15  C18 ZIN A   1      20.567  -0.976  11.709  0.00  0.00     0.048 C 
ATOM     16  C19 ZIN A   1      20.160  -2.324  12.318  0.00  0.00     0.236 C 
ATOM     17  N20 ZIN A   1      19.049  -2.148  13.234  0.00  0.00    -0.063 N 
ATOM     18  H21 ZIN A   1      18.814  -3.039  13.645  0.00  0.00     0.280 HD
ATOM     19  C26 ZIN A   1      19.733   0.821  10.144  0.00  0.00     0.214 C 
ATOM     20  O28 ZIN A   1      20.136   0.192   8.906  0.00  0.00    -0.334 OA
ENDROOT
BRANCH  17  21
ATOM     21  C22 ZIN A   1      19.441  -1.213  14.297  0.00  0.00     0.240 C 
BRANCH  21  22
ATOM     22  C23 ZIN A   1      18.761  -1.615  15.606  0.00  0.00     0.011 A 
ATOM     23  C25 ZIN A   1      17.775  -0.621  16.225  0.00  0.00     0.007 A 
ATOM     24  C24 ZIN A   1      19.145  -0.843  16.869  0.00  0.00     0.007 A 
ENDBRANCH  21  22
ENDBRANCH  17  21
BRANCH   5  25
ATOM     25  O6  ZIN A   1      18.652   0.652  13.066  0.00  0.00    -0.386 OA
ATOM     26  H33 ZIN A   1      18.774   1.576  12.805  0.00  0.00     0.210 HD
ENDBRANCH   5  25
BRANCH  11  27
ATOM     27  O14 ZIN A   1      19.631  -1.415   6.400  0.00  0.00    -0.358 OA
ATOM     28  H38 ZIN A   1      20.280  -2.057   6.081  0.00  0.00     0.217 HD
ENDBRANCH  11  27
TORSDOF 4
ENDMDL
MODEL 9
REMARK VINA RESULT:      -7.2      2.450      3.538
REMARK  4 active torsions:
REMARK  status: ('A' for Active; 'I' for Inactive)
REMARK    1  A    between atoms: C5_5  and  O6_6 
REMARK    2  A    between atoms: C13_12  and  O14_13 
REMARK    3  A    between atoms: N20_19  and  C22_21 
REMARK    4  A    between atoms: C22_21  and  C23_22 
ROOT
ATOM      1  O1  ZIN A   1      19.342  -4.866  11.858  0.00  0.00    -0.295 OA
ATOM      2  C2  ZIN A   1      19.162  -3.993  11.044  0.00  0.00     0.157 C 
ATOM      3  C3  ZIN A   1      18.056  -4.162  10.047  0.00  0.00     0.084 C 
ATOM      4  C4  ZIN A   1      17.324  -2.833   9.840  0.00  0.00     0.048 C 
ATOM      5  C5  ZIN A   1      18.338  -1.778   9.400  0.00  0.00     0.102 C 
ATOM      6  C7  ZIN A   1      17.630  -0.440   9.162  0.00  0.00     0.227 C 
ATOM      7  C9  ZIN A   1      16.874   0.095  10.366  0.00  0.00     0.075 C 
ATOM      8  C10 ZIN A   1      17.493  -0.275  11.674  0.00  0.00    -0.046 A 
ATOM      9  C11 ZIN A   1      17.014   0.103  12.916  0.00  0.00     0.011 A 
ATOM     10  C12 ZIN A   1      17.640  -0.341  14.069  0.00  0.00     0.040 A 
ATOM     11  C13 ZIN A   1      18.749  -1.185  14.063  0.00  0.00     0.099 A 
ATOM     12  C15 ZIN A   1      19.252  -1.563  12.813  0.00  0.00     0.110 A 
ATOM     13  C16 ZIN A   1      18.627  -1.056  11.685  0.00  0.00    -0.001 A 
ATOM     14  C17 ZIN A   1      19.370  -1.558  10.494  0.00  0.00     0.058 C 
ATOM     15  C18 ZIN A   1      20.380  -0.510  10.034  0.00  0.00     0.048 C 
ATOM     16  C19 ZIN A   1      19.626   0.789   9.722  0.00  0.00     0.236 C 
ATOM     17  N20 ZIN A   1      18.612   0.554   8.712  0.00  0.00    -0.063 N 
ATOM     18  H21 ZIN A   1      18.147   1.424   8.500  0.00  0.00     0.280 HD
ATOM     19  C26 ZIN A   1      20.052  -2.785  11.081  0.00  0.00     0.214 C 
ATOM     20  O28 ZIN A   1      20.259  -2.388  12.456  0.00  0.00    -0.334 OA
ENDROOT
BRANCH  17  21
ATOM     21  C22 ZIN A   1      19.252   0.038   7.494  0.00  0.00     0.240 C 
BRANCH  21  22
ATOM     22  C23 ZIN A   1      18.549   0.616   6.265  0.00  0.00     0.011 A 
ATOM     23  C25 ZIN A   1      17.770  -0.355   5.375  0.00  0.00     0.007 A 
ATOM     24  C24 ZIN A   1      19.098   0.231   4.890  0.00  0.00     0.007 A 
ENDBRANCH  21  22
ENDBRANCH  17  21
BRANCH   5  25
ATOM     25  O6  ZIN A   1      18.990  -2.208   8.204  0.00  0.00    -0.386 OA
ATOM     26  H33 ZIN A   1      19.942  -2.039   8.192  0.00  0.00     0.210 HD
ENDBRANCH   5  25
BRANCH  11  27
ATOM     27  O14 ZIN A   1      19.317  -1.621  15.219  0.00  0.00    -0.358 OA
ATOM     28  H38 ZIN A   1      20.284  -1.583  15.221  0.00  0.00     0.217 HD
ENDBRANCH  11  27
TORSDOF 4
ENDMDL
