MODEL 1
REMARK VINA RESULT:      -5.1      0.000      0.000
REMARK  3 active torsions:
REMARK  status: ('A' for Active; 'I' for Inactive)
REMARK    1  A    between atoms: N1_1  and  C2_2 
REMARK    2  A    between atoms: C5_5  and  S6_6 
REMARK    3  A    between atoms: S6_6  and  N7_7 
ROOT
ATOM      1  C2  <0> d   1      17.984   3.999  10.355  0.00  0.00     0.025 A 
ATOM      2  C3  <0> d   1      18.489   3.165   9.367  0.00  0.00     0.030 A 
ATOM      3  C4  <0> d   1      19.148   2.002   9.716  0.00  0.00     0.027 A 
ATOM      4  C5  <0> d   1      19.304   1.668  11.050  0.00  0.00     0.079 A 
ATOM      5  C10 <0> d   1      18.801   2.496  12.036  0.00  0.00     0.027 A 
ATOM      6  C11 <0> d   1      18.147   3.663  11.694  0.00  0.00     0.030 A 
ENDROOT
BRANCH   4   7
ATOM      7  S6  <0> d   1      20.144   0.183  11.492  0.00  0.00     0.256 S 
ATOM      8  O8  <0> d   1      19.378  -0.419  12.525  0.00  0.00    -0.201 OA
ATOM      9  O9  <0> d   1      20.461  -0.476  10.273  0.00  0.00    -0.201 OA
BRANCH   7  10
ATOM     10  N7  <0> d   1      21.588   0.622  12.175  0.00  0.00    -0.324 N 
ATOM     11  H16 <0> d   1      22.420   0.429  11.715  0.00  0.00     0.169 HD
ATOM     12  H17 <0> d   1      21.601   1.072  13.033  0.00  0.00     0.169 HD
ENDBRANCH   7  10
ENDBRANCH   4   7
BRANCH   1  13
ATOM     13  N1  <0> d   1      17.318   5.176  10.005  0.00  0.00    -0.399 N 
ATOM     14  H12 <0> d   1      16.495   5.420  10.457  0.00  0.00     0.156 HD
ATOM     15  H13 <0> d   1      17.681   5.751   9.314  0.00  0.00     0.156 HD
ENDBRANCH   1  13
TORSDOF 3
ENDMDL
MODEL 2
REMARK VINA RESULT:      -5.1      3.607      4.829
REMARK  3 active torsions:
REMARK  status: ('A' for Active; 'I' for Inactive)
REMARK    1  A    between atoms: N1_1  and  C2_2 
REMARK    2  A    between atoms: C5_5  and  S6_6 
REMARK    3  A    between atoms: S6_6  and  N7_7 
ROOT
ATOM      1  C2  <0> d   1      17.810  -0.448  15.672  0.00  0.00     0.025 A 
ATOM      2  C3  <0> d   1      17.467   0.572  14.795  0.00  0.00     0.030 A 
ATOM      3  C4  <0> d   1      18.160   0.724  13.609  0.00  0.00     0.027 A 
ATOM      4  C5  <0> d   1      19.194  -0.139  13.296  0.00  0.00     0.079 A 
ATOM      5  C10 <0> d   1      19.538  -1.157  14.166  0.00  0.00     0.027 A 
ATOM      6  C11 <0> d   1      18.853  -1.311  15.356  0.00  0.00     0.030 A 
ENDROOT
BRANCH   4   7
ATOM      7  S6  <0> d   1      20.076   0.058  11.783  0.00  0.00     0.256 S 
ATOM      8  O8  <0> d   1      20.239  -1.245  11.241  0.00  0.00    -0.201 OA
ATOM      9  O9  <0> d   1      19.438   1.117  11.081  0.00  0.00    -0.201 OA
BRANCH   7  10
ATOM     10  N7  <0> d   1      21.594   0.599  12.166  0.00  0.00    -0.324 N 
ATOM     11  H16 <0> d   1      21.869   1.493  11.910  0.00  0.00     0.169 HD
ATOM     12  H17 <0> d   1      22.206   0.022  12.648  0.00  0.00     0.169 HD
ENDBRANCH   7  10
ENDBRANCH   4   7
BRANCH   1  13
ATOM     13  N1  <0> d   1      17.111  -0.604  16.871  0.00  0.00    -0.399 N 
ATOM     14  H12 <0> d   1      16.532   0.106  17.191  0.00  0.00     0.156 HD
ATOM     15  H13 <0> d   1      17.200  -1.424  17.381  0.00  0.00     0.156 HD
ENDBRANCH   1  13
TORSDOF 3
ENDMDL
MODEL 3
REMARK VINA RESULT:      -5.1      4.789      5.550
REMARK  3 active torsions:
REMARK  status: ('A' for Active; 'I' for Inactive)
REMARK    1  A    between atoms: N1_1  and  C2_2 
REMARK    2  A    between atoms: C5_5  and  S6_6 
REMARK    3  A    between atoms: S6_6  and  N7_7 
ROOT
ATOM      1  C2  <0> d   1      19.107   1.235   8.410  0.00  0.00     0.025 A 
ATOM      2  C3  <0> d   1      18.912   1.456   7.053  0.00  0.00     0.030 A 
ATOM      3  C4  <0> d   1      18.947   0.395   6.170  0.00  0.00     0.027 A 
ATOM      4  C5  <0> d   1      19.175  -0.888   6.636  0.00  0.00     0.079 A 
ATOM      5  C10 <0> d   1      19.369  -1.111   7.986  0.00  0.00     0.027 A 
ATOM      6  C11 <0> d   1      19.341  -0.054   8.874  0.00  0.00     0.030 A 
ENDROOT
BRANCH   4   7
ATOM      7  S6  <0> d   1      19.219  -2.239   5.506  0.00  0.00     0.256 S 
ATOM      8  O8  <0> d   1      19.603  -1.699   4.249  0.00  0.00    -0.201 OA
ATOM      9  O9  <0> d   1      19.934  -3.282   6.155  0.00  0.00    -0.201 OA
BRANCH   7  10
ATOM     10  N7  <0> d   1      17.663  -2.779   5.328  0.00  0.00    -0.324 N 
ATOM     11  H16 <0> d   1      16.936  -2.143   5.244  0.00  0.00     0.169 HD
ATOM     12  H17 <0> d   1      17.480  -3.731   5.306  0.00  0.00     0.169 HD
ENDBRANCH   7  10
ENDBRANCH   4   7
BRANCH   1  13
ATOM     13  N1  <0> d   1      19.072   2.307   9.305  0.00  0.00    -0.399 N 
ATOM     14  H12 <0> d   1      19.846   2.502   9.858  0.00  0.00     0.156 HD
ATOM     15  H13 <0> d   1      18.278   2.858   9.371  0.00  0.00     0.156 HD
ENDBRANCH   1  13
TORSDOF 3
ENDMDL
MODEL 4
REMARK VINA RESULT:      -5.1      3.370      4.070
REMARK  3 active torsions:
REMARK  status: ('A' for Active; 'I' for Inactive)
REMARK    1  A    between atoms: N1_1  and  C2_2 
REMARK    2  A    between atoms: C5_5  and  S6_6 
REMARK    3  A    between atoms: S6_6  and  N7_7 
ROOT
ATOM      1  C2  <0> d   1      18.717   0.685   6.958  0.00  0.00     0.025 A 
ATOM      2  C3  <0> d   1      19.215   1.670   7.800  0.00  0.00     0.030 A 
ATOM      3  C4  <0> d   1      18.776   1.747   9.107  0.00  0.00     0.027 A 
ATOM      4  C5  <0> d   1      17.840   0.843   9.578  0.00  0.00     0.079 A 
ATOM      5  C10 <0> d   1      17.342  -0.140   8.742  0.00  0.00     0.027 A 
ATOM      6  C11 <0> d   1      17.773  -0.218   7.433  0.00  0.00     0.030 A 
ENDROOT
BRANCH   4   7
ATOM      7  S6  <0> d   1      17.282   0.944  11.246  0.00  0.00     0.256 S 
ATOM      8  O8  <0> d   1      17.223   2.327  11.567  0.00  0.00    -0.201 OA
ATOM      9  O9  <0> d   1      16.162   0.074  11.348  0.00  0.00    -0.201 OA
BRANCH   7  10
ATOM     10  N7  <0> d   1      18.469   0.293  12.200  0.00  0.00    -0.324 N 
ATOM     11  H16 <0> d   1      18.679   0.697  13.057  0.00  0.00     0.169 HD
ATOM     12  H17 <0> d   1      18.953  -0.493  11.903  0.00  0.00     0.169 HD
ENDBRANCH   7  10
ENDBRANCH   4   7
BRANCH   1  13
ATOM     13  N1  <0> d   1      19.160   0.605   5.635  0.00  0.00    -0.399 N 
ATOM     14  H12 <0> d   1      18.595   0.197   4.959  0.00  0.00     0.156 HD
ATOM     15  H13 <0> d   1      20.027   0.962   5.392  0.00  0.00     0.156 HD
ENDBRANCH   1  13
TORSDOF 3
ENDMDL
MODEL 5
REMARK VINA RESULT:      -4.9      3.159      3.792
REMARK  3 active torsions:
REMARK  status: ('A' for Active; 'I' for Inactive)
REMARK    1  A    between atoms: N1_1  and  C2_2 
REMARK    2  A    between atoms: C5_5  and  S6_6 
REMARK    3  A    between atoms: S6_6  and  N7_7 
ROOT
ATOM      1  C2  <0> d   1      17.698   0.270   8.531  0.00  0.00     0.025 A 
ATOM      2  C3  <0> d   1      17.195   0.192   9.823  0.00  0.00     0.030 A 
ATOM      3  C4  <0> d   1      17.667   1.048  10.799  0.00  0.00     0.027 A 
ATOM      4  C5  <0> d   1      18.640   1.982  10.491  0.00  0.00     0.079 A 
ATOM      5  C10 <0> d   1      19.143   2.062   9.205  0.00  0.00     0.027 A 
ATOM      6  C11 <0> d   1      18.680   1.205   8.226  0.00  0.00     0.030 A 
ENDROOT
BRANCH   4   7
ATOM      7  S6  <0> d   1      19.239   3.072  11.739  0.00  0.00     0.256 S 
ATOM      8  O8  <0> d   1      18.733   4.361  11.422  0.00  0.00    -0.201 OA
ATOM      9  O9  <0> d   1      19.002   2.427  12.983  0.00  0.00    -0.201 OA
BRANCH   7  10
ATOM     10  N7  <0> d   1      20.884   3.160  11.564  0.00  0.00    -0.324 N 
ATOM     11  H16 <0> d   1      21.267   3.639  10.812  0.00  0.00     0.169 HD
ATOM     12  H17 <0> d   1      21.464   2.734  12.213  0.00  0.00     0.169 HD
ENDBRANCH   7  10
ENDBRANCH   4   7
BRANCH   1  13
ATOM     13  N1  <0> d   1      17.223  -0.595   7.542  0.00  0.00    -0.399 N 
ATOM     14  H12 <0> d   1      17.848  -1.057   6.961  0.00  0.00     0.156 HD
ATOM     15  H13 <0> d   1      16.270  -0.737   7.440  0.00  0.00     0.156 HD
ENDBRANCH   1  13
TORSDOF 3
ENDMDL
MODEL 6
REMARK VINA RESULT:      -4.9      3.059      3.709
REMARK  3 active torsions:
REMARK  status: ('A' for Active; 'I' for Inactive)
REMARK    1  A    between atoms: N1_1  and  C2_2 
REMARK    2  A    between atoms: C5_5  and  S6_6 
REMARK    3  A    between atoms: S6_6  and  N7_7 
ROOT
ATOM      1  C2  <0> d   1      18.458   0.308   6.848  0.00  0.00     0.025 A 
ATOM      2  C3  <0> d   1      18.384  -0.908   7.515  0.00  0.00     0.030 A 
ATOM      3  C4  <0> d   1      18.862  -1.016   8.806  0.00  0.00     0.027 A 
ATOM      4  C5  <0> d   1      19.414   0.086   9.435  0.00  0.00     0.079 A 
ATOM      5  C10 <0> d   1      19.488   1.298   8.774  0.00  0.00     0.027 A 
ATOM      6  C11 <0> d   1      19.017   1.411   7.481  0.00  0.00     0.030 A 
ENDROOT
BRANCH   4   7
ATOM      7  S6  <0> d   1      20.022  -0.056  11.083  0.00  0.00     0.256 S 
ATOM      8  O8  <0> d   1      20.050   1.261  11.615  0.00  0.00    -0.201 OA
ATOM      9  O9  <0> d   1      19.303  -1.123  11.685  0.00  0.00    -0.201 OA
BRANCH   7  10
ATOM     10  N7  <0> d   1      21.599  -0.552  10.981  0.00  0.00    -0.324 N 
ATOM     11  H16 <0> d   1      21.805  -1.463  10.718  0.00  0.00     0.169 HD
ATOM     12  H17 <0> d   1      22.317   0.068  11.185  0.00  0.00     0.169 HD
ENDBRANCH   7  10
ENDBRANCH   4   7
BRANCH   1  13
ATOM     13  N1  <0> d   1      17.975   0.420   5.541  0.00  0.00    -0.399 N 
ATOM     14  H12 <0> d   1      17.130   0.867   5.374  0.00  0.00     0.156 HD
ATOM     15  H13 <0> d   1      18.487   0.057   4.803  0.00  0.00     0.156 HD
ENDBRANCH   1  13
TORSDOF 3
ENDMDL
MODEL 7
REMARK VINA RESULT:      -4.8      3.928      4.678
REMARK  3 active torsions:
REMARK  status: ('A' for Active; 'I' for Inactive)
REMARK    1  A    between atoms: N1_1  and  C2_2 
REMARK    2  A    between atoms: C5_5  and  S6_6 
REMARK    3  A    between atoms: S6_6  and  N7_7 
ROOT
ATOM      1  C2  <0> d   1      18.037   1.747   9.947  0.00  0.00     0.025 A 
ATOM      2  C3  <0> d   1      17.372   0.548   9.727  0.00  0.00     0.030 A 
ATOM      3  C4  <0> d   1      17.600  -0.164   8.566  0.00  0.00     0.027 A 
ATOM      4  C5  <0> d   1      18.490   0.316   7.622  0.00  0.00     0.079 A 
ATOM      5  C10 <0> d   1      19.155   1.509   7.838  0.00  0.00     0.027 A 
ATOM      6  C11 <0> d   1      18.927   2.229   8.994  0.00  0.00     0.030 A 
ENDROOT
BRANCH   4   7
ATOM      7  S6  <0> d   1      18.779  -0.596   6.142  0.00  0.00     0.256 S 
ATOM      8  O8  <0> d   1      19.349   0.316   5.214  0.00  0.00    -0.201 OA
ATOM      9  O9  <0> d   1      19.414  -1.806   6.534  0.00  0.00    -0.201 OA
BRANCH   7  10
ATOM     10  N7  <0> d   1      17.299  -1.021   5.532  0.00  0.00    -0.324 N 
ATOM     11  H16 <0> d   1      16.875  -0.466   4.858  0.00  0.00     0.169 HD
ATOM     12  H17 <0> d   1      16.857  -1.824   5.847  0.00  0.00     0.169 HD
ENDBRANCH   7  10
ENDBRANCH   4   7
BRANCH   1  13
ATOM     13  N1  <0> d   1      17.808   2.470  11.120  0.00  0.00    -0.399 N 
ATOM     14  H12 <0> d   1      18.558   2.788  11.648  0.00  0.00     0.156 HD
ATOM     15  H13 <0> d   1      16.901   2.659  11.404  0.00  0.00     0.156 HD
ENDBRANCH   1  13
TORSDOF 3
ENDMDL
MODEL 8
REMARK VINA RESULT:      -4.8      5.278      6.337
REMARK  3 active torsions:
REMARK  status: ('A' for Active; 'I' for Inactive)
REMARK    1  A    between atoms: N1_1  and  C2_2 
REMARK    2  A    between atoms: C5_5  and  S6_6 
REMARK    3  A    between atoms: S6_6  and  N7_7 
ROOT
ATOM      1  C2  <0> d   1      18.405  -0.769  14.062  0.00  0.00     0.025 A 
ATOM      2  C3  <0> d   1      18.511  -1.267  15.354  0.00  0.00     0.030 A 
ATOM      3  C4  <0> d   1      18.750  -0.405  16.407  0.00  0.00     0.027 A 
ATOM      4  C5  <0> d   1      18.884   0.952  16.175  0.00  0.00     0.079 A 
ATOM      5  C10 <0> d   1      18.778   1.451  14.890  0.00  0.00     0.027 A 
ATOM      6  C11 <0> d   1      18.545   0.594  13.832  0.00  0.00     0.030 A 
ENDROOT
BRANCH   4   7
ATOM      7  S6  <0> d   1      19.189   2.048  17.521  0.00  0.00     0.256 S 
ATOM      8  O8  <0> d   1      19.762   1.262  18.556  0.00  0.00    -0.201 OA
ATOM      9  O9  <0> d   1      19.827   3.192  16.970  0.00  0.00    -0.201 OA
BRANCH   7  10
ATOM     10  N7  <0> d   1      17.716   2.557  18.082  0.00  0.00    -0.324 N 
ATOM     11  H16 <0> d   1      16.950   2.572  17.487  0.00  0.00     0.169 HD
ATOM     12  H17 <0> d   1      17.620   2.840  19.004  0.00  0.00     0.169 HD
ENDBRANCH   7  10
ENDBRANCH   4   7
BRANCH   1  13
ATOM     13  N1  <0> d   1      18.163  -1.638  12.995  0.00  0.00    -0.399 N 
ATOM     14  H12 <0> d   1      18.881  -1.866  12.383  0.00  0.00     0.156 HD
ATOM     15  H13 <0> d   1      17.280  -2.017  12.869  0.00  0.00     0.156 HD
ENDBRANCH   1  13
TORSDOF 3
ENDMDL
MODEL 9
REMARK VINA RESULT:      -4.7      5.115      6.015
REMARK  3 active torsions:
REMARK  status: ('A' for Active; 'I' for Inactive)
REMARK    1  A    between atoms: N1_1  and  C2_2 
REMARK    2  A    between atoms: C5_5  and  S6_6 
REMARK    3  A    between atoms: S6_6  and  N7_7 
ROOT
ATOM      1  C2  <0> d   1      17.911   1.305  13.803  0.00  0.00     0.025 A 
ATOM      2  C3  <0> d   1      18.536   2.452  14.273  0.00  0.00     0.030 A 
ATOM      3  C4  <0> d   1      18.891   2.548  15.605  0.00  0.00     0.027 A 
ATOM      4  C5  <0> d   1      18.623   1.502  16.470  0.00  0.00     0.079 A 
ATOM      5  C10 <0> d   1      18.002   0.358  16.005  0.00  0.00     0.027 A 
ATOM      6  C11 <0> d   1      17.640   0.258  14.676  0.00  0.00     0.030 A 
ENDROOT
BRANCH   4   7
ATOM      7  S6  <0> d   1      19.077   1.628  18.168  0.00  0.00     0.256 S 
ATOM      8  O8  <0> d   1      19.944   0.535  18.434  0.00  0.00    -0.201 OA
ATOM      9  O9  <0> d   1      19.446   2.984  18.385  0.00  0.00    -0.201 OA
BRANCH   7  10
ATOM     10  N7  <0> d   1      17.707   1.367  19.062  0.00  0.00    -0.324 N 
ATOM     11  H16 <0> d   1      16.847   1.296  18.621  0.00  0.00     0.169 HD
ATOM     12  H17 <0> d   1      17.766   1.284  20.026  0.00  0.00     0.169 HD
ENDBRANCH   7  10
ENDBRANCH   4   7
BRANCH   1  13
ATOM     13  N1  <0> d   1      17.551   1.205  12.457  0.00  0.00    -0.399 N 
ATOM     14  H12 <0> d   1      17.128   1.956  12.012  0.00  0.00     0.156 HD
ATOM     15  H13 <0> d   1      17.730   0.388  11.967  0.00  0.00     0.156 HD
ENDBRANCH   1  13
TORSDOF 3
ENDMDL
