MODEL 1
REMARK VINA RESULT:       7.2      0.000      0.000
REMARK  8 active torsions:
REMARK  status: ('A' for Active; 'I' for Inactive)
REMARK    1  A    between atoms: O2_2  and  C3_3 
REMARK    2  A    between atoms: C17_16  and  O18_17 
REMARK    3  A    between atoms: C31_29  and  O33_30 
REMARK    4  A    between atoms: C37_33  and  O39_34 
REMARK    5  A    between atoms: C43_37  and  O45_38 
REMARK    6  A    between atoms: O45_38  and  C46_39 
REMARK    7  A    between atoms: C52_44  and  C53_45 
REMARK    8  A    between atoms: N54_46  and  N55_47 
ROOT
ATOM      1  C3  ZIN A   1      18.395  -1.057  16.138  0.00  0.00     0.151 C 
ATOM      2  C5  ZIN A   1      18.930  -0.739  14.769  0.00  0.00     0.029 C 
ATOM      3  C6  ZIN A   1      18.387  -1.254  13.677  0.00  0.00     0.137 C 
ATOM      4  O7  ZIN A   1      18.941  -0.947  12.466  0.00  0.00    -0.319 OA
ATOM      5  C8  ZIN A   1      19.006   0.401  12.073  0.00  0.00     0.237 C 
ATOM      6  C9  ZIN A   1      20.394   1.005  12.354  0.00  0.00     0.089 C 
ATOM      7  O10 ZIN A   1      18.713   0.631  10.675  0.00  0.00    -0.305 OA
ATOM      8  C11 ZIN A   1      18.334   1.946  10.615  0.00  0.00     0.097 C 
ATOM      9  C12 ZIN A   1      18.388   2.872   9.574  0.00  0.00     0.010 C 
ATOM     10  C13 ZIN A   1      18.880   2.424   8.225  0.00  0.00     0.054 C 
ATOM     11  C14 ZIN A   1      18.022   4.191   9.744  0.00  0.00     0.130 C 
ATOM     12  O15 ZIN A   1      18.126   5.029   8.683  0.00  0.00    -0.190 OA
ATOM     13  C16 ZIN A   1      17.539   4.679  10.976  0.00  0.00     0.051 C 
ATOM     14  C17 ZIN A   1      17.356   6.051  11.260  0.00  0.00     0.107 C 
ATOM     15  C19 ZIN A   1      16.775   6.461  12.441  0.00  0.00     0.084 C 
ATOM     16  N20 ZIN A   1      16.675   7.792  12.847  0.00  0.00    -0.320 N 
ATOM     17  C21 ZIN A   1      17.170   8.205  14.005  0.00  0.00     0.251 C 
ATOM     18  O22 ZIN A   1      18.365   8.066  14.166  0.00  0.00    -0.268 OA
ATOM     19  C23 ZIN A   1      16.470   8.744  15.144  0.00  0.00     0.006 C 
ATOM     20  C24 ZIN A   1      15.052   9.251  14.988  0.00  0.00     0.054 C 
ATOM     21  C25 ZIN A   1      17.029   8.817  16.368  0.00  0.00     0.012 C 
ATOM     22  C26 ZIN A   1      18.405   8.529  16.692  0.00  0.00    -0.003 C 
ATOM     23  C27 ZIN A   1      18.865   7.578  17.476  0.00  0.00    -0.020 C 
ATOM     24  C28 ZIN A   1      17.979   6.572  18.183  0.00  0.00     0.033 C 
ATOM     25  C30 ZIN A   1      17.797   7.016  19.633  0.00  0.00     0.017 C 
ATOM     26  C31 ZIN A   1      18.707   5.228  18.145  0.00  0.00     0.131 C 
ATOM     27  C34 ZIN A   1      17.769   4.033  18.346  0.00  0.00     0.040 C 
ATOM     28  C36 ZIN A   1      16.677   4.059  17.273  0.00  0.00     0.015 C 
ATOM     29  C37 ZIN A   1      18.578   2.744  18.182  0.00  0.00     0.130 C 
ATOM     30  C40 ZIN A   1      18.073   1.569  18.988  0.00  0.00     0.041 C 
ATOM     31  C42 ZIN A   1      16.645   1.706  19.495  0.00  0.00     0.015 C 
ATOM     32  C43 ZIN A   1      18.268   0.227  18.284  0.00  0.00     0.144 C 
ATOM     33  C49 ZIN A   1      17.884   0.230  16.813  0.00  0.00     0.044 C 
ATOM     34  C51 ZIN A   1      16.356   0.227  16.655  0.00  0.00     0.015 C 
ATOM     35  C52 ZIN A   1      16.223   5.465  13.293  0.00  0.00     0.050 C 
ATOM     36  C62 ZIN A   1      16.548   4.122  13.113  0.00  0.00     0.133 C 
ATOM     37  O63 ZIN A   1      16.099   3.193  13.999  0.00  0.00    -0.190 OA
ATOM     38  C64 ZIN A   1      17.269   3.715  11.988  0.00  0.00     0.034 C 
ATOM     39  C65 ZIN A   1      17.806   2.361  11.857  0.00  0.00     0.064 C 
ATOM     40  C66 ZIN A   1      17.955   1.270  12.755  0.00  0.00     0.225 C 
ATOM     41  O67 ZIN A   1      17.378   1.093  13.806  0.00  0.00    -0.286 OA
ATOM     42  H80 ZIN A   1      16.233   8.434  12.252  0.00  0.00     0.169 HD
ENDROOT
BRANCH  35  43
ATOM     43  C53 ZIN A   1      15.291   5.823  14.379  0.00  0.00     0.155 C 
ATOM     44  N54 ZIN A   1      14.021   5.939  14.132  0.00  0.00    -0.189 NA
BRANCH  44  45
ATOM     45  N55 ZIN A   1      13.153   6.403  15.129  0.00  0.00    -0.302 N 
ATOM     46  C61 ZIN A   1      11.913   7.113  14.780  0.00  0.00     0.174 C 
ATOM     47  C60 ZIN A   1      11.855   8.419  15.571  0.00  0.00     0.293 C 
ATOM     48  N58 ZIN A   1      12.025   8.131  17.002  0.00  0.00     0.087 N 
ATOM     49  C57 ZIN A   1      13.344   7.545  17.274  0.00  0.00     0.293 C 
ATOM     50  C59 ZIN A   1      11.807   9.337  17.811  0.00  0.00     0.310 C 
ATOM     51  C56 ZIN A   1      13.461   6.198  16.553  0.00  0.00     0.174 C 
ENDBRANCH  44  45
ENDBRANCH  35  43
BRANCH  14  52
ATOM     52  O18 ZIN A   1      17.747   6.978  10.347  0.00  0.00    -0.357 OA
ATOM     53  H79 ZIN A   1      18.204   6.607   9.580  0.00  0.00     0.217 HD
ENDBRANCH  14  52
BRANCH  26  54
ATOM     54  O33 ZIN A   1      19.366   5.098  16.881  0.00  0.00    -0.394 OA
ATOM     55  H90 ZIN A   1      19.195   5.829  16.272  0.00  0.00     0.210 HD
ENDBRANCH  26  54
BRANCH   1  56
ATOM     56  O2  ZIN A   1      17.313  -1.983  16.034  0.00  0.00    -0.386 OA
ATOM     57  C1  ZIN A   1      17.639  -3.308  16.457  0.00  0.00     0.202 C 
ENDBRANCH   1  56
BRANCH  29  58
ATOM     58  O39 ZIN A   1      19.933   3.021  18.590  0.00  0.00    -0.395 OA
ATOM     59  H94 ZIN A   1      20.338   3.767  18.129  0.00  0.00     0.210 HD
ENDBRANCH  29  58
BRANCH  32  60
ATOM     60  O45 ZIN A   1      19.665  -0.168  18.429  0.00  0.00    -0.315 OA
BRANCH  60  61
ATOM     61  C46 ZIN A   1      19.913  -1.475  18.609  0.00  0.00     0.255 C 
ATOM     62  C47 ZIN A   1      20.733  -2.231  17.596  0.00  0.00     0.126 C 
ATOM     63  O48 ZIN A   1      19.477  -2.045  19.581  0.00  0.00    -0.266 OA
ENDBRANCH  60  61
ENDBRANCH  32  60
TORSDOF 8
ENDMDL
