MODEL 1
REMARK VINA RESULT:      -5.3      0.000      0.000
REMARK  4 active torsions:
REMARK  status: ('A' for Active; 'I' for Inactive)
REMARK    1  A    between atoms: C2_2  and  N4_3 
REMARK    2  A    between atoms: C2_2  and  C8_7 
REMARK    3  A    between atoms: C8_7  and  C9_8 
REMARK    4  A    between atoms: C12_11  and  O13_12 
ROOT
ATOM      1  C9  <0> d   1      18.533   0.297   7.635  0.00  0.00    -0.056 A 
ATOM      2  C10 <0> d   1      18.781   1.044   6.497  0.00  0.00     0.010 A 
ATOM      3  C11 <0> d   1      19.179   0.416   5.332  0.00  0.00     0.037 A 
ATOM      4  C12 <0> d   1      19.330  -0.962   5.304  0.00  0.00     0.065 A 
ATOM      5  C14 <0> d   1      19.081  -1.708   6.447  0.00  0.00     0.037 A 
ATOM      6  C15 <0> d   1      18.688  -1.076   7.611  0.00  0.00     0.010 A 
ENDROOT
BRANCH   1   7
ATOM      7  C8  <0> d   1      18.099   0.983   8.904  0.00  0.00     0.070 C 
BRANCH   7   8
ATOM      8  C2  <0> d   1      19.161   2.002   9.323  0.00  0.00     0.183 C 
ATOM      9  C1  <0> d   1      18.478   3.240   9.908  0.00  0.00     0.040 C 
BRANCH   8  10
ATOM     10  N4  <0> d   1      20.041   1.403  10.335  0.00  0.00    -0.075 N 
ATOM     11  H5  <0> d   1      20.218   0.438  10.097  0.00  0.00     0.274 HD
ATOM     12  H6  <0> d   1      20.914   1.908  10.363  0.00  0.00     0.274 HD
ATOM     13  H7  <0> d   1      19.595   1.450  11.238  0.00  0.00     0.274 HD
ENDBRANCH   8  10
ENDBRANCH   7   8
ENDBRANCH   1   7
BRANCH   4  14
ATOM     14  O13 <0> d   1      19.723  -1.581   4.160  0.00  0.00    -0.361 OA
ATOM     15  H23 <0> d   1      19.625  -2.542   4.178  0.00  0.00     0.217 HD
ENDBRANCH   4  14
TORSDOF 4
ENDMDL
MODEL 2
REMARK VINA RESULT:      -5.1      3.363      4.995
REMARK  4 active torsions:
REMARK  status: ('A' for Active; 'I' for Inactive)
REMARK    1  A    between atoms: C2_2  and  N4_3 
REMARK    2  A    between atoms: C2_2  and  C8_7 
REMARK    3  A    between atoms: C8_7  and  C9_8 
REMARK    4  A    between atoms: C12_11  and  O13_12 
ROOT
ATOM      1  C9  <0> d   1      18.592   0.702   8.466  0.00  0.00    -0.056 A 
ATOM      2  C10 <0> d   1      19.013   2.013   8.601  0.00  0.00     0.010 A 
ATOM      3  C11 <0> d   1      18.588   2.768   9.677  0.00  0.00     0.037 A 
ATOM      4  C12 <0> d   1      17.740   2.211  10.622  0.00  0.00     0.065 A 
ATOM      5  C14 <0> d   1      17.318   0.896  10.484  0.00  0.00     0.037 A 
ATOM      6  C15 <0> d   1      17.742   0.147   9.404  0.00  0.00     0.010 A 
ENDROOT
BRANCH   1   7
ATOM      7  C8  <0> d   1      19.056  -0.119   7.291  0.00  0.00     0.070 C 
BRANCH   7   8
ATOM      8  C2  <0> d   1      18.262   0.277   6.045  0.00  0.00     0.183 C 
ATOM      9  C1  <0> d   1      19.112   0.027   4.798  0.00  0.00     0.040 C 
BRANCH   8  10
ATOM     10  N4  <0> d   1      17.034  -0.526   5.971  0.00  0.00    -0.075 N 
ATOM     11  H5  <0> d   1      16.513  -0.265   5.147  0.00  0.00     0.274 HD
ATOM     12  H6  <0> d   1      17.275  -1.505   5.921  0.00  0.00     0.274 HD
ATOM     13  H7  <0> d   1      16.472  -0.358   6.791  0.00  0.00     0.274 HD
ENDBRANCH   8  10
ENDBRANCH   7   8
ENDBRANCH   1   7
BRANCH   4  14
ATOM     14  O13 <0> d   1      17.320   2.953  11.681  0.00  0.00    -0.361 OA
ATOM     15  H23 <0> d   1      17.108   3.870  11.460  0.00  0.00     0.217 HD
ENDBRANCH   4  14
TORSDOF 4
ENDMDL
MODEL 3
REMARK VINA RESULT:      -5.1      2.307      3.343
REMARK  4 active torsions:
REMARK  status: ('A' for Active; 'I' for Inactive)
REMARK    1  A    between atoms: C2_2  and  N4_3 
REMARK    2  A    between atoms: C2_2  and  C8_7 
REMARK    3  A    between atoms: C8_7  and  C9_8 
REMARK    4  A    between atoms: C12_11  and  O13_12 
ROOT
ATOM      1  C9  <0> d   1      18.478   2.033   9.505  0.00  0.00    -0.056 A 
ATOM      2  C10 <0> d   1      17.619   1.047   9.959  0.00  0.00     0.010 A 
ATOM      3  C11 <0> d   1      17.358  -0.057   9.172  0.00  0.00     0.037 A 
ATOM      4  C12 <0> d   1      17.957  -0.178   7.927  0.00  0.00     0.065 A 
ATOM      5  C14 <0> d   1      18.817   0.813   7.473  0.00  0.00     0.037 A 
ATOM      6  C15 <0> d   1      19.071   1.918   8.262  0.00  0.00     0.010 A 
ENDROOT
BRANCH   1   7
ATOM      7  C8  <0> d   1      18.761   3.237  10.366  0.00  0.00     0.070 C 
BRANCH   7   8
ATOM      8  C2  <0> d   1      17.459   3.997  10.625  0.00  0.00     0.183 C 
ATOM      9  C1  <0> d   1      17.340   4.310  12.118  0.00  0.00     0.040 C 
BRANCH   8  10
ATOM     10  N4  <0> d   1      17.463   5.251   9.860  0.00  0.00    -0.075 N 
ATOM     11  H5  <0> d   1      18.405   5.610   9.810  0.00  0.00     0.274 HD
ATOM     12  H6  <0> d   1      17.119   5.078   8.928  0.00  0.00     0.274 HD
ATOM     13  H7  <0> d   1      16.870   5.927  10.319  0.00  0.00     0.274 HD
ENDBRANCH   8  10
ENDBRANCH   7   8
ENDBRANCH   1   7
BRANCH   4  14
ATOM     14  O13 <0> d   1      17.700  -1.263   7.150  0.00  0.00    -0.361 OA
ATOM     15  H23 <0> d   1      17.959  -2.104   7.550  0.00  0.00     0.217 HD
ENDBRANCH   4  14
TORSDOF 4
ENDMDL
MODEL 4
REMARK VINA RESULT:      -5.1      1.769      2.874
REMARK  4 active torsions:
REMARK  status: ('A' for Active; 'I' for Inactive)
REMARK    1  A    between atoms: C2_2  and  N4_3 
REMARK    2  A    between atoms: C2_2  and  C8_7 
REMARK    3  A    between atoms: C8_7  and  C9_8 
REMARK    4  A    between atoms: C12_11  and  O13_12 
ROOT
ATOM      1  C9  <0> d   1      18.311   1.737   9.727  0.00  0.00    -0.056 A 
ATOM      2  C10 <0> d   1      17.545   0.589   9.632  0.00  0.00     0.010 A 
ATOM      3  C11 <0> d   1      17.540  -0.143   8.460  0.00  0.00     0.037 A 
ATOM      4  C12 <0> d   1      18.303   0.274   7.380  0.00  0.00     0.065 A 
ATOM      5  C14 <0> d   1      19.069   1.426   7.477  0.00  0.00     0.037 A 
ATOM      6  C15 <0> d   1      19.068   2.158   8.648  0.00  0.00     0.010 A 
ENDROOT
BRANCH   1   7
ATOM      7  C8  <0> d   1      18.315   2.535  11.005  0.00  0.00     0.070 C 
BRANCH   7   8
ATOM      8  C2  <0> d   1      19.730   3.047  11.283  0.00  0.00     0.183 C 
ATOM      9  C1  <0> d   1      19.661   4.247  12.230  0.00  0.00     0.040 C 
BRANCH   8  10
ATOM     10  N4  <0> d   1      20.525   1.978  11.902  0.00  0.00    -0.075 N 
ATOM     11  H5  <0> d   1      20.020   1.107  11.842  0.00  0.00     0.274 HD
ATOM     12  H6  <0> d   1      21.406   1.890  11.418  0.00  0.00     0.274 HD
ATOM     13  H7  <0> d   1      20.694   2.203  12.871  0.00  0.00     0.274 HD
ENDBRANCH   8  10
ENDBRANCH   7   8
ENDBRANCH   1   7
BRANCH   4  14
ATOM     14  O13 <0> d   1      18.298  -0.444   6.226  0.00  0.00    -0.361 OA
ATOM     15  H23 <0> d   1      18.449  -1.391   6.350  0.00  0.00     0.217 HD
ENDBRANCH   4  14
TORSDOF 4
ENDMDL
MODEL 5
REMARK VINA RESULT:      -5.1      1.804      2.663
REMARK  4 active torsions:
REMARK  status: ('A' for Active; 'I' for Inactive)
REMARK    1  A    between atoms: C2_2  and  N4_3 
REMARK    2  A    between atoms: C2_2  and  C8_7 
REMARK    3  A    between atoms: C8_7  and  C9_8 
REMARK    4  A    between atoms: C12_11  and  O13_12 
ROOT
ATOM      1  C9  <0> d   1      18.334   1.873   9.769  0.00  0.00    -0.056 A 
ATOM      2  C10 <0> d   1      19.082   2.241   8.665  0.00  0.00     0.010 A 
ATOM      3  C11 <0> d   1      19.095   1.438   7.540  0.00  0.00     0.037 A 
ATOM      4  C12 <0> d   1      18.359   0.264   7.519  0.00  0.00     0.065 A 
ATOM      5  C14 <0> d   1      17.610  -0.104   8.628  0.00  0.00     0.037 A 
ATOM      6  C15 <0> d   1      17.604   0.699   9.752  0.00  0.00     0.010 A 
ENDROOT
BRANCH   1   7
ATOM      7  C8  <0> d   1      18.321   2.749  10.994  0.00  0.00     0.070 C 
BRANCH   7   8
ATOM      8  C2  <0> d   1      19.749   3.183  11.328  0.00  0.00     0.183 C 
ATOM      9  C1  <0> d   1      19.711   4.339  12.329  0.00  0.00     0.040 C 
BRANCH   8  10
ATOM     10  N4  <0> d   1      20.481   2.051  11.912  0.00  0.00    -0.075 N 
ATOM     11  H5  <0> d   1      20.641   1.352  11.202  0.00  0.00     0.274 HD
ATOM     12  H6  <0> d   1      21.366   2.373  12.274  0.00  0.00     0.274 HD
ATOM     13  H7  <0> d   1      19.936   1.650  12.661  0.00  0.00     0.274 HD
ENDBRANCH   8  10
ENDBRANCH   7   8
ENDBRANCH   1   7
BRANCH   4  14
ATOM     14  O13 <0> d   1      18.372  -0.528   6.414  0.00  0.00    -0.361 OA
ATOM     15  H23 <0> d   1      19.208  -0.993   6.272  0.00  0.00     0.217 HD
ENDBRANCH   4  14
TORSDOF 4
ENDMDL
MODEL 6
REMARK VINA RESULT:      -4.8      6.695      8.320
REMARK  4 active torsions:
REMARK  status: ('A' for Active; 'I' for Inactive)
REMARK    1  A    between atoms: C2_2  and  N4_3 
REMARK    2  A    between atoms: C2_2  and  C8_7 
REMARK    3  A    between atoms: C8_7  and  C9_8 
REMARK    4  A    between atoms: C12_11  and  O13_12 
ROOT
ATOM      1  C9  <0> d   1      18.829  -0.819  13.642  0.00  0.00    -0.056 A 
ATOM      2  C10 <0> d   1      19.044  -1.515  14.818  0.00  0.00     0.010 A 
ATOM      3  C11 <0> d   1      18.403  -1.126  15.979  0.00  0.00     0.037 A 
ATOM      4  C12 <0> d   1      17.544  -0.038  15.964  0.00  0.00     0.065 A 
ATOM      5  C14 <0> d   1      17.330   0.659  14.784  0.00  0.00     0.037 A 
ATOM      6  C15 <0> d   1      17.977   0.270  13.627  0.00  0.00     0.010 A 
ENDROOT
BRANCH   1   7
ATOM      7  C8  <0> d   1      19.529  -1.244  12.378  0.00  0.00     0.070 C 
BRANCH   7   8
ATOM      8  C2  <0> d   1      19.505  -2.770  12.268  0.00  0.00     0.183 C 
ATOM      9  C1  <0> d   1      18.195  -3.213  11.613  0.00  0.00     0.040 C 
BRANCH   8  10
ATOM     10  N4  <0> d   1      20.639  -3.220  11.451  0.00  0.00    -0.075 N 
ATOM     11  H5  <0> d   1      20.959  -4.117  11.787  0.00  0.00     0.274 HD
ATOM     12  H6  <0> d   1      20.348  -3.307  10.489  0.00  0.00     0.274 HD
ATOM     13  H7  <0> d   1      21.389  -2.549  11.518  0.00  0.00     0.274 HD
ENDBRANCH   8  10
ENDBRANCH   7   8
ENDBRANCH   1   7
BRANCH   4  14
ATOM     14  O13 <0> d   1      16.913   0.346  17.105  0.00  0.00    -0.361 OA
ATOM     15  H23 <0> d   1      17.498   0.745  17.764  0.00  0.00     0.217 HD
ENDBRANCH   4  14
TORSDOF 4
ENDMDL
MODEL 7
REMARK VINA RESULT:      -4.8      2.090      2.937
REMARK  4 active torsions:
REMARK  status: ('A' for Active; 'I' for Inactive)
REMARK    1  A    between atoms: C2_2  and  N4_3 
REMARK    2  A    between atoms: C2_2  and  C8_7 
REMARK    3  A    between atoms: C8_7  and  C9_8 
REMARK    4  A    between atoms: C12_11  and  O13_12 
ROOT
ATOM      1  C9  <0> d   1      18.829   1.623   9.562  0.00  0.00    -0.056 A 
ATOM      2  C10 <0> d   1      19.328   1.720   8.276  0.00  0.00     0.010 A 
ATOM      3  C11 <0> d   1      18.792   0.944   7.266  0.00  0.00     0.037 A 
ATOM      4  C12 <0> d   1      17.754   0.068   7.543  0.00  0.00     0.065 A 
ATOM      5  C14 <0> d   1      17.255  -0.028   8.835  0.00  0.00     0.037 A 
ATOM      6  C15 <0> d   1      17.797   0.746   9.842  0.00  0.00     0.010 A 
ENDROOT
BRANCH   1   7
ATOM      7  C8  <0> d   1      19.415   2.470  10.662  0.00  0.00     0.070 C 
BRANCH   7   8
ATOM      8  C2  <0> d   1      19.395   1.687  11.976  0.00  0.00     0.183 C 
ATOM      9  C1  <0> d   1      20.609   0.756  12.033  0.00  0.00     0.040 C 
BRANCH   8  10
ATOM     10  N4  <0> d   1      19.443   2.624  13.106  0.00  0.00    -0.075 N 
ATOM     11  H5  <0> d   1      19.617   2.113  13.959  0.00  0.00     0.274 HD
ATOM     12  H6  <0> d   1      20.183   3.294  12.957  0.00  0.00     0.274 HD
ATOM     13  H7  <0> d   1      18.560   3.108  13.179  0.00  0.00     0.274 HD
ENDBRANCH   8  10
ENDBRANCH   7   8
ENDBRANCH   1   7
BRANCH   4  14
ATOM     14  O13 <0> d   1      17.226  -0.697   6.552  0.00  0.00    -0.361 OA
ATOM     15  H23 <0> d   1      17.874  -1.244   6.088  0.00  0.00     0.217 HD
ENDBRANCH   4  14
TORSDOF 4
ENDMDL
MODEL 8
REMARK VINA RESULT:      -4.8      1.752      2.368
REMARK  4 active torsions:
REMARK  status: ('A' for Active; 'I' for Inactive)
REMARK    1  A    between atoms: C2_2  and  N4_3 
REMARK    2  A    between atoms: C2_2  and  C8_7 
REMARK    3  A    between atoms: C8_7  and  C9_8 
REMARK    4  A    between atoms: C12_11  and  O13_12 
ROOT
ATOM      1  C9  <0> d   1      19.176  -0.790   8.344  0.00  0.00    -0.056 A 
ATOM      2  C10 <0> d   1      19.273  -1.796   7.399  0.00  0.00     0.010 A 
ATOM      3  C11 <0> d   1      19.207  -1.489   6.054  0.00  0.00     0.037 A 
ATOM      4  C12 <0> d   1      19.043  -0.173   5.651  0.00  0.00     0.065 A 
ATOM      5  C14 <0> d   1      18.945   0.835   6.600  0.00  0.00     0.037 A 
ATOM      6  C15 <0> d   1      19.006   0.523   7.944  0.00  0.00     0.010 A 
ENDROOT
BRANCH   1   7
ATOM      7  C8  <0> d   1      19.247  -1.127   9.811  0.00  0.00     0.070 C 
BRANCH   7   8
ATOM      8  C2  <0> d   1      20.083  -0.071  10.537  0.00  0.00     0.183 C 
ATOM      9  C1  <0> d   1      19.402   0.299  11.856  0.00  0.00     0.040 C 
BRANCH   8  10
ATOM     10  N4  <0> d   1      21.422  -0.609  10.810  0.00  0.00    -0.075 N 
ATOM     11  H5  <0> d   1      22.110   0.117  10.672  0.00  0.00     0.274 HD
ATOM     12  H6  <0> d   1      21.466  -0.936  11.764  0.00  0.00     0.274 HD
ATOM     13  H7  <0> d   1      21.611  -1.375  10.182  0.00  0.00     0.274 HD
ENDBRANCH   8  10
ENDBRANCH   7   8
ENDBRANCH   1   7
BRANCH   4  14
ATOM     14  O13 <0> d   1      18.976   0.131   4.328  0.00  0.00    -0.361 OA
ATOM     15  H23 <0> d   1      19.700   0.690   4.015  0.00  0.00     0.217 HD
ENDBRANCH   4  14
TORSDOF 4
ENDMDL
MODEL 9
REMARK VINA RESULT:      -4.7      4.252      6.491
REMARK  4 active torsions:
REMARK  status: ('A' for Active; 'I' for Inactive)
REMARK    1  A    between atoms: C2_2  and  N4_3 
REMARK    2  A    between atoms: C2_2  and  C8_7 
REMARK    3  A    between atoms: C8_7  and  C9_8 
REMARK    4  A    between atoms: C12_11  and  O13_12 
ROOT
ATOM      1  C9  <0> d   1      18.726   3.188  10.356  0.00  0.00    -0.056 A 
ATOM      2  C10 <0> d   1      19.665   3.243  11.370  0.00  0.00     0.010 A 
ATOM      3  C11 <0> d   1      19.448   4.049  12.471  0.00  0.00     0.037 A 
ATOM      4  C12 <0> d   1      18.287   4.803  12.559  0.00  0.00     0.065 A 
ATOM      5  C14 <0> d   1      17.347   4.747  11.540  0.00  0.00     0.037 A 
ATOM      6  C15 <0> d   1      17.571   3.944  10.439  0.00  0.00     0.010 A 
ENDROOT
BRANCH   1   7
ATOM      7  C8  <0> d   1      18.966   2.309   9.156  0.00  0.00     0.070 C 
BRANCH   7   8
ATOM      8  C2  <0> d   1      18.878   0.840   9.573  0.00  0.00     0.183 C 
ATOM      9  C1  <0> d   1      17.812   0.134   8.734  0.00  0.00     0.040 C 
BRANCH   8  10
ATOM     10  N4  <0> d   1      20.179   0.192   9.360  0.00  0.00    -0.075 N 
ATOM     11  H5  <0> d   1      20.499   0.382   8.421  0.00  0.00     0.274 HD
ATOM     12  H6  <0> d   1      20.849   0.554  10.022  0.00  0.00     0.274 HD
ATOM     13  H7  <0> d   1      20.084  -0.804   9.487  0.00  0.00     0.274 HD
ENDBRANCH   8  10
ENDBRANCH   7   8
ENDBRANCH   1   7
BRANCH   4  14
ATOM     14  O13 <0> d   1      18.072   5.597  13.640  0.00  0.00    -0.361 OA
ATOM     15  H23 <0> d   1      18.115   5.131  14.486  0.00  0.00     0.217 HD
ENDBRANCH   4  14
TORSDOF 4
ENDMDL
