MODEL 1
REMARK VINA RESULT:      -6.9      0.000      0.000
REMARK  15 active torsions:
REMARK  status: ('A' for Active; 'I' for Inactive)
REMARK    1  A    between atoms: C2_2  and  C3_3 
REMARK    2  A    between atoms: C3_3  and  C4_4 
REMARK    3  A    between atoms: C4_4  and  C5_5 
REMARK    4  A    between atoms: C5_5  and  C6_6 
REMARK    5  A    between atoms: C6_6  and  C7_7 
REMARK    6  A    between atoms: C7_7  and  N8_8 
REMARK    7  A    between atoms: N8_8  and  C10_10 
REMARK    8  A    between atoms: N8_8  and  C12_12 
REMARK    9  A    between atoms: C12_12  and  C13_13 
REMARK   10  A    between atoms: C13_13  and  C14_14 
REMARK   11  A    between atoms: C14_14  and  C15_15 
REMARK   12  A    between atoms: C15_15  and  O17_16 
REMARK   13  A    between atoms: C15_15  and  C18_17 
REMARK   14  A    between atoms: C21_20  and  N22_21 
REMARK   15  A    between atoms: N22_21  and  S23_22 
ROOT
ATOM      1  C15 ZIN A   1      18.438   2.490  10.426  0.00  0.00     0.151 C 
ENDROOT
BRANCH   1   2
ATOM      2  C14 ZIN A   1      19.637   2.061  11.274  0.00  0.00     0.038 C 
BRANCH   2   3
ATOM      3  C13 ZIN A   1      19.199   1.891  12.730  0.00  0.00     0.030 C 
BRANCH   3   4
ATOM      4  C12 ZIN A   1      19.785   0.593  13.291  0.00  0.00     0.235 C 
BRANCH   4   5
ATOM      5  N8  ZIN A   1      18.721  -0.182  13.942  0.00  0.00    -0.071 N 
ATOM      6  H9  ZIN A   1      17.822   0.174  13.658  0.00  0.00     0.279 HD
BRANCH   5   7
ATOM      7  C7  ZIN A   1      18.835  -1.594  13.550  0.00  0.00     0.234 C 
BRANCH   7   8
ATOM      8  C6  ZIN A   1      18.274  -1.778  12.139  0.00  0.00     0.028 C 
BRANCH   8   9
ATOM      9  C5  ZIN A   1      19.347  -2.395  11.240  0.00  0.00     0.002 C 
BRANCH   9  10
ATOM     10  C4  ZIN A   1      19.590  -3.847  11.658  0.00  0.00     0.000 C 
BRANCH  10  11
ATOM     11  C3  ZIN A   1      19.323  -4.771  10.469  0.00  0.00    -0.000 C 
BRANCH  11  12
ATOM     12  C2  ZIN A   1      17.883  -5.286  10.537  0.00  0.00    -0.005 C 
ATOM     13  C1  ZIN A   1      17.482  -5.486  12.000  0.00  0.00     0.005 C 
ENDBRANCH  11  12
ENDBRANCH  10  11
ENDBRANCH   9  10
ENDBRANCH   8   9
ENDBRANCH   7   8
ENDBRANCH   5   7
BRANCH   5  14
ATOM     14  C10 ZIN A   1      18.855  -0.068  15.400  0.00  0.00     0.230 C 
ATOM     15  C11 ZIN A   1      18.579  -1.427  16.046  0.00  0.00     0.034 C 
ENDBRANCH   5  14
ENDBRANCH   4   5
ENDBRANCH   3   4
ENDBRANCH   2   3
ENDBRANCH   1   2
BRANCH   1  16
ATOM     16  O17 ZIN A   1      17.251   2.444  11.222  0.00  0.00    -0.391 OA
ATOM     17  H55 ZIN A   1      16.554   3.044  10.924  0.00  0.00     0.210 HD
ENDBRANCH   1  16
BRANCH   1  18
ATOM     18  C18 ZIN A   1      18.292   1.556   9.253  0.00  0.00    -0.029 A 
ATOM     19  C28 ZIN A   1      18.954   1.826   8.069  0.00  0.00     0.012 A 
ATOM     20  C27 ZIN A   1      18.826   0.969   6.995  0.00  0.00     0.031 A 
ATOM     21  C21 ZIN A   1      18.024  -0.160   7.099  0.00  0.00     0.042 A 
ATOM     22  C20 ZIN A   1      17.355  -0.425   8.288  0.00  0.00     0.031 A 
ATOM     23  C19 ZIN A   1      17.491   0.433   9.361  0.00  0.00     0.012 A 
BRANCH  21  24
ATOM     24  N22 ZIN A   1      17.888  -1.025   6.011  0.00  0.00    -0.285 N 
ATOM     25  H58 ZIN A   1      17.025  -1.131   5.580  0.00  0.00     0.178 HD
BRANCH  24  26
ATOM     26  S23 ZIN A   1      19.199  -1.870   5.455  0.00  0.00     0.227 S 
ATOM     27  C24 ZIN A   1      18.485  -3.262   4.538  0.00  0.00     0.186 C 
ATOM     28  O25 ZIN A   1      19.847  -0.968   4.569  0.00  0.00    -0.206 OA
ATOM     29  O26 ZIN A   1      19.845  -2.329   6.634  0.00  0.00    -0.206 OA
ENDBRANCH  24  26
ENDBRANCH  21  24
ENDBRANCH   1  18
TORSDOF 15
ENDMDL
MODEL 2
REMARK VINA RESULT:      -6.7      2.458      3.951
REMARK  15 active torsions:
REMARK  status: ('A' for Active; 'I' for Inactive)
REMARK    1  A    between atoms: C2_2  and  C3_3 
REMARK    2  A    between atoms: C3_3  and  C4_4 
REMARK    3  A    between atoms: C4_4  and  C5_5 
REMARK    4  A    between atoms: C5_5  and  C6_6 
REMARK    5  A    between atoms: C6_6  and  C7_7 
REMARK    6  A    between atoms: C7_7  and  N8_8 
REMARK    7  A    between atoms: N8_8  and  C10_10 
REMARK    8  A    between atoms: N8_8  and  C12_12 
REMARK    9  A    between atoms: C12_12  and  C13_13 
REMARK   10  A    between atoms: C13_13  and  C14_14 
REMARK   11  A    between atoms: C14_14  and  C15_15 
REMARK   12  A    between atoms: C15_15  and  O17_16 
REMARK   13  A    between atoms: C15_15  and  C18_17 
REMARK   14  A    between atoms: C21_20  and  N22_21 
REMARK   15  A    between atoms: N22_21  and  S23_22 
ROOT
ATOM      1  C15 ZIN A   1      18.551   2.259  10.520  0.00  0.00     0.151 C 
ENDROOT
BRANCH   1   2
ATOM      2  C14 ZIN A   1      17.801   3.583  10.365  0.00  0.00     0.038 C 
BRANCH   2   3
ATOM      3  C13 ZIN A   1      18.411   4.628  11.300  0.00  0.00     0.030 C 
BRANCH   3   4
ATOM      4  C12 ZIN A   1      17.402   4.986  12.394  0.00  0.00     0.235 C 
BRANCH   4   5
ATOM      5  N8  ZIN A   1      18.075   4.986  13.700  0.00  0.00    -0.071 N 
ATOM      6  H9  ZIN A   1      17.794   5.802  14.222  0.00  0.00     0.279 HD
BRANCH   5   7
ATOM      7  C7  ZIN A   1      17.702   3.775  14.443  0.00  0.00     0.234 C 
BRANCH   7   8
ATOM      8  C6  ZIN A   1      18.838   2.754  14.357  0.00  0.00     0.028 C 
BRANCH   8   9
ATOM      9  C5  ZIN A   1      18.251   1.343  14.287  0.00  0.00     0.002 C 
BRANCH   9  10
ATOM     10  C4  ZIN A   1      19.241   0.413  13.582  0.00  0.00     0.000 C 
BRANCH  10  11
ATOM     11  C3  ZIN A   1      19.090  -1.005  14.134  0.00  0.00    -0.000 C 
BRANCH  11  12
ATOM     12  C2  ZIN A   1      18.208  -0.974  15.385  0.00  0.00    -0.005 C 
ATOM     13  C1  ZIN A   1      19.003  -1.496  16.582  0.00  0.00     0.005 C 
ENDBRANCH  11  12
ENDBRANCH  10  11
ENDBRANCH   9  10
ENDBRANCH   8   9
ENDBRANCH   7   8
ENDBRANCH   5   7
BRANCH   5  14
ATOM     14  C10 ZIN A   1      19.530   5.009  13.501  0.00  0.00     0.230 C 
ATOM     15  C11 ZIN A   1      20.133   6.176  14.286  0.00  0.00     0.034 C 
ENDBRANCH   5  14
ENDBRANCH   4   5
ENDBRANCH   3   4
ENDBRANCH   2   3
ENDBRANCH   1   2
BRANCH   1  16
ATOM     16  O17 ZIN A   1      19.940   2.520  10.733  0.00  0.00    -0.391 OA
ATOM     17  H55 ZIN A   1      20.515   1.767  10.540  0.00  0.00     0.210 HD
ENDBRANCH   1  16
BRANCH   1  18
ATOM     18  C18 ZIN A   1      18.381   1.435   9.270  0.00  0.00    -0.029 A 
ATOM     19  C28 ZIN A   1      17.578   0.309   9.289  0.00  0.00     0.012 A 
ATOM     20  C27 ZIN A   1      17.416  -0.444   8.144  0.00  0.00     0.031 A 
ATOM     21  C21 ZIN A   1      18.068  -0.077   6.974  0.00  0.00     0.042 A 
ATOM     22  C20 ZIN A   1      18.879   1.051   6.959  0.00  0.00     0.031 A 
ATOM     23  C19 ZIN A   1      19.033   1.803   8.107  0.00  0.00     0.012 A 
BRANCH  21  24
ATOM     24  N22 ZIN A   1      17.911  -0.842   5.815  0.00  0.00    -0.285 N 
ATOM     25  H58 ZIN A   1      17.076  -0.808   5.322  0.00  0.00     0.178 HD
BRANCH  24  26
ATOM     26  S23 ZIN A   1      19.149  -1.804   5.283  0.00  0.00     0.227 S 
ATOM     27  C24 ZIN A   1      18.328  -3.120   4.344  0.00  0.00     0.186 C 
ATOM     28  O25 ZIN A   1      19.897  -0.964   4.416  0.00  0.00    -0.206 OA
ATOM     29  O26 ZIN A   1      19.724  -2.325   6.474  0.00  0.00    -0.206 OA
ENDBRANCH  24  26
ENDBRANCH  21  24
ENDBRANCH   1  18
TORSDOF 15
ENDMDL
MODEL 3
REMARK VINA RESULT:      -6.7      1.495      3.959
REMARK  15 active torsions:
REMARK  status: ('A' for Active; 'I' for Inactive)
REMARK    1  A    between atoms: C2_2  and  C3_3 
REMARK    2  A    between atoms: C3_3  and  C4_4 
REMARK    3  A    between atoms: C4_4  and  C5_5 
REMARK    4  A    between atoms: C5_5  and  C6_6 
REMARK    5  A    between atoms: C6_6  and  C7_7 
REMARK    6  A    between atoms: C7_7  and  N8_8 
REMARK    7  A    between atoms: N8_8  and  C10_10 
REMARK    8  A    between atoms: N8_8  and  C12_12 
REMARK    9  A    between atoms: C12_12  and  C13_13 
REMARK   10  A    between atoms: C13_13  and  C14_14 
REMARK   11  A    between atoms: C14_14  and  C15_15 
REMARK   12  A    between atoms: C15_15  and  O17_16 
REMARK   13  A    between atoms: C15_15  and  C18_17 
REMARK   14  A    between atoms: C21_20  and  N22_21 
REMARK   15  A    between atoms: N22_21  and  S23_22 
ROOT
ATOM      1  C15 ZIN A   1      18.759   2.374  10.212  0.00  0.00     0.151 C 
ENDROOT
BRANCH   1   2
ATOM      2  C14 ZIN A   1      18.276   1.730  11.513  0.00  0.00     0.038 C 
BRANCH   2   3
ATOM      3  C13 ZIN A   1      19.443   1.628  12.497  0.00  0.00     0.030 C 
BRANCH   3   4
ATOM      4  C12 ZIN A   1      20.274   0.384  12.177  0.00  0.00     0.235 C 
BRANCH   4   5
ATOM      5  N8  ZIN A   1      20.068  -0.625  13.225  0.00  0.00    -0.071 N 
ATOM      6  H9  ZIN A   1      20.963  -0.965  13.545  0.00  0.00     0.279 HD
BRANCH   5   7
ATOM      7  C7  ZIN A   1      19.342  -0.021  14.350  0.00  0.00     0.234 C 
BRANCH   7   8
ATOM      8  C6  ZIN A   1      18.115  -0.872  14.681  0.00  0.00     0.028 C 
BRANCH   8   9
ATOM      9  C5  ZIN A   1      18.158  -1.278  16.155  0.00  0.00     0.002 C 
BRANCH   9  10
ATOM     10  C4  ZIN A   1      19.125  -0.362  16.908  0.00  0.00     0.000 C 
BRANCH  10  11
ATOM     11  C3  ZIN A   1      18.569  -0.068  18.302  0.00  0.00    -0.000 C 
BRANCH  11  12
ATOM     12  C2  ZIN A   1      18.697   1.429  18.597  0.00  0.00    -0.005 C 
ATOM     13  C1  ZIN A   1      19.107   2.166  17.320  0.00  0.00     0.005 C 
ENDBRANCH  11  12
ENDBRANCH  10  11
ENDBRANCH   9  10
ENDBRANCH   8   9
ENDBRANCH   7   8
ENDBRANCH   5   7
BRANCH   5  14
ATOM     14  C10 ZIN A   1      19.286  -1.743  12.682  0.00  0.00     0.230 C 
ATOM     15  C11 ZIN A   1      19.768  -2.062  11.265  0.00  0.00     0.034 C 
ENDBRANCH   5  14
ENDBRANCH   4   5
ENDBRANCH   3   4
ENDBRANCH   2   3
ENDBRANCH   1   2
BRANCH   1  16
ATOM     16  O17 ZIN A   1      18.048   3.594   9.991  0.00  0.00    -0.391 OA
ATOM     17  H55 ZIN A   1      18.307   4.060   9.185  0.00  0.00     0.210 HD
ENDBRANCH   1  16
BRANCH   1  18
ATOM     18  C18 ZIN A   1      18.510   1.432   9.062  0.00  0.00    -0.029 A 
ATOM     19  C28 ZIN A   1      19.110   1.664   7.838  0.00  0.00     0.012 A 
ATOM     20  C27 ZIN A   1      18.888   0.800   6.784  0.00  0.00     0.031 A 
ATOM     21  C21 ZIN A   1      18.053  -0.297   6.951  0.00  0.00     0.042 A 
ATOM     22  C20 ZIN A   1      17.447  -0.523   8.180  0.00  0.00     0.031 A 
ATOM     23  C19 ZIN A   1      17.677   0.342   9.232  0.00  0.00     0.012 A 
BRANCH  21  24
ATOM     24  N22 ZIN A   1      17.821  -1.169   5.885  0.00  0.00    -0.285 N 
ATOM     25  H58 ZIN A   1      16.930  -1.246   5.507  0.00  0.00     0.178 HD
BRANCH  24  26
ATOM     26  S23 ZIN A   1      19.064  -2.070   5.266  0.00  0.00     0.227 S 
ATOM     27  C24 ZIN A   1      18.245  -3.421   4.375  0.00  0.00     0.186 C 
ATOM     28  O25 ZIN A   1      19.713  -1.193   4.355  0.00  0.00    -0.206 OA
ATOM     29  O26 ZIN A   1      19.742  -2.567   6.412  0.00  0.00    -0.206 OA
ENDBRANCH  24  26
ENDBRANCH  21  24
ENDBRANCH   1  18
TORSDOF 15
ENDMDL
MODEL 4
REMARK VINA RESULT:      -6.7      3.949      8.505
REMARK  15 active torsions:
REMARK  status: ('A' for Active; 'I' for Inactive)
REMARK    1  A    between atoms: C2_2  and  C3_3 
REMARK    2  A    between atoms: C3_3  and  C4_4 
REMARK    3  A    between atoms: C4_4  and  C5_5 
REMARK    4  A    between atoms: C5_5  and  C6_6 
REMARK    5  A    between atoms: C6_6  and  C7_7 
REMARK    6  A    between atoms: C7_7  and  N8_8 
REMARK    7  A    between atoms: N8_8  and  C10_10 
REMARK    8  A    between atoms: N8_8  and  C12_12 
REMARK    9  A    between atoms: C12_12  and  C13_13 
REMARK   10  A    between atoms: C13_13  and  C14_14 
REMARK   11  A    between atoms: C14_14  and  C15_15 
REMARK   12  A    between atoms: C15_15  and  O17_16 
REMARK   13  A    between atoms: C15_15  and  C18_17 
REMARK   14  A    between atoms: C21_20  and  N22_21 
REMARK   15  A    between atoms: N22_21  and  S23_22 
ROOT
ATOM      1  C15 ZIN A   1      19.160  -1.672  12.415  0.00  0.00     0.151 C 
ENDROOT
BRANCH   1   2
ATOM      2  C14 ZIN A   1      17.919  -2.445  11.964  0.00  0.00     0.038 C 
BRANCH   2   3
ATOM      3  C13 ZIN A   1      17.468  -1.933  10.595  0.00  0.00     0.030 C 
BRANCH   3   4
ATOM      4  C12 ZIN A   1      18.681  -1.423   9.814  0.00  0.00     0.235 C 
BRANCH   4   5
ATOM      5  N8  ZIN A   1      18.257  -0.370   8.883  0.00  0.00    -0.071 N 
ATOM      6  H9  ZIN A   1      17.401   0.047   9.214  0.00  0.00     0.279 HD
BRANCH   5   7
ATOM      7  C7  ZIN A   1      19.303   0.658   8.798  0.00  0.00     0.234 C 
BRANCH   7   8
ATOM      8  C6  ZIN A   1      19.265   1.530  10.056  0.00  0.00     0.028 C 
BRANCH   8   9
ATOM      9  C5  ZIN A   1      17.966   2.338  10.077  0.00  0.00     0.002 C 
BRANCH   9  10
ATOM     10  C4  ZIN A   1      18.047   3.403  11.173  0.00  0.00     0.000 C 
BRANCH  10  11
ATOM     11  C3  ZIN A   1      19.432   3.364  11.821  0.00  0.00    -0.000 C 
BRANCH  11  12
ATOM     12  C2  ZIN A   1      19.720   4.711  12.489  0.00  0.00    -0.005 C 
ATOM     13  C1  ZIN A   1      19.071   4.740  13.874  0.00  0.00     0.005 C 
ENDBRANCH  11  12
ENDBRANCH  10  11
ENDBRANCH   9  10
ENDBRANCH   8   9
ENDBRANCH   7   8
ENDBRANCH   5   7
BRANCH   5  14
ATOM     14  C10 ZIN A   1      18.035  -0.953   7.553  0.00  0.00     0.230 C 
ATOM     15  C11 ZIN A   1      17.777   0.167   6.542  0.00  0.00     0.034 C 
ENDBRANCH   5  14
ENDBRANCH   4   5
ENDBRANCH   3   4
ENDBRANCH   2   3
ENDBRANCH   1   2
BRANCH   1  16
ATOM     16  O17 ZIN A   1      20.205  -2.593  12.736  0.00  0.00    -0.391 OA
ATOM     17  H55 ZIN A   1      20.674  -2.386  13.556  0.00  0.00     0.210 HD
ENDBRANCH   1  16
BRANCH   1  18
ATOM     18  C18 ZIN A   1      18.825  -0.849  13.632  0.00  0.00    -0.029 A 
ATOM     19  C28 ZIN A   1      18.131   0.339  13.491  0.00  0.00     0.012 A 
ATOM     20  C27 ZIN A   1      17.818   1.093  14.605  0.00  0.00     0.031 A 
ATOM     21  C21 ZIN A   1      18.209   0.663  15.866  0.00  0.00     0.042 A 
ATOM     22  C20 ZIN A   1      18.912  -0.528  16.003  0.00  0.00     0.031 A 
ATOM     23  C19 ZIN A   1      19.218  -1.280  14.886  0.00  0.00     0.012 A 
BRANCH  21  24
ATOM     24  N22 ZIN A   1      17.899   1.427  16.994  0.00  0.00    -0.285 N 
ATOM     25  H58 ZIN A   1      16.990   1.446  17.331  0.00  0.00     0.178 HD
BRANCH  24  26
ATOM     26  S23 ZIN A   1      19.083   2.299  17.754  0.00  0.00     0.227 S 
ATOM     27  C24 ZIN A   1      18.185   3.592  18.655  0.00  0.00     0.186 C 
ATOM     28  O25 ZIN A   1      19.670   1.376  18.661  0.00  0.00    -0.206 OA
ATOM     29  O26 ZIN A   1      19.840   2.864  16.692  0.00  0.00    -0.206 OA
ENDBRANCH  24  26
ENDBRANCH  21  24
ENDBRANCH   1  18
TORSDOF 15
ENDMDL
MODEL 5
REMARK VINA RESULT:      -6.6      1.873      3.326
REMARK  15 active torsions:
REMARK  status: ('A' for Active; 'I' for Inactive)
REMARK    1  A    between atoms: C2_2  and  C3_3 
REMARK    2  A    between atoms: C3_3  and  C4_4 
REMARK    3  A    between atoms: C4_4  and  C5_5 
REMARK    4  A    between atoms: C5_5  and  C6_6 
REMARK    5  A    between atoms: C6_6  and  C7_7 
REMARK    6  A    between atoms: C7_7  and  N8_8 
REMARK    7  A    between atoms: N8_8  and  C10_10 
REMARK    8  A    between atoms: N8_8  and  C12_12 
REMARK    9  A    between atoms: C12_12  and  C13_13 
REMARK   10  A    between atoms: C13_13  and  C14_14 
REMARK   11  A    between atoms: C14_14  and  C15_15 
REMARK   12  A    between atoms: C15_15  and  O17_16 
REMARK   13  A    between atoms: C15_15  and  C18_17 
REMARK   14  A    between atoms: C21_20  and  N22_21 
REMARK   15  A    between atoms: N22_21  and  S23_22 
ROOT
ATOM      1  C15 ZIN A   1      18.751   2.251  10.313  0.00  0.00     0.151 C 
ENDROOT
BRANCH   1   2
ATOM      2  C14 ZIN A   1      18.224   3.666  10.071  0.00  0.00     0.038 C 
BRANCH   2   3
ATOM      3  C13 ZIN A   1      17.362   4.100  11.258  0.00  0.00     0.030 C 
BRANCH   3   4
ATOM      4  C12 ZIN A   1      17.564   3.125  12.420  0.00  0.00     0.235 C 
BRANCH   4   5
ATOM      5  N8  ZIN A   1      17.692   3.878  13.675  0.00  0.00    -0.071 N 
ATOM      6  H9  ZIN A   1      16.782   3.984  14.097  0.00  0.00     0.279 HD
BRANCH   5   7
ATOM      7  C7  ZIN A   1      18.577   3.151  14.594  0.00  0.00     0.234 C 
BRANCH   7   8
ATOM      8  C6  ZIN A   1      18.951   1.799  13.981  0.00  0.00     0.028 C 
BRANCH   8   9
ATOM      9  C5  ZIN A   1      18.462   0.673  14.893  0.00  0.00     0.002 C 
BRANCH   9  10
ATOM     10  C4  ZIN A   1      17.870  -0.452  14.041  0.00  0.00     0.000 C 
BRANCH  10  11
ATOM     11  C3  ZIN A   1      18.717  -0.637  12.781  0.00  0.00    -0.000 C 
BRANCH  11  12
ATOM     12  C2  ZIN A   1      18.828  -2.128  12.455  0.00  0.00    -0.005 C 
ATOM     13  C1  ZIN A   1      17.621  -2.559  11.619  0.00  0.00     0.005 C 
ENDBRANCH  11  12
ENDBRANCH  10  11
ENDBRANCH   9  10
ENDBRANCH   8   9
ENDBRANCH   7   8
ENDBRANCH   5   7
BRANCH   5  14
ATOM     14  C10 ZIN A   1      18.259   5.203  13.395  0.00  0.00     0.230 C 
ATOM     15  C11 ZIN A   1      19.599   5.347  14.119  0.00  0.00     0.034 C 
ENDBRANCH   5  14
ENDBRANCH   4   5
ENDBRANCH   3   4
ENDBRANCH   2   3
ENDBRANCH   1   2
BRANCH   1  16
ATOM     16  O17 ZIN A   1      20.162   2.300  10.541  0.00  0.00    -0.391 OA
ATOM     17  H55 ZIN A   1      20.622   1.474  10.342  0.00  0.00     0.210 HD
ENDBRANCH   1  16
BRANCH   1  18
ATOM     18  C18 ZIN A   1      18.468   1.395   9.105  0.00  0.00    -0.029 A 
ATOM     19  C28 ZIN A   1      19.099   1.665   7.904  0.00  0.00     0.012 A 
ATOM     20  C27 ZIN A   1      18.845   0.880   6.798  0.00  0.00     0.031 A 
ATOM     21  C21 ZIN A   1      17.946  -0.175   6.888  0.00  0.00     0.042 A 
ATOM     22  C20 ZIN A   1      17.308  -0.439   8.093  0.00  0.00     0.031 A 
ATOM     23  C19 ZIN A   1      17.570   0.347   9.198  0.00  0.00     0.012 A 
BRANCH  21  24
ATOM     24  N22 ZIN A   1      17.682  -0.967   5.767  0.00  0.00    -0.285 N 
ATOM     25  H58 ZIN A   1      16.828  -0.895   5.313  0.00  0.00     0.178 HD
BRANCH  24  26
ATOM     26  S23 ZIN A   1      18.826  -2.028   5.215  0.00  0.00     0.227 S 
ATOM     27  C24 ZIN A   1      19.514  -2.775   6.717  0.00  0.00     0.186 C 
ATOM     28  O25 ZIN A   1      18.085  -2.988   4.475  0.00  0.00    -0.206 OA
ATOM     29  O26 ZIN A   1      19.793  -1.203   4.580  0.00  0.00    -0.206 OA
ENDBRANCH  24  26
ENDBRANCH  21  24
ENDBRANCH   1  18
TORSDOF 15
ENDMDL
MODEL 6
REMARK VINA RESULT:      -6.6      1.234      1.959
REMARK  15 active torsions:
REMARK  status: ('A' for Active; 'I' for Inactive)
REMARK    1  A    between atoms: C2_2  and  C3_3 
REMARK    2  A    between atoms: C3_3  and  C4_4 
REMARK    3  A    between atoms: C4_4  and  C5_5 
REMARK    4  A    between atoms: C5_5  and  C6_6 
REMARK    5  A    between atoms: C6_6  and  C7_7 
REMARK    6  A    between atoms: C7_7  and  N8_8 
REMARK    7  A    between atoms: N8_8  and  C10_10 
REMARK    8  A    between atoms: N8_8  and  C12_12 
REMARK    9  A    between atoms: C12_12  and  C13_13 
REMARK   10  A    between atoms: C13_13  and  C14_14 
REMARK   11  A    between atoms: C14_14  and  C15_15 
REMARK   12  A    between atoms: C15_15  and  O17_16 
REMARK   13  A    between atoms: C15_15  and  C18_17 
REMARK   14  A    between atoms: C21_20  and  N22_21 
REMARK   15  A    between atoms: N22_21  and  S23_22 
ROOT
ATOM      1  C15 ZIN A   1      18.653   2.176  10.183  0.00  0.00     0.151 C 
ENDROOT
BRANCH   1   2
ATOM      2  C14 ZIN A   1      17.683   1.794  11.303  0.00  0.00     0.038 C 
BRANCH   2   3
ATOM      3  C13 ZIN A   1      17.786   2.813  12.439  0.00  0.00     0.030 C 
BRANCH   3   4
ATOM      4  C12 ZIN A   1      18.907   2.402  13.394  0.00  0.00     0.235 C 
BRANCH   4   5
ATOM      5  N8  ZIN A   1      18.593   1.094  13.984  0.00  0.00    -0.071 N 
ATOM      6  H9  ZIN A   1      17.842   0.663  13.467  0.00  0.00     0.279 HD
BRANCH   5   7
ATOM      7  C7  ZIN A   1      19.782   0.233  13.930  0.00  0.00     0.234 C 
BRANCH   7   8
ATOM      8  C6  ZIN A   1      19.353  -1.234  13.997  0.00  0.00     0.028 C 
BRANCH   8   9
ATOM      9  C5  ZIN A   1      18.281  -1.501  12.939  0.00  0.00     0.002 C 
BRANCH   9  10
ATOM     10  C4  ZIN A   1      18.947  -1.977  11.646  0.00  0.00     0.000 C 
BRANCH  10  11
ATOM     11  C3  ZIN A   1      19.116  -3.497  11.690  0.00  0.00    -0.000 C 
BRANCH  11  12
ATOM     12  C2  ZIN A   1      17.857  -4.166  11.133  0.00  0.00    -0.005 C 
ATOM     13  C1  ZIN A   1      17.468  -5.344  12.028  0.00  0.00     0.005 C 
ENDBRANCH  11  12
ENDBRANCH  10  11
ENDBRANCH   9  10
ENDBRANCH   8   9
ENDBRANCH   7   8
ENDBRANCH   5   7
BRANCH   5  14
ATOM     14  C10 ZIN A   1      18.183   1.274  15.383  0.00  0.00     0.230 C 
ATOM     15  C11 ZIN A   1      19.174   2.202  16.089  0.00  0.00     0.034 C 
ENDBRANCH   5  14
ENDBRANCH   4   5
ENDBRANCH   3   4
ENDBRANCH   2   3
ENDBRANCH   1   2
BRANCH   1  16
ATOM     16  O17 ZIN A   1      18.462   3.549   9.836  0.00  0.00    -0.391 OA
ATOM     17  H55 ZIN A   1      17.824   4.012  10.395  0.00  0.00     0.210 HD
ENDBRANCH   1  16
BRANCH   1  18
ATOM     18  C18 ZIN A   1      18.393   1.312   8.977  0.00  0.00    -0.029 A 
ATOM     19  C28 ZIN A   1      17.519   0.244   9.067  0.00  0.00     0.012 A 
ATOM     20  C27 ZIN A   1      17.276  -0.546   7.962  0.00  0.00     0.031 A 
ATOM     21  C21 ZIN A   1      17.918  -0.275   6.760  0.00  0.00     0.042 A 
ATOM     22  C20 ZIN A   1      18.801   0.794   6.675  0.00  0.00     0.031 A 
ATOM     23  C19 ZIN A   1      19.036   1.584   7.783  0.00  0.00     0.012 A 
BRANCH  21  24
ATOM     24  N22 ZIN A   1      17.679  -1.077   5.642  0.00  0.00    -0.285 N 
ATOM     25  H58 ZIN A   1      16.840  -0.999   5.161  0.00  0.00     0.178 HD
BRANCH  24  26
ATOM     26  S23 ZIN A   1      18.825  -2.160   5.138  0.00  0.00     0.227 S 
ATOM     27  C24 ZIN A   1      19.533  -2.818   6.673  0.00  0.00     0.186 C 
ATOM     28  O25 ZIN A   1      18.083  -3.165   4.460  0.00  0.00    -0.206 OA
ATOM     29  O26 ZIN A   1      19.780  -1.365   4.449  0.00  0.00    -0.206 OA
ENDBRANCH  24  26
ENDBRANCH  21  24
ENDBRANCH   1  18
TORSDOF 15
ENDMDL
MODEL 7
REMARK VINA RESULT:      -6.4      2.272      3.901
REMARK  15 active torsions:
REMARK  status: ('A' for Active; 'I' for Inactive)
REMARK    1  A    between atoms: C2_2  and  C3_3 
REMARK    2  A    between atoms: C3_3  and  C4_4 
REMARK    3  A    between atoms: C4_4  and  C5_5 
REMARK    4  A    between atoms: C5_5  and  C6_6 
REMARK    5  A    between atoms: C6_6  and  C7_7 
REMARK    6  A    between atoms: C7_7  and  N8_8 
REMARK    7  A    between atoms: N8_8  and  C10_10 
REMARK    8  A    between atoms: N8_8  and  C12_12 
REMARK    9  A    between atoms: C12_12  and  C13_13 
REMARK   10  A    between atoms: C13_13  and  C14_14 
REMARK   11  A    between atoms: C14_14  and  C15_15 
REMARK   12  A    between atoms: C15_15  and  O17_16 
REMARK   13  A    between atoms: C15_15  and  C18_17 
REMARK   14  A    between atoms: C21_20  and  N22_21 
REMARK   15  A    between atoms: N22_21  and  S23_22 
ROOT
ATOM      1  C15 ZIN A   1      18.113   2.962  10.348  0.00  0.00     0.151 C 
ENDROOT
BRANCH   1   2
ATOM      2  C14 ZIN A   1      19.335   3.231  11.228  0.00  0.00     0.038 C 
BRANCH   2   3
ATOM      3  C13 ZIN A   1      18.987   2.939  12.689  0.00  0.00     0.030 C 
BRANCH   3   4
ATOM      4  C12 ZIN A   1      19.098   4.226  13.508  0.00  0.00     0.235 C 
BRANCH   4   5
ATOM      5  N8  ZIN A   1      18.643   3.974  14.881  0.00  0.00    -0.071 N 
ATOM      6  H9  ZIN A   1      17.694   4.299  14.987  0.00  0.00     0.279 HD
BRANCH   5   7
ATOM      7  C7  ZIN A   1      18.699   2.532  15.158  0.00  0.00     0.234 C 
BRANCH   7   8
ATOM      8  C6  ZIN A   1      19.073   2.309  16.625  0.00  0.00     0.028 C 
BRANCH   8   9
ATOM      9  C5  ZIN A   1      19.043   0.811  16.937  0.00  0.00     0.002 C 
BRANCH   9  10
ATOM     10  C4  ZIN A   1      17.884   0.157  16.183  0.00  0.00     0.000 C 
BRANCH  10  11
ATOM     11  C3  ZIN A   1      18.271  -1.271  15.793  0.00  0.00    -0.000 C 
BRANCH  11  12
ATOM     12  C2  ZIN A   1      19.259  -1.230  14.625  0.00  0.00    -0.005 C 
ATOM     13  C1  ZIN A   1      18.502  -0.937  13.328  0.00  0.00     0.005 C 
ENDBRANCH  11  12
ENDBRANCH  10  11
ENDBRANCH   9  10
ENDBRANCH   8   9
ENDBRANCH   7   8
ENDBRANCH   5   7
BRANCH   5  14
ATOM     14  C10 ZIN A   1      19.513   4.688  15.825  0.00  0.00     0.230 C 
ATOM     15  C11 ZIN A   1      20.292   5.772  15.079  0.00  0.00     0.034 C 
ENDBRANCH   5  14
ENDBRANCH   4   5
ENDBRANCH   3   4
ENDBRANCH   2   3
ENDBRANCH   1   2
BRANCH   1  16
ATOM     16  O17 ZIN A   1      16.990   2.649  11.175  0.00  0.00    -0.391 OA
ATOM     17  H55 ZIN A   1      16.510   3.424  11.496  0.00  0.00     0.210 HD
ENDBRANCH   1  16
BRANCH   1  18
ATOM     18  C18 ZIN A   1      18.400   1.802   9.430  0.00  0.00    -0.029 A 
ATOM     19  C28 ZIN A   1      17.848   0.562   9.691  0.00  0.00     0.012 A 
ATOM     20  C27 ZIN A   1      18.105  -0.501   8.849  0.00  0.00     0.031 A 
ATOM     21  C21 ZIN A   1      18.928  -0.327   7.744  0.00  0.00     0.042 A 
ATOM     22  C20 ZIN A   1      19.487   0.919   7.488  0.00  0.00     0.031 A 
ATOM     23  C19 ZIN A   1      19.222   1.980   8.331  0.00  0.00     0.012 A 
BRANCH  21  24
ATOM     24  N22 ZIN A   1      19.195  -1.402   6.893  0.00  0.00    -0.285 N 
ATOM     25  H58 ZIN A   1      19.625  -2.200   7.241  0.00  0.00     0.178 HD
BRANCH  24  26
ATOM     26  S23 ZIN A   1      18.780  -1.316   5.293  0.00  0.00     0.227 S 
ATOM     27  C24 ZIN A   1      18.609  -3.046   4.776  0.00  0.00     0.186 C 
ATOM     28  O25 ZIN A   1      17.515  -0.669   5.294  0.00  0.00    -0.206 OA
ATOM     29  O26 ZIN A   1      19.907  -0.718   4.669  0.00  0.00    -0.206 OA
ENDBRANCH  24  26
ENDBRANCH  21  24
ENDBRANCH   1  18
TORSDOF 15
ENDMDL
MODEL 8
REMARK VINA RESULT:      -6.3      2.047      4.344
REMARK  15 active torsions:
REMARK  status: ('A' for Active; 'I' for Inactive)
REMARK    1  A    between atoms: C2_2  and  C3_3 
REMARK    2  A    between atoms: C3_3  and  C4_4 
REMARK    3  A    between atoms: C4_4  and  C5_5 
REMARK    4  A    between atoms: C5_5  and  C6_6 
REMARK    5  A    between atoms: C6_6  and  C7_7 
REMARK    6  A    between atoms: C7_7  and  N8_8 
REMARK    7  A    between atoms: N8_8  and  C10_10 
REMARK    8  A    between atoms: N8_8  and  C12_12 
REMARK    9  A    between atoms: C12_12  and  C13_13 
REMARK   10  A    between atoms: C13_13  and  C14_14 
REMARK   11  A    between atoms: C14_14  and  C15_15 
REMARK   12  A    between atoms: C15_15  and  O17_16 
REMARK   13  A    between atoms: C15_15  and  C18_17 
REMARK   14  A    between atoms: C21_20  and  N22_21 
REMARK   15  A    between atoms: N22_21  and  S23_22 
ROOT
ATOM      1  C15 ZIN A   1      17.564  -0.205  11.770  0.00  0.00     0.151 C 
ENDROOT
BRANCH   1   2
ATOM      2  C14 ZIN A   1      17.980  -1.543  12.385  0.00  0.00     0.038 C 
BRANCH   2   3
ATOM      3  C13 ZIN A   1      18.864  -1.290  13.608  0.00  0.00     0.030 C 
BRANCH   3   4
ATOM      4  C12 ZIN A   1      18.011  -0.727  14.747  0.00  0.00     0.235 C 
BRANCH   4   5
ATOM      5  N8  ZIN A   1      18.645   0.486  15.281  0.00  0.00    -0.071 N 
ATOM      6  H9  ZIN A   1      19.619   0.498  15.020  0.00  0.00     0.279 HD
BRANCH   5   7
ATOM      7  C7  ZIN A   1      17.975   1.672  14.731  0.00  0.00     0.234 C 
BRANCH   7   8
ATOM      8  C6  ZIN A   1      18.937   2.861  14.761  0.00  0.00     0.028 C 
BRANCH   8   9
ATOM      9  C5  ZIN A   1      18.857   3.615  13.433  0.00  0.00     0.002 C 
BRANCH   9  10
ATOM     10  C4  ZIN A   1      19.342   2.706  12.301  0.00  0.00     0.000 C 
BRANCH  10  11
ATOM     11  C3  ZIN A   1      19.136   3.411  10.958  0.00  0.00    -0.000 C 
BRANCH  11  12
ATOM     12  C2  ZIN A   1      17.638   3.503  10.656  0.00  0.00    -0.005 C 
ATOM     13  C1  ZIN A   1      17.259   4.964  10.404  0.00  0.00     0.005 C 
ENDBRANCH  11  12
ENDBRANCH  10  11
ENDBRANCH   9  10
ENDBRANCH   8   9
ENDBRANCH   7   8
ENDBRANCH   5   7
BRANCH   5  14
ATOM     14  C10 ZIN A   1      18.531   0.494  16.745  0.00  0.00     0.230 C 
ATOM     15  C11 ZIN A   1      17.236  -0.208  17.159  0.00  0.00     0.034 C 
ENDBRANCH   5  14
ENDBRANCH   4   5
ENDBRANCH   3   4
ENDBRANCH   2   3
ENDBRANCH   1   2
BRANCH   1  16
ATOM     16  O17 ZIN A   1      16.144  -0.064  11.852  0.00  0.00    -0.391 OA
ATOM     17  H55 ZIN A   1      15.835   0.849  11.777  0.00  0.00     0.210 HD
ENDBRANCH   1  16
BRANCH   1  18
ATOM     18  C18 ZIN A   1      17.990  -0.162  10.325  0.00  0.00    -0.029 A 
ATOM     19  C28 ZIN A   1      17.042  -0.005   9.330  0.00  0.00     0.012 A 
ATOM     20  C27 ZIN A   1      17.431   0.040   8.006  0.00  0.00     0.031 A 
ATOM     21  C21 ZIN A   1      18.773  -0.084   7.673  0.00  0.00     0.042 A 
ATOM     22  C20 ZIN A   1      19.722  -0.248   8.674  0.00  0.00     0.031 A 
ATOM     23  C19 ZIN A   1      19.328  -0.287   9.997  0.00  0.00     0.012 A 
BRANCH  21  24
ATOM     24  N22 ZIN A   1      19.168  -0.045   6.333  0.00  0.00    -0.285 N 
ATOM     25  H58 ZIN A   1      19.624   0.737   5.985  0.00  0.00     0.178 HD
BRANCH  24  26
ATOM     26  S23 ZIN A   1      18.858  -1.333   5.340  0.00  0.00     0.227 S 
ATOM     27  C24 ZIN A   1      18.968  -2.780   6.428  0.00  0.00     0.186 C 
ATOM     28  O25 ZIN A   1      17.517  -1.131   4.914  0.00  0.00    -0.206 OA
ATOM     29  O26 ZIN A   1      19.931  -1.325   4.410  0.00  0.00    -0.206 OA
ENDBRANCH  24  26
ENDBRANCH  21  24
ENDBRANCH   1  18
TORSDOF 15
ENDMDL
MODEL 9
REMARK VINA RESULT:      -6.3      3.836      8.191
REMARK  15 active torsions:
REMARK  status: ('A' for Active; 'I' for Inactive)
REMARK    1  A    between atoms: C2_2  and  C3_3 
REMARK    2  A    between atoms: C3_3  and  C4_4 
REMARK    3  A    between atoms: C4_4  and  C5_5 
REMARK    4  A    between atoms: C5_5  and  C6_6 
REMARK    5  A    between atoms: C6_6  and  C7_7 
REMARK    6  A    between atoms: C7_7  and  N8_8 
REMARK    7  A    between atoms: N8_8  and  C10_10 
REMARK    8  A    between atoms: N8_8  and  C12_12 
REMARK    9  A    between atoms: C12_12  and  C13_13 
REMARK   10  A    between atoms: C13_13  and  C14_14 
REMARK   11  A    between atoms: C14_14  and  C15_15 
REMARK   12  A    between atoms: C15_15  and  O17_16 
REMARK   13  A    between atoms: C15_15  and  C18_17 
REMARK   14  A    between atoms: C21_20  and  N22_21 
REMARK   15  A    between atoms: N22_21  and  S23_22 
ROOT
ATOM      1  C15 ZIN A   1      18.966  -1.985  12.359  0.00  0.00     0.151 C 
ENDROOT
BRANCH   1   2
ATOM      2  C14 ZIN A   1      17.925  -3.096  12.212  0.00  0.00     0.038 C 
BRANCH   2   3
ATOM      3  C13 ZIN A   1      17.312  -3.040  10.812  0.00  0.00     0.030 C 
BRANCH   3   4
ATOM      4  C12 ZIN A   1      18.256  -3.713   9.814  0.00  0.00     0.235 C 
BRANCH   4   5
ATOM      5  N8  ZIN A   1      17.629  -3.737   8.486  0.00  0.00    -0.071 N 
ATOM      6  H9  ZIN A   1      16.785  -3.185   8.503  0.00  0.00     0.279 HD
BRANCH   5   7
ATOM      7  C7  ZIN A   1      18.559  -3.179   7.495  0.00  0.00     0.234 C 
BRANCH   7   8
ATOM      8  C6  ZIN A   1      18.945  -1.755   7.903  0.00  0.00     0.028 C 
BRANCH   8   9
ATOM      9  C5  ZIN A   1      17.914  -0.769   7.351  0.00  0.00     0.002 C 
BRANCH   9  10
ATOM     10  C4  ZIN A   1      18.028   0.560   8.100  0.00  0.00     0.000 C 
BRANCH  10  11
ATOM     11  C3  ZIN A   1      17.640   0.355   9.565  0.00  0.00    -0.000 C 
BRANCH  11  12
ATOM     12  C2  ZIN A   1      17.821   1.669  10.330  0.00  0.00    -0.005 C 
ATOM     13  C1  ZIN A   1      19.293   1.836  10.712  0.00  0.00     0.005 C 
ENDBRANCH  11  12
ENDBRANCH  10  11
ENDBRANCH   9  10
ENDBRANCH   8   9
ENDBRANCH   7   8
ENDBRANCH   5   7
BRANCH   5  14
ATOM     14  C10 ZIN A   1      17.302  -5.122   8.123  0.00  0.00     0.230 C 
ATOM     15  C11 ZIN A   1      18.085  -6.083   9.020  0.00  0.00     0.034 C 
ENDBRANCH   5  14
ENDBRANCH   4   5
ENDBRANCH   3   4
ENDBRANCH   2   3
ENDBRANCH   1   2
BRANCH   1  16
ATOM     16  O17 ZIN A   1      20.267  -2.564  12.476  0.00  0.00    -0.391 OA
ATOM     17  H55 ZIN A   1      20.986  -1.917  12.488  0.00  0.00     0.210 HD
ENDBRANCH   1  16
BRANCH   1  18
ATOM     18  C18 ZIN A   1      18.664  -1.173  13.592  0.00  0.00    -0.029 A 
ATOM     19  C28 ZIN A   1      17.763  -0.126  13.526  0.00  0.00     0.012 A 
ATOM     20  C27 ZIN A   1      17.481   0.616  14.656  0.00  0.00     0.031 A 
ATOM     21  C21 ZIN A   1      18.112   0.317  15.857  0.00  0.00     0.042 A 
ATOM     22  C20 ZIN A   1      19.022  -0.731  15.918  0.00  0.00     0.031 A 
ATOM     23  C19 ZIN A   1      19.296  -1.472  14.786  0.00  0.00     0.012 A 
BRANCH  21  24
ATOM     24  N22 ZIN A   1      17.833   1.071  17.000  0.00  0.00    -0.285 N 
ATOM     25  H58 ZIN A   1      16.974   0.980  17.442  0.00  0.00     0.178 HD
BRANCH  24  26
ATOM     26  S23 ZIN A   1      18.967   2.118  17.599  0.00  0.00     0.227 S 
ATOM     27  C24 ZIN A   1      18.006   3.342  18.529  0.00  0.00     0.186 C 
ATOM     28  O25 ZIN A   1      19.747   1.322  18.480  0.00  0.00    -0.206 OA
ATOM     29  O26 ZIN A   1      19.543   2.709  16.443  0.00  0.00    -0.206 OA
ENDBRANCH  24  26
ENDBRANCH  21  24
ENDBRANCH   1  18
TORSDOF 15
ENDMDL
