MODEL 1
REMARK VINA RESULT:      -4.4      0.000      0.000
REMARK  1 active torsions:
REMARK  status: ('A' for Active; 'I' for Inactive)
REMARK    1  A    between atoms: N1_1  and  C2_2 
ROOT
ATOM      1  C2  <0> d   1      18.150   0.770  16.179  0.00  0.00     0.167 A 
ATOM      2  N3  <0> d   1      18.550   1.752  16.974  0.00  0.00    -0.172 NA
ATOM      3  C4  <0> d   1      19.278   1.496  18.059  0.00  0.00     0.369 A 
ATOM      4  O5  <0> d   1      19.634   2.418  18.775  0.00  0.00    -0.242 OA
ATOM      5  N6  <0> d   1      19.630   0.237  18.379  0.00  0.00    -0.202 NA
ATOM      6  C7  <0> d   1      19.242  -0.808  17.592  0.00  0.00     0.168 A 
ATOM      7  C8  <0> d   1      18.496  -0.564  16.488  0.00  0.00     0.179 A 
ATOM      8  F9  <0> d   1      18.098  -1.578  15.690  0.00  0.00    -0.201 F 
ENDROOT
BRANCH   1   9
ATOM      9  N1  <0> d   1      17.397   1.048  15.061  0.00  0.00    -0.381 N 
ATOM     10  H10 <0> d   1      17.708   1.707  14.419  0.00  0.00     0.157 HD
ATOM     11  H11 <0> d   1      16.560   0.582  14.910  0.00  0.00     0.157 HD
ENDBRANCH   1   9
TORSDOF 1
ENDMDL
MODEL 2
REMARK VINA RESULT:      -4.3     10.494     11.485
REMARK  1 active torsions:
REMARK  status: ('A' for Active; 'I' for Inactive)
REMARK    1  A    between atoms: N1_1  and  C2_2 
ROOT
ATOM      1  C2  <0> d   1      18.593  -0.443   7.059  0.00  0.00     0.167 A 
ATOM      2  N3  <0> d   1      18.833  -1.717   6.780  0.00  0.00    -0.172 NA
ATOM      3  C4  <0> d   1      19.366  -2.069   5.611  0.00  0.00     0.369 A 
ATOM      4  O5  <0> d   1      19.577  -3.248   5.378  0.00  0.00    -0.242 OA
ATOM      5  N6  <0> d   1      19.677  -1.146   4.683  0.00  0.00    -0.202 NA
ATOM      6  C7  <0> d   1      19.450   0.178   4.924  0.00  0.00     0.168 A 
ATOM      7  C8  <0> d   1      18.902   0.551   6.106  0.00  0.00     0.179 A 
ATOM      8  F9  <0> d   1      18.666   1.854   6.372  0.00  0.00    -0.201 F 
ENDROOT
BRANCH   1   9
ATOM      9  N1  <0> d   1      18.042  -0.093   8.271  0.00  0.00    -0.381 N 
ATOM     10  H10 <0> d   1      17.164  -0.425   8.517  0.00  0.00     0.157 HD
ATOM     11  H11 <0> d   1      18.533   0.480   8.880  0.00  0.00     0.157 HD
ENDBRANCH   1   9
TORSDOF 1
ENDMDL
MODEL 3
REMARK VINA RESULT:      -4.3      6.077      6.656
REMARK  1 active torsions:
REMARK  status: ('A' for Active; 'I' for Inactive)
REMARK    1  A    between atoms: N1_1  and  C2_2 
ROOT
ATOM      1  C2  <0> d   1      19.805   1.538  11.793  0.00  0.00     0.167 A 
ATOM      2  N3  <0> d   1      18.728   0.768  11.739  0.00  0.00    -0.172 NA
ATOM      3  C4  <0> d   1      17.536   1.284  11.441  0.00  0.00     0.369 A 
ATOM      4  O5  <0> d   1      16.560   0.554  11.397  0.00  0.00    -0.242 OA
ATOM      5  N6  <0> d   1      17.391   2.598  11.187  0.00  0.00    -0.202 NA
ATOM      6  C7  <0> d   1      18.471   3.431  11.230  0.00  0.00     0.168 A 
ATOM      7  C8  <0> d   1      19.688   2.922  11.538  0.00  0.00     0.179 A 
ATOM      8  F9  <0> d   1      20.775   3.723  11.588  0.00  0.00    -0.201 F 
ENDROOT
BRANCH   1   9
ATOM      9  N1  <0> d   1      21.030   0.993  12.102  0.00  0.00    -0.381 N 
ATOM     10  H10 <0> d   1      21.737   1.557  12.454  0.00  0.00     0.157 HD
ATOM     11  H11 <0> d   1      21.186   0.044  11.974  0.00  0.00     0.157 HD
ENDBRANCH   1   9
TORSDOF 1
ENDMDL
MODEL 4
REMARK VINA RESULT:      -4.2      6.326      6.554
REMARK  1 active torsions:
REMARK  status: ('A' for Active; 'I' for Inactive)
REMARK    1  A    between atoms: N1_1  and  C2_2 
ROOT
ATOM      1  C2  <0> d   1      19.782  -1.310  11.169  0.00  0.00     0.167 A 
ATOM      2  N3  <0> d   1      18.714  -0.524  11.141  0.00  0.00    -0.172 NA
ATOM      3  C4  <0> d   1      17.502  -1.013  11.400  0.00  0.00     0.369 A 
ATOM      4  O5  <0> d   1      16.536  -0.269  11.367  0.00  0.00    -0.242 OA
ATOM      5  N6  <0> d   1      17.326  -2.313  11.698  0.00  0.00    -0.202 NA
ATOM      6  C7  <0> d   1      18.394  -3.162  11.740  0.00  0.00     0.168 A 
ATOM      7  C8  <0> d   1      19.632  -2.680  11.474  0.00  0.00     0.179 A 
ATOM      8  F9  <0> d   1      20.708  -3.497  11.508  0.00  0.00    -0.201 F 
ENDROOT
BRANCH   1   9
ATOM      9  N1  <0> d   1      21.028  -0.793  10.900  0.00  0.00    -0.381 N 
ATOM     10  H10 <0> d   1      21.688  -0.723  11.608  0.00  0.00     0.157 HD
ATOM     11  H11 <0> d   1      21.250  -0.502  10.001  0.00  0.00     0.157 HD
ENDBRANCH   1   9
TORSDOF 1
ENDMDL
MODEL 5
REMARK VINA RESULT:      -4.1      4.720      5.353
REMARK  1 active torsions:
REMARK  status: ('A' for Active; 'I' for Inactive)
REMARK    1  A    between atoms: N1_1  and  C2_2 
ROOT
ATOM      1  C2  <0> d   1      20.062   0.648  12.328  0.00  0.00     0.167 A 
ATOM      2  N3  <0> d   1      19.330   1.423  11.539  0.00  0.00    -0.172 NA
ATOM      3  C4  <0> d   1      18.007   1.483  11.682  0.00  0.00     0.369 A 
ATOM      4  O5  <0> d   1      17.356   2.204  10.944  0.00  0.00    -0.242 OA
ATOM      5  N6  <0> d   1      17.376   0.763  12.629  0.00  0.00    -0.202 NA
ATOM      6  C7  <0> d   1      18.086  -0.048  13.465  0.00  0.00     0.168 A 
ATOM      7  C8  <0> d   1      19.432  -0.125  13.327  0.00  0.00     0.179 A 
ATOM      8  F9  <0> d   1      20.161  -0.920  14.141  0.00  0.00    -0.201 F 
ENDROOT
BRANCH   1   9
ATOM      9  N1  <0> d   1      21.428   0.594  12.170  0.00  0.00    -0.381 N 
ATOM     10  H10 <0> d   1      21.857   1.125  11.480  0.00  0.00     0.157 HD
ATOM     11  H11 <0> d   1      21.962   0.030  12.750  0.00  0.00     0.157 HD
ENDBRANCH   1   9
TORSDOF 1
ENDMDL
MODEL 6
REMARK VINA RESULT:      -4.1      6.918      7.504
REMARK  1 active torsions:
REMARK  status: ('A' for Active; 'I' for Inactive)
REMARK    1  A    between atoms: N1_1  and  C2_2 
ROOT
ATOM      1  C2  <0> d   1      18.079   2.273  10.097  0.00  0.00     0.167 A 
ATOM      2  N3  <0> d   1      17.187   1.725  10.911  0.00  0.00    -0.172 NA
ATOM      3  C4  <0> d   1      16.979   0.409  10.906  0.00  0.00     0.369 A 
ATOM      4  O5  <0> d   1      16.152  -0.070  11.665  0.00  0.00    -0.242 OA
ATOM      5  N6  <0> d   1      17.666  -0.401  10.080  0.00  0.00    -0.202 NA
ATOM      6  C7  <0> d   1      18.595   0.116   9.224  0.00  0.00     0.168 A 
ATOM      7  C8  <0> d   1      18.813   1.453   9.213  0.00  0.00     0.179 A 
ATOM      8  F9  <0> d   1      19.727   1.992   8.376  0.00  0.00    -0.201 F 
ENDROOT
BRANCH   1   9
ATOM      9  N1  <0> d   1      18.284   3.633  10.111  0.00  0.00    -0.381 N 
ATOM     10  H10 <0> d   1      18.480   4.102   9.285  0.00  0.00     0.157 HD
ATOM     11  H11 <0> d   1      18.227   4.124  10.946  0.00  0.00     0.157 HD
ENDBRANCH   1   9
TORSDOF 1
ENDMDL
MODEL 7
REMARK VINA RESULT:      -4.0     10.315     11.179
REMARK  1 active torsions:
REMARK  status: ('A' for Active; 'I' for Inactive)
REMARK    1  A    between atoms: N1_1  and  C2_2 
ROOT
ATOM      1  C2  <0> d   1      19.277  -0.612   5.568  0.00  0.00     0.167 A 
ATOM      2  N3  <0> d   1      19.676  -1.866   5.403  0.00  0.00    -0.172 NA
ATOM      3  C4  <0> d   1      19.619  -2.736   6.410  0.00  0.00     0.369 A 
ATOM      4  O5  <0> d   1      19.992  -3.884   6.233  0.00  0.00    -0.242 OA
ATOM      5  N6  <0> d   1      19.154  -2.371   7.619  0.00  0.00    -0.202 NA
ATOM      6  C7  <0> d   1      18.732  -1.092   7.838  0.00  0.00     0.168 A 
ATOM      7  C8  <0> d   1      18.789  -0.194   6.825  0.00  0.00     0.179 A 
ATOM      8  F9  <0> d   1      18.378   1.079   7.013  0.00  0.00    -0.201 F 
ENDROOT
BRANCH   1   9
ATOM      9  N1  <0> d   1      19.342   0.278   4.520  0.00  0.00    -0.381 N 
ATOM     10  H10 <0> d   1      19.095   1.206   4.657  0.00  0.00     0.157 HD
ATOM     11  H11 <0> d   1      19.639  -0.022   3.647  0.00  0.00     0.157 HD
ENDBRANCH   1   9
TORSDOF 1
ENDMDL
MODEL 8
REMARK VINA RESULT:      -4.0      7.654      8.543
REMARK  1 active torsions:
REMARK  status: ('A' for Active; 'I' for Inactive)
REMARK    1  A    between atoms: N1_1  and  C2_2 
ROOT
ATOM      1  C2  <0> d   1      17.746   0.111   8.205  0.00  0.00     0.167 A 
ATOM      2  N3  <0> d   1      17.238   0.330   9.410  0.00  0.00    -0.172 NA
ATOM      3  C4  <0> d   1      17.673   1.342  10.159  0.00  0.00     0.369 A 
ATOM      4  O5  <0> d   1      17.189   1.522  11.264  0.00  0.00    -0.242 OA
ATOM      5  N6  <0> d   1      18.638   2.169   9.716  0.00  0.00    -0.202 NA
ATOM      6  C7  <0> d   1      19.192   1.985   8.483  0.00  0.00     0.168 A 
ATOM      7  C8  <0> d   1      18.764   0.956   7.712  0.00  0.00     0.179 A 
ATOM      8  F9  <0> d   1      19.294   0.749   6.487  0.00  0.00    -0.201 F 
ENDROOT
BRANCH   1   9
ATOM      9  N1  <0> d   1      17.287  -0.938   7.441  0.00  0.00    -0.381 N 
ATOM     10  H10 <0> d   1      17.508  -1.850   7.689  0.00  0.00     0.157 HD
ATOM     11  H11 <0> d   1      16.739  -0.767   6.660  0.00  0.00     0.157 HD
ENDBRANCH   1   9
TORSDOF 1
ENDMDL
MODEL 9
REMARK VINA RESULT:      -4.0      6.563      7.418
REMARK  1 active torsions:
REMARK  status: ('A' for Active; 'I' for Inactive)
REMARK    1  A    between atoms: N1_1  and  C2_2 
ROOT
ATOM      1  C2  <0> d   1      20.476  -0.449  11.088  0.00  0.00     0.167 A 
ATOM      2  N3  <0> d   1      20.384  -0.299   9.774  0.00  0.00    -0.172 NA
ATOM      3  C4  <0> d   1      19.467  -0.968   9.075  0.00  0.00     0.369 A 
ATOM      4  O5  <0> d   1      19.403  -0.812   7.867  0.00  0.00    -0.242 OA
ATOM      5  N6  <0> d   1      18.611  -1.811   9.680  0.00  0.00    -0.202 NA
ATOM      6  C7  <0> d   1      18.667  -1.999  11.030  0.00  0.00     0.168 A 
ATOM      7  C8  <0> d   1      19.597  -1.331  11.754  0.00  0.00     0.179 A 
ATOM      8  F9  <0> d   1      19.676  -1.497  13.092  0.00  0.00    -0.201 F 
ENDROOT
BRANCH   1   9
ATOM      9  N1  <0> d   1      21.428   0.247  11.798  0.00  0.00    -0.381 N 
ATOM     10  H10 <0> d   1      22.358   0.210  11.526  0.00  0.00     0.157 HD
ATOM     11  H11 <0> d   1      21.168   0.778  12.566  0.00  0.00     0.157 HD
ENDBRANCH   1   9
TORSDOF 1
ENDMDL
