MODEL 1
REMARK VINA RESULT:      -9.3      0.000      0.000
REMARK  14 active torsions:
REMARK  status: ('A' for Active; 'I' for Inactive)
REMARK    1  A    between atoms: C2_2  and  C4_4 
REMARK    2  A    between atoms: C5_5  and  C6_6 
REMARK       I    between atoms: C6_6  and  N8_8 
REMARK    3  A    between atoms: N8_8  and  C9_9 
REMARK    4  A    between atoms: C15_15  and  C16_16 
REMARK    5  A    between atoms: C22_22  and  C23_23 
REMARK    6  A    between atoms: N30_30  and  C31_31 
REMARK    7  A    between atoms: C31_31  and  C32_32 
REMARK    8  A    between atoms: C32_32  and  C33_33 
REMARK    9  A    between atoms: C33_33  and  O35_34 
REMARK   10  A    between atoms: C33_33  and  C36_35 
REMARK   11  A    between atoms: C36_35  and  C37_36 
REMARK   12  A    between atoms: C37_36  and  O39_37 
REMARK   13  A    between atoms: C37_36  and  C40_38 
REMARK   14  A    between atoms: C40_38  and  C41_39 
ROOT
ATOM      1  C4  ZIN A   1      18.110  -2.936  10.825  0.00  0.00     0.032 A 
ATOM      2  C5  ZIN A   1      18.115  -2.974   9.459  0.00  0.00     0.068 A 
ATOM      3  C15 ZIN A   1      18.161  -1.574   9.005  0.00  0.00     0.020 A 
ATOM      4  C22 ZIN A   1      18.180  -0.807  10.154  0.00  0.00     0.057 A 
ATOM      5  N30 ZIN A   1      18.143  -1.653  11.232  0.00  0.00    -0.347 N 
ENDROOT
BRANCH   5   6
ATOM      6  C31 ZIN A   1      18.148  -1.221  12.632  0.00  0.00     0.132 C 
BRANCH   6   7
ATOM      7  C32 ZIN A   1      19.592  -1.064  13.112  0.00  0.00     0.052 C 
BRANCH   7   8
ATOM      8  C33 ZIN A   1      19.732   0.249  13.885  0.00  0.00     0.122 C 
BRANCH   8   9
ATOM      9  O35 ZIN A   1      20.267   1.255  13.022  0.00  0.00    -0.395 OA
ATOM     10  H70 ZIN A   1      20.336   2.128  13.431  0.00  0.00     0.210 HD
ENDBRANCH   8   9
BRANCH   8  11
ATOM     11  C36 ZIN A   1      18.359   0.691  14.395  0.00  0.00     0.064 C 
BRANCH  11  12
ATOM     12  C37 ZIN A   1      18.517   1.387  15.748  0.00  0.00     0.130 C 
BRANCH  12  13
ATOM     13  O39 ZIN A   1      19.634   2.277  15.700  0.00  0.00    -0.395 OA
ATOM     14  H73 ZIN A   1      20.492   1.834  15.758  0.00  0.00     0.210 HD
ENDBRANCH  12  13
BRANCH  12  15
ATOM     15  C40 ZIN A   1      18.748   0.336  16.837  0.00  0.00     0.144 C 
BRANCH  15  16
ATOM     16  C41 ZIN A   1      18.806   1.013  18.182  0.00  0.00     0.175 C 
ATOM     17  O42 ZIN A   1      17.806   1.077  18.876  0.00  0.00    -0.648 OA
ATOM     18  O43 ZIN A   1      19.854   1.496  18.577  0.00  0.00    -0.648 OA
ENDBRANCH  15  16
ENDBRANCH  12  15
ENDBRANCH  11  12
ENDBRANCH   8  11
ENDBRANCH   7   8
ENDBRANCH   6   7
ENDBRANCH   5   6
BRANCH   1  19
ATOM     19  C2  ZIN A   1      18.068  -4.139  11.731  0.00  0.00     0.028 C 
ATOM     20  C1  ZIN A   1      16.809  -4.957  11.436  0.00  0.00     0.016 C 
ATOM     21  C3  ZIN A   1      19.307  -5.004  11.489  0.00  0.00     0.016 C 
ENDBRANCH   1  19
BRANCH   4  22
ATOM     22  C23 ZIN A   1      18.225   0.668  10.210  0.00  0.00    -0.008 A 
ATOM     23  C29 ZIN A   1      17.280   1.370  10.962  0.00  0.00     0.017 A 
ATOM     24  C28 ZIN A   1      17.330   2.747  11.015  0.00  0.00     0.043 A 
ATOM     25  C26 ZIN A   1      18.310   3.435  10.315  0.00  0.00     0.116 A 
ATOM     26  C25 ZIN A   1      19.247   2.743   9.563  0.00  0.00     0.043 A 
ATOM     27  F27 ZIN A   1      18.351   4.784  10.367  0.00  0.00    -0.206 F 
ATOM     28  C24 ZIN A   1      19.209   1.366   9.507  0.00  0.00     0.017 A 
ENDBRANCH   4  22
BRANCH   2  29
ATOM     29  C6  ZIN A   1      18.081  -4.175   8.609  0.00  0.00     0.259 C 
ATOM     30  O7  ZIN A   1      19.119  -4.722   8.289  0.00  0.00    -0.267 OA
ATOM     31  N8  ZIN A   1      16.901  -4.669   8.187  0.00  0.00    -0.323 N 
ATOM     32  H51 ZIN A   1      16.070  -4.273   8.496  0.00  0.00     0.169 HD
BRANCH  31  33
ATOM     33  C9  ZIN A   1      16.871  -5.752   7.302  0.00  0.00     0.035 A 
ATOM     34  C14 ZIN A   1      16.696  -7.042   7.788  0.00  0.00     0.029 A 
ATOM     35  C13 ZIN A   1      16.663  -8.109   6.912  0.00  0.00     0.002 A 
ATOM     36  C12 ZIN A   1      16.812  -7.895   5.554  0.00  0.00     0.000 A 
ATOM     37  C11 ZIN A   1      16.993  -6.613   5.068  0.00  0.00     0.002 A 
ATOM     38  C10 ZIN A   1      17.022  -5.541   5.939  0.00  0.00     0.029 A 
ENDBRANCH  31  33
ENDBRANCH   2  29
BRANCH   3  39
ATOM     39  C16 ZIN A   1      18.182  -1.089   7.606  0.00  0.00    -0.023 A 
ATOM     40  C21 ZIN A   1      17.114  -0.341   7.109  0.00  0.00     0.012 A 
ATOM     41  C20 ZIN A   1      17.143   0.113   5.806  0.00  0.00     0.001 A 
ATOM     42  C19 ZIN A   1      18.221  -0.181   4.991  0.00  0.00     0.000 A 
ATOM     43  C18 ZIN A   1      19.280  -0.926   5.477  0.00  0.00     0.001 A 
ATOM     44  C17 ZIN A   1      19.267  -1.382   6.780  0.00  0.00     0.012 A 
ENDBRANCH   3  39
TORSDOF 14
ENDMDL
MODEL 2
REMARK VINA RESULT:      -9.2      2.359      8.575
REMARK  14 active torsions:
REMARK  status: ('A' for Active; 'I' for Inactive)
REMARK    1  A    between atoms: C2_2  and  C4_4 
REMARK    2  A    between atoms: C5_5  and  C6_6 
REMARK       I    between atoms: C6_6  and  N8_8 
REMARK    3  A    between atoms: N8_8  and  C9_9 
REMARK    4  A    between atoms: C15_15  and  C16_16 
REMARK    5  A    between atoms: C22_22  and  C23_23 
REMARK    6  A    between atoms: N30_30  and  C31_31 
REMARK    7  A    between atoms: C31_31  and  C32_32 
REMARK    8  A    between atoms: C32_32  and  C33_33 
REMARK    9  A    between atoms: C33_33  and  O35_34 
REMARK   10  A    between atoms: C33_33  and  C36_35 
REMARK   11  A    between atoms: C36_35  and  C37_36 
REMARK   12  A    between atoms: C37_36  and  O39_37 
REMARK   13  A    between atoms: C37_36  and  C40_38 
REMARK   14  A    between atoms: C40_38  and  C41_39 
ROOT
ATOM      1  C4  ZIN A   1      17.872  -2.734  10.764  0.00  0.00     0.032 A 
ATOM      2  C5  ZIN A   1      17.951  -1.447  11.217  0.00  0.00     0.068 A 
ATOM      3  C15 ZIN A   1      18.061  -0.593  10.023  0.00  0.00     0.020 A 
ATOM      4  C22 ZIN A   1      18.038  -1.453   8.942  0.00  0.00     0.057 A 
ATOM      5  N30 ZIN A   1      17.930  -2.734   9.418  0.00  0.00    -0.347 N 
ENDROOT
BRANCH   5   6
ATOM      6  C31 ZIN A   1      17.874  -3.934   8.580  0.00  0.00     0.132 C 
BRANCH   6   7
ATOM      7  C32 ZIN A   1      19.296  -4.402   8.265  0.00  0.00     0.052 C 
BRANCH   7   8
ATOM      8  C33 ZIN A   1      19.288  -5.229   6.977  0.00  0.00     0.122 C 
BRANCH   8   9
ATOM      9  O35 ZIN A   1      20.606  -5.716   6.716  0.00  0.00    -0.395 OA
ATOM     10  H70 ZIN A   1      20.941  -6.324   7.389  0.00  0.00     0.210 HD
ENDBRANCH   8   9
BRANCH   8  11
ATOM     11  C36 ZIN A   1      18.329  -6.410   7.135  0.00  0.00     0.064 C 
BRANCH  11  12
ATOM     12  C37 ZIN A   1      17.653  -6.701   5.794  0.00  0.00     0.130 C 
BRANCH  12  13
ATOM     13  O39 ZIN A   1      18.593  -6.509   4.735  0.00  0.00    -0.395 OA
ATOM     14  H73 ZIN A   1      18.505  -5.659   4.281  0.00  0.00     0.210 HD
ENDBRANCH  12  13
BRANCH  12  15
ATOM     15  C40 ZIN A   1      16.468  -5.752   5.603  0.00  0.00     0.144 C 
BRANCH  15  16
ATOM     16  C41 ZIN A   1      16.705  -4.893   4.388  0.00  0.00     0.175 C 
ATOM     17  O42 ZIN A   1      16.324  -5.267   3.292  0.00  0.00    -0.648 OA
ATOM     18  O43 ZIN A   1      17.278  -3.822   4.500  0.00  0.00    -0.648 OA
ENDBRANCH  15  16
ENDBRANCH  12  15
ENDBRANCH  11  12
ENDBRANCH   8  11
ENDBRANCH   7   8
ENDBRANCH   6   7
ENDBRANCH   5   6
BRANCH   1  19
ATOM     19  C2  ZIN A   1      17.748  -3.959  11.632  0.00  0.00     0.028 C 
ATOM     20  C1  ZIN A   1      16.671  -4.883  11.059  0.00  0.00     0.016 C 
ATOM     21  C3  ZIN A   1      19.087  -4.698  11.669  0.00  0.00     0.016 C 
ENDBRANCH   1  19
BRANCH   4  22
ATOM     22  C23 ZIN A   1      18.122  -1.060   7.521  0.00  0.00    -0.008 A 
ATOM     23  C29 ZIN A   1      19.285  -1.318   6.791  0.00  0.00     0.017 A 
ATOM     24  C28 ZIN A   1      19.356  -0.953   5.463  0.00  0.00     0.043 A 
ATOM     25  C26 ZIN A   1      18.281  -0.324   4.855  0.00  0.00     0.116 A 
ATOM     26  C25 ZIN A   1      17.127  -0.061   5.577  0.00  0.00     0.043 A 
ATOM     27  F27 ZIN A   1      18.358   0.035   3.555  0.00  0.00    -0.206 F 
ATOM     28  C24 ZIN A   1      17.043  -0.425   6.904  0.00  0.00     0.017 A 
ENDBRANCH   4  22
BRANCH   2  29
ATOM     29  C6  ZIN A   1      17.931  -1.003  12.620  0.00  0.00     0.259 C 
ATOM     30  O7  ZIN A   1      16.894  -0.603  13.116  0.00  0.00    -0.267 OA
ATOM     31  N8  ZIN A   1      19.059  -1.040  13.355  0.00  0.00    -0.323 N 
ATOM     32  H51 ZIN A   1      19.870  -1.420  12.981  0.00  0.00     0.169 HD
BRANCH  31  33
ATOM     33  C9  ZIN A   1      19.063  -0.529  14.657  0.00  0.00     0.035 A 
ATOM     34  C14 ZIN A   1      18.910  -1.385  15.740  0.00  0.00     0.029 A 
ATOM     35  C13 ZIN A   1      18.920  -0.878  17.025  0.00  0.00     0.002 A 
ATOM     36  C12 ZIN A   1      19.072   0.480  17.233  0.00  0.00     0.000 A 
ATOM     37  C11 ZIN A   1      19.219   1.336  16.157  0.00  0.00     0.002 A 
ATOM     38  C10 ZIN A   1      19.215   0.835  14.869  0.00  0.00     0.029 A 
ENDBRANCH  31  33
ENDBRANCH   2  29
BRANCH   3  39
ATOM     39  C16 ZIN A   1      18.173   0.883   9.988  0.00  0.00    -0.023 A 
ATOM     40  C21 ZIN A   1      19.075   1.496   9.118  0.00  0.00     0.012 A 
ATOM     41  C20 ZIN A   1      19.170   2.872   9.086  0.00  0.00     0.001 A 
ATOM     42  C19 ZIN A   1      18.383   3.643   9.922  0.00  0.00     0.000 A 
ATOM     43  C18 ZIN A   1      17.490   3.041  10.791  0.00  0.00     0.001 A 
ATOM     44  C17 ZIN A   1      17.380   1.665  10.828  0.00  0.00     0.012 A 
ENDBRANCH   3  39
TORSDOF 14
ENDMDL
MODEL 3
REMARK VINA RESULT:      -9.2      3.221      5.863
REMARK  14 active torsions:
REMARK  status: ('A' for Active; 'I' for Inactive)
REMARK    1  A    between atoms: C2_2  and  C4_4 
REMARK    2  A    between atoms: C5_5  and  C6_6 
REMARK       I    between atoms: C6_6  and  N8_8 
REMARK    3  A    between atoms: N8_8  and  C9_9 
REMARK    4  A    between atoms: C15_15  and  C16_16 
REMARK    5  A    between atoms: C22_22  and  C23_23 
REMARK    6  A    between atoms: N30_30  and  C31_31 
REMARK    7  A    between atoms: C31_31  and  C32_32 
REMARK    8  A    between atoms: C32_32  and  C33_33 
REMARK    9  A    between atoms: C33_33  and  O35_34 
REMARK   10  A    between atoms: C33_33  and  C36_35 
REMARK   11  A    between atoms: C36_35  and  C37_36 
REMARK   12  A    between atoms: C37_36  and  O39_37 
REMARK   13  A    between atoms: C37_36  and  C40_38 
REMARK   14  A    between atoms: C40_38  and  C41_39 
ROOT
ATOM      1  C4  ZIN A   1      19.198   1.720  11.330  0.00  0.00     0.032 A 
ATOM      2  C5  ZIN A   1      19.113   0.472  10.779  0.00  0.00     0.068 A 
ATOM      3  C15 ZIN A   1      18.820  -0.451  11.888  0.00  0.00     0.020 A 
ATOM      4  C22 ZIN A   1      18.753   0.333  13.023  0.00  0.00     0.057 A 
ATOM      5  N30 ZIN A   1      18.991   1.634  12.658  0.00  0.00    -0.347 N 
ENDROOT
BRANCH   5   6
ATOM      6  C31 ZIN A   1      19.007   2.771  13.582  0.00  0.00     0.132 C 
BRANCH   6   7
ATOM      7  C32 ZIN A   1      17.608   3.386  13.657  0.00  0.00     0.052 C 
BRANCH   7   8
ATOM      8  C33 ZIN A   1      17.680   4.730  14.386  0.00  0.00     0.122 C 
BRANCH   8   9
ATOM      9  O35 ZIN A   1      16.527   4.883  15.216  0.00  0.00    -0.395 OA
ATOM     10  H70 ZIN A   1      15.705   5.018  14.726  0.00  0.00     0.210 HD
ENDBRANCH   8   9
BRANCH   8  11
ATOM     11  C36 ZIN A   1      18.941   4.774  15.251  0.00  0.00     0.064 C 
BRANCH  11  12
ATOM     12  C37 ZIN A   1      18.599   4.336  16.676  0.00  0.00     0.130 C 
BRANCH  12  13
ATOM     13  O39 ZIN A   1      18.570   5.479  17.532  0.00  0.00    -0.395 OA
ATOM     14  H73 ZIN A   1      18.920   6.284  17.125  0.00  0.00     0.210 HD
ENDBRANCH  12  13
BRANCH  12  15
ATOM     15  C40 ZIN A   1      19.659   3.351  17.175  0.00  0.00     0.144 C 
BRANCH  15  16
ATOM     16  C41 ZIN A   1      19.059   2.463  18.234  0.00  0.00     0.175 C 
ATOM     17  O42 ZIN A   1      19.686   1.505  18.654  0.00  0.00    -0.648 OA
ATOM     18  O43 ZIN A   1      17.946   2.702  18.672  0.00  0.00    -0.648 OA
ENDBRANCH  15  16
ENDBRANCH  12  15
ENDBRANCH  11  12
ENDBRANCH   8  11
ENDBRANCH   7   8
ENDBRANCH   6   7
ENDBRANCH   5   6
BRANCH   1  19
ATOM     19  C2  ZIN A   1      19.486   2.991  10.572  0.00  0.00     0.028 C 
ATOM     20  C1  ZIN A   1      18.167   3.659  10.179  0.00  0.00     0.016 C 
ATOM     21  C3  ZIN A   1      20.296   3.941  11.457  0.00  0.00     0.016 C 
ENDBRANCH   1  19
BRANCH   4  22
ATOM     22  C23 ZIN A   1      18.480  -0.146  14.393  0.00  0.00    -0.008 A 
ATOM     23  C29 ZIN A   1      19.372  -1.020  15.020  0.00  0.00     0.017 A 
ATOM     24  C28 ZIN A   1      19.114  -1.461  16.301  0.00  0.00     0.043 A 
ATOM     25  C26 ZIN A   1      17.968  -1.047  16.962  0.00  0.00     0.116 A 
ATOM     26  C25 ZIN A   1      17.078  -0.184  16.342  0.00  0.00     0.043 A 
ATOM     27  F27 ZIN A   1      17.719  -1.486  18.215  0.00  0.00    -0.206 F 
ATOM     28  C24 ZIN A   1      17.327   0.267  15.064  0.00  0.00     0.017 A 
ENDBRANCH   4  22
BRANCH   2  29
ATOM     29  C6  ZIN A   1      19.281   0.121   9.360  0.00  0.00     0.259 C 
ATOM     30  O7  ZIN A   1      20.349  -0.306   8.963  0.00  0.00    -0.267 OA
ATOM     31  N8  ZIN A   1      18.254   0.272   8.503  0.00  0.00    -0.323 N 
ATOM     32  H51 ZIN A   1      17.383   0.548   8.831  0.00  0.00     0.169 HD
BRANCH  31  33
ATOM     33  C9  ZIN A   1      18.441   0.029   7.137  0.00  0.00     0.035 A 
ATOM     34  C14 ZIN A   1      18.965   1.023   6.320  0.00  0.00     0.029 A 
ATOM     35  C13 ZIN A   1      19.153   0.779   4.974  0.00  0.00     0.002 A 
ATOM     36  C12 ZIN A   1      18.812  -0.449   4.438  0.00  0.00     0.000 A 
ATOM     37  C11 ZIN A   1      18.284  -1.438   5.247  0.00  0.00     0.002 A 
ATOM     38  C10 ZIN A   1      18.098  -1.202   6.596  0.00  0.00     0.029 A 
ENDBRANCH  31  33
ENDBRANCH   2  29
BRANCH   3  39
ATOM     39  C16 ZIN A   1      18.634  -1.918  11.804  0.00  0.00    -0.023 A 
ATOM     40  C21 ZIN A   1      17.350  -2.457  11.725  0.00  0.00     0.012 A 
ATOM     41  C20 ZIN A   1      17.184  -3.824  11.641  0.00  0.00     0.001 A 
ATOM     42  C19 ZIN A   1      18.287  -4.660  11.646  0.00  0.00     0.000 A 
ATOM     43  C18 ZIN A   1      19.562  -4.131  11.729  0.00  0.00     0.001 A 
ATOM     44  C17 ZIN A   1      19.743  -2.765  11.807  0.00  0.00     0.012 A 
ENDBRANCH   3  39
TORSDOF 14
ENDMDL
MODEL 4
REMARK VINA RESULT:      -9.1      3.779     10.475
REMARK  14 active torsions:
REMARK  status: ('A' for Active; 'I' for Inactive)
REMARK    1  A    between atoms: C2_2  and  C4_4 
REMARK    2  A    between atoms: C5_5  and  C6_6 
REMARK       I    between atoms: C6_6  and  N8_8 
REMARK    3  A    between atoms: N8_8  and  C9_9 
REMARK    4  A    between atoms: C15_15  and  C16_16 
REMARK    5  A    between atoms: C22_22  and  C23_23 
REMARK    6  A    between atoms: N30_30  and  C31_31 
REMARK    7  A    between atoms: C31_31  and  C32_32 
REMARK    8  A    between atoms: C32_32  and  C33_33 
REMARK    9  A    between atoms: C33_33  and  O35_34 
REMARK   10  A    between atoms: C33_33  and  C36_35 
REMARK   11  A    between atoms: C36_35  and  C37_36 
REMARK   12  A    between atoms: C37_36  and  O39_37 
REMARK   13  A    between atoms: C37_36  and  C40_38 
REMARK   14  A    between atoms: C40_38  and  C41_39 
ROOT
ATOM      1  C4  ZIN A   1      17.942   3.366  12.029  0.00  0.00     0.032 A 
ATOM      2  C5  ZIN A   1      17.988   3.305  13.393  0.00  0.00     0.068 A 
ATOM      3  C15 ZIN A   1      18.127   1.881  13.740  0.00  0.00     0.020 A 
ATOM      4  C22 ZIN A   1      18.153   1.202  12.538  0.00  0.00     0.057 A 
ATOM      5  N30 ZIN A   1      18.035   2.120  11.526  0.00  0.00    -0.347 N 
ENDROOT
BRANCH   5   6
ATOM      6  C31 ZIN A   1      18.020   1.792  10.098  0.00  0.00     0.132 C 
BRANCH   6   7
ATOM      7  C32 ZIN A   1      19.395   1.266   9.682  0.00  0.00     0.052 C 
BRANCH   7   8
ATOM      8  C33 ZIN A   1      19.225   0.194   8.603  0.00  0.00     0.122 C 
BRANCH   8   9
ATOM      9  O35 ZIN A   1      19.808  -1.031   9.052  0.00  0.00    -0.395 OA
ATOM     10  H70 ZIN A   1      19.465  -1.340   9.902  0.00  0.00     0.210 HD
ENDBRANCH   8   9
BRANCH   8  11
ATOM     11  C36 ZIN A   1      17.736  -0.020   8.325  0.00  0.00     0.064 C 
BRANCH  11  12
ATOM     12  C37 ZIN A   1      17.534  -0.341   6.843  0.00  0.00     0.130 C 
BRANCH  12  13
ATOM     13  O39 ZIN A   1      17.805  -1.725   6.614  0.00  0.00    -0.395 OA
ATOM     14  H73 ZIN A   1      17.015  -2.283   6.602  0.00  0.00     0.210 HD
ENDBRANCH  12  13
BRANCH  12  15
ATOM     15  C40 ZIN A   1      18.487   0.511   6.003  0.00  0.00     0.144 C 
BRANCH  15  16
ATOM     16  C41 ZIN A   1      18.906  -0.263   4.780  0.00  0.00     0.175 C 
ATOM     17  O42 ZIN A   1      20.026  -0.740   4.714  0.00  0.00    -0.648 OA
ATOM     18  O43 ZIN A   1      18.124  -0.413   3.855  0.00  0.00    -0.648 OA
ENDBRANCH  15  16
ENDBRANCH  12  15
ENDBRANCH  11  12
ENDBRANCH   8  11
ENDBRANCH   7   8
ENDBRANCH   6   7
ENDBRANCH   5   6
BRANCH   1  19
ATOM     19  C2  ZIN A   1      17.804   4.627  11.215  0.00  0.00     0.028 C 
ATOM     20  C1  ZIN A   1      18.145   4.331   9.753  0.00  0.00     0.016 C 
ATOM     21  C3  ZIN A   1      16.366   5.141  11.311  0.00  0.00     0.016 C 
ENDBRANCH   1  19
BRANCH   4  22
ATOM     22  C23 ZIN A   1      18.280  -0.260  12.371  0.00  0.00    -0.008 A 
ATOM     23  C29 ZIN A   1      17.202  -1.006  11.887  0.00  0.00     0.017 A 
ATOM     24  C28 ZIN A   1      17.328  -2.370  11.729  0.00  0.00     0.043 A 
ATOM     25  C26 ZIN A   1      18.517  -3.002  12.059  0.00  0.00     0.116 A 
ATOM     26  C25 ZIN A   1      19.588  -2.267  12.544  0.00  0.00     0.043 A 
ATOM     27  F27 ZIN A   1      18.633  -4.339  11.906  0.00  0.00    -0.206 F 
ATOM     28  C24 ZIN A   1      19.475  -0.902  12.702  0.00  0.00     0.017 A 
ENDBRANCH   4  22
BRANCH   2  29
ATOM     29  C6  ZIN A   1      17.913   4.438  14.330  0.00  0.00     0.259 C 
ATOM     30  O7  ZIN A   1      18.916   5.072  14.598  0.00  0.00    -0.267 OA
ATOM     31  N8  ZIN A   1      16.735   4.772  14.890  0.00  0.00    -0.323 N 
ATOM     32  H51 ZIN A   1      15.923   4.309  14.627  0.00  0.00     0.169 HD
BRANCH  31  33
ATOM     33  C9  ZIN A   1      16.679   5.786  15.853  0.00  0.00     0.035 A 
ATOM     34  C14 ZIN A   1      17.027   5.513  17.170  0.00  0.00     0.029 A 
ATOM     35  C13 ZIN A   1      16.976   6.517  18.117  0.00  0.00     0.002 A 
ATOM     36  C12 ZIN A   1      16.572   7.790  17.757  0.00  0.00     0.000 A 
ATOM     37  C11 ZIN A   1      16.219   8.062  16.448  0.00  0.00     0.002 A 
ATOM     38  C10 ZIN A   1      16.273   7.063  15.495  0.00  0.00     0.029 A 
ENDBRANCH  31  33
ENDBRANCH   2  29
BRANCH   3  39
ATOM     39  C16 ZIN A   1      18.219   1.298  15.098  0.00  0.00    -0.023 A 
ATOM     40  C21 ZIN A   1      17.343   0.283  15.485  0.00  0.00     0.012 A 
ATOM     41  C20 ZIN A   1      17.438  -0.260  16.749  0.00  0.00     0.001 A 
ATOM     42  C19 ZIN A   1      18.392   0.206  17.636  0.00  0.00     0.000 A 
ATOM     43  C18 ZIN A   1      19.260   1.216  17.260  0.00  0.00     0.001 A 
ATOM     44  C17 ZIN A   1      19.180   1.764  15.996  0.00  0.00     0.012 A 
ENDBRANCH   3  39
TORSDOF 14
ENDMDL
MODEL 5
REMARK VINA RESULT:      -9.1      2.588      8.734
REMARK  14 active torsions:
REMARK  status: ('A' for Active; 'I' for Inactive)
REMARK    1  A    between atoms: C2_2  and  C4_4 
REMARK    2  A    between atoms: C5_5  and  C6_6 
REMARK       I    between atoms: C6_6  and  N8_8 
REMARK    3  A    between atoms: N8_8  and  C9_9 
REMARK    4  A    between atoms: C15_15  and  C16_16 
REMARK    5  A    between atoms: C22_22  and  C23_23 
REMARK    6  A    between atoms: N30_30  and  C31_31 
REMARK    7  A    between atoms: C31_31  and  C32_32 
REMARK    8  A    between atoms: C32_32  and  C33_33 
REMARK    9  A    between atoms: C33_33  and  O35_34 
REMARK   10  A    between atoms: C33_33  and  C36_35 
REMARK   11  A    between atoms: C36_35  and  C37_36 
REMARK   12  A    between atoms: C37_36  and  O39_37 
REMARK   13  A    between atoms: C37_36  and  C40_38 
REMARK   14  A    between atoms: C40_38  and  C41_39 
ROOT
ATOM      1  C4  ZIN A   1      17.801  -2.802  10.563  0.00  0.00     0.032 A 
ATOM      2  C5  ZIN A   1      17.890  -1.531  11.056  0.00  0.00     0.068 A 
ATOM      3  C15 ZIN A   1      18.017  -0.642   9.890  0.00  0.00     0.020 A 
ATOM      4  C22 ZIN A   1      17.992  -1.467   8.783  0.00  0.00     0.057 A 
ATOM      5  N30 ZIN A   1      17.868  -2.761   9.219  0.00  0.00    -0.347 N 
ENDROOT
BRANCH   5   6
ATOM      6  C31 ZIN A   1      17.805  -3.935   8.344  0.00  0.00     0.132 C 
BRANCH   6   7
ATOM      7  C32 ZIN A   1      19.219  -4.315   7.899  0.00  0.00     0.052 C 
BRANCH   7   8
ATOM      8  C33 ZIN A   1      19.203  -4.694   6.417  0.00  0.00     0.122 C 
BRANCH   8   9
ATOM      9  O35 ZIN A   1      19.588  -6.063   6.272  0.00  0.00    -0.395 OA
ATOM     10  H70 ZIN A   1      20.297  -6.205   5.630  0.00  0.00     0.210 HD
ENDBRANCH   8   9
BRANCH   8  11
ATOM     11  C36 ZIN A   1      17.794  -4.498   5.855  0.00  0.00     0.064 C 
BRANCH  11  12
ATOM     12  C37 ZIN A   1      17.870  -4.327   4.336  0.00  0.00     0.130 C 
BRANCH  12  13
ATOM     13  O39 ZIN A   1      19.077  -3.643   3.993  0.00  0.00    -0.395 OA
ATOM     14  H73 ZIN A   1      18.998  -3.074   3.215  0.00  0.00     0.210 HD
ENDBRANCH  12  13
BRANCH  12  15
ATOM     15  C40 ZIN A   1      16.668  -3.512   3.855  0.00  0.00     0.144 C 
BRANCH  15  16
ATOM     16  C41 ZIN A   1      15.809  -4.368   2.959  0.00  0.00     0.175 C 
ATOM     17  O42 ZIN A   1      14.676  -4.662   3.301  0.00  0.00    -0.648 OA
ATOM     18  O43 ZIN A   1      16.247  -4.766   1.893  0.00  0.00    -0.648 OA
ENDBRANCH  15  16
ENDBRANCH  12  15
ENDBRANCH  11  12
ENDBRANCH   8  11
ENDBRANCH   7   8
ENDBRANCH   6   7
ENDBRANCH   5   6
BRANCH   1  19
ATOM     19  C2  ZIN A   1      17.658  -4.052  11.393  0.00  0.00     0.028 C 
ATOM     20  C1  ZIN A   1      16.630  -4.980  10.743  0.00  0.00     0.016 C 
ATOM     21  C3  ZIN A   1      19.008  -4.766  11.479  0.00  0.00     0.016 C 
ENDBRANCH   1  19
BRANCH   4  22
ATOM     22  C23 ZIN A   1      18.090  -1.033   7.375  0.00  0.00    -0.008 A 
ATOM     23  C29 ZIN A   1      16.961  -0.544   6.713  0.00  0.00     0.017 A 
ATOM     24  C28 ZIN A   1      17.059  -0.136   5.399  0.00  0.00     0.043 A 
ATOM     25  C26 ZIN A   1      18.272  -0.218   4.733  0.00  0.00     0.116 A 
ATOM     26  C25 ZIN A   1      19.394  -0.707   5.385  0.00  0.00     0.043 A 
ATOM     27  F27 ZIN A   1      18.361   0.180   3.446  0.00  0.00    -0.206 F 
ATOM     28  C24 ZIN A   1      19.309  -1.114   6.699  0.00  0.00     0.017 A 
ENDBRANCH   4  22
BRANCH   2  29
ATOM     29  C6  ZIN A   1      17.865  -1.130  12.472  0.00  0.00     0.259 C 
ATOM     30  O7  ZIN A   1      16.810  -0.837  13.002  0.00  0.00    -0.267 OA
ATOM     31  N8  ZIN A   1      19.010  -1.087  13.181  0.00  0.00    -0.323 N 
ATOM     32  H51 ZIN A   1      19.842  -1.384  12.778  0.00  0.00     0.169 HD
BRANCH  31  33
ATOM     33  C9  ZIN A   1      19.001  -0.614  14.498  0.00  0.00     0.035 A 
ATOM     34  C14 ZIN A   1      19.067   0.751  14.747  0.00  0.00     0.029 A 
ATOM     35  C13 ZIN A   1      19.053   1.215  16.048  0.00  0.00     0.002 A 
ATOM     36  C12 ZIN A   1      18.982   0.322  17.101  0.00  0.00     0.000 A 
ATOM     37  C11 ZIN A   1      18.922  -1.038  16.856  0.00  0.00     0.002 A 
ATOM     38  C10 ZIN A   1      18.931  -1.508  15.557  0.00  0.00     0.029 A 
ENDBRANCH  31  33
ENDBRANCH   2  29
BRANCH   3  39
ATOM     39  C16 ZIN A   1      18.145   0.834   9.901  0.00  0.00    -0.023 A 
ATOM     40  C21 ZIN A   1      19.061   1.463   9.058  0.00  0.00     0.012 A 
ATOM     41  C20 ZIN A   1      19.171   2.838   9.069  0.00  0.00     0.001 A 
ATOM     42  C19 ZIN A   1      18.384   3.592   9.921  0.00  0.00     0.000 A 
ATOM     43  C18 ZIN A   1      17.477   2.973  10.763  0.00  0.00     0.001 A 
ATOM     44  C17 ZIN A   1      17.352   1.599  10.758  0.00  0.00     0.012 A 
ENDBRANCH   3  39
TORSDOF 14
ENDMDL
MODEL 6
REMARK VINA RESULT:      -9.0      3.346     10.175
REMARK  14 active torsions:
REMARK  status: ('A' for Active; 'I' for Inactive)
REMARK    1  A    between atoms: C2_2  and  C4_4 
REMARK    2  A    between atoms: C5_5  and  C6_6 
REMARK       I    between atoms: C6_6  and  N8_8 
REMARK    3  A    between atoms: N8_8  and  C9_9 
REMARK    4  A    between atoms: C15_15  and  C16_16 
REMARK    5  A    between atoms: C22_22  and  C23_23 
REMARK    6  A    between atoms: N30_30  and  C31_31 
REMARK    7  A    between atoms: C31_31  and  C32_32 
REMARK    8  A    between atoms: C32_32  and  C33_33 
REMARK    9  A    between atoms: C33_33  and  O35_34 
REMARK   10  A    between atoms: C33_33  and  C36_35 
REMARK   11  A    between atoms: C36_35  and  C37_36 
REMARK   12  A    between atoms: C37_36  and  O39_37 
REMARK   13  A    between atoms: C37_36  and  C40_38 
REMARK   14  A    between atoms: C40_38  and  C41_39 
ROOT
ATOM      1  C4  ZIN A   1      19.011   2.566  12.118  0.00  0.00     0.032 A 
ATOM      2  C5  ZIN A   1      18.772   2.329  13.443  0.00  0.00     0.068 A 
ATOM      3  C15 ZIN A   1      18.623   0.871  13.583  0.00  0.00     0.020 A 
ATOM      4  C22 ZIN A   1      18.790   0.352  12.314  0.00  0.00     0.057 A 
ATOM      5  N30 ZIN A   1      19.016   1.395  11.453  0.00  0.00    -0.347 N 
ENDROOT
BRANCH   5   6
ATOM      6  C31 ZIN A   1      19.240   1.254  10.012  0.00  0.00     0.132 C 
BRANCH   6   7
ATOM      7  C32 ZIN A   1      17.924   0.886   9.325  0.00  0.00     0.052 C 
BRANCH   7   8
ATOM      8  C33 ZIN A   1      18.221   0.221   7.978  0.00  0.00     0.122 C 
BRANCH   8   9
ATOM      9  O35 ZIN A   1      18.729   1.198   7.067  0.00  0.00    -0.395 OA
ATOM     10  H70 ZIN A   1      18.291   1.196   6.205  0.00  0.00     0.210 HD
ENDBRANCH   8   9
BRANCH   8  11
ATOM     11  C36 ZIN A   1      19.259  -0.885   8.172  0.00  0.00     0.064 C 
BRANCH  11  12
ATOM     12  C37 ZIN A   1      18.908  -2.076   7.278  0.00  0.00     0.130 C 
BRANCH  12  13
ATOM     13  O39 ZIN A   1      20.100  -2.795   6.953  0.00  0.00    -0.395 OA
ATOM     14  H73 ZIN A   1      20.188  -3.004   6.012  0.00  0.00     0.210 HD
ENDBRANCH  12  13
BRANCH  12  15
ATOM     15  C40 ZIN A   1      18.250  -1.572   5.993  0.00  0.00     0.144 C 
BRANCH  15  16
ATOM     16  C41 ZIN A   1      19.278  -1.510   4.893  0.00  0.00     0.175 C 
ATOM     17  O42 ZIN A   1      19.437  -2.465   4.152  0.00  0.00    -0.648 OA
ATOM     18  O43 ZIN A   1      19.952  -0.504   4.744  0.00  0.00    -0.648 OA
ENDBRANCH  15  16
ENDBRANCH  12  15
ENDBRANCH  11  12
ENDBRANCH   8  11
ENDBRANCH   7   8
ENDBRANCH   6   7
ENDBRANCH   5   6
BRANCH   1  19
ATOM     19  C2  ZIN A   1      19.230   3.923  11.500  0.00  0.00     0.028 C 
ATOM     20  C1  ZIN A   1      17.880   4.610  11.286  0.00  0.00     0.016 C 
ATOM     21  C3  ZIN A   1      20.095   4.774  12.431  0.00  0.00     0.016 C 
ENDBRANCH   1  19
BRANCH   4  22
ATOM     22  C23 ZIN A   1      18.728  -1.077  11.947  0.00  0.00    -0.008 A 
ATOM     23  C29 ZIN A   1      17.491  -1.707  11.789  0.00  0.00     0.017 A 
ATOM     24  C28 ZIN A   1      17.439  -3.041  11.443  0.00  0.00     0.043 A 
ATOM     25  C26 ZIN A   1      18.611  -3.758  11.261  0.00  0.00     0.116 A 
ATOM     26  C25 ZIN A   1      19.841  -3.139  11.422  0.00  0.00     0.043 A 
ATOM     27  F27 ZIN A   1      18.554  -5.065  10.925  0.00  0.00    -0.206 F 
ATOM     28  C24 ZIN A   1      19.905  -1.805  11.764  0.00  0.00     0.017 A 
ENDBRANCH   4  22
BRANCH   2  29
ATOM     29  C6  ZIN A   1      18.679   3.332  14.516  0.00  0.00     0.259 C 
ATOM     30  O7  ZIN A   1      19.629   3.523  15.252  0.00  0.00    -0.267 OA
ATOM     31  N8  ZIN A   1      17.544   4.038  14.682  0.00  0.00    -0.323 N 
ATOM     32  H51 ZIN A   1      16.811   3.934  14.055  0.00  0.00     0.169 HD
BRANCH  31  33
ATOM     33  C9  ZIN A   1      17.421   4.922  15.760  0.00  0.00     0.035 A 
ATOM     34  C14 ZIN A   1      17.419   4.436  17.061  0.00  0.00     0.029 A 
ATOM     35  C13 ZIN A   1      17.303   5.311  18.123  0.00  0.00     0.002 A 
ATOM     36  C12 ZIN A   1      17.179   6.669  17.891  0.00  0.00     0.000 A 
ATOM     37  C11 ZIN A   1      17.175   7.155  16.597  0.00  0.00     0.002 A 
ATOM     38  C10 ZIN A   1      17.296   6.285  15.530  0.00  0.00     0.029 A 
ENDBRANCH  31  33
ENDBRANCH   2  29
BRANCH   3  39
ATOM     39  C16 ZIN A   1      18.352   0.117  14.828  0.00  0.00    -0.023 A 
ATOM     40  C21 ZIN A   1      17.200   0.381  15.570  0.00  0.00     0.012 A 
ATOM     41  C20 ZIN A   1      16.950  -0.329  16.726  0.00  0.00     0.001 A 
ATOM     42  C19 ZIN A   1      17.844  -1.293  17.156  0.00  0.00     0.000 A 
ATOM     43  C18 ZIN A   1      18.991  -1.556  16.428  0.00  0.00     0.001 A 
ATOM     44  C17 ZIN A   1      19.250  -0.857  15.267  0.00  0.00     0.012 A 
ENDBRANCH   3  39
TORSDOF 14
ENDMDL
MODEL 7
REMARK VINA RESULT:      -8.9      3.267      6.094
REMARK  14 active torsions:
REMARK  status: ('A' for Active; 'I' for Inactive)
REMARK    1  A    between atoms: C2_2  and  C4_4 
REMARK    2  A    between atoms: C5_5  and  C6_6 
REMARK       I    between atoms: C6_6  and  N8_8 
REMARK    3  A    between atoms: N8_8  and  C9_9 
REMARK    4  A    between atoms: C15_15  and  C16_16 
REMARK    5  A    between atoms: C22_22  and  C23_23 
REMARK    6  A    between atoms: N30_30  and  C31_31 
REMARK    7  A    between atoms: C31_31  and  C32_32 
REMARK    8  A    between atoms: C32_32  and  C33_33 
REMARK    9  A    between atoms: C33_33  and  O35_34 
REMARK   10  A    between atoms: C33_33  and  C36_35 
REMARK   11  A    between atoms: C36_35  and  C37_36 
REMARK   12  A    between atoms: C37_36  and  O39_37 
REMARK   13  A    between atoms: C37_36  and  C40_38 
REMARK   14  A    between atoms: C40_38  and  C41_39 
ROOT
ATOM      1  C4  ZIN A   1      17.834   1.762  11.157  0.00  0.00     0.032 A 
ATOM      2  C5  ZIN A   1      17.994   0.513  10.624  0.00  0.00     0.068 A 
ATOM      3  C15 ZIN A   1      18.185  -0.401  11.762  0.00  0.00     0.020 A 
ATOM      4  C22 ZIN A   1      18.123   0.388  12.894  0.00  0.00     0.057 A 
ATOM      5  N30 ZIN A   1      17.917   1.685  12.499  0.00  0.00    -0.347 N 
ENDROOT
BRANCH   5   6
ATOM      6  C31 ZIN A   1      17.794   2.826  13.410  0.00  0.00     0.132 C 
BRANCH   6   7
ATOM      7  C32 ZIN A   1      19.158   3.129  14.033  0.00  0.00     0.052 C 
BRANCH   7   8
ATOM      8  C33 ZIN A   1      18.983   3.420  15.526  0.00  0.00     0.122 C 
BRANCH   8   9
ATOM      9  O35 ZIN A   1      20.266   3.597  16.130  0.00  0.00    -0.395 OA
ATOM     10  H70 ZIN A   1      20.283   4.270  16.824  0.00  0.00     0.210 HD
ENDBRANCH   8   9
BRANCH   8  11
ATOM     11  C36 ZIN A   1      18.155   4.694  15.703  0.00  0.00     0.064 C 
BRANCH  11  12
ATOM     12  C37 ZIN A   1      19.087   5.905  15.763  0.00  0.00     0.130 C 
BRANCH  12  13
ATOM     13  O39 ZIN A   1      19.265   6.303  17.124  0.00  0.00    -0.395 OA
ATOM     14  H73 ZIN A   1      20.031   6.876  17.268  0.00  0.00     0.210 HD
ENDBRANCH  12  13
BRANCH  12  15
ATOM     15  C40 ZIN A   1      18.474   7.060  14.969  0.00  0.00     0.144 C 
BRANCH  15  16
ATOM     16  C41 ZIN A   1      17.594   7.881  15.877  0.00  0.00     0.175 C 
ATOM     17  O42 ZIN A   1      16.391   7.687  15.899  0.00  0.00    -0.648 OA
ATOM     18  O43 ZIN A   1      18.087   8.740  16.589  0.00  0.00    -0.648 OA
ENDBRANCH  15  16
ENDBRANCH  12  15
ENDBRANCH  11  12
ENDBRANCH   8  11
ENDBRANCH   7   8
ENDBRANCH   6   7
ENDBRANCH   5   6
BRANCH   1  19
ATOM     19  C2  ZIN A   1      17.608   3.025  10.367  0.00  0.00     0.028 C 
ATOM     20  C1  ZIN A   1      16.956   4.078  11.265  0.00  0.00     0.016 C 
ATOM     21  C3  ZIN A   1      18.949   3.552   9.853  0.00  0.00     0.016 C 
ENDBRANCH   1  19
BRANCH   4  22
ATOM     22  C23 ZIN A   1      18.261  -0.082  14.286  0.00  0.00    -0.008 A 
ATOM     23  C29 ZIN A   1      19.417  -0.757  14.687  0.00  0.00     0.017 A 
ATOM     24  C28 ZIN A   1      19.542  -1.190  15.990  0.00  0.00     0.043 A 
ATOM     25  C26 ZIN A   1      18.520  -0.966  16.899  0.00  0.00     0.116 A 
ATOM     26  C25 ZIN A   1      17.369  -0.302  16.506  0.00  0.00     0.043 A 
ATOM     27  F27 ZIN A   1      18.647  -1.396  18.173  0.00  0.00    -0.206 F 
ATOM     28  C24 ZIN A   1      17.234   0.140  15.207  0.00  0.00     0.017 A 
ENDBRANCH   4  22
BRANCH   2  29
ATOM     29  C6  ZIN A   1      17.978   0.154   9.197  0.00  0.00     0.259 C 
ATOM     30  O7  ZIN A   1      16.922  -0.091   8.644  0.00  0.00    -0.267 OA
ATOM     31  N8  ZIN A   1      19.131   0.096   8.504  0.00  0.00    -0.323 N 
ATOM     32  H51 ZIN A   1      19.966   0.356   8.927  0.00  0.00     0.169 HD
BRANCH  31  33
ATOM     33  C9  ZIN A   1      19.128  -0.338   7.174  0.00  0.00     0.035 A 
ATOM     34  C14 ZIN A   1      19.214  -1.693   6.884  0.00  0.00     0.029 A 
ATOM     35  C13 ZIN A   1      19.206  -2.119   5.571  0.00  0.00     0.002 A 
ATOM     36  C12 ZIN A   1      19.120  -1.197   4.544  0.00  0.00     0.000 A 
ATOM     37  C11 ZIN A   1      19.039   0.154   4.828  0.00  0.00     0.002 A 
ATOM     38  C10 ZIN A   1      19.043   0.586   6.141  0.00  0.00     0.029 A 
ENDBRANCH  31  33
ENDBRANCH   2  29
BRANCH   3  39
ATOM     39  C16 ZIN A   1      18.400  -1.865  11.704  0.00  0.00    -0.023 A 
ATOM     40  C21 ZIN A   1      17.310  -2.735  11.746  0.00  0.00     0.012 A 
ATOM     41  C20 ZIN A   1      17.517  -4.098  11.687  0.00  0.00     0.001 A 
ATOM     42  C19 ZIN A   1      18.801  -4.603  11.597  0.00  0.00     0.000 A 
ATOM     43  C18 ZIN A   1      19.887  -3.746  11.561  0.00  0.00     0.001 A 
ATOM     44  C17 ZIN A   1      19.694  -2.380  11.613  0.00  0.00     0.012 A 
ENDBRANCH   3  39
TORSDOF 14
ENDMDL
MODEL 8
REMARK VINA RESULT:      -8.5      2.603      8.541
REMARK  14 active torsions:
REMARK  status: ('A' for Active; 'I' for Inactive)
REMARK    1  A    between atoms: C2_2  and  C4_4 
REMARK    2  A    between atoms: C5_5  and  C6_6 
REMARK       I    between atoms: C6_6  and  N8_8 
REMARK    3  A    between atoms: N8_8  and  C9_9 
REMARK    4  A    between atoms: C15_15  and  C16_16 
REMARK    5  A    between atoms: C22_22  and  C23_23 
REMARK    6  A    between atoms: N30_30  and  C31_31 
REMARK    7  A    between atoms: C31_31  and  C32_32 
REMARK    8  A    between atoms: C32_32  and  C33_33 
REMARK    9  A    between atoms: C33_33  and  O35_34 
REMARK   10  A    between atoms: C33_33  and  C36_35 
REMARK   11  A    between atoms: C36_35  and  C37_36 
REMARK   12  A    between atoms: C37_36  and  O39_37 
REMARK   13  A    between atoms: C37_36  and  C40_38 
REMARK   14  A    between atoms: C40_38  and  C41_39 
ROOT
ATOM      1  C4  ZIN A   1      18.946  -2.647  10.902  0.00  0.00     0.032 A 
ATOM      2  C5  ZIN A   1      18.868  -1.347  11.319  0.00  0.00     0.068 A 
ATOM      3  C15 ZIN A   1      18.653  -0.537  10.109  0.00  0.00     0.020 A 
ATOM      4  C22 ZIN A   1      18.619  -1.431   9.057  0.00  0.00     0.057 A 
ATOM      5  N30 ZIN A   1      18.804  -2.692   9.563  0.00  0.00    -0.347 N 
ENDROOT
BRANCH   5   6
ATOM      6  C31 ZIN A   1      18.833  -3.918   8.762  0.00  0.00     0.132 C 
BRANCH   6   7
ATOM      7  C32 ZIN A   1      17.401  -4.362   8.457  0.00  0.00     0.052 C 
BRANCH   7   8
ATOM      8  C33 ZIN A   1      17.404  -5.829   8.022  0.00  0.00     0.122 C 
BRANCH   8   9
ATOM      9  O35 ZIN A   1      17.381  -6.669   9.178  0.00  0.00    -0.395 OA
ATOM     10  H70 ZIN A   1      16.529  -6.684   9.635  0.00  0.00     0.210 HD
ENDBRANCH   8   9
BRANCH   8  11
ATOM     11  C36 ZIN A   1      16.169  -6.109   7.163  0.00  0.00     0.064 C 
BRANCH  11  12
ATOM     12  C37 ZIN A   1      15.124  -6.851   7.998  0.00  0.00     0.130 C 
BRANCH  12  13
ATOM     13  O39 ZIN A   1      15.191  -8.250   7.711  0.00  0.00    -0.395 OA
ATOM     14  H73 ZIN A   1      15.349  -8.453   6.779  0.00  0.00     0.210 HD
ENDBRANCH  12  13
BRANCH  12  15
ATOM     15  C40 ZIN A   1      13.729  -6.326   7.652  0.00  0.00     0.144 C 
BRANCH  15  16
ATOM     16  C41 ZIN A   1      12.984  -7.368   6.857  0.00  0.00     0.175 C 
ATOM     17  O42 ZIN A   1      12.191  -8.108   7.414  0.00  0.00    -0.648 OA
ATOM     18  O43 ZIN A   1      13.174  -7.471   5.657  0.00  0.00    -0.648 OA
ENDBRANCH  15  16
ENDBRANCH  12  15
ENDBRANCH  11  12
ENDBRANCH   8  11
ENDBRANCH   7   8
ENDBRANCH   6   7
ENDBRANCH   5   6
BRANCH   1  19
ATOM     19  C2  ZIN A   1      19.162  -3.839  11.798  0.00  0.00     0.028 C 
ATOM     20  C1  ZIN A   1      17.840  -4.589  11.977  0.00  0.00     0.016 C 
ATOM     21  C3  ZIN A   1      20.197  -4.772  11.165  0.00  0.00     0.016 C 
ENDBRANCH   1  19
BRANCH   4  22
ATOM     22  C23 ZIN A   1      18.425  -1.089   7.634  0.00  0.00    -0.008 A 
ATOM     23  C29 ZIN A   1      19.432  -1.360   6.704  0.00  0.00     0.017 A 
ATOM     24  C28 ZIN A   1      19.244  -1.042   5.376  0.00  0.00     0.043 A 
ATOM     25  C26 ZIN A   1      18.062  -0.446   4.964  0.00  0.00     0.116 A 
ATOM     26  C25 ZIN A   1      17.061  -0.170   5.883  0.00  0.00     0.043 A 
ATOM     27  F27 ZIN A   1      17.885  -0.133   3.662  0.00  0.00    -0.206 F 
ATOM     28  C24 ZIN A   1      17.237  -0.487   7.213  0.00  0.00     0.017 A 
ENDBRANCH   4  22
BRANCH   2  29
ATOM     29  C6  ZIN A   1      18.978  -0.856  12.701  0.00  0.00     0.259 C 
ATOM     30  O7  ZIN A   1      19.926  -0.167  13.027  0.00  0.00    -0.267 OA
ATOM     31  N8  ZIN A   1      18.029  -1.169  13.605  0.00  0.00    -0.323 N 
ATOM     32  H51 ZIN A   1      17.240  -1.662  13.330  0.00  0.00     0.169 HD
BRANCH  31  33
ATOM     33  C9  ZIN A   1      18.182  -0.784  14.942  0.00  0.00     0.035 A 
ATOM     34  C14 ZIN A   1      18.983  -1.532  15.794  0.00  0.00     0.029 A 
ATOM     35  C13 ZIN A   1      19.135  -1.147  17.111  0.00  0.00     0.002 A 
ATOM     36  C12 ZIN A   1      18.484  -0.022  17.584  0.00  0.00     0.000 A 
ATOM     37  C11 ZIN A   1      17.680   0.721  16.740  0.00  0.00     0.002 A 
ATOM     38  C10 ZIN A   1      17.528   0.344  15.419  0.00  0.00     0.029 A 
ENDBRANCH  31  33
ENDBRANCH   2  29
BRANCH   3  39
ATOM     39  C16 ZIN A   1      18.503   0.935  10.035  0.00  0.00    -0.023 A 
ATOM     40  C21 ZIN A   1      19.268   1.672   9.130  0.00  0.00     0.012 A 
ATOM     41  C20 ZIN A   1      19.120   3.042   9.062  0.00  0.00     0.001 A 
ATOM     42  C19 ZIN A   1      18.224   3.686   9.896  0.00  0.00     0.000 A 
ATOM     43  C18 ZIN A   1      17.467   2.962  10.799  0.00  0.00     0.001 A 
ATOM     44  C17 ZIN A   1      17.601   1.590  10.873  0.00  0.00     0.012 A 
ENDBRANCH   3  39
TORSDOF 14
ENDMDL
MODEL 9
REMARK VINA RESULT:      -8.5      3.517     10.510
REMARK  14 active torsions:
REMARK  status: ('A' for Active; 'I' for Inactive)
REMARK    1  A    between atoms: C2_2  and  C4_4 
REMARK    2  A    between atoms: C5_5  and  C6_6 
REMARK       I    between atoms: C6_6  and  N8_8 
REMARK    3  A    between atoms: N8_8  and  C9_9 
REMARK    4  A    between atoms: C15_15  and  C16_16 
REMARK    5  A    between atoms: C22_22  and  C23_23 
REMARK    6  A    between atoms: N30_30  and  C31_31 
REMARK    7  A    between atoms: C31_31  and  C32_32 
REMARK    8  A    between atoms: C32_32  and  C33_33 
REMARK    9  A    between atoms: C33_33  and  O35_34 
REMARK   10  A    between atoms: C33_33  and  C36_35 
REMARK   11  A    between atoms: C36_35  and  C37_36 
REMARK   12  A    between atoms: C37_36  and  O39_37 
REMARK   13  A    between atoms: C37_36  and  C40_38 
REMARK   14  A    between atoms: C40_38  and  C41_39 
ROOT
ATOM      1  C4  ZIN A   1      19.040   3.353  13.576  0.00  0.00     0.032 A 
ATOM      2  C5  ZIN A   1      18.814   2.714  14.763  0.00  0.00     0.068 A 
ATOM      3  C15 ZIN A   1      18.663   1.285  14.441  0.00  0.00     0.020 A 
ATOM      4  C22 ZIN A   1      18.814   1.190  13.071  0.00  0.00     0.057 A 
ATOM      5  N30 ZIN A   1      19.034   2.450  12.577  0.00  0.00    -0.347 N 
ENDROOT
BRANCH   5   6
ATOM      6  C31 ZIN A   1      19.242   2.767  11.162  0.00  0.00     0.132 C 
BRANCH   6   7
ATOM      7  C32 ZIN A   1      18.049   2.267  10.347  0.00  0.00     0.052 C 
BRANCH   7   8
ATOM      8  C33 ZIN A   1      18.497   1.979   8.912  0.00  0.00     0.122 C 
BRANCH   8   9
ATOM      9  O35 ZIN A   1      19.920   2.075   8.829  0.00  0.00    -0.395 OA
ATOM     10  H70 ZIN A   1      20.251   2.239   7.935  0.00  0.00     0.210 HD
ENDBRANCH   8   9
BRANCH   8  11
ATOM     11  C36 ZIN A   1      18.056   0.569   8.514  0.00  0.00     0.064 C 
BRANCH  11  12
ATOM     12  C37 ZIN A   1      18.970   0.043   7.405  0.00  0.00     0.130 C 
BRANCH  12  13
ATOM     13  O39 ZIN A   1      19.053   1.010   6.356  0.00  0.00    -0.395 OA
ATOM     14  H73 ZIN A   1      19.921   1.430   6.277  0.00  0.00     0.210 HD
ENDBRANCH  12  13
BRANCH  12  15
ATOM     15  C40 ZIN A   1      18.398  -1.263   6.850  0.00  0.00     0.144 C 
BRANCH  15  16
ATOM     16  C41 ZIN A   1      18.651  -1.331   5.366  0.00  0.00     0.175 C 
ATOM     17  O42 ZIN A   1      19.788  -1.468   4.947  0.00  0.00    -0.648 OA
ATOM     18  O43 ZIN A   1      17.719  -1.249   4.584  0.00  0.00    -0.648 OA
ENDBRANCH  15  16
ENDBRANCH  12  15
ENDBRANCH  11  12
ENDBRANCH   8  11
ENDBRANCH   7   8
ENDBRANCH   6   7
ENDBRANCH   5   6
BRANCH   1  19
ATOM     19  C2  ZIN A   1      19.256   4.836  13.411  0.00  0.00     0.028 C 
ATOM     20  C1  ZIN A   1      20.336   5.079  12.354  0.00  0.00     0.016 C 
ATOM     21  C3  ZIN A   1      17.949   5.495  12.966  0.00  0.00     0.016 C 
ENDBRANCH   1  19
BRANCH   4  22
ATOM     22  C23 ZIN A   1      18.745  -0.053  12.277  0.00  0.00    -0.008 A 
ATOM     23  C29 ZIN A   1      19.900  -0.573  11.686  0.00  0.00     0.017 A 
ATOM     24  C28 ZIN A   1      19.829  -1.736  10.949  0.00  0.00     0.043 A 
ATOM     25  C26 ZIN A   1      18.615  -2.383  10.784  0.00  0.00     0.116 A 
ATOM     26  C25 ZIN A   1      17.465  -1.868  11.363  0.00  0.00     0.043 A 
ATOM     27  F27 ZIN A   1      18.552  -3.520  10.057  0.00  0.00    -0.206 F 
ATOM     28  C24 ZIN A   1      17.524  -0.709  12.106  0.00  0.00     0.017 A 
ENDBRANCH   4  22
BRANCH   2  29
ATOM     29  C6  ZIN A   1      18.736   3.331  16.096  0.00  0.00     0.259 C 
ATOM     30  O7  ZIN A   1      19.660   3.206  16.878  0.00  0.00    -0.267 OA
ATOM     31  N8  ZIN A   1      17.642   4.033  16.451  0.00  0.00    -0.323 N 
ATOM     32  H51 ZIN A   1      16.934   4.188  15.806  0.00  0.00     0.169 HD
BRANCH  31  33
ATOM     33  C9  ZIN A   1      17.526   4.538  17.751  0.00  0.00     0.035 A 
ATOM     34  C14 ZIN A   1      17.661   5.900  17.982  0.00  0.00     0.029 A 
ATOM     35  C13 ZIN A   1      17.541   6.397  19.265  0.00  0.00     0.002 A 
ATOM     36  C12 ZIN A   1      17.296   5.537  20.320  0.00  0.00     0.000 A 
ATOM     37  C11 ZIN A   1      17.167   4.179  20.094  0.00  0.00     0.002 A 
ATOM     38  C10 ZIN A   1      17.281   3.677  18.812  0.00  0.00     0.029 A 
ENDBRANCH  31  33
ENDBRANCH   2  29
BRANCH   3  39
ATOM     39  C16 ZIN A   1      18.403   0.179  15.390  0.00  0.00    -0.023 A 
ATOM     40  C21 ZIN A   1      19.366  -0.811  15.592  0.00  0.00     0.012 A 
ATOM     41  C20 ZIN A   1      19.119  -1.836  16.482  0.00  0.00     0.001 A 
ATOM     42  C19 ZIN A   1      17.918  -1.890  17.165  0.00  0.00     0.000 A 
ATOM     43  C18 ZIN A   1      16.958  -0.914  16.966  0.00  0.00     0.001 A 
ATOM     44  C17 ZIN A   1      17.194   0.120  16.083  0.00  0.00     0.012 A 
ENDBRANCH   3  39
TORSDOF 14
ENDMDL
