MODEL 1
REMARK VINA RESULT:      -7.7      0.000      0.000
REMARK  6 active torsions:
REMARK  status: ('A' for Active; 'I' for Inactive)
REMARK    1  A    between atoms: C5_5  and  C6_6 
REMARK    2  A    between atoms: C6_6  and  O7_7 
REMARK    3  A    between atoms: O7_7  and  C8_8 
REMARK    4  A    between atoms: C8_8  and  C10_9 
REMARK    5  A    between atoms: C8_8  and  C16_15 
REMARK    6  A    between atoms: C10_9  and  N11_10 
ROOT
ATOM      1  C8  ZIN A   1      18.017   1.121  10.640  0.00  0.00     0.174 C 
ENDROOT
BRANCH   1   2
ATOM      2  O7  ZIN A   1      17.122   2.224  10.797  0.00  0.00    -0.375 OA
BRANCH   2   3
ATOM      3  C6  ZIN A   1      17.698   3.491  10.473  0.00  0.00     0.209 C 
BRANCH   3   4
ATOM      4  C5  ZIN A   1      17.873   4.300  11.733  0.00  0.00    -0.013 A 
ATOM      5  C4  ZIN A   1      16.806   5.006  12.254  0.00  0.00     0.012 A 
ATOM      6  C3  ZIN A   1      16.967   5.749  13.409  0.00  0.00     0.024 A 
ATOM      7  C2  ZIN A   1      18.196   5.785  14.042  0.00  0.00     0.035 A 
ATOM      8 Cl1  ZIN A   1      18.397   6.717  15.493  0.00  0.00    -0.084 Cl
ATOM      9  C26 ZIN A   1      19.266   5.083  13.517  0.00  0.00     0.048 A 
ATOM     10  C24 ZIN A   1      19.103   4.336  12.365  0.00  0.00     0.044 A 
ATOM     11 Cl25 ZIN A   1      20.444   3.450  11.709  0.00  0.00    -0.084 Cl
ENDBRANCH   3   4
ENDBRANCH   2   3
ENDBRANCH   1   2
BRANCH   1  12
ATOM     12  C10 ZIN A   1      17.389   0.082   9.708  0.00  0.00     0.166 C 
BRANCH  12  13
ATOM     13  N11 ZIN A   1      17.827   0.332   8.333  0.00  0.00    -0.347 N 
ATOM     14  C15 ZIN A   1      17.233  -0.121   7.208  0.00  0.00     0.209 A 
ATOM     15  N14 ZIN A   1      17.906   0.309   6.177  0.00  0.00    -0.255 NA
ATOM     16  C13 ZIN A   1      18.950   1.037   6.602  0.00  0.00     0.135 A 
ATOM     17  C12 ZIN A   1      18.918   1.063   7.948  0.00  0.00     0.111 A 
ENDBRANCH  12  13
ENDBRANCH   1  12
BRANCH   1  18
ATOM     18  C16 ZIN A   1      18.281   0.494  11.985  0.00  0.00    -0.006 A 
ATOM     19  C22 ZIN A   1      19.442  -0.229  12.195  0.00  0.00     0.044 A 
ATOM     20  C21 ZIN A   1      19.688  -0.799  13.431  0.00  0.00     0.048 A 
ATOM     21 Cl23 ZIN A   1      20.597  -0.410  10.911  0.00  0.00    -0.084 Cl
ATOM     22  C19 ZIN A   1      18.767  -0.656  14.454  0.00  0.00     0.035 A 
ATOM     23  C18 ZIN A   1      17.604   0.063  14.241  0.00  0.00     0.024 A 
ATOM     24 Cl20 ZIN A   1      19.071  -1.377  16.003  0.00  0.00    -0.084 Cl
ATOM     25  C17 ZIN A   1      17.362   0.638  13.007  0.00  0.00     0.013 A 
ENDBRANCH   1  18
TORSDOF 6
ENDMDL
MODEL 2
REMARK VINA RESULT:      -7.5      3.901      6.424
REMARK  6 active torsions:
REMARK  status: ('A' for Active; 'I' for Inactive)
REMARK    1  A    between atoms: C5_5  and  C6_6 
REMARK    2  A    between atoms: C6_6  and  O7_7 
REMARK    3  A    between atoms: O7_7  and  C8_8 
REMARK    4  A    between atoms: C8_8  and  C10_9 
REMARK    5  A    between atoms: C8_8  and  C16_15 
REMARK    6  A    between atoms: C10_9  and  N11_10 
ROOT
ATOM      1  C8  ZIN A   1      19.210  -0.816  13.187  0.00  0.00     0.174 C 
ENDROOT
BRANCH   1   2
ATOM      2  O7  ZIN A   1      20.270  -0.066  12.590  0.00  0.00    -0.375 OA
BRANCH   2   3
ATOM      3  C6  ZIN A   1      19.887   1.243  12.165  0.00  0.00     0.209 C 
BRANCH   3   4
ATOM      4  C5  ZIN A   1      19.631   1.234  10.680  0.00  0.00    -0.013 A 
ATOM      5  C4  ZIN A   1      19.969   0.125   9.927  0.00  0.00     0.012 A 
ATOM      6  C3  ZIN A   1      19.735   0.116   8.565  0.00  0.00     0.024 A 
ATOM      7  C2  ZIN A   1      19.164   1.219   7.954  0.00  0.00     0.035 A 
ATOM      8 Cl1  ZIN A   1      18.870   1.207   6.243  0.00  0.00    -0.084 Cl
ATOM      9  C26 ZIN A   1      18.832   2.331   8.706  0.00  0.00     0.048 A 
ATOM     10  C24 ZIN A   1      19.061   2.337  10.070  0.00  0.00     0.044 A 
ATOM     11 Cl25 ZIN A   1      18.638   3.731  11.015  0.00  0.00    -0.084 Cl
ENDBRANCH   3   4
ENDBRANCH   2   3
ENDBRANCH   1   2
BRANCH   1  12
ATOM     12  C10 ZIN A   1      19.643  -1.300  14.573  0.00  0.00     0.166 C 
BRANCH  12  13
ATOM     13  N11 ZIN A   1      18.850  -0.617  15.598  0.00  0.00    -0.347 N 
ATOM     14  C15 ZIN A   1      18.927   0.690  15.932  0.00  0.00     0.209 A 
ATOM     15  N14 ZIN A   1      18.066   0.930  16.882  0.00  0.00    -0.255 NA
ATOM     16  C13 ZIN A   1      17.422  -0.205  17.192  0.00  0.00     0.135 A 
ATOM     17  C12 ZIN A   1      17.898  -1.184  16.400  0.00  0.00     0.111 A 
ENDBRANCH  12  13
ENDBRANCH   1  12
BRANCH   1  18
ATOM     18  C16 ZIN A   1      18.886  -2.005  12.319  0.00  0.00    -0.006 A 
ATOM     19  C22 ZIN A   1      17.728  -2.013  11.561  0.00  0.00     0.044 A 
ATOM     20  C21 ZIN A   1      17.434  -3.102  10.760  0.00  0.00     0.048 A 
ATOM     21 Cl23 ZIN A   1      16.651  -0.653  11.607  0.00  0.00    -0.084 Cl
ATOM     22  C19 ZIN A   1      18.292  -4.187  10.725  0.00  0.00     0.035 A 
ATOM     23  C18 ZIN A   1      19.447  -4.180  11.488  0.00  0.00     0.024 A 
ATOM     24 Cl20 ZIN A   1      17.920  -5.556   9.725  0.00  0.00    -0.084 Cl
ATOM     25  C17 ZIN A   1      19.743  -3.088  12.284  0.00  0.00     0.013 A 
ENDBRANCH   1  18
TORSDOF 6
ENDMDL
MODEL 3
REMARK VINA RESULT:      -7.3      2.895      6.019
REMARK  6 active torsions:
REMARK  status: ('A' for Active; 'I' for Inactive)
REMARK    1  A    between atoms: C5_5  and  C6_6 
REMARK    2  A    between atoms: C6_6  and  O7_7 
REMARK    3  A    between atoms: O7_7  and  C8_8 
REMARK    4  A    between atoms: C8_8  and  C10_9 
REMARK    5  A    between atoms: C8_8  and  C16_15 
REMARK    6  A    between atoms: C10_9  and  N11_10 
ROOT
ATOM      1  C8  ZIN A   1      18.801   2.096  10.818  0.00  0.00     0.174 C 
ENDROOT
BRANCH   1   2
ATOM      2  O7  ZIN A   1      18.637   1.127  11.855  0.00  0.00    -0.375 OA
BRANCH   2   3
ATOM      3  C6  ZIN A   1      19.823   0.878  12.611  0.00  0.00     0.209 C 
BRANCH   3   4
ATOM      4  C5  ZIN A   1      19.457   0.621  14.051  0.00  0.00    -0.013 A 
ATOM      5  C4  ZIN A   1      19.342   1.677  14.934  0.00  0.00     0.012 A 
ATOM      6  C3  ZIN A   1      19.007   1.442  16.254  0.00  0.00     0.024 A 
ATOM      7  C2  ZIN A   1      18.787   0.147  16.691  0.00  0.00     0.035 A 
ATOM      8 Cl1  ZIN A   1      18.365  -0.148  18.349  0.00  0.00    -0.084 Cl
ATOM      9  C26 ZIN A   1      18.907  -0.911  15.809  0.00  0.00     0.048 A 
ATOM     10  C24 ZIN A   1      19.237  -0.674  14.487  0.00  0.00     0.044 A 
ATOM     11 Cl25 ZIN A   1      19.382  -2.001  13.377  0.00  0.00    -0.084 Cl
ENDBRANCH   3   4
ENDBRANCH   2   3
ENDBRANCH   1   2
BRANCH   1  12
ATOM     12  C10 ZIN A   1      17.821   3.251  11.038  0.00  0.00     0.166 C 
BRANCH  12  13
ATOM     13  N11 ZIN A   1      18.268   4.062  12.173  0.00  0.00    -0.347 N 
ATOM     14  C15 ZIN A   1      19.518   4.531  12.379  0.00  0.00     0.209 A 
ATOM     15  N14 ZIN A   1      19.531   5.212  13.491  0.00  0.00    -0.255 NA
ATOM     16  C13 ZIN A   1      18.304   5.195  14.035  0.00  0.00     0.135 A 
ATOM     17  C12 ZIN A   1      17.500   4.480  13.225  0.00  0.00     0.111 A 
ENDBRANCH  12  13
ENDBRANCH   1  12
BRANCH   1  18
ATOM     18  C16 ZIN A   1      18.529   1.453   9.482  0.00  0.00    -0.006 A 
ATOM     19  C22 ZIN A   1      17.572   0.460   9.376  0.00  0.00     0.044 A 
ATOM     20  C21 ZIN A   1      17.318  -0.127   8.149  0.00  0.00     0.048 A 
ATOM     21 Cl23 ZIN A   1      16.682  -0.043  10.779  0.00  0.00    -0.084 Cl
ATOM     22  C19 ZIN A   1      18.028   0.273   7.031  0.00  0.00     0.035 A 
ATOM     23  C18 ZIN A   1      18.989   1.263   7.140  0.00  0.00     0.024 A 
ATOM     24 Cl20 ZIN A   1      17.715  -0.466   5.492  0.00  0.00    -0.084 Cl
ATOM     25  C17 ZIN A   1      19.238   1.853   8.366  0.00  0.00     0.013 A 
ENDBRANCH   1  18
TORSDOF 6
ENDMDL
MODEL 4
REMARK VINA RESULT:      -7.3      3.935      7.550
REMARK  6 active torsions:
REMARK  status: ('A' for Active; 'I' for Inactive)
REMARK    1  A    between atoms: C5_5  and  C6_6 
REMARK    2  A    between atoms: C6_6  and  O7_7 
REMARK    3  A    between atoms: O7_7  and  C8_8 
REMARK    4  A    between atoms: C8_8  and  C10_9 
REMARK    5  A    between atoms: C8_8  and  C16_15 
REMARK    6  A    between atoms: C10_9  and  N11_10 
ROOT
ATOM      1  C8  ZIN A   1      19.270   0.846  14.470  0.00  0.00     0.174 C 
ENDROOT
BRANCH   1   2
ATOM      2  O7  ZIN A   1      19.399  -0.510  14.038  0.00  0.00    -0.375 OA
BRANCH   2   3
ATOM      3  C6  ZIN A   1      18.177  -1.091  13.576  0.00  0.00     0.209 C 
BRANCH   3   4
ATOM      4  C5  ZIN A   1      18.425  -1.814  12.277  0.00  0.00    -0.013 A 
ATOM      5  C4  ZIN A   1      19.306  -2.878  12.236  0.00  0.00     0.012 A 
ATOM      6  C3  ZIN A   1      19.535  -3.541  11.045  0.00  0.00     0.024 A 
ATOM      7  C2  ZIN A   1      18.882  -3.139   9.893  0.00  0.00     0.035 A 
ATOM      8 Cl1  ZIN A   1      19.168  -3.973   8.397  0.00  0.00    -0.084 Cl
ATOM      9  C26 ZIN A   1      18.004  -2.071   9.932  0.00  0.00     0.048 A 
ATOM     10  C24 ZIN A   1      17.772  -1.411  11.126  0.00  0.00     0.044 A 
ATOM     11 Cl25 ZIN A   1      16.666  -0.074  11.177  0.00  0.00    -0.084 Cl
ENDBRANCH   3   4
ENDBRANCH   2   3
ENDBRANCH   1   2
BRANCH   1  12
ATOM     12  C10 ZIN A   1      18.140   0.949  15.497  0.00  0.00     0.166 C 
BRANCH  12  13
ATOM     13  N11 ZIN A   1      18.658   1.537  16.735  0.00  0.00    -0.347 N 
ATOM     14  C15 ZIN A   1      19.316   0.884  17.717  0.00  0.00     0.209 A 
ATOM     15  N14 ZIN A   1      19.621   1.737  18.655  0.00  0.00    -0.255 NA
ATOM     16  C13 ZIN A   1      19.166   2.951  18.314  0.00  0.00     0.135 A 
ATOM     17  C12 ZIN A   1      18.560   2.847  17.116  0.00  0.00     0.111 A 
ENDBRANCH  12  13
ENDBRANCH   1  12
BRANCH   1  18
ATOM     18  C16 ZIN A   1      18.955   1.723  13.286  0.00  0.00    -0.006 A 
ATOM     19  C22 ZIN A   1      19.768   1.691  12.166  0.00  0.00     0.044 A 
ATOM     20  C21 ZIN A   1      19.475   2.492  11.077  0.00  0.00     0.048 A 
ATOM     21 Cl23 ZIN A   1      21.147   0.638  12.124  0.00  0.00    -0.084 Cl
ATOM     22  C19 ZIN A   1      18.377   3.332  11.112  0.00  0.00     0.035 A 
ATOM     23  C18 ZIN A   1      17.568   3.367  12.234  0.00  0.00     0.024 A 
ATOM     24 Cl20 ZIN A   1      18.012   4.342   9.748  0.00  0.00    -0.084 Cl
ATOM     25  C17 ZIN A   1      17.858   2.562  13.320  0.00  0.00     0.013 A 
ENDBRANCH   1  18
TORSDOF 6
ENDMDL
MODEL 5
REMARK VINA RESULT:      -7.3      2.584      5.580
REMARK  6 active torsions:
REMARK  status: ('A' for Active; 'I' for Inactive)
REMARK    1  A    between atoms: C5_5  and  C6_6 
REMARK    2  A    between atoms: C6_6  and  O7_7 
REMARK    3  A    between atoms: O7_7  and  C8_8 
REMARK    4  A    between atoms: C8_8  and  C10_9 
REMARK    5  A    between atoms: C8_8  and  C16_15 
REMARK    6  A    between atoms: C10_9  and  N11_10 
ROOT
ATOM      1  C8  ZIN A   1      18.329   1.475  10.746  0.00  0.00     0.174 C 
ENDROOT
BRANCH   1   2
ATOM      2  O7  ZIN A   1      17.071   1.307  11.403  0.00  0.00    -0.375 OA
BRANCH   2   3
ATOM      3  C6  ZIN A   1      16.854  -0.009  11.915  0.00  0.00     0.209 C 
BRANCH   3   4
ATOM      4  C5  ZIN A   1      17.477  -0.126  13.282  0.00  0.00    -0.013 A 
ATOM      5  C4  ZIN A   1      17.327   0.897  14.200  0.00  0.00     0.012 A 
ATOM      6  C3  ZIN A   1      17.899   0.791  15.453  0.00  0.00     0.024 A 
ATOM      7  C2  ZIN A   1      18.623  -0.340  15.790  0.00  0.00     0.035 A 
ATOM      8 Cl1  ZIN A   1      19.341  -0.473  17.365  0.00  0.00    -0.084 Cl
ATOM      9  C26 ZIN A   1      18.778  -1.361  14.870  0.00  0.00     0.048 A 
ATOM     10  C24 ZIN A   1      18.201  -1.256  13.617  0.00  0.00     0.044 A 
ATOM     11 Cl25 ZIN A   1      18.390  -2.540  12.465  0.00  0.00    -0.084 Cl
ENDBRANCH   3   4
ENDBRANCH   2   3
ENDBRANCH   1   2
BRANCH   1  12
ATOM     12  C10 ZIN A   1      18.429   2.898  10.191  0.00  0.00     0.166 C 
BRANCH  12  13
ATOM     13  N11 ZIN A   1      17.974   3.851  11.207  0.00  0.00    -0.347 N 
ATOM     14  C15 ZIN A   1      18.618   4.172  12.350  0.00  0.00     0.209 A 
ATOM     15  N14 ZIN A   1      17.908   5.055  12.996  0.00  0.00    -0.255 NA
ATOM     16  C13 ZIN A   1      16.792   5.320  12.301  0.00  0.00     0.135 A 
ATOM     17  C12 ZIN A   1      16.815   4.576  11.179  0.00  0.00     0.111 A 
ENDBRANCH  12  13
ENDBRANCH   1  12
BRANCH   1  18
ATOM     18  C16 ZIN A   1      18.439   0.486   9.614  0.00  0.00    -0.006 A 
ATOM     19  C22 ZIN A   1      19.481  -0.424   9.589  0.00  0.00     0.044 A 
ATOM     20  C21 ZIN A   1      19.579  -1.335   8.553  0.00  0.00     0.048 A 
ATOM     21 Cl23 ZIN A   1      20.659  -0.429  10.865  0.00  0.00    -0.084 Cl
ATOM     22  C19 ZIN A   1      18.641  -1.329   7.537  0.00  0.00     0.035 A 
ATOM     23  C18 ZIN A   1      17.602  -0.415   7.559  0.00  0.00     0.024 A 
ATOM     24 Cl20 ZIN A   1      18.766  -2.468   6.233  0.00  0.00    -0.084 Cl
ATOM     25  C17 ZIN A   1      17.502   0.492   8.598  0.00  0.00     0.013 A 
ENDBRANCH   1  18
TORSDOF 6
ENDMDL
MODEL 6
REMARK VINA RESULT:      -7.2      4.230      8.265
REMARK  6 active torsions:
REMARK  status: ('A' for Active; 'I' for Inactive)
REMARK    1  A    between atoms: C5_5  and  C6_6 
REMARK    2  A    between atoms: C6_6  and  O7_7 
REMARK    3  A    between atoms: O7_7  and  C8_8 
REMARK    4  A    between atoms: C8_8  and  C10_9 
REMARK    5  A    between atoms: C8_8  and  C16_15 
REMARK    6  A    between atoms: C10_9  and  N11_10 
ROOT
ATOM      1  C8  ZIN A   1      18.027  -1.292  11.738  0.00  0.00     0.174 C 
ENDROOT
BRANCH   1   2
ATOM      2  O7  ZIN A   1      17.043  -2.323  11.622  0.00  0.00    -0.375 OA
BRANCH   2   3
ATOM      3  C6  ZIN A   1      17.485  -3.602  12.082  0.00  0.00     0.209 C 
BRANCH   3   4
ATOM      4  C5  ZIN A   1      17.586  -4.548  10.913  0.00  0.00    -0.013 A 
ATOM      5  C4  ZIN A   1      16.442  -5.111  10.379  0.00  0.00     0.012 A 
ATOM      6  C3  ZIN A   1      16.534  -5.979   9.307  0.00  0.00     0.024 A 
ATOM      7  C2  ZIN A   1      17.772  -6.286   8.770  0.00  0.00     0.035 A 
ATOM      8 Cl1  ZIN A   1      17.886  -7.376   7.423  0.00  0.00    -0.084 Cl
ATOM      9  C26 ZIN A   1      18.917  -5.728   9.308  0.00  0.00     0.048 A 
ATOM     10  C24 ZIN A   1      18.824  -4.855  10.376  0.00  0.00     0.044 A 
ATOM     11 Cl25 ZIN A   1      20.261  -4.148  11.048  0.00  0.00    -0.084 Cl
ENDBRANCH   3   4
ENDBRANCH   2   3
ENDBRANCH   1   2
BRANCH   1  12
ATOM     12  C10 ZIN A   1      17.529  -0.218  12.708  0.00  0.00     0.166 C 
BRANCH  12  13
ATOM     13  N11 ZIN A   1      18.062  -0.484  14.046  0.00  0.00    -0.347 N 
ATOM     14  C15 ZIN A   1      19.095  -1.299  14.350  0.00  0.00     0.209 A 
ATOM     15  N14 ZIN A   1      19.280  -1.279  15.640  0.00  0.00    -0.255 NA
ATOM     16  C13 ZIN A   1      18.374  -0.465  16.203  0.00  0.00     0.135 A 
ATOM     17  C12 ZIN A   1      17.603   0.042  15.223  0.00  0.00     0.111 A 
ENDBRANCH  12  13
ENDBRANCH   1  12
BRANCH   1  18
ATOM     18  C16 ZIN A   1      18.268  -0.674  10.385  0.00  0.00    -0.006 A 
ATOM     19  C22 ZIN A   1      19.546  -0.296  10.015  0.00  0.00     0.044 A 
ATOM     20  C21 ZIN A   1      19.768   0.267   8.771  0.00  0.00     0.048 A 
ATOM     21 Cl23 ZIN A   1      20.873  -0.537  11.108  0.00  0.00    -0.084 Cl
ATOM     22  C19 ZIN A   1      18.710   0.460   7.901  0.00  0.00     0.035 A 
ATOM     23  C18 ZIN A   1      17.431   0.086   8.273  0.00  0.00     0.024 A 
ATOM     24 Cl20 ZIN A   1      18.987   1.171   6.342  0.00  0.00    -0.084 Cl
ATOM     25  C17 ZIN A   1      17.211  -0.481   9.515  0.00  0.00     0.013 A 
ENDBRANCH   1  18
TORSDOF 6
ENDMDL
MODEL 7
REMARK VINA RESULT:      -7.1      3.718      5.925
REMARK  6 active torsions:
REMARK  status: ('A' for Active; 'I' for Inactive)
REMARK    1  A    between atoms: C5_5  and  C6_6 
REMARK    2  A    between atoms: C6_6  and  O7_7 
REMARK    3  A    between atoms: O7_7  and  C8_8 
REMARK    4  A    between atoms: C8_8  and  C10_9 
REMARK    5  A    between atoms: C8_8  and  C16_15 
REMARK    6  A    between atoms: C10_9  and  N11_10 
ROOT
ATOM      1  C8  ZIN A   1      18.811  -1.727  11.854  0.00  0.00     0.174 C 
ENDROOT
BRANCH   1   2
ATOM      2  O7  ZIN A   1      18.709  -0.685  10.881  0.00  0.00    -0.375 OA
BRANCH   2   3
ATOM      3  C6  ZIN A   1      19.885  -0.513  10.087  0.00  0.00     0.209 C 
BRANCH   3   4
ATOM      4  C5  ZIN A   1      19.504  -0.458   8.630  0.00  0.00    -0.013 A 
ATOM      5  C4  ZIN A   1      19.462  -1.619   7.881  0.00  0.00     0.012 A 
ATOM      6  C3  ZIN A   1      19.113  -1.568   6.545  0.00  0.00     0.024 A 
ATOM      7  C2  ZIN A   1      18.806  -0.354   5.956  0.00  0.00     0.035 A 
ATOM      8 Cl1  ZIN A   1      18.367  -0.291   4.277  0.00  0.00    -0.084 Cl
ATOM      9  C26 ZIN A   1      18.854   0.809   6.703  0.00  0.00     0.048 A 
ATOM     10  C24 ZIN A   1      19.198   0.757   8.042  0.00  0.00     0.044 A 
ATOM     11 Cl25 ZIN A   1      19.251   2.215   8.982  0.00  0.00    -0.084 Cl
ENDBRANCH   3   4
ENDBRANCH   2   3
ENDBRANCH   1   2
BRANCH   1  12
ATOM     12  C10 ZIN A   1      17.759  -2.800  11.564  0.00  0.00     0.166 C 
BRANCH  12  13
ATOM     13  N11 ZIN A   1      18.309  -3.781  10.625  0.00  0.00    -0.347 N 
ATOM     14  C15 ZIN A   1      17.658  -4.352   9.589  0.00  0.00     0.209 A 
ATOM     15  N14 ZIN A   1      18.472  -5.169   8.981  0.00  0.00    -0.255 NA
ATOM     16  C13 ZIN A   1      19.658  -5.158   9.607  0.00  0.00     0.135 A 
ATOM     17  C12 ZIN A   1      19.577  -4.296  10.638  0.00  0.00     0.111 A 
ENDBRANCH  12  13
ENDBRANCH   1  12
BRANCH   1  18
ATOM     18  C16 ZIN A   1      18.579  -1.154  13.228  0.00  0.00    -0.006 A 
ATOM     19  C22 ZIN A   1      17.628  -0.166  13.414  0.00  0.00     0.044 A 
ATOM     20  C21 ZIN A   1      17.412   0.356  14.677  0.00  0.00     0.048 A 
ATOM     21 Cl23 ZIN A   1      16.700   0.411  12.065  0.00  0.00    -0.084 Cl
ATOM     22  C19 ZIN A   1      18.152  -0.103  15.751  0.00  0.00     0.035 A 
ATOM     23  C18 ZIN A   1      19.107  -1.088  15.563  0.00  0.00     0.024 A 
ATOM     24 Cl20 ZIN A   1      17.886   0.555  17.335  0.00  0.00    -0.084 Cl
ATOM     25  C17 ZIN A   1      19.319  -1.613  14.301  0.00  0.00     0.013 A 
ENDBRANCH   1  18
TORSDOF 6
ENDMDL
MODEL 8
REMARK VINA RESULT:      -7.1      3.238      5.216
REMARK  6 active torsions:
REMARK  status: ('A' for Active; 'I' for Inactive)
REMARK    1  A    between atoms: C5_5  and  C6_6 
REMARK    2  A    between atoms: C6_6  and  O7_7 
REMARK    3  A    between atoms: O7_7  and  C8_8 
REMARK    4  A    between atoms: C8_8  and  C10_9 
REMARK    5  A    between atoms: C8_8  and  C16_15 
REMARK    6  A    between atoms: C10_9  and  N11_10 
ROOT
ATOM      1  C8  ZIN A   1      19.454  -1.173  11.173  0.00  0.00     0.174 C 
ENDROOT
BRANCH   1   2
ATOM      2  O7  ZIN A   1      20.521  -0.257  11.428  0.00  0.00    -0.375 OA
BRANCH   2   3
ATOM      3  C6  ZIN A   1      20.295   0.602  12.548  0.00  0.00     0.209 C 
BRANCH   3   4
ATOM      4  C5  ZIN A   1      19.405   1.745  12.132  0.00  0.00    -0.013 A 
ATOM      5  C4  ZIN A   1      19.576   2.339  10.895  0.00  0.00     0.012 A 
ATOM      6  C3  ZIN A   1      18.761   3.389  10.514  0.00  0.00     0.024 A 
ATOM      7  C2  ZIN A   1      17.774   3.845  11.371  0.00  0.00     0.035 A 
ATOM      8 Cl1  ZIN A   1      16.750   5.162  10.891  0.00  0.00    -0.084 Cl
ATOM      9  C26 ZIN A   1      17.607   3.254  12.610  0.00  0.00     0.048 A 
ATOM     10  C24 ZIN A   1      18.420   2.201  12.989  0.00  0.00     0.044 A 
ATOM     11 Cl25 ZIN A   1      18.206   1.456  14.542  0.00  0.00    -0.084 Cl
ENDBRANCH   3   4
ENDBRANCH   2   3
ENDBRANCH   1   2
BRANCH   1  12
ATOM     12  C10 ZIN A   1      19.977  -2.607  11.277  0.00  0.00     0.166 C 
BRANCH  12  13
ATOM     13  N11 ZIN A   1      18.858  -3.545  11.150  0.00  0.00    -0.347 N 
ATOM     14  C15 ZIN A   1      18.778  -4.585  10.292  0.00  0.00     0.209 A 
ATOM     15  N14 ZIN A   1      17.638  -5.190  10.473  0.00  0.00    -0.255 NA
ATOM     16  C13 ZIN A   1      16.951  -4.559  11.437  0.00  0.00     0.135 A 
ATOM     17  C12 ZIN A   1      17.698  -3.527  11.873  0.00  0.00     0.111 A 
ENDBRANCH  12  13
ENDBRANCH   1  12
BRANCH   1  18
ATOM     18  C16 ZIN A   1      18.909  -0.936   9.789  0.00  0.00    -0.006 A 
ATOM     19  C22 ZIN A   1      17.626  -0.444   9.625  0.00  0.00     0.044 A 
ATOM     20  C21 ZIN A   1      17.128  -0.221   8.354  0.00  0.00     0.048 A 
ATOM     21 Cl23 ZIN A   1      16.646  -0.095  11.016  0.00  0.00    -0.084 Cl
ATOM     22  C19 ZIN A   1      17.908  -0.500   7.247  0.00  0.00     0.035 A 
ATOM     23  C18 ZIN A   1      19.189  -0.997   7.411  0.00  0.00     0.024 A 
ATOM     24 Cl20 ZIN A   1      17.281  -0.226   5.651  0.00  0.00    -0.084 Cl
ATOM     25  C17 ZIN A   1      19.689  -1.214   8.682  0.00  0.00     0.013 A 
ENDBRANCH   1  18
TORSDOF 6
ENDMDL
MODEL 9
REMARK VINA RESULT:      -7.1      2.897      6.233
REMARK  6 active torsions:
REMARK  status: ('A' for Active; 'I' for Inactive)
REMARK    1  A    between atoms: C5_5  and  C6_6 
REMARK    2  A    between atoms: C6_6  and  O7_7 
REMARK    3  A    between atoms: O7_7  and  C8_8 
REMARK    4  A    between atoms: C8_8  and  C10_9 
REMARK    5  A    between atoms: C8_8  and  C16_15 
REMARK    6  A    between atoms: C10_9  and  N11_10 
ROOT
ATOM      1  C8  ZIN A   1      18.068  -0.286   8.681  0.00  0.00     0.174 C 
ENDROOT
BRANCH   1   2
ATOM      2  O7  ZIN A   1      19.413  -0.735   8.500  0.00  0.00    -0.375 OA
BRANCH   2   3
ATOM      3  C6  ZIN A   1      20.082  -1.072   9.717  0.00  0.00     0.209 C 
BRANCH   3   4
ATOM      4  C5  ZIN A   1      19.417  -2.274  10.339  0.00  0.00    -0.013 A 
ATOM      5  C4  ZIN A   1      19.076  -3.359   9.553  0.00  0.00     0.012 A 
ATOM      6  C3  ZIN A   1      18.465  -4.460  10.122  0.00  0.00     0.024 A 
ATOM      7  C2  ZIN A   1      18.196  -4.477  11.480  0.00  0.00     0.035 A 
ATOM      8 Cl1  ZIN A   1      17.430  -5.861  12.194  0.00  0.00    -0.084 Cl
ATOM      9  C26 ZIN A   1      18.532  -3.389  12.265  0.00  0.00     0.048 A 
ATOM     10  C24 ZIN A   1      19.147  -2.289  11.695  0.00  0.00     0.044 A 
ATOM     11 Cl25 ZIN A   1      19.575  -0.927  12.682  0.00  0.00    -0.084 Cl
ENDBRANCH   3   4
ENDBRANCH   2   3
ENDBRANCH   1   2
BRANCH   1  12
ATOM     12  C10 ZIN A   1      17.399  -0.115   7.316  0.00  0.00     0.166 C 
BRANCH  12  13
ATOM     13  N11 ZIN A   1      18.258  -0.688   6.276  0.00  0.00    -0.347 N 
ATOM     14  C15 ZIN A   1      19.144  -0.016   5.509  0.00  0.00     0.209 A 
ATOM     15  N14 ZIN A   1      19.723  -0.861   4.702  0.00  0.00    -0.255 NA
ATOM     16  C13 ZIN A   1      19.226  -2.088   4.916  0.00  0.00     0.135 A 
ATOM     17  C12 ZIN A   1      18.308  -2.001   5.897  0.00  0.00     0.111 A 
ENDBRANCH  12  13
ENDBRANCH   1  12
BRANCH   1  18
ATOM     18  C16 ZIN A   1      18.073   1.034   9.408  0.00  0.00    -0.006 A 
ATOM     19  C22 ZIN A   1      17.395   1.166  10.606  0.00  0.00     0.044 A 
ATOM     20  C21 ZIN A   1      17.404   2.377  11.276  0.00  0.00     0.048 A 
ATOM     21 Cl23 ZIN A   1      16.541  -0.189  11.275  0.00  0.00    -0.084 Cl
ATOM     22  C19 ZIN A   1      18.083   3.457  10.742  0.00  0.00     0.035 A 
ATOM     23  C18 ZIN A   1      18.757   3.325   9.540  0.00  0.00     0.024 A 
ATOM     24 Cl20 ZIN A   1      18.089   4.978  11.578  0.00  0.00    -0.084 Cl
ATOM     25  C17 ZIN A   1      18.752   2.113   8.874  0.00  0.00     0.013 A 
ENDBRANCH   1  18
TORSDOF 6
ENDMDL
