MODEL 1
REMARK VINA RESULT:      -7.9      0.000      0.000
REMARK  6 active torsions:
REMARK  status: ('A' for Active; 'I' for Inactive)
REMARK    1  A    between atoms: C6_6  and  O8_7 
REMARK    2  A    between atoms: O8_7  and  C9_8 
REMARK    3  A    between atoms: C9_8  and  C11_10 
REMARK    4  A    between atoms: C11_10  and  O12_11 
REMARK    5  A    between atoms: C11_10  and  C13_12 
REMARK    6  A    between atoms: C11_10  and  C19_18 
ROOT
ATOM      1  C11 ZIN A   1      18.167   1.716  11.256  0.00  0.00     0.176 C 
ENDROOT
BRANCH   1   2
ATOM      2  C9  ZIN A   1      19.261   1.033  12.035  0.00  0.00     0.299 C 
ATOM      3  O10 ZIN A   1      20.384   1.479  12.015  0.00  0.00    -0.261 OA
BRANCH   2   4
ATOM      4  O8  ZIN A   1      18.989  -0.070  12.750  0.00  0.00    -0.312 OA
BRANCH   4   5
ATOM      5  C6  ZIN A   1      19.508  -0.121  14.105  0.00  0.00     0.159 C 
ATOM      6  C5  ZIN A   1      19.304  -1.532  14.717  0.00  0.00     0.062 C 
ATOM      7  C4  ZIN A   1      19.262  -1.212  16.232  0.00  0.00     0.239 C 
ATOM      8  N2  ZIN A   1      18.547   0.077  16.328  0.00  0.00    -0.072 N 
ATOM      9  C1  ZIN A   1      17.125  -0.166  16.606  0.00  0.00     0.272 C 
ATOM     10  C24 ZIN A   1      18.686   0.788  15.043  0.00  0.00     0.268 C 
ATOM     11  C3  ZIN A   1      19.131   0.886  17.406  0.00  0.00     0.272 C 
ENDBRANCH   4   5
ENDBRANCH   2   4
ENDBRANCH   1   2
BRANCH   1  12
ATOM     12  O12 ZIN A   1      16.895   1.321  11.776  0.00  0.00    -0.374 OA
ATOM     13  H35 ZIN A   1      16.237   1.123  11.096  0.00  0.00     0.211 HD
ENDBRANCH   1  12
BRANCH   1  14
ATOM     14  C13 ZIN A   1      18.260   1.322   9.805  0.00  0.00    -0.014 A 
ATOM     15  C18 ZIN A   1      17.450   0.318   9.308  0.00  0.00     0.011 A 
ATOM     16  C17 ZIN A   1      17.533  -0.041   7.976  0.00  0.00     0.001 A 
ATOM     17  C16 ZIN A   1      18.433   0.597   7.142  0.00  0.00     0.000 A 
ATOM     18  C15 ZIN A   1      19.247   1.596   7.641  0.00  0.00     0.001 A 
ATOM     19  C14 ZIN A   1      19.160   1.959   8.972  0.00  0.00     0.011 A 
ENDBRANCH   1  14
BRANCH   1  20
ATOM     20  C19 ZIN A   1      18.320   3.233  11.383  0.00  0.00     0.035 C 
ATOM     21  C23 ZIN A   1      17.984   3.692  12.817  0.00  0.00     0.008 C 
ATOM     22  C22 ZIN A   1      17.244   5.035  12.688  0.00  0.00     0.001 C 
ATOM     23  C21 ZIN A   1      17.157   5.346  11.179  0.00  0.00     0.001 C 
ATOM     24  C20 ZIN A   1      17.276   3.960  10.498  0.00  0.00     0.008 C 
ENDBRANCH   1  20
TORSDOF 6
ENDMDL
MODEL 2
REMARK VINA RESULT:      -7.8      2.113      3.659
REMARK  6 active torsions:
REMARK  status: ('A' for Active; 'I' for Inactive)
REMARK    1  A    between atoms: C6_6  and  O8_7 
REMARK    2  A    between atoms: O8_7  and  C9_8 
REMARK    3  A    between atoms: C9_8  and  C11_10 
REMARK    4  A    between atoms: C11_10  and  O12_11 
REMARK    5  A    between atoms: C11_10  and  C13_12 
REMARK    6  A    between atoms: C11_10  and  C19_18 
ROOT
ATOM      1  C11 ZIN A   1      18.787  -0.222  11.114  0.00  0.00     0.176 C 
ENDROOT
BRANCH   1   2
ATOM      2  C9  ZIN A   1      19.603   0.378  12.230  0.00  0.00     0.299 C 
ATOM      3  O10 ZIN A   1      20.799   0.492  12.108  0.00  0.00    -0.261 OA
BRANCH   2   4
ATOM      4  O8  ZIN A   1      19.001   0.784  13.358  0.00  0.00    -0.312 OA
BRANCH   4   5
ATOM      5  C6  ZIN A   1      19.489   0.222  14.605  0.00  0.00     0.159 C 
ATOM      6  C5  ZIN A   1      18.983  -1.233  14.786  0.00  0.00     0.062 C 
ATOM      7  C4  ZIN A   1      19.003  -1.382  16.327  0.00  0.00     0.239 C 
ATOM      8  N2  ZIN A   1      18.580  -0.062  16.840  0.00  0.00    -0.072 N 
ATOM      9  C1  ZIN A   1      17.138  -0.080  17.119  0.00  0.00     0.272 C 
ATOM     10  C24 ZIN A   1      18.876   0.956  15.816  0.00  0.00     0.268 C 
ATOM     11  C3  ZIN A   1      19.319   0.246  18.072  0.00  0.00     0.272 C 
ENDBRANCH   4   5
ENDBRANCH   2   4
ENDBRANCH   1   2
BRANCH   1  12
ATOM     12  O12 ZIN A   1      17.454   0.293  11.169  0.00  0.00    -0.374 OA
ATOM     13  H35 ZIN A   1      16.768  -0.386  11.108  0.00  0.00     0.211 HD
ENDBRANCH   1  12
BRANCH   1  14
ATOM     14  C13 ZIN A   1      18.752  -1.721  11.265  0.00  0.00    -0.014 A 
ATOM     15  C18 ZIN A   1      17.543  -2.373  11.416  0.00  0.00     0.011 A 
ATOM     16  C17 ZIN A   1      17.511  -3.748  11.551  0.00  0.00     0.001 A 
ATOM     17  C16 ZIN A   1      18.689  -4.471  11.544  0.00  0.00     0.000 A 
ATOM     18  C15 ZIN A   1      19.900  -3.818  11.398  0.00  0.00     0.001 A 
ATOM     19  C14 ZIN A   1      19.930  -2.443  11.259  0.00  0.00     0.011 A 
ENDBRANCH   1  14
BRANCH   1  20
ATOM     20  C19 ZIN A   1      19.418   0.141   9.768  0.00  0.00     0.035 C 
ATOM     21  C23 ZIN A   1      19.317   1.659   9.516  0.00  0.00     0.008 C 
ATOM     22  C22 ZIN A   1      19.033   1.838   8.014  0.00  0.00     0.001 C 
ATOM     23  C21 ZIN A   1      18.974   0.421   7.405  0.00  0.00     0.001 C 
ATOM     24  C20 ZIN A   1      18.615  -0.492   8.604  0.00  0.00     0.008 C 
ENDBRANCH   1  20
TORSDOF 6
ENDMDL
MODEL 3
REMARK VINA RESULT:      -7.6      3.977      6.886
REMARK  6 active torsions:
REMARK  status: ('A' for Active; 'I' for Inactive)
REMARK    1  A    between atoms: C6_6  and  O8_7 
REMARK    2  A    between atoms: O8_7  and  C9_8 
REMARK    3  A    between atoms: C9_8  and  C11_10 
REMARK    4  A    between atoms: C11_10  and  O12_11 
REMARK    5  A    between atoms: C11_10  and  C13_12 
REMARK    6  A    between atoms: C11_10  and  C19_18 
ROOT
ATOM      1  C11 ZIN A   1      19.272  -2.618  11.739  0.00  0.00     0.176 C 
ENDROOT
BRANCH   1   2
ATOM      2  C9  ZIN A   1      19.605  -1.580  10.698  0.00  0.00     0.299 C 
ATOM      3  O10 ZIN A   1      20.587  -0.888  10.829  0.00  0.00    -0.261 OA
BRANCH   2   4
ATOM      4  O8  ZIN A   1      18.812  -1.424   9.627  0.00  0.00    -0.312 OA
BRANCH   4   5
ATOM      5  C6  ZIN A   1      19.361  -0.690   8.501  0.00  0.00     0.159 C 
ATOM      6  C5  ZIN A   1      18.777   0.746   8.444  0.00  0.00     0.062 C 
ATOM      7  C4  ZIN A   1      18.912   1.078   6.938  0.00  0.00     0.239 C 
ATOM      8  N2  ZIN A   1      18.620  -0.192   6.242  0.00  0.00    -0.072 N 
ATOM      9  C1  ZIN A   1      17.207  -0.223   5.841  0.00  0.00     0.272 C 
ATOM     10  C24 ZIN A   1      18.898  -1.308   7.164  0.00  0.00     0.268 C 
ATOM     11  C3  ZIN A   1      19.475  -0.310   5.053  0.00  0.00     0.272 C 
ENDBRANCH   4   5
ENDBRANCH   2   4
ENDBRANCH   1   2
BRANCH   1  12
ATOM     12  O12 ZIN A   1      20.474  -3.059  12.373  0.00  0.00    -0.374 OA
ATOM     13  H35 ZIN A   1      20.815  -3.896  12.031  0.00  0.00     0.211 HD
ENDBRANCH   1  12
BRANCH   1  14
ATOM     14  C13 ZIN A   1      18.592  -3.790  11.080  0.00  0.00    -0.014 A 
ATOM     15  C18 ZIN A   1      17.261  -4.053  11.341  0.00  0.00     0.011 A 
ATOM     16  C17 ZIN A   1      16.636  -5.127  10.735  0.00  0.00     0.001 A 
ATOM     17  C16 ZIN A   1      17.345  -5.944   9.875  0.00  0.00     0.000 A 
ATOM     18  C15 ZIN A   1      18.679  -5.685   9.619  0.00  0.00     0.001 A 
ATOM     19  C14 ZIN A   1      19.302  -4.608  10.221  0.00  0.00     0.011 A 
ENDBRANCH   1  14
BRANCH   1  20
ATOM     20  C19 ZIN A   1      18.337  -2.009  12.786  0.00  0.00     0.035 C 
ATOM     21  C23 ZIN A   1      17.667  -0.734  12.236  0.00  0.00     0.008 C 
ATOM     22  C22 ZIN A   1      17.586   0.262  13.406  0.00  0.00     0.001 C 
ATOM     23  C21 ZIN A   1      18.209  -0.444  14.628  0.00  0.00     0.001 C 
ATOM     24  C20 ZIN A   1      19.144  -1.514  14.012  0.00  0.00     0.008 C 
ENDBRANCH   1  20
TORSDOF 6
ENDMDL
MODEL 4
REMARK VINA RESULT:      -7.5      2.680      5.715
REMARK  6 active torsions:
REMARK  status: ('A' for Active; 'I' for Inactive)
REMARK    1  A    between atoms: C6_6  and  O8_7 
REMARK    2  A    between atoms: O8_7  and  C9_8 
REMARK    3  A    between atoms: C9_8  and  C11_10 
REMARK    4  A    between atoms: C11_10  and  O12_11 
REMARK    5  A    between atoms: C11_10  and  C13_12 
REMARK    6  A    between atoms: C11_10  and  C19_18 
ROOT
ATOM      1  C11 ZIN A   1      18.680  -1.073  12.731  0.00  0.00     0.176 C 
ENDROOT
BRANCH   1   2
ATOM      2  C9  ZIN A   1      17.828  -0.212  11.835  0.00  0.00     0.299 C 
ATOM      3  O10 ZIN A   1      16.632  -0.376  11.801  0.00  0.00    -0.261 OA
BRANCH   2   4
ATOM      4  O8  ZIN A   1      18.398   0.736  11.075  0.00  0.00    -0.312 OA
BRANCH   4   5
ATOM      5  C6  ZIN A   1      17.661   1.976  10.906  0.00  0.00     0.159 C 
ATOM      6  C5  ZIN A   1      18.349   2.883   9.851  0.00  0.00     0.062 C 
ATOM      7  C4  ZIN A   1      17.880   4.290  10.296  0.00  0.00     0.239 C 
ATOM      8  N2  ZIN A   1      17.868   4.236  11.773  0.00  0.00    -0.072 N 
ATOM      9  C1  ZIN A   1      19.130   4.777  12.297  0.00  0.00     0.272 C 
ATOM     10  C24 ZIN A   1      17.720   2.830  12.190  0.00  0.00     0.268 C 
ATOM     11  C3  ZIN A   1      16.740   5.026  12.285  0.00  0.00     0.272 C 
ENDBRANCH   4   5
ENDBRANCH   2   4
ENDBRANCH   1   2
BRANCH   1  12
ATOM     12  O12 ZIN A   1      19.992  -0.512  12.824  0.00  0.00    -0.374 OA
ATOM     13  H35 ZIN A   1      20.487  -0.531  11.994  0.00  0.00     0.211 HD
ENDBRANCH   1  12
BRANCH   1  14
ATOM     14  C13 ZIN A   1      18.769  -2.463  12.157  0.00  0.00    -0.014 A 
ATOM     15  C18 ZIN A   1      19.969  -2.926  11.650  0.00  0.00     0.011 A 
ATOM     16  C17 ZIN A   1      20.051  -4.203  11.126  0.00  0.00     0.001 A 
ATOM     17  C16 ZIN A   1      18.932  -5.014  11.101  0.00  0.00     0.000 A 
ATOM     18  C15 ZIN A   1      17.730  -4.548  11.603  0.00  0.00     0.001 A 
ATOM     19  C14 ZIN A   1      17.650  -3.273  12.131  0.00  0.00     0.011 A 
ENDBRANCH   1  14
BRANCH   1  20
ATOM     20  C19 ZIN A   1      18.053  -1.136  14.125  0.00  0.00     0.035 C 
ATOM     21  C23 ZIN A   1      17.730   0.282  14.637  0.00  0.00     0.008 C 
ATOM     22  C22 ZIN A   1      18.039   0.287  16.145  0.00  0.00     0.001 C 
ATOM     23  C21 ZIN A   1      18.538  -1.129  16.497  0.00  0.00     0.001 C 
ATOM     24  C20 ZIN A   1      19.072  -1.688  15.154  0.00  0.00     0.008 C 
ENDBRANCH   1  20
TORSDOF 6
ENDMDL
MODEL 5
REMARK VINA RESULT:      -7.5      3.127      5.679
REMARK  6 active torsions:
REMARK  status: ('A' for Active; 'I' for Inactive)
REMARK    1  A    between atoms: C6_6  and  O8_7 
REMARK    2  A    between atoms: O8_7  and  C9_8 
REMARK    3  A    between atoms: C9_8  and  C11_10 
REMARK    4  A    between atoms: C11_10  and  O12_11 
REMARK    5  A    between atoms: C11_10  and  C13_12 
REMARK    6  A    between atoms: C11_10  and  C19_18 
ROOT
ATOM      1  C11 ZIN A   1      18.306   0.464  12.375  0.00  0.00     0.176 C 
ENDROOT
BRANCH   1   2
ATOM      2  C9  ZIN A   1      17.346  -0.369  11.566  0.00  0.00     0.299 C 
ATOM      3  O10 ZIN A   1      16.156  -0.190  11.671  0.00  0.00    -0.261 OA
BRANCH   2   4
ATOM      4  O8  ZIN A   1      17.812  -1.310  10.730  0.00  0.00    -0.312 OA
BRANCH   4   5
ATOM      5  C6  ZIN A   1      17.814  -2.679  11.214  0.00  0.00     0.159 C 
ATOM      6  C5  ZIN A   1      19.259  -3.149  11.527  0.00  0.00     0.062 C 
ATOM      7  C4  ZIN A   1      19.134  -4.682  11.352  0.00  0.00     0.239 C 
ATOM      8  N2  ZIN A   1      18.205  -4.859  10.216  0.00  0.00    -0.072 N 
ATOM      9  C1  ZIN A   1      18.971  -5.043   8.975  0.00  0.00     0.272 C 
ATOM     10  C24 ZIN A   1      17.363  -3.654  10.106  0.00  0.00     0.268 C 
ATOM     11  C3  ZIN A   1      17.357  -6.035  10.453  0.00  0.00     0.272 C 
ENDBRANCH   4   5
ENDBRANCH   2   4
ENDBRANCH   1   2
BRANCH   1  12
ATOM     12  O12 ZIN A   1      19.629   0.304  11.856  0.00  0.00    -0.374 OA
ATOM     13  H35 ZIN A   1      19.660  -0.101  10.979  0.00  0.00     0.211 HD
ENDBRANCH   1  12
BRANCH   1  14
ATOM     14  C13 ZIN A   1      18.274   0.016  13.813  0.00  0.00    -0.014 A 
ATOM     15  C18 ZIN A   1      17.376   0.588  14.695  0.00  0.00     0.011 A 
ATOM     16  C17 ZIN A   1      17.344   0.175  16.014  0.00  0.00     0.001 A 
ATOM     17  C16 ZIN A   1      18.216  -0.803  16.454  0.00  0.00     0.000 A 
ATOM     18  C15 ZIN A   1      19.118  -1.371  15.573  0.00  0.00     0.001 A 
ATOM     19  C14 ZIN A   1      19.147  -0.961  14.253  0.00  0.00     0.011 A 
ENDBRANCH   1  14
BRANCH   1  20
ATOM     20  C19 ZIN A   1      17.900   1.937  12.291  0.00  0.00     0.035 C 
ATOM     21  C23 ZIN A   1      17.697   2.358  10.821  0.00  0.00     0.008 C 
ATOM     22  C22 ZIN A   1      18.235   3.794  10.695  0.00  0.00     0.001 C 
ATOM     23  C21 ZIN A   1      18.746   4.196  12.094  0.00  0.00     0.001 C 
ATOM     24  C20 ZIN A   1      19.051   2.846  12.789  0.00  0.00     0.008 C 
ENDBRANCH   1  20
TORSDOF 6
ENDMDL
MODEL 6
REMARK VINA RESULT:      -7.5      3.058      4.144
REMARK  6 active torsions:
REMARK  status: ('A' for Active; 'I' for Inactive)
REMARK    1  A    between atoms: C6_6  and  O8_7 
REMARK    2  A    between atoms: O8_7  and  C9_8 
REMARK    3  A    between atoms: C9_8  and  C11_10 
REMARK    4  A    between atoms: C11_10  and  O12_11 
REMARK    5  A    between atoms: C11_10  and  C13_12 
REMARK    6  A    between atoms: C11_10  and  C19_18 
ROOT
ATOM      1  C11 ZIN A   1      18.358   0.912  10.009  0.00  0.00     0.176 C 
ENDROOT
BRANCH   1   2
ATOM      2  C9  ZIN A   1      19.261  -0.163  10.556  0.00  0.00     0.299 C 
ATOM      3  O10 ZIN A   1      20.402  -0.248  10.167  0.00  0.00    -0.261 OA
BRANCH   2   4
ATOM      4  O8  ZIN A   1      18.799  -1.026  11.474  0.00  0.00    -0.312 OA
BRANCH   4   5
ATOM      5  C6  ZIN A   1      18.000  -2.138  10.990  0.00  0.00     0.159 C 
ATOM      6  C5  ZIN A   1      17.946  -3.274  12.045  0.00  0.00     0.062 C 
ATOM      7  C4  ZIN A   1      17.691  -4.515  11.155  0.00  0.00     0.239 C 
ATOM      8  N2  ZIN A   1      18.480  -4.270   9.929  0.00  0.00    -0.072 N 
ATOM      9  C1  ZIN A   1      19.783  -4.940  10.038  0.00  0.00     0.272 C 
ATOM     10  C24 ZIN A   1      18.680  -2.817   9.782  0.00  0.00     0.268 C 
ATOM     11  C3  ZIN A   1      17.752  -4.789   8.764  0.00  0.00     0.272 C 
ENDBRANCH   4   5
ENDBRANCH   2   4
ENDBRANCH   1   2
BRANCH   1  12
ATOM     12  O12 ZIN A   1      17.068   0.803  10.613  0.00  0.00    -0.374 OA
ATOM     13  H35 ZIN A   1      16.612   1.649  10.721  0.00  0.00     0.211 HD
ENDBRANCH   1  12
BRANCH   1  14
ATOM     14  C13 ZIN A   1      18.230   0.750   8.517  0.00  0.00    -0.014 A 
ATOM     15  C18 ZIN A   1      17.230  -0.047   7.992  0.00  0.00     0.011 A 
ATOM     16  C17 ZIN A   1      17.109  -0.192   6.622  0.00  0.00     0.001 A 
ATOM     17  C16 ZIN A   1      17.994   0.451   5.778  0.00  0.00     0.000 A 
ATOM     18  C15 ZIN A   1      18.998   1.244   6.304  0.00  0.00     0.001 A 
ATOM     19  C14 ZIN A   1      19.115   1.393   7.673  0.00  0.00     0.011 A 
ENDBRANCH   1  14
BRANCH   1  20
ATOM     20  C19 ZIN A   1      18.953   2.287  10.323  0.00  0.00     0.035 C 
ATOM     21  C23 ZIN A   1      19.542   2.307  11.748  0.00  0.00     0.008 C 
ATOM     22  C22 ZIN A   1      19.231   3.696  12.334  0.00  0.00     0.001 C 
ATOM     23  C21 ZIN A   1      18.464   4.472  11.243  0.00  0.00     0.001 C 
ATOM     24  C20 ZIN A   1      17.840   3.364  10.358  0.00  0.00     0.008 C 
ENDBRANCH   1  20
TORSDOF 6
ENDMDL
MODEL 7
REMARK VINA RESULT:      -7.4      2.543      6.301
REMARK  6 active torsions:
REMARK  status: ('A' for Active; 'I' for Inactive)
REMARK    1  A    between atoms: C6_6  and  O8_7 
REMARK    2  A    between atoms: O8_7  and  C9_8 
REMARK    3  A    between atoms: C9_8  and  C11_10 
REMARK    4  A    between atoms: C11_10  and  O12_11 
REMARK    5  A    between atoms: C11_10  and  C13_12 
REMARK    6  A    between atoms: C11_10  and  C19_18 
ROOT
ATOM      1  C11 ZIN A   1      18.717   0.395  12.041  0.00  0.00     0.176 C 
ENDROOT
BRANCH   1   2
ATOM      2  C9  ZIN A   1      19.617  -0.214  10.998  0.00  0.00     0.299 C 
ATOM      3  O10 ZIN A   1      20.815  -0.204  11.155  0.00  0.00    -0.261 OA
BRANCH   2   4
ATOM      4  O8  ZIN A   1      19.089  -0.768   9.895  0.00  0.00    -0.312 OA
BRANCH   4   5
ATOM      5  C6  ZIN A   1      19.569  -0.275   8.616  0.00  0.00     0.159 C 
ATOM      6  C5  ZIN A   1      19.039   1.158   8.347  0.00  0.00     0.062 C 
ATOM      7  C4  ZIN A   1      19.058   1.213   6.799  0.00  0.00     0.239 C 
ATOM      8  N2  ZIN A   1      18.656  -0.143   6.368  0.00  0.00    -0.072 N 
ATOM      9  C1  ZIN A   1      17.214  -0.167   6.090  0.00  0.00     0.272 C 
ATOM     10  C24 ZIN A   1      18.968  -1.092   7.452  0.00  0.00     0.268 C 
ATOM     11  C3  ZIN A   1      19.401  -0.514   5.157  0.00  0.00     0.272 C 
ENDBRANCH   4   5
ENDBRANCH   2   4
ENDBRANCH   1   2
BRANCH   1  12
ATOM     12  O12 ZIN A   1      17.416  -0.190  11.948  0.00  0.00    -0.374 OA
ATOM     13  H35 ZIN A   1      16.923  -0.186  12.779  0.00  0.00     0.211 HD
ENDBRANCH   1  12
BRANCH   1  14
ATOM     14  C13 ZIN A   1      18.616   1.881  11.813  0.00  0.00    -0.014 A 
ATOM     15  C18 ZIN A   1      19.687   2.701  12.115  0.00  0.00     0.011 A 
ATOM     16  C17 ZIN A   1      19.596   4.064  11.903  0.00  0.00     0.001 A 
ATOM     17  C16 ZIN A   1      18.431   4.609  11.397  0.00  0.00     0.000 A 
ATOM     18  C15 ZIN A   1      17.357   3.789  11.100  0.00  0.00     0.001 A 
ATOM     19  C14 ZIN A   1      17.450   2.426  11.308  0.00  0.00     0.011 A 
ENDBRANCH   1  14
BRANCH   1  20
ATOM     20  C19 ZIN A   1      19.295   0.132  13.432  0.00  0.00     0.035 C 
ATOM     21  C23 ZIN A   1      19.202  -1.368  13.781  0.00  0.00     0.008 C 
ATOM     22  C22 ZIN A   1      18.859  -1.452  15.279  0.00  0.00     0.001 C 
ATOM     23  C21 ZIN A   1      18.756   0.001  15.788  0.00  0.00     0.001 C 
ATOM     24  C20 ZIN A   1      18.437   0.828  14.518  0.00  0.00     0.008 C 
ENDBRANCH   1  20
TORSDOF 6
ENDMDL
MODEL 8
REMARK VINA RESULT:      -7.4      2.215      4.390
REMARK  6 active torsions:
REMARK  status: ('A' for Active; 'I' for Inactive)
REMARK    1  A    between atoms: C6_6  and  O8_7 
REMARK    2  A    between atoms: O8_7  and  C9_8 
REMARK    3  A    between atoms: C9_8  and  C11_10 
REMARK    4  A    between atoms: C11_10  and  O12_11 
REMARK    5  A    between atoms: C11_10  and  C13_12 
REMARK    6  A    between atoms: C11_10  and  C19_18 
ROOT
ATOM      1  C11 ZIN A   1      18.864   0.646  10.295  0.00  0.00     0.176 C 
ENDROOT
BRANCH   1   2
ATOM      2  C9  ZIN A   1      18.415   1.959  10.882  0.00  0.00     0.299 C 
ATOM      3  O10 ZIN A   1      17.288   2.351  10.691  0.00  0.00    -0.261 OA
BRANCH   2   4
ATOM      4  O8  ZIN A   1      19.266   2.692  11.616  0.00  0.00    -0.312 OA
BRANCH   4   5
ATOM      5  C6  ZIN A   1      18.714   3.839  12.314  0.00  0.00     0.159 C 
ATOM      6  C5  ZIN A   1      19.836   4.839  12.699  0.00  0.00     0.062 C 
ATOM      7  C4  ZIN A   1      19.215   5.549  13.927  0.00  0.00     0.239 C 
ATOM      8  N2  ZIN A   1      18.476   4.488  14.644  0.00  0.00    -0.072 N 
ATOM      9  C1  ZIN A   1      19.317   3.938  15.715  0.00  0.00     0.272 C 
ATOM     10  C24 ZIN A   1      18.135   3.423  13.684  0.00  0.00     0.268 C 
ATOM     11  C3  ZIN A   1      17.245   5.048  15.218  0.00  0.00     0.272 C 
ENDBRANCH   4   5
ENDBRANCH   2   4
ENDBRANCH   1   2
BRANCH   1  12
ATOM     12  O12 ZIN A   1      20.277   0.508  10.463  0.00  0.00    -0.374 OA
ATOM     13  H35 ZIN A   1      20.551  -0.363  10.781  0.00  0.00     0.211 HD
ENDBRANCH   1  12
BRANCH   1  14
ATOM     14  C13 ZIN A   1      18.527   0.610   8.826  0.00  0.00    -0.014 A 
ATOM     15  C18 ZIN A   1      19.291   1.327   7.924  0.00  0.00     0.011 A 
ATOM     16  C17 ZIN A   1      18.984   1.291   6.577  0.00  0.00     0.001 A 
ATOM     17  C16 ZIN A   1      17.908   0.546   6.132  0.00  0.00     0.000 A 
ATOM     18  C15 ZIN A   1      17.141  -0.166   7.035  0.00  0.00     0.001 A 
ATOM     19  C14 ZIN A   1      17.451  -0.134   8.382  0.00  0.00     0.011 A 
ENDBRANCH   1  14
BRANCH   1  20
ATOM     20  C19 ZIN A   1      18.151  -0.504  11.009  0.00  0.00     0.035 C 
ATOM     21  C23 ZIN A   1      18.066  -0.228  12.524  0.00  0.00     0.008 C 
ATOM     22  C22 ZIN A   1      18.276  -1.579  13.230  0.00  0.00     0.001 C 
ATOM     23  C21 ZIN A   1      18.482  -2.629  12.119  0.00  0.00     0.001 C 
ATOM     24  C20 ZIN A   1      18.984  -1.806  10.907  0.00  0.00     0.008 C 
ENDBRANCH   1  20
TORSDOF 6
ENDMDL
MODEL 9
REMARK VINA RESULT:      -7.3      2.287      4.389
REMARK  6 active torsions:
REMARK  status: ('A' for Active; 'I' for Inactive)
REMARK    1  A    between atoms: C6_6  and  O8_7 
REMARK    2  A    between atoms: O8_7  and  C9_8 
REMARK    3  A    between atoms: C9_8  and  C11_10 
REMARK    4  A    between atoms: C11_10  and  O12_11 
REMARK    5  A    between atoms: C11_10  and  C13_12 
REMARK    6  A    between atoms: C11_10  and  C19_18 
ROOT
ATOM      1  C11 ZIN A   1      18.998  -0.930  11.735  0.00  0.00     0.176 C 
ENDROOT
BRANCH   1   2
ATOM      2  C9  ZIN A   1      17.862  -0.728  12.704  0.00  0.00     0.299 C 
ATOM      3  O10 ZIN A   1      16.786  -0.353  12.302  0.00  0.00    -0.261 OA
BRANCH   2   4
ATOM      4  O8  ZIN A   1      18.046  -0.963  14.013  0.00  0.00    -0.312 OA
BRANCH   4   5
ATOM      5  C6  ZIN A   1      17.828   0.151  14.919  0.00  0.00     0.159 C 
ATOM      6  C5  ZIN A   1      19.125   0.986  15.083  0.00  0.00     0.062 C 
ATOM      7  C4  ZIN A   1      18.917   1.615  16.482  0.00  0.00     0.239 C 
ATOM      8  N2  ZIN A   1      18.251   0.562  17.276  0.00  0.00    -0.072 N 
ATOM      9  C1  ZIN A   1      19.254  -0.184  18.049  0.00  0.00     0.272 C 
ATOM     10  C24 ZIN A   1      17.556  -0.353  16.353  0.00  0.00     0.268 C 
ATOM     11  C3  ZIN A   1      17.278   1.175  18.190  0.00  0.00     0.272 C 
ENDBRANCH   4   5
ENDBRANCH   2   4
ENDBRANCH   1   2
BRANCH   1  12
ATOM     12  O12 ZIN A   1      20.239  -0.906  12.444  0.00  0.00    -0.374 OA
ATOM     13  H35 ZIN A   1      20.229  -0.347  13.233  0.00  0.00     0.211 HD
ENDBRANCH   1  12
BRANCH   1  14
ATOM     14  C13 ZIN A   1      18.985   0.171  10.707  0.00  0.00    -0.014 A 
ATOM     15  C18 ZIN A   1      18.741  -0.126   9.379  0.00  0.00     0.011 A 
ATOM     16  C17 ZIN A   1      18.727   0.884   8.436  0.00  0.00     0.001 A 
ATOM     17  C16 ZIN A   1      18.965   2.191   8.819  0.00  0.00     0.000 A 
ATOM     18  C15 ZIN A   1      19.215   2.487  10.146  0.00  0.00     0.001 A 
ATOM     19  C14 ZIN A   1      19.225   1.477  11.090  0.00  0.00     0.011 A 
ENDBRANCH   1  14
BRANCH   1  20
ATOM     20  C19 ZIN A   1      18.838  -2.282  11.036  0.00  0.00     0.035 C 
ATOM     21  C23 ZIN A   1      17.556  -2.991  11.519  0.00  0.00     0.008 C 
ATOM     22  C22 ZIN A   1      17.889  -4.490  11.612  0.00  0.00     0.001 C 
ATOM     23  C21 ZIN A   1      19.363  -4.640  11.182  0.00  0.00     0.001 C 
ATOM     24  C20 ZIN A   1      19.980  -3.245  11.447  0.00  0.00     0.008 C 
ENDBRANCH   1  20
TORSDOF 6
ENDMDL
