MODEL 1
REMARK VINA RESULT:      -6.9      0.000      0.000
REMARK  6 active torsions:
REMARK  status: ('A' for Active; 'I' for Inactive)
REMARK    1  A    between atoms: N1_1  and  S2_2 
REMARK    2  A    between atoms: S2_2  and  C5_5 
REMARK    3  A    between atoms: C7_7  and  C8_8 
REMARK    4  A    between atoms: C11_11  and  N12_12 
REMARK    5  A    between atoms: N12_12  and  C13_13 
REMARK    6  A    between atoms: C13_13  and  C14_14 
ROOT
ATOM      1  C5  ZIN A   1      18.813   1.935  16.484  0.00  0.00     0.102 A 
ATOM      2  C6  ZIN A   1      18.871   3.210  15.971  0.00  0.00     0.047 A 
ATOM      3  C7  ZIN A   1      18.870   3.406  14.585  0.00  0.00     0.068 A 
ATOM      4  C11 ZIN A   1      18.809   2.293  13.727  0.00  0.00     0.047 A 
ATOM      5  C19 ZIN A   1      18.751   1.014  14.265  0.00  0.00     0.055 A 
ATOM      6  C20 ZIN A   1      18.759   0.838  15.635  0.00  0.00     0.059 A 
ATOM      7 Cl21 ZIN A   1      18.687  -0.763  16.299  0.00  0.00    -0.083 Cl
ENDROOT
BRANCH   4   8
ATOM      8  N12 ZIN A   1      18.808   2.473  12.351  0.00  0.00    -0.383 N 
ATOM      9  H25 ZIN A   1      19.574   2.876  11.915  0.00  0.00     0.160 HD
BRANCH   8  10
ATOM     10  C13 ZIN A   1      17.649   2.052  11.560  0.00  0.00     0.184 C 
BRANCH  10  11
ATOM     11  C14 ZIN A   1      18.097   1.699  10.164  0.00  0.00     0.070 A 
ATOM     12  O18 ZIN A   1      17.643   0.671   9.429  0.00  0.00    -0.325 OA
ATOM     13  C17 ZIN A   1      18.262   0.665   8.237  0.00  0.00     0.142 A 
ATOM     14  C16 ZIN A   1      19.130   1.692   8.204  0.00  0.00     0.027 A 
ATOM     15  C15 ZIN A   1      19.025   2.359   9.446  0.00  0.00     0.036 A 
ENDBRANCH  10  11
ENDBRANCH   8  10
ENDBRANCH   4   8
BRANCH   3  16
ATOM     16  C8  ZIN A   1      18.932   4.765  14.029  0.00  0.00     0.211 C 
ATOM     17  O9  ZIN A   1      19.921   5.459  14.219  0.00  0.00    -0.644 OA
ATOM     18  O10 ZIN A   1      17.995   5.203  13.374  0.00  0.00    -0.644 OA
ENDBRANCH   3  16
BRANCH   1  19
ATOM     19  S2  ZIN A   1      18.814   1.694  18.229  0.00  0.00     0.258 S 
ATOM     20  O3  ZIN A   1      19.981   0.940  18.530  0.00  0.00    -0.201 OA
ATOM     21  O4  ZIN A   1      17.503   1.269  18.575  0.00  0.00    -0.201 OA
BRANCH  19  22
ATOM     22  N1  ZIN A   1      19.023   3.181  18.929  0.00  0.00    -0.324 N 
ATOM     23  H22 ZIN A   1      19.903   3.589  18.945  0.00  0.00     0.169 HD
ATOM     24  H23 ZIN A   1      18.265   3.644  19.319  0.00  0.00     0.169 HD
ENDBRANCH  19  22
ENDBRANCH   1  19
TORSDOF 6
ENDMDL
MODEL 2
REMARK VINA RESULT:      -6.9      5.115      8.277
REMARK  6 active torsions:
REMARK  status: ('A' for Active; 'I' for Inactive)
REMARK    1  A    between atoms: N1_1  and  S2_2 
REMARK    2  A    between atoms: S2_2  and  C5_5 
REMARK    3  A    between atoms: C7_7  and  C8_8 
REMARK    4  A    between atoms: C11_11  and  N12_12 
REMARK    5  A    between atoms: N12_12  and  C13_13 
REMARK    6  A    between atoms: C13_13  and  C14_14 
ROOT
ATOM      1  C5  ZIN A   1      18.305  -0.740   7.249  0.00  0.00     0.102 A 
ATOM      2  C6  ZIN A   1      17.766  -1.060   8.474  0.00  0.00     0.047 A 
ATOM      3  C7  ZIN A   1      17.701  -0.092   9.483  0.00  0.00     0.068 A 
ATOM      4  C11 ZIN A   1      18.188   1.204   9.234  0.00  0.00     0.047 A 
ATOM      5  C19 ZIN A   1      18.728   1.507   7.991  0.00  0.00     0.055 A 
ATOM      6  C20 ZIN A   1      18.790   0.538   7.008  0.00  0.00     0.059 A 
ATOM      7 Cl21 ZIN A   1      19.465   0.925   5.457  0.00  0.00    -0.083 Cl
ENDROOT
BRANCH   4   8
ATOM      8  N12 ZIN A   1      18.132   2.173  10.225  0.00  0.00    -0.383 N 
ATOM      9  H25 ZIN A   1      17.283   2.582  10.455  0.00  0.00     0.160 HD
BRANCH   8  10
ATOM     10  C13 ZIN A   1      19.354   2.577  10.924  0.00  0.00     0.184 C 
BRANCH  10  11
ATOM     11  C14 ZIN A   1      19.510   1.755  12.178  0.00  0.00     0.070 A 
ATOM     12  O18 ZIN A   1      20.333   0.705  12.332  0.00  0.00    -0.325 OA
ATOM     13  C17 ZIN A   1      20.212   0.220  13.579  0.00  0.00     0.142 A 
ATOM     14  C16 ZIN A   1      19.296   0.957  14.233  0.00  0.00     0.027 A 
ATOM     15  C15 ZIN A   1      18.843   1.946  13.331  0.00  0.00     0.036 A 
ENDBRANCH  10  11
ENDBRANCH   8  10
ENDBRANCH   4   8
BRANCH   3  16
ATOM     16  C8  ZIN A   1      17.129  -0.426  10.795  0.00  0.00     0.211 C 
ATOM     17  O9  ZIN A   1      17.652  -1.287  11.489  0.00  0.00    -0.644 OA
ATOM     18  O10 ZIN A   1      16.129   0.156  11.193  0.00  0.00    -0.644 OA
ENDBRANCH   3  16
BRANCH   1  19
ATOM     19  S2  ZIN A   1      18.383  -1.961   5.982  0.00  0.00     0.258 S 
ATOM     20  O3  ZIN A   1      19.763  -2.194   5.733  0.00  0.00    -0.201 OA
ATOM     21  O4  ZIN A   1      17.469  -1.552   4.974  0.00  0.00    -0.201 OA
BRANCH  19  22
ATOM     22  N1  ZIN A   1      17.779  -3.367   6.618  0.00  0.00    -0.324 N 
ATOM     23  H22 ZIN A   1      18.343  -3.929   7.173  0.00  0.00     0.169 HD
ATOM     24  H23 ZIN A   1      16.861  -3.625   6.440  0.00  0.00     0.169 HD
ENDBRANCH  19  22
ENDBRANCH   1  19
TORSDOF 6
ENDMDL
MODEL 3
REMARK VINA RESULT:      -6.7      2.917      3.208
REMARK  6 active torsions:
REMARK  status: ('A' for Active; 'I' for Inactive)
REMARK    1  A    between atoms: N1_1  and  S2_2 
REMARK    2  A    between atoms: S2_2  and  C5_5 
REMARK    3  A    between atoms: C7_7  and  C8_8 
REMARK    4  A    between atoms: C11_11  and  N12_12 
REMARK    5  A    between atoms: N12_12  and  C13_13 
REMARK    6  A    between atoms: C13_13  and  C14_14 
ROOT
ATOM      1  C5  ZIN A   1      18.713   1.282  16.294  0.00  0.00     0.102 A 
ATOM      2  C6  ZIN A   1      18.547   2.150  15.239  0.00  0.00     0.047 A 
ATOM      3  C7  ZIN A   1      18.490   1.656  13.931  0.00  0.00     0.068 A 
ATOM      4  C11 ZIN A   1      18.603   0.272  13.706  0.00  0.00     0.047 A 
ATOM      5  C19 ZIN A   1      18.769  -0.587  14.784  0.00  0.00     0.055 A 
ATOM      6  C20 ZIN A   1      18.829  -0.083  16.069  0.00  0.00     0.059 A 
ATOM      7 Cl21 ZIN A   1      19.037  -1.163  17.410  0.00  0.00    -0.083 Cl
ENDROOT
BRANCH   4   8
ATOM      8  N12 ZIN A   1      18.549  -0.231  12.414  0.00  0.00    -0.383 N 
ATOM      9  H25 ZIN A   1      19.286  -0.076  11.802  0.00  0.00     0.160 HD
BRANCH   8  10
ATOM     10  C13 ZIN A   1      17.379  -0.995  11.975  0.00  0.00     0.184 C 
BRANCH  10  11
ATOM     11  C14 ZIN A   1      17.778  -2.430  11.737  0.00  0.00     0.070 A 
ATOM     12  O18 ZIN A   1      16.943  -3.439  11.443  0.00  0.00    -0.325 OA
ATOM     13  C17 ZIN A   1      17.647  -4.574  11.294  0.00  0.00     0.142 A 
ATOM     14  C16 ZIN A   1      18.947  -4.298  11.504  0.00  0.00     0.027 A 
ATOM     15  C15 ZIN A   1      19.032  -2.916  11.789  0.00  0.00     0.036 A 
ENDBRANCH  10  11
ENDBRANCH   8  10
ENDBRANCH   4   8
BRANCH   3  16
ATOM     16  C8  ZIN A   1      18.315   2.577  12.799  0.00  0.00     0.211 C 
ATOM     17  O9  ZIN A   1      19.180   3.403  12.542  0.00  0.00    -0.644 OA
ATOM     18  O10 ZIN A   1      17.304   2.517  12.112  0.00  0.00    -0.644 OA
ENDBRANCH   3  16
BRANCH   1  19
ATOM     19  S2  ZIN A   1      18.783   1.908  17.939  0.00  0.00     0.258 S 
ATOM     20  O3  ZIN A   1      19.970   1.384  18.518  0.00  0.00    -0.201 OA
ATOM     21  O4  ZIN A   1      17.492   1.711  18.498  0.00  0.00    -0.201 OA
BRANCH  19  22
ATOM     22  N1  ZIN A   1      19.000   3.547  17.831  0.00  0.00    -0.324 N 
ATOM     23  H22 ZIN A   1      19.723   3.973  18.317  0.00  0.00     0.169 HD
ATOM     24  H23 ZIN A   1      18.406   4.080  17.278  0.00  0.00     0.169 HD
ENDBRANCH  19  22
ENDBRANCH   1  19
TORSDOF 6
ENDMDL
MODEL 4
REMARK VINA RESULT:      -6.6      2.363      2.958
REMARK  6 active torsions:
REMARK  status: ('A' for Active; 'I' for Inactive)
REMARK    1  A    between atoms: N1_1  and  S2_2 
REMARK    2  A    between atoms: S2_2  and  C5_5 
REMARK    3  A    between atoms: C7_7  and  C8_8 
REMARK    4  A    between atoms: C11_11  and  N12_12 
REMARK    5  A    between atoms: N12_12  and  C13_13 
REMARK    6  A    between atoms: C13_13  and  C14_14 
ROOT
ATOM      1  C5  ZIN A   1      18.496   1.278  16.442  0.00  0.00     0.102 A 
ATOM      2  C6  ZIN A   1      18.186   0.290  15.535  0.00  0.00     0.047 A 
ATOM      3  C7  ZIN A   1      18.005   0.613  14.186  0.00  0.00     0.068 A 
ATOM      4  C11 ZIN A   1      18.142   1.949  13.767  0.00  0.00     0.047 A 
ATOM      5  C19 ZIN A   1      18.455   2.931  14.698  0.00  0.00     0.055 A 
ATOM      6  C20 ZIN A   1      18.625   2.596  16.028  0.00  0.00     0.059 A 
ATOM      7 Cl21 ZIN A   1      19.016   3.829  17.184  0.00  0.00    -0.083 Cl
ENDROOT
BRANCH   4   8
ATOM      8  N12 ZIN A   1      17.965   2.284  12.433  0.00  0.00    -0.383 N 
ATOM      9  H25 ZIN A   1      17.094   2.179  12.018  0.00  0.00     0.160 HD
BRANCH   8  10
ATOM     10  C13 ZIN A   1      19.093   2.795  11.651  0.00  0.00     0.184 C 
BRANCH  10  11
ATOM     11  C14 ZIN A   1      19.225   1.996  10.379  0.00  0.00     0.070 A 
ATOM     12  O18 ZIN A   1      19.664   0.731  10.288  0.00  0.00    -0.325 OA
ATOM     13  C17 ZIN A   1      19.645   0.341   9.003  0.00  0.00     0.142 A 
ATOM     14  C16 ZIN A   1      19.199   1.367   8.255  0.00  0.00     0.027 A 
ATOM     15  C15 ZIN A   1      18.928   2.434   9.141  0.00  0.00     0.036 A 
ENDBRANCH  10  11
ENDBRANCH   8  10
ENDBRANCH   4   8
BRANCH   3  16
ATOM     16  C8  ZIN A   1      17.674  -0.436  13.211  0.00  0.00     0.211 C 
ATOM     17  O9  ZIN A   1      18.351  -1.453  13.153  0.00  0.00    -0.644 OA
ATOM     18  O10 ZIN A   1      16.720  -0.293  12.458  0.00  0.00    -0.644 OA
ENDBRANCH   3  16
BRANCH   1  19
ATOM     19  S2  ZIN A   1      18.723   0.866  18.140  0.00  0.00     0.258 S 
ATOM     20  O3  ZIN A   1      19.954   1.455  18.535  0.00  0.00    -0.201 OA
ATOM     21  O4  ZIN A   1      18.455  -0.525  18.254  0.00  0.00    -0.201 OA
BRANCH  19  22
ATOM     22  N1  ZIN A   1      17.536   1.643  18.996  0.00  0.00    -0.324 N 
ATOM     23  H22 ZIN A   1      16.655   1.759  18.606  0.00  0.00     0.169 HD
ATOM     24  H23 ZIN A   1      17.720   1.976  19.888  0.00  0.00     0.169 HD
ENDBRANCH  19  22
ENDBRANCH   1  19
TORSDOF 6
ENDMDL
MODEL 5
REMARK VINA RESULT:      -6.6      5.412      9.396
REMARK  6 active torsions:
REMARK  status: ('A' for Active; 'I' for Inactive)
REMARK    1  A    between atoms: N1_1  and  S2_2 
REMARK    2  A    between atoms: S2_2  and  C5_5 
REMARK    3  A    between atoms: C7_7  and  C8_8 
REMARK    4  A    between atoms: C11_11  and  N12_12 
REMARK    5  A    between atoms: N12_12  and  C13_13 
REMARK    6  A    between atoms: C13_13  and  C14_14 
ROOT
ATOM      1  C5  ZIN A   1      18.806  -1.464   6.747  0.00  0.00     0.102 A 
ATOM      2  C6  ZIN A   1      18.769  -2.609   7.508  0.00  0.00     0.047 A 
ATOM      3  C7  ZIN A   1      18.776  -2.520   8.905  0.00  0.00     0.068 A 
ATOM      4  C11 ZIN A   1      18.821  -1.255   9.519  0.00  0.00     0.047 A 
ATOM      5  C19 ZIN A   1      18.858  -0.111   8.732  0.00  0.00     0.055 A 
ATOM      6  C20 ZIN A   1      18.856  -0.218   7.355  0.00  0.00     0.059 A 
ATOM      7 Cl21 ZIN A   1      18.901   1.217   6.379  0.00  0.00    -0.083 Cl
ENDROOT
BRANCH   4   8
ATOM      8  N12 ZIN A   1      18.830  -1.152  10.902  0.00  0.00    -0.383 N 
ATOM      9  H25 ZIN A   1      19.610  -1.435  11.405  0.00  0.00     0.160 HD
BRANCH   8  10
ATOM     10  C13 ZIN A   1      17.661  -0.614  11.603  0.00  0.00     0.184 C 
BRANCH  10  11
ATOM     11  C14 ZIN A   1      17.907  -0.652  13.090  0.00  0.00     0.070 A 
ATOM     12  O18 ZIN A   1      17.448   0.237  13.985  0.00  0.00    -0.325 OA
ATOM     13  C17 ZIN A   1      17.859  -0.113  15.216  0.00  0.00     0.142 A 
ATOM     14  C16 ZIN A   1      18.598  -1.232  15.114  0.00  0.00     0.027 A 
ATOM     15  C15 ZIN A   1      18.630  -1.580  13.744  0.00  0.00     0.036 A 
ENDBRANCH  10  11
ENDBRANCH   8  10
ENDBRANCH   4   8
BRANCH   3  16
ATOM     16  C8  ZIN A   1      18.738  -3.738   9.726  0.00  0.00     0.211 C 
ATOM     17  O9  ZIN A   1      17.795  -3.939  10.479  0.00  0.00    -0.644 OA
ATOM     18  O10 ZIN A   1      19.648  -4.553   9.656  0.00  0.00    -0.644 OA
ENDBRANCH   3  16
BRANCH   1  19
ATOM     19  S2  ZIN A   1      18.795  -1.582   4.989  0.00  0.00     0.258 S 
ATOM     20  O3  ZIN A   1      20.013  -1.003   4.540  0.00  0.00    -0.201 OA
ATOM     21  O4  ZIN A   1      17.517  -1.130   4.565  0.00  0.00    -0.201 OA
BRANCH  19  22
ATOM     22  N1  ZIN A   1      18.873  -3.192   4.605  0.00  0.00    -0.324 N 
ATOM     23  H22 ZIN A   1      18.104  -3.763   4.757  0.00  0.00     0.169 HD
ATOM     24  H23 ZIN A   1      19.685  -3.562   4.225  0.00  0.00     0.169 HD
ENDBRANCH  19  22
ENDBRANCH   1  19
TORSDOF 6
ENDMDL
MODEL 6
REMARK VINA RESULT:      -6.6      5.213      8.415
REMARK  6 active torsions:
REMARK  status: ('A' for Active; 'I' for Inactive)
REMARK    1  A    between atoms: N1_1  and  S2_2 
REMARK    2  A    between atoms: S2_2  and  C5_5 
REMARK    3  A    between atoms: C7_7  and  C8_8 
REMARK    4  A    between atoms: C11_11  and  N12_12 
REMARK    5  A    between atoms: N12_12  and  C13_13 
REMARK    6  A    between atoms: C13_13  and  C14_14 
ROOT
ATOM      1  C5  ZIN A   1      18.176  -1.180   7.517  0.00  0.00     0.102 A 
ATOM      2  C6  ZIN A   1      17.704  -0.275   8.439  0.00  0.00     0.047 A 
ATOM      3  C7  ZIN A   1      17.567  -0.651   9.780  0.00  0.00     0.068 A 
ATOM      4  C11 ZIN A   1      17.914  -1.956  10.174  0.00  0.00     0.047 A 
ATOM      5  C19 ZIN A   1      18.388  -2.855   9.228  0.00  0.00     0.055 A 
ATOM      6  C20 ZIN A   1      18.513  -2.469   7.907  0.00  0.00     0.059 A 
ATOM      7 Cl21 ZIN A   1      19.106  -3.599   6.732  0.00  0.00    -0.083 Cl
ENDROOT
BRANCH   4   8
ATOM      8  N12 ZIN A   1      17.781  -2.342  11.500  0.00  0.00    -0.383 N 
ATOM      9  H25 ZIN A   1      16.900  -2.490  11.876  0.00  0.00     0.160 HD
BRANCH   8  10
ATOM     10  C13 ZIN A   1      18.974  -2.526  12.331  0.00  0.00     0.184 C 
BRANCH  10  11
ATOM     11  C14 ZIN A   1      19.095  -1.374  13.296  0.00  0.00     0.070 A 
ATOM     12  O18 ZIN A   1      19.749  -0.223  13.068  0.00  0.00    -0.325 OA
ATOM     13  C17 ZIN A   1      19.644   0.572  14.146  0.00  0.00     0.142 A 
ATOM     14  C16 ZIN A   1      18.925  -0.074  15.082  0.00  0.00     0.027 A 
ATOM     15  C15 ZIN A   1      18.570  -1.328  14.535  0.00  0.00     0.036 A 
ENDBRANCH  10  11
ENDBRANCH   8  10
ENDBRANCH   4   8
BRANCH   3  16
ATOM     16  C8  ZIN A   1      17.063   0.311  10.771  0.00  0.00     0.211 C 
ATOM     17  O9  ZIN A   1      16.045   0.060  11.403  0.00  0.00    -0.644 OA
ATOM     18  O10 ZIN A   1      17.660   1.360  10.966  0.00  0.00    -0.644 OA
ENDBRANCH   3  16
BRANCH   1  19
ATOM     19  S2  ZIN A   1      18.349  -0.702   5.830  0.00  0.00     0.258 S 
ATOM     20  O3  ZIN A   1      19.620  -1.174   5.406  0.00  0.00    -0.201 OA
ATOM     21  O4  ZIN A   1      17.963   0.664   5.760  0.00  0.00    -0.201 OA
BRANCH  19  22
ATOM     22  N1  ZIN A   1      17.221  -1.551   4.963  0.00  0.00    -0.324 N 
ATOM     23  H22 ZIN A   1      16.620  -2.162   5.417  0.00  0.00     0.169 HD
ATOM     24  H23 ZIN A   1      17.159  -1.433   4.002  0.00  0.00     0.169 HD
ENDBRANCH  19  22
ENDBRANCH   1  19
TORSDOF 6
ENDMDL
MODEL 7
REMARK VINA RESULT:      -6.5      3.951      7.406
REMARK  6 active torsions:
REMARK  status: ('A' for Active; 'I' for Inactive)
REMARK    1  A    between atoms: N1_1  and  S2_2 
REMARK    2  A    between atoms: S2_2  and  C5_5 
REMARK    3  A    between atoms: C7_7  and  C8_8 
REMARK    4  A    between atoms: C11_11  and  N12_12 
REMARK    5  A    between atoms: N12_12  and  C13_13 
REMARK    6  A    between atoms: C13_13  and  C14_14 
ROOT
ATOM      1  C5  ZIN A   1      18.133   0.289   8.775  0.00  0.00     0.102 A 
ATOM      2  C6  ZIN A   1      18.114   1.589   9.227  0.00  0.00     0.047 A 
ATOM      3  C7  ZIN A   1      17.890   1.853  10.583  0.00  0.00     0.068 A 
ATOM      4  C11 ZIN A   1      17.686   0.785  11.474  0.00  0.00     0.047 A 
ATOM      5  C19 ZIN A   1      17.708  -0.520  10.998  0.00  0.00     0.055 A 
ATOM      6  C20 ZIN A   1      17.925  -0.763   9.655  0.00  0.00     0.059 A 
ATOM      7 Cl21 ZIN A   1      17.952  -2.396   9.069  0.00  0.00    -0.083 Cl
ENDROOT
BRANCH   4   8
ATOM      8  N12 ZIN A   1      17.461   1.033  12.820  0.00  0.00    -0.383 N 
ATOM      9  H25 ZIN A   1      16.567   1.241  13.132  0.00  0.00     0.160 HD
BRANCH   8  10
ATOM     10  C13 ZIN A   1      18.576   0.979  13.769  0.00  0.00     0.184 C 
BRANCH  10  11
ATOM     11  C14 ZIN A   1      18.218   0.064  14.913  0.00  0.00     0.070 A 
ATOM     12  O18 ZIN A   1      17.260   0.286  15.827  0.00  0.00    -0.325 OA
ATOM     13  C17 ZIN A   1      17.219  -0.741  16.692  0.00  0.00     0.142 A 
ATOM     14  C16 ZIN A   1      18.166  -1.630  16.340  0.00  0.00     0.027 A 
ATOM     15  C15 ZIN A   1      18.810  -1.111  15.194  0.00  0.00     0.036 A 
ENDBRANCH  10  11
ENDBRANCH   8  10
ENDBRANCH   4   8
BRANCH   3  16
ATOM     16  C8  ZIN A   1      17.868   3.239  11.073  0.00  0.00     0.211 C 
ATOM     17  O9  ZIN A   1      16.811   3.853  11.124  0.00  0.00    -0.644 OA
ATOM     18  O10 ZIN A   1      18.906   3.778  11.432  0.00  0.00    -0.644 OA
ENDBRANCH   3  16
BRANCH   1  19
ATOM     19  S2  ZIN A   1      18.416  -0.039   7.067  0.00  0.00     0.258 S 
ATOM     20  O3  ZIN A   1      19.319  -1.135   7.013  0.00  0.00    -0.201 OA
ATOM     21  O4  ZIN A   1      18.680   1.217   6.457  0.00  0.00    -0.201 OA
BRANCH  19  22
ATOM     22  N1  ZIN A   1      16.986  -0.578   6.428  0.00  0.00    -0.324 N 
ATOM     23  H22 ZIN A   1      16.345  -1.035   6.994  0.00  0.00     0.169 HD
ATOM     24  H23 ZIN A   1      16.789  -0.432   5.490  0.00  0.00     0.169 HD
ENDBRANCH  19  22
ENDBRANCH   1  19
TORSDOF 6
ENDMDL
MODEL 8
REMARK VINA RESULT:      -6.5      5.518      8.728
REMARK  6 active torsions:
REMARK  status: ('A' for Active; 'I' for Inactive)
REMARK    1  A    between atoms: N1_1  and  S2_2 
REMARK    2  A    between atoms: S2_2  and  C5_5 
REMARK    3  A    between atoms: C7_7  and  C8_8 
REMARK    4  A    between atoms: C11_11  and  N12_12 
REMARK    5  A    between atoms: N12_12  and  C13_13 
REMARK    6  A    between atoms: C13_13  and  C14_14 
ROOT
ATOM      1  C5  ZIN A   1      18.730  -1.184   6.916  0.00  0.00     0.102 A 
ATOM      2  C6  ZIN A   1      18.615  -2.122   7.916  0.00  0.00     0.047 A 
ATOM      3  C7  ZIN A   1      18.583  -1.716   9.255  0.00  0.00     0.068 A 
ATOM      4  C11 ZIN A   1      18.668  -0.347   9.567  0.00  0.00     0.047 A 
ATOM      5  C19 ZIN A   1      18.783   0.584   8.543  0.00  0.00     0.055 A 
ATOM      6  C20 ZIN A   1      18.819   0.166   7.227  0.00  0.00     0.059 A 
ATOM      7 Cl21 ZIN A   1      18.963   1.335   5.953  0.00  0.00    -0.083 Cl
ENDROOT
BRANCH   4   8
ATOM      8  N12 ZIN A   1      18.638   0.070  10.889  0.00  0.00    -0.383 N 
ATOM      9  H25 ZIN A   1      19.383  -0.129  11.477  0.00  0.00     0.160 HD
BRANCH   8  10
ATOM     10  C13 ZIN A   1      17.481   0.812  11.396  0.00  0.00     0.184 C 
BRANCH  10  11
ATOM     11  C14 ZIN A   1      17.807   2.283  11.439  0.00  0.00     0.070 A 
ATOM     12  O18 ZIN A   1      17.038   3.273  10.958  0.00  0.00    -0.325 OA
ATOM     13  C17 ZIN A   1      17.642   4.454  11.172  0.00  0.00     0.142 A 
ATOM     14  C16 ZIN A   1      18.816   4.225  11.788  0.00  0.00     0.027 A 
ATOM     15  C15 ZIN A   1      18.923   2.826  11.960  0.00  0.00     0.036 A 
ENDBRANCH  10  11
ENDBRANCH   8  10
ENDBRANCH   4   8
BRANCH   3  16
ATOM     16  C8  ZIN A   1      18.462  -2.712  10.329  0.00  0.00     0.211 C 
ATOM     17  O9  ZIN A   1      19.378  -3.493  10.545  0.00  0.00    -0.644 OA
ATOM     18  O10 ZIN A   1      17.445  -2.760  11.008  0.00  0.00    -0.644 OA
ENDBRANCH   3  16
BRANCH   1  19
ATOM     19  S2  ZIN A   1      18.770  -1.701   5.232  0.00  0.00     0.258 S 
ATOM     20  O3  ZIN A   1      19.965  -1.170   4.677  0.00  0.00    -0.201 OA
ATOM     21  O4  ZIN A   1      17.479  -1.433   4.701  0.00  0.00    -0.201 OA
BRANCH  19  22
ATOM     22  N1  ZIN A   1      18.943  -3.349   5.229  0.00  0.00    -0.324 N 
ATOM     23  H22 ZIN A   1      18.897  -3.842   6.063  0.00  0.00     0.169 HD
ATOM     24  H23 ZIN A   1      19.086  -3.820   4.394  0.00  0.00     0.169 HD
ENDBRANCH  19  22
ENDBRANCH   1  19
TORSDOF 6
ENDMDL
MODEL 9
REMARK VINA RESULT:      -6.5      5.930      9.062
REMARK  6 active torsions:
REMARK  status: ('A' for Active; 'I' for Inactive)
REMARK    1  A    between atoms: N1_1  and  S2_2 
REMARK    2  A    between atoms: S2_2  and  C5_5 
REMARK    3  A    between atoms: C7_7  and  C8_8 
REMARK    4  A    between atoms: C11_11  and  N12_12 
REMARK    5  A    between atoms: N12_12  and  C13_13 
REMARK    6  A    between atoms: C13_13  and  C14_14 
ROOT
ATOM      1  C5  ZIN A   1      19.163  -4.021   7.574  0.00  0.00     0.102 A 
ATOM      2  C6  ZIN A   1      19.185  -3.374   6.360  0.00  0.00     0.047 A 
ATOM      3  C7  ZIN A   1      18.927  -2.000   6.297  0.00  0.00     0.068 A 
ATOM      4  C11 ZIN A   1      18.648  -1.291   7.480  0.00  0.00     0.047 A 
ATOM      5  C19 ZIN A   1      18.631  -1.963   8.695  0.00  0.00     0.055 A 
ATOM      6  C20 ZIN A   1      18.882  -3.321   8.739  0.00  0.00     0.059 A 
ATOM      7 Cl21 ZIN A   1      18.859  -4.153  10.261  0.00  0.00    -0.083 Cl
ENDROOT
BRANCH   4   8
ATOM      8  N12 ZIN A   1      18.391   0.071   7.432  0.00  0.00    -0.383 N 
ATOM      9  H25 ZIN A   1      17.587   0.398   6.998  0.00  0.00     0.160 HD
BRANCH   8  10
ATOM     10  C13 ZIN A   1      19.333   1.016   8.036  0.00  0.00     0.184 C 
BRANCH  10  11
ATOM     11  C14 ZIN A   1      18.675   1.702   9.207  0.00  0.00     0.070 A 
ATOM     12  O18 ZIN A   1      17.975   1.097  10.180  0.00  0.00    -0.325 OA
ATOM     13  C17 ZIN A   1      17.540   2.017  11.057  0.00  0.00     0.142 A 
ATOM     14  C16 ZIN A   1      17.953   3.228  10.641  0.00  0.00     0.027 A 
ATOM     15  C15 ZIN A   1      18.685   3.026   9.449  0.00  0.00     0.036 A 
ENDBRANCH  10  11
ENDBRANCH   8  10
ENDBRANCH   4   8
BRANCH   3  16
ATOM     16  C8  ZIN A   1      18.948  -1.300   5.004  0.00  0.00     0.211 C 
ATOM     17  O9  ZIN A   1      19.994  -0.827   4.582  0.00  0.00    -0.644 OA
ATOM     18  O10 ZIN A   1      17.920  -1.193   4.350  0.00  0.00    -0.644 OA
ENDBRANCH   3  16
BRANCH   1  19
ATOM     19  S2  ZIN A   1      19.488  -5.751   7.648  0.00  0.00     0.258 S 
ATOM     20  O3  ZIN A   1      20.670  -5.906   8.421  0.00  0.00    -0.201 OA
ATOM     21  O4  ZIN A   1      19.358  -6.240   6.320  0.00  0.00    -0.201 OA
BRANCH  19  22
ATOM     22  N1  ZIN A   1      18.262  -6.443   8.522  0.00  0.00    -0.324 N 
ATOM     23  H22 ZIN A   1      18.019  -6.078   9.387  0.00  0.00     0.169 HD
ATOM     24  H23 ZIN A   1      17.786  -7.210   8.167  0.00  0.00     0.169 HD
ENDBRANCH  19  22
ENDBRANCH   1  19
TORSDOF 6
ENDMDL
