MODEL 1
REMARK VINA RESULT:      -8.5      0.000      0.000
REMARK  4 active torsions:
REMARK  status: ('A' for Active; 'I' for Inactive)
REMARK    1  A    between atoms: C8_8  and  C9_9 
REMARK    2  A    between atoms: C9_9  and  C11_11 
REMARK    3  A    between atoms: C14_14  and  C15_15 
REMARK    4  A    between atoms: C20_20  and  N21_21 
ROOT
ATOM      1  C11 ZIN A   1      17.532   0.128  13.030  0.00  0.00     0.035 A 
ATOM      2  C12 ZIN A   1      17.466   1.140  13.995  0.00  0.00     0.018 A 
ATOM      3  C13 ZIN A   1      17.913   0.896  15.276  0.00  0.00     0.017 A 
ATOM      4  C14 ZIN A   1      18.425  -0.346  15.609  0.00  0.00     0.050 A 
ATOM      5  C19 ZIN A   1      18.492  -1.352  14.661  0.00  0.00     0.053 A 
ATOM      6  C20 ZIN A   1      18.045  -1.127  13.377  0.00  0.00     0.116 A 
ENDROOT
BRANCH   1   7
ATOM      7  C9  ZIN A   1      17.056   0.380  11.661  0.00  0.00     0.137 C 
ATOM      8  O10 ZIN A   1      15.859  -0.093  11.266  0.00  0.00    -0.190 OA
BRANCH   7   9
ATOM      9  C8  ZIN A   1      17.849   1.111  10.770  0.00  0.00     0.093 C 
ATOM     10  C2  ZIN A   1      17.785   2.524  10.773  0.00  0.00     0.166 C 
ATOM     11  O1  ZIN A   1      17.046   3.093  11.549  0.00  0.00    -0.292 OA
ATOM     12  C3  ZIN A   1      18.633   3.326   9.820  0.00  0.00     0.084 C 
ATOM     13  C4  ZIN A   1      18.869   2.517   8.543  0.00  0.00     0.015 C 
ATOM     14  C5  ZIN A   1      19.560   1.199   8.902  0.00  0.00     0.084 C 
ATOM     15  C6  ZIN A   1      18.698   0.428   9.867  0.00  0.00     0.166 C 
ATOM     16  O7  ZIN A   1      18.735  -0.785   9.874  0.00  0.00    -0.292 OA
ENDBRANCH   7   9
ENDBRANCH   1   7
BRANCH   6  17
ATOM     17  N21 ZIN A   1      18.118  -2.204  12.365  0.00  0.00    -0.115 N 
ATOM     18  O22 ZIN A   1      17.095  -2.675  11.903  0.00  0.00    -0.532 OA
ATOM     19  O23 ZIN A   1      19.202  -2.621  11.996  0.00  0.00    -0.532 OA
ENDBRANCH   6  17
BRANCH   4  20
ATOM     20  C15 ZIN A   1      18.912  -0.604  17.012  0.00  0.00     0.417 C 
ATOM     21  F16 ZIN A   1      19.674  -1.777  17.032  0.00  0.00    -0.166 F 
ATOM     22  F17 ZIN A   1      19.699   0.472  17.439  0.00  0.00    -0.166 F 
ATOM     23  F18 ZIN A   1      17.814  -0.746  17.868  0.00  0.00    -0.166 F 
ENDBRANCH   4  20
TORSDOF 4
ENDMDL
MODEL 2
REMARK VINA RESULT:      -8.2      2.212      3.495
REMARK  4 active torsions:
REMARK  status: ('A' for Active; 'I' for Inactive)
REMARK    1  A    between atoms: C8_8  and  C9_9 
REMARK    2  A    between atoms: C9_9  and  C11_11 
REMARK    3  A    between atoms: C14_14  and  C15_15 
REMARK    4  A    between atoms: C20_20  and  N21_21 
ROOT
ATOM      1  C11 ZIN A   1      18.941   0.701  13.175  0.00  0.00     0.035 A 
ATOM      2  C12 ZIN A   1      18.992  -0.667  13.466  0.00  0.00     0.018 A 
ATOM      3  C13 ZIN A   1      18.479  -1.134  14.657  0.00  0.00     0.017 A 
ATOM      4  C14 ZIN A   1      17.915  -0.254  15.564  0.00  0.00     0.050 A 
ATOM      5  C19 ZIN A   1      17.862   1.101  15.284  0.00  0.00     0.053 A 
ATOM      6  C20 ZIN A   1      18.374   1.585  14.101  0.00  0.00     0.116 A 
ENDROOT
BRANCH   1   7
ATOM      7  C9  ZIN A   1      19.487   1.208  11.906  0.00  0.00     0.137 C 
ATOM      8  O10 ZIN A   1      20.335   2.253  11.908  0.00  0.00    -0.190 OA
BRANCH   7   9
ATOM      9  C8  ZIN A   1      19.123   0.604  10.699  0.00  0.00     0.093 C 
ATOM     10  C2  ZIN A   1      19.995  -0.329  10.092  0.00  0.00     0.166 C 
ATOM     11  O1  ZIN A   1      21.053  -0.601  10.623  0.00  0.00    -0.292 OA
ATOM     12  C3  ZIN A   1      19.618  -0.990   8.791  0.00  0.00     0.084 C 
ATOM     13  C4  ZIN A   1      18.731  -0.045   7.978  0.00  0.00     0.015 C 
ATOM     14  C5  ZIN A   1      17.481   0.298   8.792  0.00  0.00     0.084 C 
ATOM     15  C6  ZIN A   1      17.889   0.940  10.091  0.00  0.00     0.166 C 
ATOM     16  O7  ZIN A   1      17.156   1.748  10.623  0.00  0.00    -0.292 OA
ENDBRANCH   7   9
ENDBRANCH   1   7
BRANCH   6  17
ATOM     17  N21 ZIN A   1      18.316   3.034  13.804  0.00  0.00    -0.115 N 
ATOM     18  O22 ZIN A   1      17.459   3.469  13.057  0.00  0.00    -0.532 OA
ATOM     19  O23 ZIN A   1      19.127   3.791  14.307  0.00  0.00    -0.532 OA
ENDBRANCH   6  17
BRANCH   4  20
ATOM     20  C15 ZIN A   1      17.357  -0.774  16.865  0.00  0.00     0.417 C 
ATOM     21  F16 ZIN A   1      17.169  -2.157  16.771  0.00  0.00    -0.166 F 
ATOM     22  F17 ZIN A   1      18.254  -0.494  17.902  0.00  0.00    -0.166 F 
ATOM     23  F18 ZIN A   1      16.132  -0.152  17.128  0.00  0.00    -0.166 F 
ENDBRANCH   4  20
TORSDOF 4
ENDMDL
MODEL 3
REMARK VINA RESULT:      -8.1      2.212      3.264
REMARK  4 active torsions:
REMARK  status: ('A' for Active; 'I' for Inactive)
REMARK    1  A    between atoms: C8_8  and  C9_9 
REMARK    2  A    between atoms: C9_9  and  C11_11 
REMARK    3  A    between atoms: C14_14  and  C15_15 
REMARK    4  A    between atoms: C20_20  and  N21_21 
ROOT
ATOM      1  C11 ZIN A   1      18.930   0.694  13.168  0.00  0.00     0.035 A 
ATOM      2  C12 ZIN A   1      18.978  -0.673  13.463  0.00  0.00     0.018 A 
ATOM      3  C13 ZIN A   1      18.468  -1.135  14.658  0.00  0.00     0.017 A 
ATOM      4  C14 ZIN A   1      17.909  -0.250  15.564  0.00  0.00     0.050 A 
ATOM      5  C19 ZIN A   1      17.859   1.104  15.279  0.00  0.00     0.053 A 
ATOM      6  C20 ZIN A   1      18.370   1.583  14.092  0.00  0.00     0.116 A 
ENDROOT
BRANCH   1   7
ATOM      7  C9  ZIN A   1      19.474   1.195  11.896  0.00  0.00     0.137 C 
ATOM      8  O10 ZIN A   1      20.324   2.238  11.891  0.00  0.00    -0.190 OA
BRANCH   7   9
ATOM      9  C8  ZIN A   1      19.105   0.587  10.691  0.00  0.00     0.093 C 
ATOM     10  C2  ZIN A   1      17.866   0.912  10.093  0.00  0.00     0.166 C 
ATOM     11  O1  ZIN A   1      17.131   1.718  10.626  0.00  0.00    -0.292 OA
ATOM     12  C3  ZIN A   1      17.454   0.268   8.795  0.00  0.00     0.084 C 
ATOM     13  C4  ZIN A   1      18.068  -1.131   8.704  0.00  0.00     0.015 C 
ATOM     14  C5  ZIN A   1      19.592  -1.019   8.791  0.00  0.00     0.084 C 
ATOM     15  C6  ZIN A   1      19.972  -0.356  10.089  0.00  0.00     0.166 C 
ATOM     16  O7  ZIN A   1      21.029  -0.629  10.620  0.00  0.00    -0.292 OA
ENDBRANCH   7   9
ENDBRANCH   1   7
BRANCH   6  17
ATOM     17  N21 ZIN A   1      18.315   3.031  13.791  0.00  0.00    -0.115 N 
ATOM     18  O22 ZIN A   1      19.131   3.787  14.285  0.00  0.00    -0.532 OA
ATOM     19  O23 ZIN A   1      17.453   3.466  13.048  0.00  0.00    -0.532 OA
ENDBRANCH   6  17
BRANCH   4  20
ATOM     20  C15 ZIN A   1      17.353  -0.763  16.868  0.00  0.00     0.417 C 
ATOM     21  F16 ZIN A   1      17.160  -2.146  16.779  0.00  0.00    -0.166 F 
ATOM     22  F17 ZIN A   1      18.255  -0.484  17.901  0.00  0.00    -0.166 F 
ATOM     23  F18 ZIN A   1      16.132  -0.136  17.133  0.00  0.00    -0.166 F 
ENDBRANCH   4  20
TORSDOF 4
ENDMDL
MODEL 4
REMARK VINA RESULT:      -8.1      4.705      7.021
REMARK  4 active torsions:
REMARK  status: ('A' for Active; 'I' for Inactive)
REMARK    1  A    between atoms: C8_8  and  C9_9 
REMARK    2  A    between atoms: C9_9  and  C11_11 
REMARK    3  A    between atoms: C14_14  and  C15_15 
REMARK    4  A    between atoms: C20_20  and  N21_21 
ROOT
ATOM      1  C11 ZIN A   1      17.591   0.002   9.843  0.00  0.00     0.035 A 
ATOM      2  C12 ZIN A   1      17.488  -1.112   9.002  0.00  0.00     0.018 A 
ATOM      3  C13 ZIN A   1      17.935  -1.031   7.700  0.00  0.00     0.017 A 
ATOM      4  C14 ZIN A   1      18.484   0.147   7.225  0.00  0.00     0.050 A 
ATOM      5  C19 ZIN A   1      18.588   1.254   8.051  0.00  0.00     0.053 A 
ATOM      6  C20 ZIN A   1      18.142   1.192   9.353  0.00  0.00     0.116 A 
ENDROOT
BRANCH   1   7
ATOM      7  C9  ZIN A   1      17.116  -0.076  11.234  0.00  0.00     0.137 C 
ATOM      8  O10 ZIN A   1      15.822   0.161  11.517  0.00  0.00    -0.190 OA
BRANCH   7   9
ATOM      9  C8  ZIN A   1      18.010  -0.395  12.261  0.00  0.00     0.093 C 
ATOM     10  C2  ZIN A   1      18.617  -1.672  12.289  0.00  0.00     0.166 C 
ATOM     11  O1  ZIN A   1      18.360  -2.482  11.422  0.00  0.00    -0.292 OA
ATOM     12  C3  ZIN A   1      19.584  -2.031  13.387  0.00  0.00     0.084 C 
ATOM     13  C4  ZIN A   1      19.213  -1.269  14.662  0.00  0.00     0.015 C 
ATOM     14  C5  ZIN A   1      19.253   0.235  14.378  0.00  0.00     0.084 C 
ATOM     15  C6  ZIN A   1      18.291   0.561  13.266  0.00  0.00     0.166 C 
ATOM     16  O7  ZIN A   1      17.757   1.650  13.230  0.00  0.00    -0.292 OA
ENDBRANCH   7   9
ENDBRANCH   1   7
BRANCH   6  17
ATOM     17  N21 ZIN A   1      18.255   2.376  10.234  0.00  0.00    -0.115 N 
ATOM     18  O22 ZIN A   1      19.339   2.701  10.681  0.00  0.00    -0.532 OA
ATOM     19  O23 ZIN A   1      17.261   3.024  10.511  0.00  0.00    -0.532 OA
ENDBRANCH   6  17
BRANCH   4  20
ATOM     20  C15 ZIN A   1      18.970   0.227   5.800  0.00  0.00     0.417 C 
ATOM     21  F16 ZIN A   1      19.765  -0.889   5.517  0.00  0.00    -0.166 F 
ATOM     22  F17 ZIN A   1      17.872   0.250   4.933  0.00  0.00    -0.166 F 
ATOM     23  F18 ZIN A   1      19.724   1.393   5.629  0.00  0.00    -0.166 F 
ENDBRANCH   4  20
TORSDOF 4
ENDMDL
MODEL 5
REMARK VINA RESULT:      -8.0      0.343      1.824
REMARK  4 active torsions:
REMARK  status: ('A' for Active; 'I' for Inactive)
REMARK    1  A    between atoms: C8_8  and  C9_9 
REMARK    2  A    between atoms: C9_9  and  C11_11 
REMARK    3  A    between atoms: C14_14  and  C15_15 
REMARK    4  A    between atoms: C20_20  and  N21_21 
ROOT
ATOM      1  C11 ZIN A   1      17.388   0.174  13.014  0.00  0.00     0.035 A 
ATOM      2  C12 ZIN A   1      17.299   1.150  14.014  0.00  0.00     0.018 A 
ATOM      3  C13 ZIN A   1      17.800   0.889  15.272  0.00  0.00     0.017 A 
ATOM      4  C14 ZIN A   1      18.388  -0.333  15.547  0.00  0.00     0.050 A 
ATOM      5  C19 ZIN A   1      18.479  -1.303  14.563  0.00  0.00     0.053 A 
ATOM      6  C20 ZIN A   1      17.980  -1.061  13.302  0.00  0.00     0.116 A 
ENDROOT
BRANCH   1   7
ATOM      7  C9  ZIN A   1      16.856   0.445  11.669  0.00  0.00     0.137 C 
ATOM      8  O10 ZIN A   1      15.641  -0.017  11.321  0.00  0.00    -0.190 OA
BRANCH   7   9
ATOM      9  C8  ZIN A   1      17.614   1.181  10.753  0.00  0.00     0.093 C 
ATOM     10  C2  ZIN A   1      18.291   0.512   9.706  0.00  0.00     0.166 C 
ATOM     11  O1  ZIN A   1      18.208  -0.695   9.608  0.00  0.00    -0.292 OA
ATOM     12  C3  ZIN A   1      19.110   1.290   8.710  0.00  0.00     0.084 C 
ATOM     13  C4  ZIN A   1      19.673   2.544   9.382  0.00  0.00     0.015 C 
ATOM     14  C5  ZIN A   1      18.515   3.395   9.910  0.00  0.00     0.084 C 
ATOM     15  C6  ZIN A   1      17.705   2.587  10.889  0.00  0.00     0.166 C 
ATOM     16  O7  ZIN A   1      17.123   3.144  11.797  0.00  0.00    -0.292 OA
ENDBRANCH   7   9
ENDBRANCH   1   7
BRANCH   6  17
ATOM     17  N21 ZIN A   1      18.078  -2.099  12.252  0.00  0.00    -0.115 N 
ATOM     18  O22 ZIN A   1      19.164  -2.398  11.791  0.00  0.00    -0.532 OA
ATOM     19  O23 ZIN A   1      17.071  -2.654  11.850  0.00  0.00    -0.532 OA
ENDBRANCH   6  17
BRANCH   4  20
ATOM     20  C15 ZIN A   1      18.933  -0.610  16.925  0.00  0.00     0.417 C 
ATOM     21  F16 ZIN A   1      19.712  -1.772  16.893  0.00  0.00    -0.166 F 
ATOM     22  F17 ZIN A   1      19.722   0.469  17.341  0.00  0.00    -0.166 F 
ATOM     23  F18 ZIN A   1      17.872  -0.783  17.820  0.00  0.00    -0.166 F 
ENDBRANCH   4  20
TORSDOF 4
ENDMDL
MODEL 6
REMARK VINA RESULT:      -7.9      4.856      6.914
REMARK  4 active torsions:
REMARK  status: ('A' for Active; 'I' for Inactive)
REMARK    1  A    between atoms: C8_8  and  C9_9 
REMARK    2  A    between atoms: C9_9  and  C11_11 
REMARK    3  A    between atoms: C14_14  and  C15_15 
REMARK    4  A    between atoms: C20_20  and  N21_21 
ROOT
ATOM      1  C11 ZIN A   1      17.925  -1.589   9.541  0.00  0.00     0.035 A 
ATOM      2  C12 ZIN A   1      17.753  -0.230   9.254  0.00  0.00     0.018 A 
ATOM      3  C13 ZIN A   1      18.093   0.256   8.010  0.00  0.00     0.017 A 
ATOM      4  C14 ZIN A   1      18.603  -0.596   7.046  0.00  0.00     0.050 A 
ATOM      5  C19 ZIN A   1      18.777  -1.942   7.323  0.00  0.00     0.053 A 
ATOM      6  C20 ZIN A   1      18.447  -2.443   8.563  0.00  0.00     0.116 A 
ENDROOT
BRANCH   1   7
ATOM      7  C9  ZIN A   1      17.565  -2.115  10.868  0.00  0.00     0.137 C 
ATOM      8  O10 ZIN A   1      16.866  -3.261  10.970  0.00  0.00    -0.190 OA
BRANCH   7   9
ATOM      9  C8  ZIN A   1      17.949  -1.424  12.021  0.00  0.00     0.093 C 
ATOM     10  C2  ZIN A   1      19.139  -1.790  12.693  0.00  0.00     0.166 C 
ATOM     11  O1  ZIN A   1      19.820  -2.699  12.264  0.00  0.00    -0.292 OA
ATOM     12  C3  ZIN A   1      19.568  -1.055  13.937  0.00  0.00     0.084 C 
ATOM     13  C4  ZIN A   1      18.331  -0.542  14.677  0.00  0.00     0.015 C 
ATOM     14  C5  ZIN A   1      17.537   0.383  13.750  0.00  0.00     0.084 C 
ATOM     15  C6  ZIN A   1      17.138  -0.373  12.510  0.00  0.00     0.166 C 
ATOM     16  O7  ZIN A   1      16.116  -0.077  11.925  0.00  0.00    -0.292 OA
ENDBRANCH   7   9
ENDBRANCH   1   7
BRANCH   6  17
ATOM     17  N21 ZIN A   1      18.634  -3.881   8.857  0.00  0.00    -0.115 N 
ATOM     18  O22 ZIN A   1      17.822  -4.695   8.457  0.00  0.00    -0.532 OA
ATOM     19  O23 ZIN A   1      19.602  -4.250   9.499  0.00  0.00    -0.532 OA
ENDBRANCH   6  17
BRANCH   4  20
ATOM     20  C15 ZIN A   1      18.972  -0.056   5.688  0.00  0.00     0.417 C 
ATOM     21  F16 ZIN A   1      19.507   1.229   5.827  0.00  0.00    -0.166 F 
ATOM     22  F17 ZIN A   1      19.922  -0.896   5.095  0.00  0.00    -0.166 F 
ATOM     23  F18 ZIN A   1      17.830  -0.002   4.881  0.00  0.00    -0.166 F 
ENDBRANCH   4  20
TORSDOF 4
ENDMDL
MODEL 7
REMARK VINA RESULT:      -7.8      7.797      9.606
REMARK  4 active torsions:
REMARK  status: ('A' for Active; 'I' for Inactive)
REMARK    1  A    between atoms: C8_8  and  C9_9 
REMARK    2  A    between atoms: C9_9  and  C11_11 
REMARK    3  A    between atoms: C14_14  and  C15_15 
REMARK    4  A    between atoms: C20_20  and  N21_21 
ROOT
ATOM      1  C11 ZIN A   1      18.017  -3.503   5.236  0.00  0.00     0.035 A 
ATOM      2  C12 ZIN A   1      17.380  -2.852   4.174  0.00  0.00     0.018 A 
ATOM      3  C13 ZIN A   1      16.401  -3.507   3.456  0.00  0.00     0.017 A 
ATOM      4  C14 ZIN A   1      16.049  -4.805   3.785  0.00  0.00     0.050 A 
ATOM      5  C19 ZIN A   1      16.675  -5.456   4.835  0.00  0.00     0.053 A 
ATOM      6  C20 ZIN A   1      17.658  -4.817   5.559  0.00  0.00     0.116 A 
ENDROOT
BRANCH   1   7
ATOM      7  C9  ZIN A   1      19.062  -2.812   6.007  0.00  0.00     0.137 C 
ATOM      8  O10 ZIN A   1      20.243  -3.417   6.234  0.00  0.00    -0.190 OA
BRANCH   7   9
ATOM      9  C8  ZIN A   1      18.829  -1.525   6.503  0.00  0.00     0.093 C 
ATOM     10  C2  ZIN A   1      19.291  -0.401   5.780  0.00  0.00     0.166 C 
ATOM     11  O1  ZIN A   1      19.885  -0.559   4.733  0.00  0.00    -0.292 OA
ATOM     12  C3  ZIN A   1      19.046   0.992   6.299  0.00  0.00     0.084 C 
ATOM     13  C4  ZIN A   1      18.995   0.963   7.829  0.00  0.00     0.015 C 
ATOM     14  C5  ZIN A   1      17.879   0.016   8.277  0.00  0.00     0.084 C 
ATOM     15  C6  ZIN A   1      18.141  -1.362   7.729  0.00  0.00     0.166 C 
ATOM     16  O7  ZIN A   1      17.756  -2.338   8.340  0.00  0.00    -0.292 OA
ENDBRANCH   7   9
ENDBRANCH   1   7
BRANCH   6  17
ATOM     17  N21 ZIN A   1      18.326  -5.515   6.680  0.00  0.00    -0.115 N 
ATOM     18  O22 ZIN A   1      19.250  -6.276   6.459  0.00  0.00    -0.532 OA
ATOM     19  O23 ZIN A   1      17.950  -5.329   7.823  0.00  0.00    -0.532 OA
ENDBRANCH   6  17
BRANCH   4  20
ATOM     20  C15 ZIN A   1      14.978  -5.514   2.995  0.00  0.00     0.417 C 
ATOM     21  F16 ZIN A   1      14.454  -4.642   2.034  0.00  0.00    -0.166 F 
ATOM     22  F17 ZIN A   1      15.529  -6.632   2.360  0.00  0.00    -0.166 F 
ATOM     23  F18 ZIN A   1      13.957  -5.925   3.859  0.00  0.00    -0.166 F 
ENDBRANCH   4  20
TORSDOF 4
ENDMDL
MODEL 8
REMARK VINA RESULT:      -7.7      4.918      6.407
REMARK  4 active torsions:
REMARK  status: ('A' for Active; 'I' for Inactive)
REMARK    1  A    between atoms: C8_8  and  C9_9 
REMARK    2  A    between atoms: C9_9  and  C11_11 
REMARK    3  A    between atoms: C14_14  and  C15_15 
REMARK    4  A    between atoms: C20_20  and  N21_21 
ROOT
ATOM      1  C11 ZIN A   1      18.998   0.863   9.940  0.00  0.00     0.035 A 
ATOM      2  C12 ZIN A   1      19.264   1.707   8.856  0.00  0.00     0.018 A 
ATOM      3  C13 ZIN A   1      18.819   1.365   7.597  0.00  0.00     0.017 A 
ATOM      4  C14 ZIN A   1      18.112   0.192   7.403  0.00  0.00     0.050 A 
ATOM      5  C19 ZIN A   1      17.845  -0.649   8.471  0.00  0.00     0.053 A 
ATOM      6  C20 ZIN A   1      18.287  -0.325   9.736  0.00  0.00     0.116 A 
ENDROOT
BRANCH   1   7
ATOM      7  C9  ZIN A   1      19.470   1.220  11.288  0.00  0.00     0.137 C 
ATOM      8  O10 ZIN A   1      20.261   0.371  11.971  0.00  0.00    -0.190 OA
BRANCH   7   9
ATOM      9  C8  ZIN A   1      19.095   2.441  11.858  0.00  0.00     0.093 C 
ATOM     10  C2  ZIN A   1      20.032   3.498  11.927  0.00  0.00     0.166 C 
ATOM     11  O1  ZIN A   1      21.153   3.341  11.488  0.00  0.00    -0.292 OA
ATOM     12  C3  ZIN A   1      19.645   4.820  12.537  0.00  0.00     0.084 C 
ATOM     13  C4  ZIN A   1      18.583   4.592  13.615  0.00  0.00     0.015 C 
ATOM     14  C5  ZIN A   1      17.365   3.910  12.986  0.00  0.00     0.084 C 
ATOM     15  C6  ZIN A   1      17.786   2.602  12.370  0.00  0.00     0.166 C 
ATOM     16  O7  ZIN A   1      16.997   1.681  12.309  0.00  0.00    -0.292 OA
ENDBRANCH   7   9
ENDBRANCH   1   7
BRANCH   6  17
ATOM     17  N21 ZIN A   1      18.001  -1.225  10.875  0.00  0.00    -0.115 N 
ATOM     18  O22 ZIN A   1      17.001  -1.057  11.548  0.00  0.00    -0.532 OA
ATOM     19  O23 ZIN A   1      18.768  -2.134  11.140  0.00  0.00    -0.532 OA
ENDBRANCH   6  17
BRANCH   4  20
ATOM     20  C15 ZIN A   1      17.629  -0.174   6.023  0.00  0.00     0.417 C 
ATOM     21  F16 ZIN A   1      18.287   0.616   5.075  0.00  0.00    -0.166 F 
ATOM     22  F17 ZIN A   1      17.903  -1.524   5.775  0.00  0.00    -0.166 F 
ATOM     23  F18 ZIN A   1      16.250   0.045   5.937  0.00  0.00    -0.166 F 
ENDBRANCH   4  20
TORSDOF 4
ENDMDL
MODEL 9
REMARK VINA RESULT:      -7.6      5.125      6.831
REMARK  4 active torsions:
REMARK  status: ('A' for Active; 'I' for Inactive)
REMARK    1  A    between atoms: C8_8  and  C9_9 
REMARK    2  A    between atoms: C9_9  and  C11_11 
REMARK    3  A    between atoms: C14_14  and  C15_15 
REMARK    4  A    between atoms: C20_20  and  N21_21 
ROOT
ATOM      1  C11 ZIN A   1      18.018  -1.375   9.199  0.00  0.00     0.035 A 
ATOM      2  C12 ZIN A   1      17.847  -0.101   8.645  0.00  0.00     0.018 A 
ATOM      3  C13 ZIN A   1      18.129   0.110   7.312  0.00  0.00     0.017 A 
ATOM      4  C14 ZIN A   1      18.581  -0.934   6.523  0.00  0.00     0.050 A 
ATOM      5  C19 ZIN A   1      18.753  -2.197   7.065  0.00  0.00     0.053 A 
ATOM      6  C20 ZIN A   1      18.480  -2.423   8.396  0.00  0.00     0.116 A 
ENDROOT
BRANCH   1   7
ATOM      7  C9  ZIN A   1      17.719  -1.607  10.621  0.00  0.00     0.137 C 
ATOM      8  O10 ZIN A   1      17.004  -2.687  10.990  0.00  0.00    -0.190 OA
BRANCH   7   9
ATOM      9  C8  ZIN A   1      18.176  -0.706  11.588  0.00  0.00     0.093 C 
ATOM     10  C2  ZIN A   1      17.278   0.226  12.157  0.00  0.00     0.166 C 
ATOM     11  O1  ZIN A   1      16.116   0.238  11.804  0.00  0.00    -0.292 OA
ATOM     12  C3  ZIN A   1      17.754   1.203  13.201  0.00  0.00     0.084 C 
ATOM     13  C4  ZIN A   1      19.231   1.525  12.961  0.00  0.00     0.015 C 
ATOM     14  C5  ZIN A   1      20.045   0.230  13.022  0.00  0.00     0.084 C 
ATOM     15  C6  ZIN A   1      19.536  -0.731  11.980  0.00  0.00     0.166 C 
ATOM     16  O7  ZIN A   1      20.294  -1.534  11.477  0.00  0.00    -0.292 OA
ENDBRANCH   7   9
ENDBRANCH   1   7
BRANCH   6  17
ATOM     17  N21 ZIN A   1      18.665  -3.774   8.973  0.00  0.00    -0.115 N 
ATOM     18  O22 ZIN A   1      19.650  -4.019   9.645  0.00  0.00    -0.532 OA
ATOM     19  O23 ZIN A   1      17.832  -4.640   8.774  0.00  0.00    -0.532 OA
ENDBRANCH   6  17
BRANCH   4  20
ATOM     20  C15 ZIN A   1      18.887  -0.695   5.066  0.00  0.00     0.417 C 
ATOM     21  F16 ZIN A   1      19.629   0.484   4.935  0.00  0.00    -0.166 F 
ATOM     22  F17 ZIN A   1      19.627  -1.771   4.563  0.00  0.00    -0.166 F 
ATOM     23  F18 ZIN A   1      17.691  -0.577   4.351  0.00  0.00    -0.166 F 
ENDBRANCH   4  20
TORSDOF 4
ENDMDL
