MODEL 1
REMARK VINA RESULT:      -5.8      0.000      0.000
REMARK  7 active torsions:
REMARK  status: ('A' for Active; 'I' for Inactive)
REMARK    1  A    between atoms: C2_2  and  N4_4 
REMARK    2  A    between atoms: N4_4  and  C7_7 
REMARK    3  A    between atoms: C7_7  and  C8_8 
REMARK    4  A    between atoms: C8_8  and  O10_9 
REMARK    5  A    between atoms: C8_8  and  C11_10 
REMARK    6  A    between atoms: C13_12  and  O14_13 
REMARK    7  A    between atoms: C16_15  and  O17_16 
ROOT
ATOM      1  C11 <0> d   1      19.663   0.707  13.193  0.00  0.00    -0.023 A 
ATOM      2  C12 <0> d   1      19.612  -0.433  13.971  0.00  0.00     0.046 A 
ATOM      3  C13 <0> d   1      18.881  -0.438  15.150  0.00  0.00     0.069 A 
ATOM      4  C15 <0> d   1      18.201   0.703  15.547  0.00  0.00     0.073 A 
ATOM      5  C16 <0> d   1      18.253   1.846  14.765  0.00  0.00     0.069 A 
ATOM      6  C18 <0> d   1      18.991   1.848  13.590  0.00  0.00     0.046 A 
ENDROOT
BRANCH   1   7
ATOM      7  C8  <0> d   1      20.459   0.710  11.913  0.00  0.00     0.177 C 
BRANCH   7   8
ATOM      8  C7  <0> d   1      20.046  -0.488  11.055  0.00  0.00     0.269 C 
BRANCH   8   9
ATOM      9  N4  <0> d   1      20.609  -0.340   9.705  0.00  0.00    -0.069 N 
ATOM     10  H5  <0> d   1      21.104  -1.183   9.453  0.00  0.00     0.277 HD
ATOM     11  H6  <0> d   1      21.248   0.441   9.691  0.00  0.00     0.277 HD
BRANCH   9  12
ATOM     12  C2  <0> d   1      19.523  -0.103   8.745  0.00  0.00     0.178 C 
ATOM     13  C1  <0> d   1      18.199  -0.580   9.346  0.00  0.00     0.039 C 
ATOM     14  C3  <0> d   1      19.434   1.393   8.434  0.00  0.00     0.039 C 
ENDBRANCH   9  12
ENDBRANCH   8   9
ENDBRANCH   7   8
BRANCH   7  15
ATOM     15  O10 <0> d   1      21.851   0.621  12.218  0.00  0.00    -0.389 OA
ATOM     16  H28 <0> d   1      22.081   0.937  13.103  0.00  0.00     0.210 HD
ENDBRANCH   7  15
ENDBRANCH   1   7
BRANCH   5  17
ATOM     17  O17 <0> d   1      17.588   2.966  15.152  0.00  0.00    -0.361 OA
ATOM     18  H32 <0> d   1      17.295   2.953  16.074  0.00  0.00     0.217 HD
ENDBRANCH   5  17
BRANCH   3  19
ATOM     19  O14 <0> d   1      18.831  -1.560  15.916  0.00  0.00    -0.361 OA
ATOM     20  H30 <0> d   1      17.965  -1.727  16.312  0.00  0.00     0.217 HD
ENDBRANCH   3  19
TORSDOF 7
ENDMDL
MODEL 2
REMARK VINA RESULT:      -5.8      0.079      2.133
REMARK  7 active torsions:
REMARK  status: ('A' for Active; 'I' for Inactive)
REMARK    1  A    between atoms: C2_2  and  N4_4 
REMARK    2  A    between atoms: N4_4  and  C7_7 
REMARK    3  A    between atoms: C7_7  and  C8_8 
REMARK    4  A    between atoms: C8_8  and  O10_9 
REMARK    5  A    between atoms: C8_8  and  C11_10 
REMARK    6  A    between atoms: C13_12  and  O14_13 
REMARK    7  A    between atoms: C16_15  and  O17_16 
ROOT
ATOM      1  C11 <0> d   1      19.623   0.686  13.191  0.00  0.00    -0.023 A 
ATOM      2  C12 <0> d   1      18.984   1.837  13.609  0.00  0.00     0.046 A 
ATOM      3  C13 <0> d   1      18.234   1.831  14.776  0.00  0.00     0.069 A 
ATOM      4  C15 <0> d   1      18.126   0.670  15.524  0.00  0.00     0.073 A 
ATOM      5  C16 <0> d   1      18.768  -0.485  15.104  0.00  0.00     0.069 A 
ATOM      6  C18 <0> d   1      19.512  -0.476  13.932  0.00  0.00     0.046 A 
ENDROOT
BRANCH   1   7
ATOM      7  C8  <0> d   1      20.437   0.694  11.923  0.00  0.00     0.177 C 
BRANCH   7   8
ATOM      8  C7  <0> d   1      20.054  -0.514  11.065  0.00  0.00     0.269 C 
BRANCH   8   9
ATOM      9  N4  <0> d   1      20.626  -0.360   9.720  0.00  0.00    -0.069 N 
ATOM     10  H5  <0> d   1      21.136  -1.196   9.474  0.00  0.00     0.277 HD
ATOM     11  H6  <0> d   1      21.252   0.431   9.710  0.00  0.00     0.277 HD
BRANCH   9  12
ATOM     12  C2  <0> d   1      19.545  -0.142   8.751  0.00  0.00     0.178 C 
ATOM     13  C1  <0> d   1      18.223  -0.637   9.342  0.00  0.00     0.039 C 
ATOM     14  C3  <0> d   1      19.435   1.352   8.436  0.00  0.00     0.039 C 
ENDBRANCH   9  12
ENDBRANCH   8   9
ENDBRANCH   7   8
BRANCH   7  15
ATOM     15  O10 <0> d   1      21.826   0.626  12.249  0.00  0.00    -0.389 OA
ATOM     16  H28 <0> d   1      22.193  -0.268  12.225  0.00  0.00     0.210 HD
ENDBRANCH   7  15
ENDBRANCH   1   7
BRANCH   5  17
ATOM     17  O17 <0> d   1      18.663  -1.626  15.834  0.00  0.00    -0.361 OA
ATOM     18  H32 <0> d   1      18.355  -2.391  15.328  0.00  0.00     0.217 HD
ENDBRANCH   5  17
BRANCH   3  19
ATOM     19  O14 <0> d   1      17.605   2.964  15.187  0.00  0.00    -0.361 OA
ATOM     20  H30 <0> d   1      17.941   3.772  14.775  0.00  0.00     0.217 HD
ENDBRANCH   3  19
TORSDOF 7
ENDMDL
MODEL 3
REMARK VINA RESULT:      -5.8      3.206      5.741
REMARK  7 active torsions:
REMARK  status: ('A' for Active; 'I' for Inactive)
REMARK    1  A    between atoms: C2_2  and  N4_4 
REMARK    2  A    between atoms: N4_4  and  C7_7 
REMARK    3  A    between atoms: C7_7  and  C8_8 
REMARK    4  A    between atoms: C8_8  and  O10_9 
REMARK    5  A    between atoms: C8_8  and  C11_10 
REMARK    6  A    between atoms: C13_12  and  O14_13 
REMARK    7  A    between atoms: C16_15  and  O17_16 
ROOT
ATOM      1  C11 <0> d   1      18.565   1.018  14.031  0.00  0.00    -0.023 A 
ATOM      2  C12 <0> d   1      17.439   1.038  13.230  0.00  0.00     0.046 A 
ATOM      3  C13 <0> d   1      17.164  -0.032  12.391  0.00  0.00     0.069 A 
ATOM      4  C15 <0> d   1      18.019  -1.122  12.357  0.00  0.00     0.073 A 
ATOM      5  C16 <0> d   1      19.148  -1.141  13.162  0.00  0.00     0.069 A 
ATOM      6  C18 <0> d   1      19.422  -0.065  13.994  0.00  0.00     0.046 A 
ENDROOT
BRANCH   1   7
ATOM      7  C8  <0> d   1      18.862   2.182  14.941  0.00  0.00     0.177 C 
BRANCH   7   8
ATOM      8  C7  <0> d   1      19.095   1.669  16.364  0.00  0.00     0.269 C 
BRANCH   8   9
ATOM      9  N4  <0> d   1      17.800   1.465  17.029  0.00  0.00    -0.069 N 
ATOM     10  H5  <0> d   1      17.064   1.467  16.338  0.00  0.00     0.277 HD
ATOM     11  H6  <0> d   1      17.641   2.209  17.691  0.00  0.00     0.277 HD
BRANCH   9  12
ATOM     12  C2  <0> d   1      17.808   0.176  17.732  0.00  0.00     0.178 C 
ATOM     13  C1  <0> d   1      17.188  -0.898  16.836  0.00  0.00     0.039 C 
ATOM     14  C3  <0> d   1      19.250  -0.212  18.069  0.00  0.00     0.039 C 
ENDBRANCH   9  12
ENDBRANCH   8   9
ENDBRANCH   7   8
BRANCH   7  15
ATOM     15  O10 <0> d   1      17.755   3.085  14.935  0.00  0.00    -0.389 OA
ATOM     16  H28 <0> d   1      17.363   3.233  15.807  0.00  0.00     0.210 HD
ENDBRANCH   7  15
ENDBRANCH   1   7
BRANCH   5  17
ATOM     17  O17 <0> d   1      19.989  -2.207  13.130  0.00  0.00    -0.361 OA
ATOM     18  H32 <0> d   1      20.380  -2.375  12.261  0.00  0.00     0.217 HD
ENDBRANCH   5  17
BRANCH   3  19
ATOM     19  O14 <0> d   1      16.057  -0.012  11.603  0.00  0.00    -0.361 OA
ATOM     20  H30 <0> d   1      15.613   0.846  11.570  0.00  0.00     0.217 HD
ENDBRANCH   3  19
TORSDOF 7
ENDMDL
MODEL 4
REMARK VINA RESULT:      -5.7      2.794      6.033
REMARK  7 active torsions:
REMARK  status: ('A' for Active; 'I' for Inactive)
REMARK    1  A    between atoms: C2_2  and  N4_4 
REMARK    2  A    between atoms: N4_4  and  C7_7 
REMARK    3  A    between atoms: C7_7  and  C8_8 
REMARK    4  A    between atoms: C8_8  and  O10_9 
REMARK    5  A    between atoms: C8_8  and  C11_10 
REMARK    6  A    between atoms: C13_12  and  O14_13 
REMARK    7  A    between atoms: C16_15  and  O17_16 
ROOT
ATOM      1  C11 <0> d   1      19.681  -0.578   9.774  0.00  0.00    -0.023 A 
ATOM      2  C12 <0> d   1      19.648   0.608   9.066  0.00  0.00     0.046 A 
ATOM      3  C13 <0> d   1      18.980   0.675   7.852  0.00  0.00     0.069 A 
ATOM      4  C15 <0> d   1      18.345  -0.449   7.349  0.00  0.00     0.073 A 
ATOM      5  C16 <0> d   1      18.378  -1.639   8.061  0.00  0.00     0.069 A 
ATOM      6  C18 <0> d   1      19.053  -1.702   9.272  0.00  0.00     0.046 A 
ENDROOT
BRANCH   1   7
ATOM      7  C8  <0> d   1      20.407  -0.648  11.092  0.00  0.00     0.177 C 
BRANCH   7   8
ATOM      8  C7  <0> d   1      20.041   0.572  11.941  0.00  0.00     0.269 C 
BRANCH   8   9
ATOM      9  N4  <0> d   1      20.619   0.424  13.284  0.00  0.00    -0.069 N 
ATOM     10  H5  <0> d   1      21.156   1.249  13.511  0.00  0.00     0.277 HD
ATOM     11  H6  <0> d   1      21.221  -0.384  13.304  0.00  0.00     0.277 HD
BRANCH   9  12
ATOM     12  C2  <0> d   1      19.539   0.257  14.266  0.00  0.00     0.178 C 
ATOM     13  C1  <0> d   1      18.227   0.775  13.673  0.00  0.00     0.039 C 
ATOM     14  C3  <0> d   1      19.392  -1.226  14.614  0.00  0.00     0.039 C 
ENDBRANCH   9  12
ENDBRANCH   8   9
ENDBRANCH   7   8
BRANCH   7  15
ATOM     15  O10 <0> d   1      21.817  -0.661  10.859  0.00  0.00    -0.389 OA
ATOM     16  H28 <0> d   1      22.336  -0.246  11.561  0.00  0.00     0.210 HD
ENDBRANCH   7  15
ENDBRANCH   1   7
BRANCH   5  17
ATOM     17  O17 <0> d   1      17.757  -2.743   7.570  0.00  0.00    -0.361 OA
ATOM     18  H32 <0> d   1      16.893  -2.919   7.967  0.00  0.00     0.217 HD
ENDBRANCH   5  17
BRANCH   3  19
ATOM     19  O14 <0> d   1      18.949   1.841   7.155  0.00  0.00    -0.361 OA
ATOM     20  H30 <0> d   1      19.770   2.350   7.203  0.00  0.00     0.217 HD
ENDBRANCH   3  19
TORSDOF 7
ENDMDL
MODEL 5
REMARK VINA RESULT:      -5.7      3.202      5.464
REMARK  7 active torsions:
REMARK  status: ('A' for Active; 'I' for Inactive)
REMARK    1  A    between atoms: C2_2  and  N4_4 
REMARK    2  A    between atoms: N4_4  and  C7_7 
REMARK    3  A    between atoms: C7_7  and  C8_8 
REMARK    4  A    between atoms: C8_8  and  O10_9 
REMARK    5  A    between atoms: C8_8  and  C11_10 
REMARK    6  A    between atoms: C13_12  and  O14_13 
REMARK    7  A    between atoms: C16_15  and  O17_16 
ROOT
ATOM      1  C11 <0> d   1      18.525   1.005  13.977  0.00  0.00    -0.023 A 
ATOM      2  C12 <0> d   1      19.372  -0.086  13.943  0.00  0.00     0.046 A 
ATOM      3  C13 <0> d   1      19.092  -1.157  13.107  0.00  0.00     0.069 A 
ATOM      4  C15 <0> d   1      17.962  -1.133  12.305  0.00  0.00     0.073 A 
ATOM      5  C16 <0> d   1      17.114  -0.037  12.340  0.00  0.00     0.069 A 
ATOM      6  C18 <0> d   1      17.394   1.029  13.183  0.00  0.00     0.046 A 
ENDROOT
BRANCH   1   7
ATOM      7  C8  <0> d   1      18.830   2.167  14.886  0.00  0.00     0.177 C 
BRANCH   7   8
ATOM      8  C7  <0> d   1      19.108   1.648  16.299  0.00  0.00     0.269 C 
BRANCH   8   9
ATOM      9  N4  <0> d   1      17.841   1.523  17.033  0.00  0.00    -0.069 N 
ATOM     10  H5  <0> d   1      17.070   1.571  16.382  0.00  0.00     0.277 HD
ATOM     11  H6  <0> d   1      17.764   2.275  17.701  0.00  0.00     0.277 HD
BRANCH   9  12
ATOM     12  C2  <0> d   1      17.808   0.235  17.737  0.00  0.00     0.178 C 
ATOM     13  C1  <0> d   1      17.188  -0.827  16.827  0.00  0.00     0.039 C 
ATOM     14  C3  <0> d   1      19.234  -0.180  18.109  0.00  0.00     0.039 C 
ENDBRANCH   9  12
ENDBRANCH   8   9
ENDBRANCH   7   8
BRANCH   7  15
ATOM     15  O10 <0> d   1      17.711   3.055  14.916  0.00  0.00    -0.389 OA
ATOM     16  H28 <0> d   1      17.585   3.500  15.765  0.00  0.00     0.210 HD
ENDBRANCH   7  15
ENDBRANCH   1   7
BRANCH   5  17
ATOM     17  O17 <0> d   1      16.004  -0.011  11.556  0.00  0.00    -0.361 OA
ATOM     18  H32 <0> d   1      15.300   0.562  11.889  0.00  0.00     0.217 HD
ENDBRANCH   5  17
BRANCH   3  19
ATOM     19  O14 <0> d   1      19.926  -2.231  13.074  0.00  0.00    -0.361 OA
ATOM     20  H30 <0> d   1      19.643  -2.930  12.468  0.00  0.00     0.217 HD
ENDBRANCH   3  19
TORSDOF 7
ENDMDL
MODEL 6
REMARK VINA RESULT:      -5.7      2.091      3.253
REMARK  7 active torsions:
REMARK  status: ('A' for Active; 'I' for Inactive)
REMARK    1  A    between atoms: C2_2  and  N4_4 
REMARK    2  A    between atoms: N4_4  and  C7_7 
REMARK    3  A    between atoms: C7_7  and  C8_8 
REMARK    4  A    between atoms: C8_8  and  O10_9 
REMARK    5  A    between atoms: C8_8  and  C11_10 
REMARK    6  A    between atoms: C13_12  and  O14_13 
REMARK    7  A    between atoms: C16_15  and  O17_16 
ROOT
ATOM      1  C11 <0> d   1      18.166  -0.044  11.917  0.00  0.00    -0.023 A 
ATOM      2  C12 <0> d   1      19.474   0.236  11.573  0.00  0.00     0.046 A 
ATOM      3  C13 <0> d   1      20.433   0.398  12.562  0.00  0.00     0.069 A 
ATOM      4  C15 <0> d   1      20.079   0.279  13.896  0.00  0.00     0.073 A 
ATOM      5  C16 <0> d   1      18.765  -0.003  14.240  0.00  0.00     0.069 A 
ATOM      6  C18 <0> d   1      17.808  -0.158  13.247  0.00  0.00     0.046 A 
ENDROOT
BRANCH   1   7
ATOM      7  C8  <0> d   1      17.125  -0.219  10.841  0.00  0.00     0.177 C 
BRANCH   7   8
ATOM      8  C7  <0> d   1      17.447   0.708   9.666  0.00  0.00     0.269 C 
BRANCH   8   9
ATOM      9  N4  <0> d   1      17.586  -0.088   8.439  0.00  0.00    -0.069 N 
ATOM     10  H5  <0> d   1      16.736  -0.025   7.899  0.00  0.00     0.277 HD
ATOM     11  H6  <0> d   1      17.760  -1.051   8.681  0.00  0.00     0.277 HD
BRANCH   9  12
ATOM     12  C2  <0> d   1      18.709   0.429   7.645  0.00  0.00     0.178 C 
ATOM     13  C1  <0> d   1      18.263   0.618   6.194  0.00  0.00     0.039 C 
ATOM     14  C3  <0> d   1      19.163   1.774   8.219  0.00  0.00     0.039 C 
ENDBRANCH   9  12
ENDBRANCH   8   9
ENDBRANCH   7   8
BRANCH   7  15
ATOM     15  O10 <0> d   1      15.838   0.107  11.366  0.00  0.00    -0.389 OA
ATOM     16  H28 <0> d   1      15.258   0.557  10.737  0.00  0.00     0.210 HD
ENDBRANCH   7  15
ENDBRANCH   1   7
BRANCH   5  17
ATOM     17  O17 <0> d   1      18.414  -0.120  15.547  0.00  0.00    -0.361 OA
ATOM     18  H32 <0> d   1      18.238   0.724  15.985  0.00  0.00     0.217 HD
ENDBRANCH   5  17
BRANCH   3  19
ATOM     19  O14 <0> d   1      21.720   0.675  12.223  0.00  0.00    -0.361 OA
ATOM     20  H30 <0> d   1      22.367   0.064  12.604  0.00  0.00     0.217 HD
ENDBRANCH   3  19
TORSDOF 7
ENDMDL
MODEL 7
REMARK VINA RESULT:      -5.7      2.407      3.676
REMARK  7 active torsions:
REMARK  status: ('A' for Active; 'I' for Inactive)
REMARK    1  A    between atoms: C2_2  and  N4_4 
REMARK    2  A    between atoms: N4_4  and  C7_7 
REMARK    3  A    between atoms: C7_7  and  C8_8 
REMARK    4  A    between atoms: C8_8  and  O10_9 
REMARK    5  A    between atoms: C8_8  and  C11_10 
REMARK    6  A    between atoms: C13_12  and  O14_13 
REMARK    7  A    between atoms: C16_15  and  O17_16 
ROOT
ATOM      1  C11 <0> d   1      19.669   0.654  11.325  0.00  0.00    -0.023 A 
ATOM      2  C12 <0> d   1      18.677   1.455  10.792  0.00  0.00     0.046 A 
ATOM      3  C13 <0> d   1      17.986   2.340  11.607  0.00  0.00     0.069 A 
ATOM      4  C15 <0> d   1      18.291   2.422  12.956  0.00  0.00     0.073 A 
ATOM      5  C16 <0> d   1      19.287   1.618  13.489  0.00  0.00     0.069 A 
ATOM      6  C18 <0> d   1      19.971   0.729  12.671  0.00  0.00     0.046 A 
ENDROOT
BRANCH   1   7
ATOM      7  C8  <0> d   1      20.417  -0.307  10.438  0.00  0.00     0.177 C 
BRANCH   7   8
ATOM      8  C7  <0> d   1      19.668  -1.641  10.387  0.00  0.00     0.269 C 
BRANCH   8   9
ATOM      9  N4  <0> d   1      20.443  -2.665  11.102  0.00  0.00    -0.069 N 
ATOM     10  H5  <0> d   1      21.075  -2.216  11.749  0.00  0.00     0.277 HD
ATOM     11  H6  <0> d   1      20.972  -3.210  10.439  0.00  0.00     0.277 HD
BRANCH   9  12
ATOM     12  C2  <0> d   1      19.527  -3.544  11.842  0.00  0.00     0.178 C 
ATOM     13  C1  <0> d   1      18.284  -2.753  12.254  0.00  0.00     0.039 C 
ATOM     14  C3  <0> d   1      19.114  -4.716  10.949  0.00  0.00     0.039 C 
ENDBRANCH   9  12
ENDBRANCH   8   9
ENDBRANCH   7   8
BRANCH   7  15
ATOM     15  O10 <0> d   1      21.729  -0.517  10.964  0.00  0.00    -0.389 OA
ATOM     16  H28 <0> d   1      21.744  -0.754  11.901  0.00  0.00     0.210 HD
ENDBRANCH   7  15
ENDBRANCH   1   7
BRANCH   5  17
ATOM     17  O17 <0> d   1      19.588   1.694  14.812  0.00  0.00    -0.361 OA
ATOM     18  H32 <0> d   1      19.550   2.590  15.174  0.00  0.00     0.217 HD
ENDBRANCH   5  17
BRANCH   3  19
ATOM     19  O14 <0> d   1      17.009   3.127  11.083  0.00  0.00    -0.361 OA
ATOM     20  H30 <0> d   1      16.715   2.856  10.203  0.00  0.00     0.217 HD
ENDBRANCH   3  19
TORSDOF 7
ENDMDL
MODEL 8
REMARK VINA RESULT:      -5.7      2.531      5.267
REMARK  7 active torsions:
REMARK  status: ('A' for Active; 'I' for Inactive)
REMARK    1  A    between atoms: C2_2  and  N4_4 
REMARK    2  A    between atoms: N4_4  and  C7_7 
REMARK    3  A    between atoms: C7_7  and  C8_8 
REMARK    4  A    between atoms: C8_8  and  O10_9 
REMARK    5  A    between atoms: C8_8  and  C11_10 
REMARK    6  A    between atoms: C13_12  and  O14_13 
REMARK    7  A    between atoms: C16_15  and  O17_16 
ROOT
ATOM      1  C11 <0> d   1      19.799   1.269  11.249  0.00  0.00    -0.023 A 
ATOM      2  C12 <0> d   1      19.396   2.491  11.753  0.00  0.00     0.046 A 
ATOM      3  C13 <0> d   1      18.753   3.404  10.931  0.00  0.00     0.069 A 
ATOM      4  C15 <0> d   1      18.514   3.091   9.602  0.00  0.00     0.073 A 
ATOM      5  C16 <0> d   1      18.918   1.864   9.098  0.00  0.00     0.069 A 
ATOM      6  C18 <0> d   1      19.567   0.957   9.923  0.00  0.00     0.046 A 
ENDROOT
BRANCH   1   7
ATOM      7  C8  <0> d   1      20.499   0.279  12.144  0.00  0.00     0.177 C 
BRANCH   7   8
ATOM      8  C7  <0> d   1      19.871   0.323  13.539  0.00  0.00     0.269 C 
BRANCH   8   9
ATOM      9  N4  <0> d   1      19.818  -1.037  14.094  0.00  0.00    -0.069 N 
ATOM     10  H5  <0> d   1      20.620  -1.188  14.689  0.00  0.00     0.277 HD
ATOM     11  H6  <0> d   1      19.827  -1.708  13.342  0.00  0.00     0.277 HD
BRANCH   9  12
ATOM     12  C2  <0> d   1      18.588  -1.197  14.881  0.00  0.00     0.178 C 
ATOM     13  C1  <0> d   1      18.948  -1.388  16.356  0.00  0.00     0.039 C 
ATOM     14  C3  <0> d   1      17.717   0.052  14.725  0.00  0.00     0.039 C 
ENDBRANCH   9  12
ENDBRANCH   8   9
ENDBRANCH   7   8
BRANCH   7  15
ATOM     15  O10 <0> d   1      21.884   0.615  12.234  0.00  0.00    -0.389 OA
ATOM     16  H28 <0> d   1      22.258   0.511  13.120  0.00  0.00     0.210 HD
ENDBRANCH   7  15
ENDBRANCH   1   7
BRANCH   5  17
ATOM     17  O17 <0> d   1      18.687   1.554   7.795  0.00  0.00    -0.361 OA
ATOM     18  H32 <0> d   1      19.386   1.026   7.385  0.00  0.00     0.217 HD
ENDBRANCH   5  17
BRANCH   3  19
ATOM     19  O14 <0> d   1      18.357   4.606  11.427  0.00  0.00    -0.361 OA
ATOM     20  H30 <0> d   1      17.743   4.542  12.171  0.00  0.00     0.217 HD
ENDBRANCH   3  19
TORSDOF 7
ENDMDL
MODEL 9
REMARK VINA RESULT:      -5.7      2.409      3.323
REMARK  7 active torsions:
REMARK  status: ('A' for Active; 'I' for Inactive)
REMARK    1  A    between atoms: C2_2  and  N4_4 
REMARK    2  A    between atoms: N4_4  and  C7_7 
REMARK    3  A    between atoms: C7_7  and  C8_8 
REMARK    4  A    between atoms: C8_8  and  O10_9 
REMARK    5  A    between atoms: C8_8  and  C11_10 
REMARK    6  A    between atoms: C13_12  and  O14_13 
REMARK    7  A    between atoms: C16_15  and  O17_16 
ROOT
ATOM      1  C11 <0> d   1      19.663   0.650  11.306  0.00  0.00    -0.023 A 
ATOM      2  C12 <0> d   1      19.976   0.728  12.649  0.00  0.00     0.046 A 
ATOM      3  C13 <0> d   1      19.294   1.613  13.472  0.00  0.00     0.069 A 
ATOM      4  C15 <0> d   1      18.297   2.418  12.946  0.00  0.00     0.073 A 
ATOM      5  C16 <0> d   1      17.983   2.339  11.597  0.00  0.00     0.069 A 
ATOM      6  C18 <0> d   1      18.673   1.457  10.777  0.00  0.00     0.046 A 
ENDROOT
BRANCH   1   7
ATOM      7  C8  <0> d   1      20.406  -0.312  10.414  0.00  0.00     0.177 C 
BRANCH   7   8
ATOM      8  C7  <0> d   1      19.646  -1.638  10.351  0.00  0.00     0.269 C 
BRANCH   8   9
ATOM      9  N4  <0> d   1      20.378  -2.659  11.114  0.00  0.00    -0.069 N 
ATOM     10  H5  <0> d   1      21.038  -2.208  11.731  0.00  0.00     0.277 HD
ATOM     11  H6  <0> d   1      20.873  -3.264  10.477  0.00  0.00     0.277 HD
BRANCH   9  12
ATOM     12  C2  <0> d   1      19.429  -3.452  11.907  0.00  0.00     0.178 C 
ATOM     13  C1  <0> d   1      18.153  -2.640  12.135  0.00  0.00     0.039 C 
ATOM     14  C3  <0> d   1      19.087  -4.740  11.154  0.00  0.00     0.039 C 
ENDBRANCH   9  12
ENDBRANCH   8   9
ENDBRANCH   7   8
BRANCH   7  15
ATOM     15  O10 <0> d   1      21.714  -0.536  10.943  0.00  0.00    -0.389 OA
ATOM     16  H28 <0> d   1      22.277   0.250  10.949  0.00  0.00     0.210 HD
ENDBRANCH   7  15
ENDBRANCH   1   7
BRANCH   5  17
ATOM     17  O17 <0> d   1      17.007   3.128  11.078  0.00  0.00    -0.361 OA
ATOM     18  H32 <0> d   1      16.838   2.978  10.137  0.00  0.00     0.217 HD
ENDBRANCH   5  17
BRANCH   3  19
ATOM     19  O14 <0> d   1      19.602   1.690  14.793  0.00  0.00    -0.361 OA
ATOM     20  H30 <0> d   1      19.312   2.508  15.218  0.00  0.00     0.217 HD
ENDBRANCH   3  19
TORSDOF 7
ENDMDL
