MODEL 1
REMARK VINA RESULT:      -7.7      0.000      0.000
REMARK  6 active torsions:
REMARK  status: ('A' for Active; 'I' for Inactive)
REMARK    1  A    between atoms: C5_5  and  C6_6 
REMARK    2  A    between atoms: C6_6  and  O7_7 
REMARK    3  A    between atoms: O7_7  and  C8_8 
REMARK    4  A    between atoms: C8_8  and  C10_9 
REMARK    5  A    between atoms: C8_8  and  C17_16 
REMARK    6  A    between atoms: C10_9  and  N11_10 
ROOT
ATOM      1  C8  RES d   1      18.058   0.706  12.798  0.00  0.00     0.174 C 
ENDROOT
BRANCH   1   2
ATOM      2  O7  RES d   1      17.081   1.271  11.922  0.00  0.00    -0.375 OA
BRANCH   2   3
ATOM      3  C6  RES d   1      17.597   2.268  11.039  0.00  0.00     0.207 C 
BRANCH   3   4
ATOM      4  C5  RES d   1      17.977   1.632   9.728  0.00  0.00    -0.035 A 
ATOM      5  C4  RES d   1      17.294   0.517   9.276  0.00  0.00     0.011 A 
ATOM      6  C3  RES d   1      17.643  -0.067   8.073  0.00  0.00     0.024 A 
ATOM      7  C2  RES d   1      18.677   0.463   7.321  0.00  0.00     0.034 A 
ATOM      8 Cl1  RES d   1      19.114  -0.270   5.810  0.00  0.00    -0.084 Cl
ATOM      9  C26 RES d   1      19.364   1.574   7.776  0.00  0.00     0.024 A 
ATOM     10  C25 RES d   1      19.010   2.160   8.977  0.00  0.00     0.011 A 
ENDBRANCH   3   4
ENDBRANCH   2   3
ENDBRANCH   1   2
BRANCH   1  11
ATOM     11  C10 RES d   1      17.474   0.590  14.207  0.00  0.00     0.166 C 
BRANCH  11  12
ATOM     12  N11 RES d   1      18.265   1.402  15.133  0.00  0.00    -0.349 N 
ATOM     13  C16 RES d   1      18.946   2.528  14.830  0.00  0.00     0.182 A 
ATOM     14  N14 RES d   1      19.526   2.970  15.913  0.00  0.00    -0.361 N 
ATOM     15  C13 RES d   1      19.245   2.146  16.933  0.00  0.00     0.106 A 
ATOM     16  H15 RES d   1      20.076   3.767  15.970  0.00  0.00     0.166 HD
ATOM     17  C12 RES d   1      18.458   1.158  16.467  0.00  0.00     0.108 A 
ENDBRANCH  11  12
ENDBRANCH   1  11
BRANCH   1  18
ATOM     18  C17 RES d   1      18.448  -0.663  12.301  0.00  0.00    -0.006 A 
ATOM     19  C23 RES d   1      19.737  -0.895  11.854  0.00  0.00     0.044 A 
ATOM     20  C22 RES d   1      20.096  -2.152  11.403  0.00  0.00     0.048 A 
ATOM     21 Cl24 RES d   1      20.907   0.388  11.872  0.00  0.00    -0.084 Cl
ATOM     22  C20 RES d   1      19.163  -3.174  11.389  0.00  0.00     0.035 A 
ATOM     23  C19 RES d   1      17.873  -2.938  11.830  0.00  0.00     0.024 A 
ATOM     24 Cl21 RES d   1      19.611  -4.750  10.816  0.00  0.00    -0.084 Cl
ATOM     25  C18 RES d   1      17.516  -1.683  12.286  0.00  0.00     0.013 A 
ENDBRANCH   1  18
TORSDOF 6
ENDMDL
MODEL 2
REMARK VINA RESULT:      -7.6      2.656      5.787
REMARK  6 active torsions:
REMARK  status: ('A' for Active; 'I' for Inactive)
REMARK    1  A    between atoms: C5_5  and  C6_6 
REMARK    2  A    between atoms: C6_6  and  O7_7 
REMARK    3  A    between atoms: O7_7  and  C8_8 
REMARK    4  A    between atoms: C8_8  and  C10_9 
REMARK    5  A    between atoms: C8_8  and  C17_16 
REMARK    6  A    between atoms: C10_9  and  N11_10 
ROOT
ATOM      1  C8  RES d   1      19.126   1.359  10.939  0.00  0.00     0.174 C 
ENDROOT
BRANCH   1   2
ATOM      2  O7  RES d   1      20.211   0.539  11.377  0.00  0.00    -0.375 OA
BRANCH   2   3
ATOM      3  C6  RES d   1      20.718   0.884  12.667  0.00  0.00     0.207 C 
BRANCH   3   4
ATOM      4  C5  RES d   1      19.775   0.382  13.729  0.00  0.00    -0.035 A 
ATOM      5  C4  RES d   1      19.471  -0.966  13.804  0.00  0.00     0.011 A 
ATOM      6  C3  RES d   1      18.606  -1.427  14.778  0.00  0.00     0.024 A 
ATOM      7  C2  RES d   1      18.042  -0.539  15.678  0.00  0.00     0.034 A 
ATOM      8 Cl1  RES d   1      16.956  -1.118  16.902  0.00  0.00    -0.084 Cl
ATOM      9  C26 RES d   1      18.341   0.809  15.599  0.00  0.00     0.024 A 
ATOM     10  C25 RES d   1      19.211   1.268  14.627  0.00  0.00     0.011 A 
ENDBRANCH   3   4
ENDBRANCH   2   3
ENDBRANCH   1   2
BRANCH   1  11
ATOM     11  C10 RES d   1      19.575   2.820  10.899  0.00  0.00     0.166 C 
BRANCH  11  12
ATOM     12  N11 RES d   1      18.437   3.691  11.205  0.00  0.00    -0.349 N 
ATOM     13  C16 RES d   1      17.925   3.938  12.430  0.00  0.00     0.182 A 
ATOM     14  N14 RES d   1      16.920   4.761  12.304  0.00  0.00    -0.361 N 
ATOM     15  C13 RES d   1      16.753   5.060  11.007  0.00  0.00     0.106 A 
ATOM     16  H15 RES d   1      16.378   5.102  13.033  0.00  0.00     0.166 HD
ATOM     17  C12 RES d   1      17.692   4.401  10.302  0.00  0.00     0.108 A 
ENDBRANCH  11  12
ENDBRANCH   1  11
BRANCH   1  18
ATOM     18  C17 RES d   1      18.694   0.928   9.561  0.00  0.00    -0.006 A 
ATOM     19  C23 RES d   1      17.741  -0.065   9.414  0.00  0.00     0.044 A 
ATOM     20  C22 RES d   1      17.340  -0.458   8.150  0.00  0.00     0.048 A 
ATOM     21 Cl24 RES d   1      17.040  -0.811  10.817  0.00  0.00    -0.084 Cl
ATOM     22  C20 RES d   1      17.900   0.136   7.032  0.00  0.00     0.035 A 
ATOM     23  C19 RES d   1      18.857   1.125   7.181  0.00  0.00     0.024 A 
ATOM     24 Cl21 RES d   1      17.403  -0.360   5.445  0.00  0.00    -0.084 Cl
ATOM     25  C18 RES d   1      19.253   1.520   8.445  0.00  0.00     0.013 A 
ENDBRANCH   1  18
TORSDOF 6
ENDMDL
MODEL 3
REMARK VINA RESULT:      -7.5      3.260      6.192
REMARK  6 active torsions:
REMARK  status: ('A' for Active; 'I' for Inactive)
REMARK    1  A    between atoms: C5_5  and  C6_6 
REMARK    2  A    between atoms: C6_6  and  O7_7 
REMARK    3  A    between atoms: O7_7  and  C8_8 
REMARK    4  A    between atoms: C8_8  and  C10_9 
REMARK    5  A    between atoms: C8_8  and  C17_16 
REMARK    6  A    between atoms: C10_9  and  N11_10 
ROOT
ATOM      1  C8  RES d   1      19.741  -0.428  10.822  0.00  0.00     0.174 C 
ENDROOT
BRANCH   1   2
ATOM      2  O7  RES d   1      20.819  -0.129  11.712  0.00  0.00    -0.375 OA
BRANCH   2   3
ATOM      3  C6  RES d   1      20.541   0.933  12.627  0.00  0.00     0.207 C 
BRANCH   3   4
ATOM      4  C5  RES d   1      19.648   0.426  13.728  0.00  0.00    -0.035 A 
ATOM      5  C4  RES d   1      18.505   1.126  14.069  0.00  0.00     0.011 A 
ATOM      6  C3  RES d   1      17.685   0.662  15.080  0.00  0.00     0.024 A 
ATOM      7  C2  RES d   1      18.009  -0.505  15.752  0.00  0.00     0.034 A 
ATOM      8 Cl1  RES d   1      16.979  -1.089  17.021  0.00  0.00    -0.084 Cl
ATOM      9  C26 RES d   1      19.155  -1.201  15.415  0.00  0.00     0.024 A 
ATOM     10  C25 RES d   1      19.971  -0.738  14.400  0.00  0.00     0.011 A 
ENDBRANCH   3   4
ENDBRANCH   2   3
ENDBRANCH   1   2
BRANCH   1  11
ATOM     11  C10 RES d   1      20.256  -0.438   9.382  0.00  0.00     0.166 C 
BRANCH  11  12
ATOM     12  N11 RES d   1      19.126  -0.577   8.459  0.00  0.00    -0.349 N 
ATOM     13  C16 RES d   1      18.792  -1.684   7.763  0.00  0.00     0.182 A 
ATOM     14  N14 RES d   1      17.729  -1.426   7.051  0.00  0.00    -0.361 N 
ATOM     15  C13 RES d   1      17.355  -0.155   7.260  0.00  0.00     0.106 A 
ATOM     16  H15 RES d   1      17.282  -2.053   6.462  0.00  0.00     0.166 HD
ATOM     17  C12 RES d   1      18.217   0.395   8.138  0.00  0.00     0.108 A 
ENDBRANCH  11  12
ENDBRANCH   1  11
BRANCH   1  18
ATOM     18  C17 RES d   1      19.169  -1.780  11.162  0.00  0.00    -0.006 A 
ATOM     19  C23 RES d   1      17.818  -1.912  11.430  0.00  0.00     0.044 A 
ATOM     20  C22 RES d   1      17.292  -3.154  11.736  0.00  0.00     0.048 A 
ATOM     21 Cl24 RES d   1      16.780  -0.521  11.370  0.00  0.00    -0.084 Cl
ATOM     22  C20 RES d   1      18.120  -4.262  11.784  0.00  0.00     0.035 A 
ATOM     23  C19 RES d   1      19.472  -4.127  11.522  0.00  0.00     0.024 A 
ATOM     24 Cl21 RES d   1      17.463  -5.820  12.176  0.00  0.00    -0.084 Cl
ATOM     25  C18 RES d   1      19.996  -2.887  11.211  0.00  0.00     0.013 A 
ENDBRANCH   1  18
TORSDOF 6
ENDMDL
MODEL 4
REMARK VINA RESULT:      -7.3      3.432      5.559
REMARK  6 active torsions:
REMARK  status: ('A' for Active; 'I' for Inactive)
REMARK    1  A    between atoms: C5_5  and  C6_6 
REMARK    2  A    between atoms: C6_6  and  O7_7 
REMARK    3  A    between atoms: O7_7  and  C8_8 
REMARK    4  A    between atoms: C8_8  and  C10_9 
REMARK    5  A    between atoms: C8_8  and  C17_16 
REMARK    6  A    between atoms: C10_9  and  N11_10 
ROOT
ATOM      1  C8  RES d   1      19.033  -1.654  11.805  0.00  0.00     0.174 C 
ENDROOT
BRANCH   1   2
ATOM      2  O7  RES d   1      20.274  -1.061  11.414  0.00  0.00    -0.375 OA
BRANCH   2   3
ATOM      3  C6  RES d   1      20.231  -0.403  10.147  0.00  0.00     0.207 C 
BRANCH   3   4
ATOM      4  C5  RES d   1      19.618   0.963  10.310  0.00  0.00    -0.035 A 
ATOM      5  C4  RES d   1      19.905   1.721  11.431  0.00  0.00     0.011 A 
ATOM      6  C3  RES d   1      19.343   2.974  11.582  0.00  0.00     0.024 A 
ATOM      7  C2  RES d   1      18.491   3.471  10.610  0.00  0.00     0.034 A 
ATOM      8 Cl1  RES d   1      17.785   5.045  10.798  0.00  0.00    -0.084 Cl
ATOM      9  C26 RES d   1      18.199   2.710   9.492  0.00  0.00     0.024 A 
ATOM     10  C25 RES d   1      18.766   1.459   9.341  0.00  0.00     0.011 A 
ENDBRANCH   3   4
ENDBRANCH   2   3
ENDBRANCH   1   2
BRANCH   1  11
ATOM     11  C10 RES d   1      19.167  -3.177  11.786  0.00  0.00     0.166 C 
BRANCH  11  12
ATOM     12  N11 RES d   1      18.213  -3.740  10.827  0.00  0.00    -0.349 N 
ATOM     13  C16 RES d   1      18.074  -3.384   9.532  0.00  0.00     0.182 A 
ATOM     14  N14 RES d   1      17.125  -4.105   9.000  0.00  0.00    -0.361 N 
ATOM     15  C13 RES d   1      16.624  -4.933   9.929  0.00  0.00     0.106 A 
ATOM     16  H15 RES d   1      16.827  -4.049   8.079  0.00  0.00     0.166 HD
ATOM     17  C12 RES d   1      17.291  -4.720  11.080  0.00  0.00     0.108 A 
ENDBRANCH  11  12
ENDBRANCH   1  11
BRANCH   1  18
ATOM     18  C17 RES d   1      18.676  -1.198  13.197  0.00  0.00    -0.006 A 
ATOM     19  C23 RES d   1      17.596  -0.355  13.392  0.00  0.00     0.044 A 
ATOM     20  C22 RES d   1      17.264   0.058  14.669  0.00  0.00     0.048 A 
ATOM     21 Cl24 RES d   1      16.650   0.173  12.036  0.00  0.00    -0.084 Cl
ATOM     22  C20 RES d   1      18.019  -0.363  15.750  0.00  0.00     0.035 A 
ATOM     23  C19 RES d   1      19.102  -1.201  15.552  0.00  0.00     0.024 A 
ATOM     24 Cl21 RES d   1      17.608   0.162  17.353  0.00  0.00    -0.084 Cl
ATOM     25  C18 RES d   1      19.430  -1.618  14.276  0.00  0.00     0.013 A 
ENDBRANCH   1  18
TORSDOF 6
ENDMDL
MODEL 5
REMARK VINA RESULT:      -7.2      2.367      2.909
REMARK  6 active torsions:
REMARK  status: ('A' for Active; 'I' for Inactive)
REMARK    1  A    between atoms: C5_5  and  C6_6 
REMARK    2  A    between atoms: C6_6  and  O7_7 
REMARK    3  A    between atoms: O7_7  and  C8_8 
REMARK    4  A    between atoms: C8_8  and  C10_9 
REMARK    5  A    between atoms: C8_8  and  C17_16 
REMARK    6  A    between atoms: C10_9  and  N11_10 
ROOT
ATOM      1  C8  RES d   1      18.016   2.241  12.111  0.00  0.00     0.174 C 
ENDROOT
BRANCH   1   2
ATOM      2  O7  RES d   1      17.049   1.689  11.216  0.00  0.00    -0.375 OA
BRANCH   2   3
ATOM      3  C6  RES d   1      17.364   0.373  10.758  0.00  0.00     0.207 C 
BRANCH   3   4
ATOM      4  C5  RES d   1      17.825   0.436   9.326  0.00  0.00    -0.035 A 
ATOM      5  C4  RES d   1      17.250  -0.390   8.377  0.00  0.00     0.011 A 
ATOM      6  C3  RES d   1      17.673  -0.332   7.062  0.00  0.00     0.024 A 
ATOM      7  C2  RES d   1      18.673   0.552   6.696  0.00  0.00     0.034 A 
ATOM      8 Cl1  RES d   1      19.203   0.625   5.045  0.00  0.00    -0.084 Cl
ATOM      9  C26 RES d   1      19.252   1.374   7.646  0.00  0.00     0.024 A 
ATOM     10  C25 RES d   1      18.824   1.318   8.959  0.00  0.00     0.011 A 
ENDBRANCH   3   4
ENDBRANCH   2   3
ENDBRANCH   1   2
BRANCH   1  11
ATOM     11  C10 RES d   1      17.475   3.540  12.710  0.00  0.00     0.166 C 
BRANCH  11  12
ATOM     12  N11 RES d   1      18.561   4.265  13.373  0.00  0.00    -0.349 N 
ATOM     13  C16 RES d   1      19.700   4.705  12.795  0.00  0.00     0.182 A 
ATOM     14  N14 RES d   1      20.423   5.305  13.701  0.00  0.00    -0.361 N 
ATOM     15  C13 RES d   1      19.782   5.263  14.879  0.00  0.00     0.106 A 
ATOM     16  H15 RES d   1      21.288   5.715  13.548  0.00  0.00     0.166 HD
ATOM     17  C12 RES d   1      18.615   4.616  14.695  0.00  0.00     0.108 A 
ENDBRANCH  11  12
ENDBRANCH   1  11
BRANCH   1  18
ATOM     18  C17 RES d   1      18.298   1.257  13.218  0.00  0.00    -0.006 A 
ATOM     19  C23 RES d   1      19.507   0.585  13.255  0.00  0.00     0.044 A 
ATOM     20  C22 RES d   1      19.767  -0.314  14.272  0.00  0.00     0.048 A 
ATOM     21 Cl24 RES d   1      20.702   0.880  12.030  0.00  0.00    -0.084 Cl
ATOM     22  C20 RES d   1      18.814  -0.549  15.248  0.00  0.00     0.035 A 
ATOM     23  C19 RES d   1      17.603   0.119  15.206  0.00  0.00     0.024 A 
ATOM     24 Cl21 RES d   1      19.137  -1.683  16.522  0.00  0.00    -0.084 Cl
ATOM     25  C18 RES d   1      17.345   1.021  14.191  0.00  0.00     0.013 A 
ENDBRANCH   1  18
TORSDOF 6
ENDMDL
MODEL 6
REMARK VINA RESULT:      -7.2      2.546      5.120
REMARK  6 active torsions:
REMARK  status: ('A' for Active; 'I' for Inactive)
REMARK    1  A    between atoms: C5_5  and  C6_6 
REMARK    2  A    between atoms: C6_6  and  O7_7 
REMARK    3  A    between atoms: O7_7  and  C8_8 
REMARK    4  A    between atoms: C8_8  and  C10_9 
REMARK    5  A    between atoms: C8_8  and  C17_16 
REMARK    6  A    between atoms: C10_9  and  N11_10 
ROOT
ATOM      1  C8  RES d   1      19.149   1.577  11.091  0.00  0.00     0.174 C 
ENDROOT
BRANCH   1   2
ATOM      2  O7  RES d   1      20.276   0.818  11.532  0.00  0.00    -0.375 OA
BRANCH   2   3
ATOM      3  C6  RES d   1      20.023   0.017  12.687  0.00  0.00     0.207 C 
BRANCH   3   4
ATOM      4  C5  RES d   1      19.500  -1.330  12.260  0.00  0.00    -0.035 A 
ATOM      5  C4  RES d   1      18.489  -1.939  12.980  0.00  0.00     0.011 A 
ATOM      6  C3  RES d   1      18.009  -3.175  12.589  0.00  0.00     0.024 A 
ATOM      7  C2  RES d   1      18.541  -3.802  11.476  0.00  0.00     0.034 A 
ATOM      8 Cl1  RES d   1      17.938  -5.354  10.983  0.00  0.00    -0.084 Cl
ATOM      9  C26 RES d   1      19.557  -3.195  10.759  0.00  0.00     0.024 A 
ATOM     10  C25 RES d   1      20.032  -1.957  11.149  0.00  0.00     0.011 A 
ENDBRANCH   3   4
ENDBRANCH   2   3
ENDBRANCH   1   2
BRANCH   1  11
ATOM     11  C10 RES d   1      19.519   3.060  11.043  0.00  0.00     0.166 C 
BRANCH  11  12
ATOM     12  N11 RES d   1      18.323   3.871  11.279  0.00  0.00    -0.349 N 
ATOM     13  C16 RES d   1      17.720   4.081  12.469  0.00  0.00     0.182 A 
ATOM     14  N14 RES d   1      16.686   4.857  12.283  0.00  0.00    -0.361 N 
ATOM     15  C13 RES d   1      16.590   5.161  10.980  0.00  0.00     0.106 A 
ATOM     16  H15 RES d   1      16.082   5.163  12.977  0.00  0.00     0.166 HD
ATOM     17  C12 RES d   1      17.605   4.554  10.334  0.00  0.00     0.108 A 
ENDBRANCH  11  12
ENDBRANCH   1  11
BRANCH   1  18
ATOM     18  C17 RES d   1      18.740   1.116   9.715  0.00  0.00    -0.006 A 
ATOM     19  C23 RES d   1      17.583   0.376   9.550  0.00  0.00     0.044 A 
ATOM     20  C22 RES d   1      17.204  -0.043   8.287  0.00  0.00     0.048 A 
ATOM     21 Cl24 RES d   1      16.599  -0.017  10.926  0.00  0.00    -0.084 Cl
ATOM     22  C20 RES d   1      17.989   0.270   7.191  0.00  0.00     0.035 A 
ATOM     23  C19 RES d   1      19.149   1.005   7.359  0.00  0.00     0.024 A 
ATOM     24 Cl21 RES d   1      17.519  -0.261   5.607  0.00  0.00    -0.084 Cl
ATOM     25  C18 RES d   1      19.524   1.428   8.621  0.00  0.00     0.013 A 
ENDBRANCH   1  18
TORSDOF 6
ENDMDL
MODEL 7
REMARK VINA RESULT:      -7.1      3.321      7.146
REMARK  6 active torsions:
REMARK  status: ('A' for Active; 'I' for Inactive)
REMARK    1  A    between atoms: C5_5  and  C6_6 
REMARK    2  A    between atoms: C6_6  and  O7_7 
REMARK    3  A    between atoms: O7_7  and  C8_8 
REMARK    4  A    between atoms: C8_8  and  C10_9 
REMARK    5  A    between atoms: C8_8  and  C17_16 
REMARK    6  A    between atoms: C10_9  and  N11_10 
ROOT
ATOM      1  C8  RES d   1      18.887  -0.302  11.127  0.00  0.00     0.174 C 
ENDROOT
BRANCH   1   2
ATOM      2  O7  RES d   1      19.693  -0.425  12.301  0.00  0.00    -0.375 OA
BRANCH   2   3
ATOM      3  C6  RES d   1      19.191  -1.362  13.256  0.00  0.00     0.207 C 
BRANCH   3   4
ATOM      4  C5  RES d   1      19.097  -0.701  14.607  0.00  0.00    -0.035 A 
ATOM      5  C4  RES d   1      19.289   0.663  14.725  0.00  0.00     0.011 A 
ATOM      6  C3  RES d   1      19.203   1.269  15.964  0.00  0.00     0.024 A 
ATOM      7  C2  RES d   1      18.924   0.509  17.087  0.00  0.00     0.034 A 
ATOM      8 Cl1  RES d   1      18.814   1.270  18.643  0.00  0.00    -0.084 Cl
ATOM      9  C26 RES d   1      18.738  -0.856  16.969  0.00  0.00     0.024 A 
ATOM     10  C25 RES d   1      18.819  -1.460  15.728  0.00  0.00     0.011 A 
ENDBRANCH   3   4
ENDBRANCH   2   3
ENDBRANCH   1   2
BRANCH   1  11
ATOM     11  C10 RES d   1      17.636  -1.168  11.275  0.00  0.00     0.166 C 
BRANCH  11  12
ATOM     12  N11 RES d   1      17.715  -2.304  10.353  0.00  0.00    -0.349 N 
ATOM     13  C16 RES d   1      17.481  -3.599  10.656  0.00  0.00     0.182 A 
ATOM     14  N14 RES d   1      17.648  -4.317   9.578  0.00  0.00    -0.361 N 
ATOM     15  C13 RES d   1      17.997  -3.514   8.562  0.00  0.00     0.106 A 
ATOM     16  H15 RES d   1      17.539  -5.278   9.522  0.00  0.00     0.166 HD
ATOM     17  C12 RES d   1      18.045  -2.250   9.025  0.00  0.00     0.108 A 
ENDBRANCH  11  12
ENDBRANCH   1  11
BRANCH   1  18
ATOM     18  C17 RES d   1      18.483   1.138  10.943  0.00  0.00    -0.006 A 
ATOM     19  C23 RES d   1      18.793   1.798   9.767  0.00  0.00     0.044 A 
ATOM     20  C22 RES d   1      18.418   3.118   9.595  0.00  0.00     0.048 A 
ATOM     21 Cl24 RES d   1      19.641   0.966   8.501  0.00  0.00    -0.084 Cl
ATOM     22  C20 RES d   1      17.742   3.782  10.604  0.00  0.00     0.035 A 
ATOM     23  C19 RES d   1      17.439   3.122  11.782  0.00  0.00     0.024 A 
ATOM     24 Cl21 RES d   1      17.277   5.440  10.393  0.00  0.00    -0.084 Cl
ATOM     25  C18 RES d   1      17.810   1.801  11.951  0.00  0.00     0.013 A 
ENDBRANCH   1  18
TORSDOF 6
ENDMDL
MODEL 8
REMARK VINA RESULT:      -7.1      2.685      5.163
REMARK  6 active torsions:
REMARK  status: ('A' for Active; 'I' for Inactive)
REMARK    1  A    between atoms: C5_5  and  C6_6 
REMARK    2  A    between atoms: C6_6  and  O7_7 
REMARK    3  A    between atoms: O7_7  and  C8_8 
REMARK    4  A    between atoms: C8_8  and  C10_9 
REMARK    5  A    between atoms: C8_8  and  C17_16 
REMARK    6  A    between atoms: C10_9  and  N11_10 
ROOT
ATOM      1  C8  RES d   1      18.801   1.616  12.317  0.00  0.00     0.174 C 
ENDROOT
BRANCH   1   2
ATOM      2  O7  RES d   1      18.368   2.031  11.020  0.00  0.00    -0.375 OA
BRANCH   2   3
ATOM      3  C6  RES d   1      17.448   1.133  10.397  0.00  0.00     0.207 C 
BRANCH   3   4
ATOM      4  C5  RES d   1      17.877   0.878   8.976  0.00  0.00    -0.035 A 
ATOM      5  C4  RES d   1      17.283  -0.134   8.245  0.00  0.00     0.011 A 
ATOM      6  C3  RES d   1      17.676  -0.368   6.941  0.00  0.00     0.024 A 
ATOM      7  C2  RES d   1      18.665   0.412   6.367  0.00  0.00     0.034 A 
ATOM      8 Cl1  RES d   1      19.158   0.119   4.728  0.00  0.00    -0.084 Cl
ATOM      9  C26 RES d   1      19.262   1.421   7.100  0.00  0.00     0.024 A 
ATOM     10  C25 RES d   1      18.864   1.657   8.402  0.00  0.00     0.011 A 
ENDBRANCH   3   4
ENDBRANCH   2   3
ENDBRANCH   1   2
BRANCH   1  11
ATOM     11  C10 RES d   1      20.175   0.954  12.209  0.00  0.00     0.166 C 
BRANCH  11  12
ATOM     12  N11 RES d   1      20.010  -0.474  11.924  0.00  0.00    -0.349 N 
ATOM     13  C16 RES d   1      20.440  -1.126  10.823  0.00  0.00     0.182 A 
ATOM     14  N14 RES d   1      20.111  -2.385  10.928  0.00  0.00    -0.361 N 
ATOM     15  C13 RES d   1      19.459  -2.577  12.084  0.00  0.00     0.106 A 
ATOM     16  H15 RES d   1      20.305  -3.072  10.272  0.00  0.00     0.166 HD
ATOM     17  C12 RES d   1      19.385  -1.394  12.723  0.00  0.00     0.108 A 
ENDBRANCH  11  12
ENDBRANCH   1  11
BRANCH   1  18
ATOM     18  C17 RES d   1      18.890   2.815  13.225  0.00  0.00    -0.006 A 
ATOM     19  C23 RES d   1      18.542   2.700  14.559  0.00  0.00     0.044 A 
ATOM     20  C22 RES d   1      18.629   3.799  15.394  0.00  0.00     0.048 A 
ATOM     21 Cl24 RES d   1      18.008   1.173  15.189  0.00  0.00    -0.084 Cl
ATOM     22  C20 RES d   1      19.055   5.017  14.891  0.00  0.00     0.035 A 
ATOM     23  C19 RES d   1      19.396   5.131  13.556  0.00  0.00     0.024 A 
ATOM     24 Cl21 RES d   1      19.158   6.398  15.937  0.00  0.00    -0.084 Cl
ATOM     25  C18 RES d   1      19.314   4.031  12.723  0.00  0.00     0.013 A 
ENDBRANCH   1  18
TORSDOF 6
ENDMDL
MODEL 9
REMARK VINA RESULT:      -7.1      3.581      6.037
REMARK  6 active torsions:
REMARK  status: ('A' for Active; 'I' for Inactive)
REMARK    1  A    between atoms: C5_5  and  C6_6 
REMARK    2  A    between atoms: C6_6  and  O7_7 
REMARK    3  A    between atoms: O7_7  and  C8_8 
REMARK    4  A    between atoms: C8_8  and  C10_9 
REMARK    5  A    between atoms: C8_8  and  C17_16 
REMARK    6  A    between atoms: C10_9  and  N11_10 
ROOT
ATOM      1  C8  RES d   1      18.916   0.452  10.492  0.00  0.00     0.174 C 
ENDROOT
BRANCH   1   2
ATOM      2  O7  RES d   1      19.556   1.724  10.375  0.00  0.00    -0.375 OA
BRANCH   2   3
ATOM      3  C6  RES d   1      18.727   2.743   9.813  0.00  0.00     0.207 C 
BRANCH   3   4
ATOM      4  C5  RES d   1      18.290   3.692  10.898  0.00  0.00    -0.035 A 
ATOM      5  C4  RES d   1      17.033   4.266  10.850  0.00  0.00     0.011 A 
ATOM      6  C3  RES d   1      16.631   5.137  11.846  0.00  0.00     0.024 A 
ATOM      7  C2  RES d   1      17.488   5.433  12.891  0.00  0.00     0.034 A 
ATOM      8 Cl1  RES d   1      16.984   6.525  14.143  0.00  0.00    -0.084 Cl
ATOM      9  C26 RES d   1      18.747   4.862  12.936  0.00  0.00     0.024 A 
ATOM     10  C25 RES d   1      19.145   3.988  11.942  0.00  0.00     0.011 A 
ENDBRANCH   3   4
ENDBRANCH   2   3
ENDBRANCH   1   2
BRANCH   1  11
ATOM     11  C10 RES d   1      19.597  -0.549   9.558  0.00  0.00     0.166 C 
BRANCH  11  12
ATOM     12  N11 RES d   1      18.808  -0.690   8.332  0.00  0.00    -0.349 N 
ATOM     13  C16 RES d   1      17.533  -0.284   8.148  0.00  0.00     0.182 A 
ATOM     14  N14 RES d   1      17.172  -0.578   6.929  0.00  0.00    -0.361 N 
ATOM     15  C13 RES d   1      18.190  -1.185   6.300  0.00  0.00     0.106 A 
ATOM     16  H15 RES d   1      16.304  -0.391   6.540  0.00  0.00     0.166 HD
ATOM     17  C12 RES d   1      19.223  -1.265   7.161  0.00  0.00     0.108 A 
ENDBRANCH  11  12
ENDBRANCH   1  11
BRANCH   1  18
ATOM     18  C17 RES d   1      19.021  -0.035  11.914  0.00  0.00    -0.006 A 
ATOM     19  C23 RES d   1      18.306  -1.148  12.319  0.00  0.00     0.044 A 
ATOM     20  C22 RES d   1      18.407  -1.598  13.623  0.00  0.00     0.048 A 
ATOM     21 Cl24 RES d   1      17.291  -1.987  11.187  0.00  0.00    -0.084 Cl
ATOM     22  C20 RES d   1      19.215  -0.928  14.525  0.00  0.00     0.035 A 
ATOM     23  C19 RES d   1      19.925   0.188  14.120  0.00  0.00     0.024 A 
ATOM     24 Cl21 RES d   1      19.337  -1.488  16.163  0.00  0.00    -0.084 Cl
ATOM     25  C18 RES d   1      19.828   0.635  12.815  0.00  0.00     0.013 A 
ENDBRANCH   1  18
TORSDOF 6
ENDMDL
