MODEL 1
REMARK VINA RESULT:      -9.5      0.000      0.000
REMARK  7 active torsions:
REMARK  status: ('A' for Active; 'I' for Inactive)
REMARK    1  A    between atoms: C7_7  and  C8_8 
REMARK    2  A    between atoms: C10_10  and  N11_11 
REMARK    3  A    between atoms: C21_21  and  N22_22 
REMARK       I    between atoms: N22_22  and  C24_24 
REMARK    4  A    between atoms: C24_24  and  C26_26 
REMARK    5  A    between atoms: C26_26  and  C29_29 
REMARK    6  A    between atoms: C31_31  and  C32_32 
REMARK    7  A    between atoms: C37_37  and  C38_38 
ROOT
ATOM      1  C8  ZIN A   1      18.021   0.964  11.100  0.00  0.00     0.006 A 
ATOM      2  C9  ZIN A   1      17.598   2.201  11.582  0.00  0.00     0.059 A 
ATOM      3  C10 ZIN A   1      17.637   2.441  12.949  0.00  0.00     0.106 A 
ATOM      4  N19 ZIN A   1      18.070   1.514  13.790  0.00  0.00    -0.246 NA
ATOM      5  C20 ZIN A   1      18.479   0.330  13.374  0.00  0.00     0.149 A 
ATOM      6  C21 ZIN A   1      18.467   0.006  12.027  0.00  0.00     0.065 A 
ENDROOT
BRANCH   6   7
ATOM      7  N22 ZIN A   1      18.903  -1.252  11.595  0.00  0.00    -0.319 N 
ATOM      8  C23 ZIN A   1      20.260  -1.413  11.065  0.00  0.00     0.159 C 
ATOM      9  C24 ZIN A   1      18.077  -2.313  11.666  0.00  0.00     0.236 C 
ATOM     10  O25 ZIN A   1      16.926  -2.163  12.015  0.00  0.00    -0.272 OA
BRANCH   9  11
ATOM     11  C26 ZIN A   1      18.584  -3.688  11.311  0.00  0.00     0.061 C 
ATOM     12  C27 ZIN A   1      20.109  -3.718  11.443  0.00  0.00     0.030 C 
ATOM     13  C28 ZIN A   1      17.970  -4.718  12.260  0.00  0.00     0.030 C 
BRANCH  11  14
ATOM     14  C29 ZIN A   1      18.195  -4.016   9.893  0.00  0.00    -0.039 A 
ATOM     15  C42 ZIN A   1      18.924  -3.496   8.839  0.00  0.00     0.024 A 
ATOM     16  C37 ZIN A   1      18.570  -3.800   7.537  0.00  0.00     0.049 A 
ATOM     17  C36 ZIN A   1      17.482  -4.616   7.290  0.00  0.00     0.032 A 
ATOM     18  C31 ZIN A   1      16.751  -5.132   8.344  0.00  0.00     0.049 A 
ATOM     19  C30 ZIN A   1      17.107  -4.831   9.645  0.00  0.00     0.024 A 
BRANCH  16  20
ATOM     20  C38 ZIN A   1      19.367  -3.238   6.389  0.00  0.00     0.417 C 
ATOM     21  F39 ZIN A   1      18.501  -2.880   5.351  0.00  0.00    -0.166 F 
ATOM     22  F40 ZIN A   1      20.074  -2.110   6.819  0.00  0.00    -0.166 F 
ATOM     23  F41 ZIN A   1      20.268  -4.205   5.930  0.00  0.00    -0.166 F 
ENDBRANCH  16  20
BRANCH  18  24
ATOM     24  C32 ZIN A   1      15.564  -6.021   8.074  0.00  0.00     0.417 C 
ATOM     25  F33 ZIN A   1      15.873  -7.335   8.447  0.00  0.00    -0.166 F 
ATOM     26  F34 ZIN A   1      14.467  -5.572   8.815  0.00  0.00    -0.166 F 
ATOM     27  F35 ZIN A   1      15.253  -5.984   6.711  0.00  0.00    -0.166 F 
ENDBRANCH  18  24
ENDBRANCH  11  14
ENDBRANCH   9  11
ENDBRANCH   6   7
BRANCH   1  28
ATOM     28  C7  ZIN A   1      17.995   0.663   9.648  0.00  0.00    -0.018 A 
ATOM     29  C2  ZIN A   1      18.907   1.275   8.790  0.00  0.00    -0.051 A 
ATOM     30  C1  ZIN A   1      19.927   2.241   9.337  0.00  0.00     0.049 C 
ATOM     31  C3  ZIN A   1      18.879   0.991   7.441  0.00  0.00     0.007 A 
ATOM     32  C4  ZIN A   1      17.945   0.104   6.937  0.00  0.00     0.001 A 
ATOM     33  C5  ZIN A   1      17.034  -0.502   7.783  0.00  0.00     0.001 A 
ATOM     34  C6  ZIN A   1      17.052  -0.226   9.134  0.00  0.00     0.013 A 
ENDBRANCH   1  28
BRANCH   3  35
ATOM     35  N11 ZIN A   1      17.217   3.673  13.444  0.00  0.00    -0.265 NA
ATOM     36  C18 ZIN A   1      18.060   4.106  14.568  0.00  0.00     0.125 C 
ATOM     37  C17 ZIN A   1      17.529   5.431  15.119  0.00  0.00     0.249 C 
ATOM     38  N14 ZIN A   1      17.543   6.444  14.056  0.00  0.00    -0.073 N 
ATOM     39  C13 ZIN A   1      16.678   6.009  12.951  0.00  0.00     0.249 C 
ATOM     40  H15 ZIN A   1      18.486   6.563  13.717  0.00  0.00     0.279 HD
ATOM     41  C16 ZIN A   1      17.050   7.721  14.591  0.00  0.00     0.269 C 
ATOM     42  C12 ZIN A   1      17.201   4.690  12.382  0.00  0.00     0.125 C 
ENDBRANCH   3  35
TORSDOF 7
ENDMDL
MODEL 2
REMARK VINA RESULT:      -9.5      0.043      2.682
REMARK  7 active torsions:
REMARK  status: ('A' for Active; 'I' for Inactive)
REMARK    1  A    between atoms: C7_7  and  C8_8 
REMARK    2  A    between atoms: C10_10  and  N11_11 
REMARK    3  A    between atoms: C21_21  and  N22_22 
REMARK       I    between atoms: N22_22  and  C24_24 
REMARK    4  A    between atoms: C24_24  and  C26_26 
REMARK    5  A    between atoms: C26_26  and  C29_29 
REMARK    6  A    between atoms: C31_31  and  C32_32 
REMARK    7  A    between atoms: C37_37  and  C38_38 
ROOT
ATOM      1  C8  ZIN A   1      18.029   0.994  11.089  0.00  0.00     0.006 A 
ATOM      2  C9  ZIN A   1      17.602   2.230  11.572  0.00  0.00     0.059 A 
ATOM      3  C10 ZIN A   1      17.638   2.468  12.940  0.00  0.00     0.106 A 
ATOM      4  N19 ZIN A   1      18.071   1.540  13.780  0.00  0.00    -0.246 NA
ATOM      5  C20 ZIN A   1      18.483   0.358  13.363  0.00  0.00     0.149 A 
ATOM      6  C21 ZIN A   1      18.474   0.036  12.016  0.00  0.00     0.065 A 
ENDROOT
BRANCH   6   7
ATOM      7  N22 ZIN A   1      18.914  -1.220  11.582  0.00  0.00    -0.319 N 
ATOM      8  C23 ZIN A   1      20.271  -1.377  11.051  0.00  0.00     0.159 C 
ATOM      9  C24 ZIN A   1      18.092  -2.284  11.654  0.00  0.00     0.236 C 
ATOM     10  O25 ZIN A   1      16.940  -2.138  12.004  0.00  0.00    -0.272 OA
BRANCH   9  11
ATOM     11  C26 ZIN A   1      18.602  -3.657  11.297  0.00  0.00     0.061 C 
ATOM     12  C27 ZIN A   1      20.128  -3.681  11.418  0.00  0.00     0.030 C 
ATOM     13  C28 ZIN A   1      18.000  -4.689  12.253  0.00  0.00     0.030 C 
BRANCH  11  14
ATOM     14  C29 ZIN A   1      18.205  -3.989   9.883  0.00  0.00    -0.039 A 
ATOM     15  C42 ZIN A   1      17.130  -4.827   9.645  0.00  0.00     0.024 A 
ATOM     16  C37 ZIN A   1      16.762  -5.128   8.347  0.00  0.00     0.049 A 
ATOM     17  C36 ZIN A   1      17.475  -4.600   7.287  0.00  0.00     0.032 A 
ATOM     18  C31 ZIN A   1      18.553  -3.768   7.524  0.00  0.00     0.049 A 
ATOM     19  C30 ZIN A   1      18.918  -3.463   8.823  0.00  0.00     0.024 A 
BRANCH  16  20
ATOM     20  C38 ZIN A   1      15.588  -6.035   8.088  0.00  0.00     0.417 C 
ATOM     21  F39 ZIN A   1      14.490  -5.603   8.838  0.00  0.00    -0.166 F 
ATOM     22  F40 ZIN A   1      15.265  -6.005   6.727  0.00  0.00    -0.166 F 
ATOM     23  F41 ZIN A   1      15.919  -7.343   8.459  0.00  0.00    -0.166 F 
ENDBRANCH  16  20
BRANCH  18  24
ATOM     24  C32 ZIN A   1      19.330  -3.193   6.368  0.00  0.00     0.417 C 
ATOM     25  F33 ZIN A   1      18.442  -2.779   5.369  0.00  0.00    -0.166 F 
ATOM     26  F34 ZIN A   1      20.078  -2.096   6.809  0.00  0.00    -0.166 F 
ATOM     27  F35 ZIN A   1      20.190  -4.167   5.853  0.00  0.00    -0.166 F 
ENDBRANCH  18  24
ENDBRANCH  11  14
ENDBRANCH   9  11
ENDBRANCH   6   7
BRANCH   1  28
ATOM     28  C7  ZIN A   1      18.007   0.695   9.636  0.00  0.00    -0.018 A 
ATOM     29  C2  ZIN A   1      18.921   1.308   8.782  0.00  0.00    -0.051 A 
ATOM     30  C1  ZIN A   1      19.940   2.273   9.333  0.00  0.00     0.049 C 
ATOM     31  C3  ZIN A   1      18.896   1.026   7.432  0.00  0.00     0.007 A 
ATOM     32  C4  ZIN A   1      17.963   0.141   6.925  0.00  0.00     0.001 A 
ATOM     33  C5  ZIN A   1      17.049  -0.467   7.767  0.00  0.00     0.001 A 
ATOM     34  C6  ZIN A   1      17.064  -0.192   9.119  0.00  0.00     0.013 A 
ENDBRANCH   1  28
BRANCH   3  35
ATOM     35  N11 ZIN A   1      17.215   3.699  13.435  0.00  0.00    -0.265 NA
ATOM     36  C18 ZIN A   1      18.053   4.131  14.562  0.00  0.00     0.125 C 
ATOM     37  C17 ZIN A   1      17.518   5.453  15.115  0.00  0.00     0.249 C 
ATOM     38  N14 ZIN A   1      17.534   6.469  14.054  0.00  0.00    -0.073 N 
ATOM     39  C13 ZIN A   1      16.673   6.034  12.945  0.00  0.00     0.249 C 
ATOM     40  H15 ZIN A   1      18.478   6.590  13.717  0.00  0.00     0.279 HD
ATOM     41  C16 ZIN A   1      17.037   7.743  14.589  0.00  0.00     0.269 C 
ATOM     42  C12 ZIN A   1      17.200   4.717  12.375  0.00  0.00     0.125 C 
ENDBRANCH   3  35
TORSDOF 7
ENDMDL
MODEL 3
REMARK VINA RESULT:      -9.3      5.129      9.805
REMARK  7 active torsions:
REMARK  status: ('A' for Active; 'I' for Inactive)
REMARK    1  A    between atoms: C7_7  and  C8_8 
REMARK    2  A    between atoms: C10_10  and  N11_11 
REMARK    3  A    between atoms: C21_21  and  N22_22 
REMARK       I    between atoms: N22_22  and  C24_24 
REMARK    4  A    between atoms: C24_24  and  C26_26 
REMARK    5  A    between atoms: C26_26  and  C29_29 
REMARK    6  A    between atoms: C31_31  and  C32_32 
REMARK    7  A    between atoms: C37_37  and  C38_38 
ROOT
ATOM      1  C8  ZIN A   1      18.090  -0.985  11.996  0.00  0.00     0.006 A 
ATOM      2  C9  ZIN A   1      17.655  -2.239  11.572  0.00  0.00     0.059 A 
ATOM      3  C10 ZIN A   1      17.662  -2.532  10.214  0.00  0.00     0.106 A 
ATOM      4  N19 ZIN A   1      18.077  -1.638   9.329  0.00  0.00    -0.246 NA
ATOM      5  C20 ZIN A   1      18.497  -0.440   9.690  0.00  0.00     0.149 A 
ATOM      6  C21 ZIN A   1      18.516  -0.065  11.023  0.00  0.00     0.065 A 
ENDROOT
BRANCH   6   7
ATOM      7  N22 ZIN A   1      18.964   1.208  11.397  0.00  0.00    -0.319 N 
ATOM      8  C23 ZIN A   1      20.339   1.389  11.870  0.00  0.00     0.159 C 
ATOM      9  C24 ZIN A   1      18.132   2.264  11.321  0.00  0.00     0.236 C 
ATOM     10  O25 ZIN A   1      16.969   2.100  11.021  0.00  0.00    -0.272 OA
BRANCH   9  11
ATOM     11  C26 ZIN A   1      18.647   3.651  11.612  0.00  0.00     0.061 C 
ATOM     12  C27 ZIN A   1      20.173   3.664  11.491  0.00  0.00     0.030 C 
ATOM     13  C28 ZIN A   1      18.049   4.638  10.606  0.00  0.00     0.030 C 
BRANCH  11  14
ATOM     14  C29 ZIN A   1      18.250   4.053  13.008  0.00  0.00    -0.039 A 
ATOM     15  C42 ZIN A   1      17.129   4.837  13.209  0.00  0.00     0.024 A 
ATOM     16  C37 ZIN A   1      16.761   5.201  14.491  0.00  0.00     0.049 A 
ATOM     17  C36 ZIN A   1      17.520   4.790  15.571  0.00  0.00     0.032 A 
ATOM     18  C31 ZIN A   1      18.644   4.011  15.369  0.00  0.00     0.049 A 
ATOM     19  C30 ZIN A   1      19.009   3.643  14.087  0.00  0.00     0.024 A 
BRANCH  16  20
ATOM     20  C38 ZIN A   1      15.536   6.051  14.710  0.00  0.00     0.417 C 
ATOM     21  F39 ZIN A   1      15.857   7.395  14.498  0.00  0.00    -0.166 F 
ATOM     22  F40 ZIN A   1      14.532   5.663  13.816  0.00  0.00    -0.166 F 
ATOM     23  F41 ZIN A   1      15.081   5.882  16.023  0.00  0.00    -0.166 F 
ENDBRANCH  16  20
BRANCH  18  24
ATOM     24  C32 ZIN A   1      19.471   3.563  16.546  0.00  0.00     0.417 C 
ATOM     25  F33 ZIN A   1      20.549   4.439  16.719  0.00  0.00    -0.166 F 
ATOM     26  F34 ZIN A   1      18.680   3.565  17.700  0.00  0.00    -0.166 F 
ATOM     27  F35 ZIN A   1      19.953   2.271  16.314  0.00  0.00    -0.166 F 
ENDBRANCH  18  24
ENDBRANCH  11  14
ENDBRANCH   9  11
ENDBRANCH   6   7
BRANCH   1  28
ATOM     28  C7  ZIN A   1      18.098  -0.629  13.436  0.00  0.00    -0.018 A 
ATOM     29  C2  ZIN A   1      19.060  -1.172  14.286  0.00  0.00    -0.051 A 
ATOM     30  C1  ZIN A   1      20.098  -2.120  13.743  0.00  0.00     0.049 C 
ATOM     31  C3  ZIN A   1      19.062  -0.837  15.624  0.00  0.00     0.007 A 
ATOM     32  C4  ZIN A   1      18.111   0.033  16.123  0.00  0.00     0.001 A 
ATOM     33  C5  ZIN A   1      17.151   0.572  15.286  0.00  0.00     0.001 A 
ATOM     34  C6  ZIN A   1      17.138   0.243  13.946  0.00  0.00     0.013 A 
ENDBRANCH   1  28
BRANCH   3  35
ATOM     35  N11 ZIN A   1      17.229  -3.781   9.777  0.00  0.00    -0.265 NA
ATOM     36  C18 ZIN A   1      17.625  -4.018   8.382  0.00  0.00     0.125 C 
ATOM     37  C17 ZIN A   1      17.079  -5.371   7.922  0.00  0.00     0.249 C 
ATOM     38  N14 ZIN A   1      17.611  -6.432   8.787  0.00  0.00    -0.073 N 
ATOM     39  C13 ZIN A   1      17.187  -6.195  10.174  0.00  0.00     0.249 C 
ATOM     40  H15 ZIN A   1      18.620  -6.432   8.740  0.00  0.00     0.279 HD
ATOM     41  C16 ZIN A   1      17.101  -7.734   8.335  0.00  0.00     0.269 C 
ATOM     42  C12 ZIN A   1      17.733  -4.849  10.652  0.00  0.00     0.125 C 
ENDBRANCH   3  35
TORSDOF 7
ENDMDL
MODEL 4
REMARK VINA RESULT:      -9.3      5.123      9.743
REMARK  7 active torsions:
REMARK  status: ('A' for Active; 'I' for Inactive)
REMARK    1  A    between atoms: C7_7  and  C8_8 
REMARK    2  A    between atoms: C10_10  and  N11_11 
REMARK    3  A    between atoms: C21_21  and  N22_22 
REMARK       I    between atoms: N22_22  and  C24_24 
REMARK    4  A    between atoms: C24_24  and  C26_26 
REMARK    5  A    between atoms: C26_26  and  C29_29 
REMARK    6  A    between atoms: C31_31  and  C32_32 
REMARK    7  A    between atoms: C37_37  and  C38_38 
ROOT
ATOM      1  C8  ZIN A   1      18.101  -0.979  11.971  0.00  0.00     0.006 A 
ATOM      2  C9  ZIN A   1      17.668  -2.233  11.543  0.00  0.00     0.059 A 
ATOM      3  C10 ZIN A   1      17.680  -2.524  10.186  0.00  0.00     0.106 A 
ATOM      4  N19 ZIN A   1      18.097  -1.628   9.303  0.00  0.00    -0.246 NA
ATOM      5  C20 ZIN A   1      18.515  -0.430   9.667  0.00  0.00     0.149 A 
ATOM      6  C21 ZIN A   1      18.529  -0.057  11.001  0.00  0.00     0.065 A 
ENDROOT
BRANCH   6   7
ATOM      7  N22 ZIN A   1      18.975   1.215  11.378  0.00  0.00    -0.319 N 
ATOM      8  C23 ZIN A   1      20.350   1.399  11.850  0.00  0.00     0.159 C 
ATOM      9  C24 ZIN A   1      18.141   2.271  11.306  0.00  0.00     0.236 C 
ATOM     10  O25 ZIN A   1      16.977   2.104  11.006  0.00  0.00    -0.272 OA
BRANCH   9  11
ATOM     11  C26 ZIN A   1      18.653   3.658  11.599  0.00  0.00     0.061 C 
ATOM     12  C27 ZIN A   1      20.179   3.674  11.477  0.00  0.00     0.030 C 
ATOM     13  C28 ZIN A   1      18.052   4.645  10.597  0.00  0.00     0.030 C 
BRANCH  11  14
ATOM     14  C29 ZIN A   1      18.256   4.054  12.997  0.00  0.00    -0.039 A 
ATOM     15  C42 ZIN A   1      19.014   3.637  14.076  0.00  0.00     0.024 A 
ATOM     16  C37 ZIN A   1      18.653   4.005  15.358  0.00  0.00     0.049 A 
ATOM     17  C36 ZIN A   1      17.528   4.782  15.564  0.00  0.00     0.032 A 
ATOM     18  C31 ZIN A   1      16.767   5.194  14.486  0.00  0.00     0.049 A 
ATOM     19  C30 ZIN A   1      17.131   4.830  13.203  0.00  0.00     0.024 A 
BRANCH  16  20
ATOM     20  C38 ZIN A   1      19.482   3.555  16.533  0.00  0.00     0.417 C 
ATOM     21  F39 ZIN A   1      18.690   3.543  17.686  0.00  0.00    -0.166 F 
ATOM     22  F40 ZIN A   1      19.975   2.268  16.291  0.00  0.00    -0.166 F 
ATOM     23  F41 ZIN A   1      20.553   4.437  16.713  0.00  0.00    -0.166 F 
ENDBRANCH  16  20
BRANCH  18  24
ATOM     24  C32 ZIN A   1      15.540   6.041  14.710  0.00  0.00     0.417 C 
ATOM     25  F33 ZIN A   1      15.854   7.385  14.479  0.00  0.00    -0.166 F 
ATOM     26  F34 ZIN A   1      14.531   5.640  13.829  0.00  0.00    -0.166 F 
ATOM     27  F35 ZIN A   1      15.099   5.884  16.027  0.00  0.00    -0.166 F 
ENDBRANCH  18  24
ENDBRANCH  11  14
ENDBRANCH   9  11
ENDBRANCH   6   7
BRANCH   1  28
ATOM     28  C7  ZIN A   1      18.104  -0.624  13.411  0.00  0.00    -0.018 A 
ATOM     29  C2  ZIN A   1      19.066  -1.164  14.263  0.00  0.00    -0.051 A 
ATOM     30  C1  ZIN A   1      20.110  -2.106  13.721  0.00  0.00     0.049 C 
ATOM     31  C3  ZIN A   1      19.064  -0.831  15.601  0.00  0.00     0.007 A 
ATOM     32  C4  ZIN A   1      18.107   0.034  16.100  0.00  0.00     0.001 A 
ATOM     33  C5  ZIN A   1      17.147   0.569  15.260  0.00  0.00     0.001 A 
ATOM     34  C6  ZIN A   1      17.138   0.243  13.920  0.00  0.00     0.013 A 
ENDBRANCH   1  28
BRANCH   3  35
ATOM     35  N11 ZIN A   1      17.250  -3.772   9.745  0.00  0.00    -0.265 NA
ATOM     36  C18 ZIN A   1      17.651  -4.008   8.351  0.00  0.00     0.125 C 
ATOM     37  C17 ZIN A   1      17.108  -5.361   7.889  0.00  0.00     0.249 C 
ATOM     38  N14 ZIN A   1      17.638  -6.423   8.754  0.00  0.00    -0.073 N 
ATOM     39  C13 ZIN A   1      17.208  -6.188  10.140  0.00  0.00     0.249 C 
ATOM     40  H15 ZIN A   1      18.646  -6.421   8.711  0.00  0.00     0.279 HD
ATOM     41  C16 ZIN A   1      17.130  -7.724   8.299  0.00  0.00     0.269 C 
ATOM     42  C12 ZIN A   1      17.752  -4.842  10.621  0.00  0.00     0.125 C 
ENDBRANCH   3  35
TORSDOF 7
ENDMDL
MODEL 5
REMARK VINA RESULT:      -8.7      2.095      4.859
REMARK  7 active torsions:
REMARK  status: ('A' for Active; 'I' for Inactive)
REMARK    1  A    between atoms: C7_7  and  C8_8 
REMARK    2  A    between atoms: C10_10  and  N11_11 
REMARK    3  A    between atoms: C21_21  and  N22_22 
REMARK       I    between atoms: N22_22  and  C24_24 
REMARK    4  A    between atoms: C24_24  and  C26_26 
REMARK    5  A    between atoms: C26_26  and  C29_29 
REMARK    6  A    between atoms: C31_31  and  C32_32 
REMARK    7  A    between atoms: C37_37  and  C38_38 
ROOT
ATOM      1  C8  ZIN A   1      17.933   2.561  13.965  0.00  0.00     0.006 A 
ATOM      2  C9  ZIN A   1      17.432   3.802  14.356  0.00  0.00     0.059 A 
ATOM      3  C10 ZIN A   1      17.247   4.788  13.396  0.00  0.00     0.106 A 
ATOM      4  N19 ZIN A   1      17.539   4.560  12.124  0.00  0.00    -0.246 NA
ATOM      5  C20 ZIN A   1      18.014   3.400  11.713  0.00  0.00     0.149 A 
ATOM      6  C21 ZIN A   1      18.235   2.365  12.607  0.00  0.00     0.065 A 
ENDROOT
BRANCH   6   7
ATOM      7  N22 ZIN A   1      18.739   1.137  12.161  0.00  0.00    -0.319 N 
ATOM      8  C23 ZIN A   1      20.168   0.842  12.293  0.00  0.00     0.159 C 
ATOM      9  C24 ZIN A   1      17.911   0.228  11.612  0.00  0.00     0.236 C 
ATOM     10  O25 ZIN A   1      16.747   0.508  11.416  0.00  0.00    -0.272 OA
BRANCH   9  11
ATOM     11  C26 ZIN A   1      18.431  -1.138  11.240  0.00  0.00     0.061 C 
ATOM     12  C27 ZIN A   1      19.763  -1.386  11.951  0.00  0.00     0.030 C 
ATOM     13  C28 ZIN A   1      17.419  -2.202  11.668  0.00  0.00     0.030 C 
BRANCH  11  14
ATOM     14  C29 ZIN A   1      18.636  -1.208   9.749  0.00  0.00    -0.039 A 
ATOM     15  C42 ZIN A   1      18.848  -2.430   9.138  0.00  0.00     0.024 A 
ATOM     16  C37 ZIN A   1      19.031  -2.495   7.769  0.00  0.00     0.049 A 
ATOM     17  C36 ZIN A   1      19.012  -1.338   7.013  0.00  0.00     0.032 A 
ATOM     18  C31 ZIN A   1      18.805  -0.116   7.625  0.00  0.00     0.049 A 
ATOM     19  C30 ZIN A   1      18.617  -0.051   8.994  0.00  0.00     0.024 A 
BRANCH  16  20
ATOM     20  C38 ZIN A   1      19.257  -3.827   7.102  0.00  0.00     0.417 C 
ATOM     21  F39 ZIN A   1      18.398  -3.951   6.006  0.00  0.00    -0.166 F 
ATOM     22  F40 ZIN A   1      20.585  -3.913   6.667  0.00  0.00    -0.166 F 
ATOM     23  F41 ZIN A   1      19.000  -4.855   8.015  0.00  0.00    -0.166 F 
ENDBRANCH  16  20
BRANCH  18  24
ATOM     24  C32 ZIN A   1      18.785   1.146   6.801  0.00  0.00     0.417 C 
ATOM     25  F33 ZIN A   1      17.570   1.233   6.112  0.00  0.00    -0.166 F 
ATOM     26  F34 ZIN A   1      18.922   2.254   7.643  0.00  0.00    -0.166 F 
ATOM     27  F35 ZIN A   1      19.841   1.122   5.885  0.00  0.00    -0.166 F 
ENDBRANCH  18  24
ENDBRANCH  11  14
ENDBRANCH   9  11
ENDBRANCH   6   7
BRANCH   1  28
ATOM     28  C7  ZIN A   1      18.148   1.479  14.956  0.00  0.00    -0.018 A 
ATOM     29  C2  ZIN A   1      18.989   1.687  16.048  0.00  0.00    -0.051 A 
ATOM     30  C1  ZIN A   1      19.679   3.015  16.227  0.00  0.00     0.049 C 
ATOM     31  C3  ZIN A   1      19.185   0.677  16.967  0.00  0.00     0.007 A 
ATOM     32  C4  ZIN A   1      18.552  -0.542  16.804  0.00  0.00     0.001 A 
ATOM     33  C5  ZIN A   1      17.721  -0.756  15.720  0.00  0.00     0.001 A 
ATOM     34  C6  ZIN A   1      17.517   0.247  14.794  0.00  0.00     0.013 A 
ENDBRANCH   1  28
BRANCH   3  35
ATOM     35  N11 ZIN A   1      16.748   6.031  13.774  0.00  0.00    -0.265 NA
ATOM     36  C18 ZIN A   1      15.556   5.886  14.621  0.00  0.00     0.125 C 
ATOM     37  C17 ZIN A   1      15.005   7.272  14.964  0.00  0.00     0.249 C 
ATOM     38  N14 ZIN A   1      16.035   8.047  15.667  0.00  0.00    -0.073 N 
ATOM     39  C13 ZIN A   1      17.210   8.205  14.799  0.00  0.00     0.249 C 
ATOM     40  H15 ZIN A   1      16.303   7.564  16.511  0.00  0.00     0.279 HD
ATOM     41  C16 ZIN A   1      15.499   9.372  16.012  0.00  0.00     0.269 C 
ATOM     42  C12 ZIN A   1      17.779   6.828  14.456  0.00  0.00     0.125 C 
ENDBRANCH   3  35
TORSDOF 7
ENDMDL
MODEL 6
REMARK VINA RESULT:      -8.7      2.083      4.501
REMARK  7 active torsions:
REMARK  status: ('A' for Active; 'I' for Inactive)
REMARK    1  A    between atoms: C7_7  and  C8_8 
REMARK    2  A    between atoms: C10_10  and  N11_11 
REMARK    3  A    between atoms: C21_21  and  N22_22 
REMARK       I    between atoms: N22_22  and  C24_24 
REMARK    4  A    between atoms: C24_24  and  C26_26 
REMARK    5  A    between atoms: C26_26  and  C29_29 
REMARK    6  A    between atoms: C31_31  and  C32_32 
REMARK    7  A    between atoms: C37_37  and  C38_38 
ROOT
ATOM      1  C8  ZIN A   1      18.000   2.494  13.954  0.00  0.00     0.006 A 
ATOM      2  C9  ZIN A   1      17.509   3.734  14.359  0.00  0.00     0.059 A 
ATOM      3  C10 ZIN A   1      17.334   4.733  13.411  0.00  0.00     0.106 A 
ATOM      4  N19 ZIN A   1      17.626   4.519  12.137  0.00  0.00    -0.246 NA
ATOM      5  C20 ZIN A   1      18.093   3.359  11.712  0.00  0.00     0.149 A 
ATOM      6  C21 ZIN A   1      18.303   2.312  12.594  0.00  0.00     0.065 A 
ENDROOT
BRANCH   6   7
ATOM      7  N22 ZIN A   1      18.798   1.085  12.134  0.00  0.00    -0.319 N 
ATOM      8  C23 ZIN A   1      20.228   0.786  12.244  0.00  0.00     0.159 C 
ATOM      9  C24 ZIN A   1      17.959   0.181  11.593  0.00  0.00     0.236 C 
ATOM     10  O25 ZIN A   1      16.794   0.464  11.415  0.00  0.00    -0.272 OA
BRANCH   9  11
ATOM     11  C26 ZIN A   1      18.471  -1.184  11.205  0.00  0.00     0.061 C 
ATOM     12  C27 ZIN A   1      19.805  -1.446  11.909  0.00  0.00     0.030 C 
ATOM     13  C28 ZIN A   1      17.455  -2.247  11.627  0.00  0.00     0.030 C 
BRANCH  11  14
ATOM     14  C29 ZIN A   1      18.669  -1.241   9.714  0.00  0.00    -0.039 A 
ATOM     15  C42 ZIN A   1      18.634  -0.078   8.967  0.00  0.00     0.024 A 
ATOM     16  C37 ZIN A   1      18.822  -0.130   7.598  0.00  0.00     0.049 A 
ATOM     17  C36 ZIN A   1      19.034  -1.345   6.974  0.00  0.00     0.032 A 
ATOM     18  C31 ZIN A   1      19.063  -2.508   7.721  0.00  0.00     0.049 A 
ATOM     19  C30 ZIN A   1      18.881  -2.456   9.090  0.00  0.00     0.024 A 
BRANCH  16  20
ATOM     20  C38 ZIN A   1      18.789   1.138   6.784  0.00  0.00     0.417 C 
ATOM     21  F39 ZIN A   1      17.550   1.251   6.146  0.00  0.00    -0.166 F 
ATOM     22  F40 ZIN A   1      18.983   2.239   7.627  0.00  0.00    -0.166 F 
ATOM     23  F41 ZIN A   1      19.807   1.102   5.825  0.00  0.00    -0.166 F 
ENDBRANCH  16  20
BRANCH  18  24
ATOM     24  C32 ZIN A   1      19.295  -3.834   7.042  0.00  0.00     0.417 C 
ATOM     25  F33 ZIN A   1      18.444  -3.945   5.935  0.00  0.00    -0.166 F 
ATOM     26  F34 ZIN A   1      20.624  -3.914   6.617  0.00  0.00    -0.166 F 
ATOM     27  F35 ZIN A   1      19.029  -4.872   7.940  0.00  0.00    -0.166 F 
ENDBRANCH  18  24
ENDBRANCH  11  14
ENDBRANCH   9  11
ENDBRANCH   6   7
BRANCH   1  28
ATOM     28  C7  ZIN A   1      18.204   1.398  14.932  0.00  0.00    -0.018 A 
ATOM     29  C2  ZIN A   1      18.989   1.608  16.064  0.00  0.00    -0.051 A 
ATOM     30  C1  ZIN A   1      19.629   2.951  16.300  0.00  0.00     0.049 C 
ATOM     31  C3  ZIN A   1      19.175   0.585  16.971  0.00  0.00     0.007 A 
ATOM     32  C4  ZIN A   1      18.587  -0.649  16.756  0.00  0.00     0.001 A 
ATOM     33  C5  ZIN A   1      17.811  -0.864  15.632  0.00  0.00     0.001 A 
ATOM     34  C6  ZIN A   1      17.618   0.151  14.718  0.00  0.00     0.013 A 
ENDBRANCH   1  28
BRANCH   3  35
ATOM     35  N11 ZIN A   1      16.844   5.976  13.803  0.00  0.00    -0.265 NA
ATOM     36  C18 ZIN A   1      15.631   5.832  14.619  0.00  0.00     0.125 C 
ATOM     37  C17 ZIN A   1      15.093   7.218  14.978  0.00  0.00     0.249 C 
ATOM     38  N14 ZIN A   1      16.117   7.964  15.720  0.00  0.00    -0.073 N 
ATOM     39  C13 ZIN A   1      17.314   8.121  14.883  0.00  0.00     0.249 C 
ATOM     40  H15 ZIN A   1      16.359   7.459  16.560  0.00  0.00     0.279 HD
ATOM     41  C16 ZIN A   1      15.593   9.289  16.080  0.00  0.00     0.269 C 
ATOM     42  C12 ZIN A   1      17.871   6.743  14.524  0.00  0.00     0.125 C 
ENDBRANCH   3  35
TORSDOF 7
ENDMDL
MODEL 7
REMARK VINA RESULT:      -8.3      1.369      2.146
REMARK  7 active torsions:
REMARK  status: ('A' for Active; 'I' for Inactive)
REMARK    1  A    between atoms: C7_7  and  C8_8 
REMARK    2  A    between atoms: C10_10  and  N11_11 
REMARK    3  A    between atoms: C21_21  and  N22_22 
REMARK       I    between atoms: N22_22  and  C24_24 
REMARK    4  A    between atoms: C24_24  and  C26_26 
REMARK    5  A    between atoms: C26_26  and  C29_29 
REMARK    6  A    between atoms: C31_31  and  C32_32 
REMARK    7  A    between atoms: C37_37  and  C38_38 
ROOT
ATOM      1  C8  ZIN A   1      18.943  -0.100  11.762  0.00  0.00     0.006 A 
ATOM      2  C9  ZIN A   1      18.811   1.134  12.397  0.00  0.00     0.059 A 
ATOM      3  C10 ZIN A   1      19.007   1.209  13.770  0.00  0.00     0.106 A 
ATOM      4  N19 ZIN A   1      19.317   0.130  14.472  0.00  0.00    -0.246 NA
ATOM      5  C20 ZIN A   1      19.451  -1.056  13.908  0.00  0.00     0.149 A 
ATOM      6  C21 ZIN A   1      19.267  -1.220  12.545  0.00  0.00     0.065 A 
ENDROOT
BRANCH   6   7
ATOM      7  N22 ZIN A   1      19.412  -2.481  11.956  0.00  0.00    -0.319 N 
ATOM      8  C23 ZIN A   1      20.733  -2.932  11.508  0.00  0.00     0.159 C 
ATOM      9  C24 ZIN A   1      18.339  -3.281  11.800  0.00  0.00     0.236 C 
ATOM     10  O25 ZIN A   1      17.233  -2.872  12.082  0.00  0.00    -0.272 OA
BRANCH   9  11
ATOM     11  C26 ZIN A   1      18.514  -4.683  11.273  0.00  0.00     0.061 C 
ATOM     12  C27 ZIN A   1      20.001  -5.046  11.277  0.00  0.00     0.030 C 
ATOM     13  C28 ZIN A   1      17.748  -5.661  12.166  0.00  0.00     0.030 C 
BRANCH  11  14
ATOM     14  C29 ZIN A   1      17.980  -4.761   9.867  0.00  0.00    -0.039 A 
ATOM     15  C42 ZIN A   1      18.697  -4.204   8.824  0.00  0.00     0.024 A 
ATOM     16  C37 ZIN A   1      18.210  -4.280   7.532  0.00  0.00     0.049 A 
ATOM     17  C36 ZIN A   1      17.001  -4.903   7.285  0.00  0.00     0.032 A 
ATOM     18  C31 ZIN A   1      16.281  -5.454   8.329  0.00  0.00     0.049 A 
ATOM     19  C30 ZIN A   1      16.771  -5.382   9.620  0.00  0.00     0.024 A 
BRANCH  16  20
ATOM     20  C38 ZIN A   1      18.994  -3.680   6.394  0.00  0.00     0.417 C 
ATOM     21  F39 ZIN A   1      20.204  -3.172   6.879  0.00  0.00    -0.166 F 
ATOM     22  F40 ZIN A   1      19.251  -4.663   5.433  0.00  0.00    -0.166 F 
ATOM     23  F41 ZIN A   1      18.254  -2.644   5.814  0.00  0.00    -0.166 F 
ENDBRANCH  16  20
BRANCH  18  24
ATOM     24  C32 ZIN A   1      14.963  -6.133   8.060  0.00  0.00     0.417 C 
ATOM     25  F33 ZIN A   1      14.500  -5.766   6.791  0.00  0.00    -0.166 F 
ATOM     26  F34 ZIN A   1      15.134  -7.520   8.109  0.00  0.00    -0.166 F 
ATOM     27  F35 ZIN A   1      14.031  -5.743   9.027  0.00  0.00    -0.166 F 
ENDBRANCH  18  24
ENDBRANCH  11  14
ENDBRANCH   9  11
ENDBRANCH   6   7
BRANCH   1  28
ATOM     28  C7  ZIN A   1      18.741  -0.228  10.297  0.00  0.00    -0.018 A 
ATOM     29  C2  ZIN A   1      17.453  -0.248   9.768  0.00  0.00    -0.051 A 
ATOM     30  C1  ZIN A   1      16.259  -0.135  10.681  0.00  0.00     0.049 C 
ATOM     31  C3  ZIN A   1      17.271  -0.368   8.406  0.00  0.00     0.007 A 
ATOM     32  C4  ZIN A   1      18.365  -0.471   7.566  0.00  0.00     0.001 A 
ATOM     33  C5  ZIN A   1      19.647  -0.456   8.086  0.00  0.00     0.001 A 
ATOM     34  C6  ZIN A   1      19.840  -0.338   9.447  0.00  0.00     0.013 A 
ENDBRANCH   1  28
BRANCH   3  35
ATOM     35  N11 ZIN A   1      18.878   2.435  14.417  0.00  0.00    -0.265 NA
ATOM     36  C18 ZIN A   1      17.751   3.205  13.870  0.00  0.00     0.125 C 
ATOM     37  C17 ZIN A   1      17.681   4.566  14.564  0.00  0.00     0.249 C 
ATOM     38  N14 ZIN A   1      17.506   4.369  16.009  0.00  0.00    -0.073 N 
ATOM     39  C13 ZIN A   1      18.651   3.621  16.546  0.00  0.00     0.249 C 
ATOM     40  H15 ZIN A   1      16.657   3.851  16.178  0.00  0.00     0.279 HD
ATOM     41  C16 ZIN A   1      17.421   5.677  16.674  0.00  0.00     0.269 C 
ATOM     42  C12 ZIN A   1      18.729   2.253  15.868  0.00  0.00     0.125 C 
ENDBRANCH   3  35
TORSDOF 7
ENDMDL
MODEL 8
REMARK VINA RESULT:      -7.1      5.951     10.412
REMARK  7 active torsions:
REMARK  status: ('A' for Active; 'I' for Inactive)
REMARK    1  A    between atoms: C7_7  and  C8_8 
REMARK    2  A    between atoms: C10_10  and  N11_11 
REMARK    3  A    between atoms: C21_21  and  N22_22 
REMARK       I    between atoms: N22_22  and  C24_24 
REMARK    4  A    between atoms: C24_24  and  C26_26 
REMARK    5  A    between atoms: C26_26  and  C29_29 
REMARK    6  A    between atoms: C31_31  and  C32_32 
REMARK    7  A    between atoms: C37_37  and  C38_38 
ROOT
ATOM      1  C8  ZIN A   1      18.437   2.118  12.098  0.00  0.00     0.006 A 
ATOM      2  C9  ZIN A   1      18.210   1.287  11.003  0.00  0.00     0.059 A 
ATOM      3  C10 ZIN A   1      18.175   1.842   9.731  0.00  0.00     0.106 A 
ATOM      4  N19 ZIN A   1      18.354   3.142   9.552  0.00  0.00    -0.246 NA
ATOM      5  C20 ZIN A   1      18.572   3.963  10.562  0.00  0.00     0.149 A 
ATOM      6  C21 ZIN A   1      18.616   3.492  11.864  0.00  0.00     0.065 A 
ENDROOT
BRANCH   6   7
ATOM      7  N22 ZIN A   1      18.848   4.370  12.929  0.00  0.00    -0.319 N 
ATOM      8  C23 ZIN A   1      20.191   4.482  13.506  0.00  0.00     0.159 C 
ATOM      9  C24 ZIN A   1      17.839   5.112  13.424  0.00  0.00     0.236 C 
ATOM     10  O25 ZIN A   1      16.710   4.950  13.012  0.00  0.00    -0.272 OA
BRANCH   9  11
ATOM     11  C26 ZIN A   1      18.112   6.141  14.492  0.00  0.00     0.061 C 
ATOM     12  C27 ZIN A   1      19.623   6.353  14.620  0.00  0.00     0.030 C 
ATOM     13  C28 ZIN A   1      17.443   7.462  14.108  0.00  0.00     0.030 C 
BRANCH  11  14
ATOM     14  C29 ZIN A   1      17.559   5.659  15.807  0.00  0.00    -0.039 A 
ATOM     15  C42 ZIN A   1      16.363   6.168  16.282  0.00  0.00     0.024 A 
ATOM     16  C37 ZIN A   1      15.853   5.722  17.487  0.00  0.00     0.049 A 
ATOM     17  C36 ZIN A   1      16.542   4.776  18.222  0.00  0.00     0.032 A 
ATOM     18  C31 ZIN A   1      17.739   4.272  17.750  0.00  0.00     0.049 A 
ATOM     19  C30 ZIN A   1      18.248   4.714  16.543  0.00  0.00     0.024 A 
BRANCH  16  20
ATOM     20  C38 ZIN A   1      14.548   6.272  18.002  0.00  0.00     0.417 C 
ATOM     21  F39 ZIN A   1      14.730   7.596  18.414  0.00  0.00    -0.166 F 
ATOM     22  F40 ZIN A   1      13.588   6.227  16.984  0.00  0.00    -0.166 F 
ATOM     23  F41 ZIN A   1      14.113   5.502  19.086  0.00  0.00    -0.166 F 
ENDBRANCH  16  20
BRANCH  18  24
ATOM     24  C32 ZIN A   1      18.491   3.240  18.552  0.00  0.00     0.417 C 
ATOM     25  F33 ZIN A   1      18.877   3.793  19.778  0.00  0.00    -0.166 F 
ATOM     26  F34 ZIN A   1      17.665   2.135  18.779  0.00  0.00    -0.166 F 
ATOM     27  F35 ZIN A   1      19.627   2.836  17.844  0.00  0.00    -0.166 F 
ENDBRANCH  18  24
ENDBRANCH  11  14
ENDBRANCH   9  11
ENDBRANCH   6   7
BRANCH   1  28
ATOM     28  C7  ZIN A   1      18.481   1.569  13.476  0.00  0.00    -0.018 A 
ATOM     29  C2  ZIN A   1      19.590   0.841  13.903  0.00  0.00    -0.051 A 
ATOM     30  C1  ZIN A   1      20.750   0.615  12.968  0.00  0.00     0.049 C 
ATOM     31  C3  ZIN A   1      19.626   0.332  15.185  0.00  0.00     0.007 A 
ATOM     32  C4  ZIN A   1      18.563   0.540  16.044  0.00  0.00     0.001 A 
ATOM     33  C5  ZIN A   1      17.457   1.257  15.624  0.00  0.00     0.001 A 
ATOM     34  C6  ZIN A   1      17.410   1.770  14.344  0.00  0.00     0.013 A 
ENDBRANCH   1  28
BRANCH   3  35
ATOM     35  N11 ZIN A   1      17.949   1.022   8.628  0.00  0.00    -0.265 NA
ATOM     36  C18 ZIN A   1      18.862   1.355   7.527  0.00  0.00     0.125 C 
ATOM     37  C17 ZIN A   1      18.541   0.475   6.317  0.00  0.00     0.249 C 
ATOM     38  N14 ZIN A   1      18.689  -0.939   6.688  0.00  0.00    -0.073 N 
ATOM     39  C13 ZIN A   1      17.752  -1.263   7.773  0.00  0.00     0.249 C 
ATOM     40  H15 ZIN A   1      19.634  -1.109   6.999  0.00  0.00     0.279 HD
ATOM     41  C16 ZIN A   1      18.398  -1.783   5.521  0.00  0.00     0.269 C 
ATOM     42  C12 ZIN A   1      18.067  -0.397   8.994  0.00  0.00     0.125 C 
ENDBRANCH   3  35
TORSDOF 7
ENDMDL
MODEL 9
REMARK VINA RESULT:      -7.1      6.431     11.037
REMARK  7 active torsions:
REMARK  status: ('A' for Active; 'I' for Inactive)
REMARK    1  A    between atoms: C7_7  and  C8_8 
REMARK    2  A    between atoms: C10_10  and  N11_11 
REMARK    3  A    between atoms: C21_21  and  N22_22 
REMARK       I    between atoms: N22_22  and  C24_24 
REMARK    4  A    between atoms: C24_24  and  C26_26 
REMARK    5  A    between atoms: C26_26  and  C29_29 
REMARK    6  A    between atoms: C31_31  and  C32_32 
REMARK    7  A    between atoms: C37_37  and  C38_38 
ROOT
ATOM      1  C8  ZIN A   1      19.081   2.444  13.870  0.00  0.00     0.006 A 
ATOM      2  C9  ZIN A   1      19.269   1.385  12.985  0.00  0.00     0.059 A 
ATOM      3  C10 ZIN A   1      19.389   1.654  11.628  0.00  0.00     0.106 A 
ATOM      4  N19 ZIN A   1      19.327   2.896  11.173  0.00  0.00    -0.246 NA
ATOM      5  C20 ZIN A   1      19.150   3.927  11.979  0.00  0.00     0.149 A 
ATOM      6  C21 ZIN A   1      19.015   3.746  13.345  0.00  0.00     0.065 A 
ENDROOT
BRANCH   6   7
ATOM      7  N22 ZIN A   1      18.828   4.845  14.192  0.00  0.00    -0.319 N 
ATOM      8  C23 ZIN A   1      19.988   5.582  14.701  0.00  0.00     0.159 C 
ATOM      9  C24 ZIN A   1      17.583   5.225  14.539  0.00  0.00     0.236 C 
ATOM     10  O25 ZIN A   1      16.629   4.559  14.197  0.00  0.00    -0.272 OA
BRANCH   9  11
ATOM     11  C26 ZIN A   1      17.376   6.476  15.355  0.00  0.00     0.061 C 
ATOM     12  C27 ZIN A   1      18.730   6.987  15.854  0.00  0.00     0.030 C 
ATOM     13  C28 ZIN A   1      16.716   7.547  14.485  0.00  0.00     0.030 C 
BRANCH  11  14
ATOM     14  C29 ZIN A   1      16.490   6.167  16.533  0.00  0.00    -0.039 A 
ATOM     15  C42 ZIN A   1      16.996   5.469  17.614  0.00  0.00     0.024 A 
ATOM     16  C37 ZIN A   1      16.184   5.190  18.698  0.00  0.00     0.049 A 
ATOM     17  C36 ZIN A   1      14.863   5.598  18.696  0.00  0.00     0.032 A 
ATOM     18  C31 ZIN A   1      14.356   6.291  17.612  0.00  0.00     0.049 A 
ATOM     19  C30 ZIN A   1      15.170   6.574  16.530  0.00  0.00     0.024 A 
BRANCH  16  20
ATOM     20  C38 ZIN A   1      16.737   4.435  19.879  0.00  0.00     0.417 C 
ATOM     21  F39 ZIN A   1      16.388   3.084  19.773  0.00  0.00    -0.166 F 
ATOM     22  F40 ZIN A   1      18.130   4.557  19.901  0.00  0.00    -0.166 F 
ATOM     23  F41 ZIN A   1      16.204   4.963  21.060  0.00  0.00    -0.166 F 
ENDBRANCH  16  20
BRANCH  18  24
ATOM     24  C32 ZIN A   1      12.917   6.737  17.609  0.00  0.00     0.417 C 
ATOM     25  F33 ZIN A   1      12.276   6.252  18.756  0.00  0.00    -0.166 F 
ATOM     26  F34 ZIN A   1      12.861   8.134  17.601  0.00  0.00    -0.166 F 
ATOM     27  F35 ZIN A   1      12.275   6.237  16.471  0.00  0.00    -0.166 F 
ENDBRANCH  18  24
ENDBRANCH  11  14
ENDBRANCH   9  11
ENDBRANCH   6   7
BRANCH   1  28
ATOM     28  C7  ZIN A   1      18.946   2.204  15.328  0.00  0.00    -0.018 A 
ATOM     29  C2  ZIN A   1      18.125   1.180  15.796  0.00  0.00    -0.051 A 
ATOM     30  C1  ZIN A   1      17.374   0.309  14.821  0.00  0.00     0.049 C 
ATOM     31  C3  ZIN A   1      18.004   0.961  17.152  0.00  0.00     0.007 A 
ATOM     32  C4  ZIN A   1      18.693   1.758  18.048  0.00  0.00     0.001 A 
ATOM     33  C5  ZIN A   1      19.505   2.780  17.590  0.00  0.00     0.001 A 
ATOM     34  C6  ZIN A   1      19.634   3.008  16.236  0.00  0.00     0.013 A 
ENDBRANCH   1  28
BRANCH   3  35
ATOM     35  N11 ZIN A   1      19.577   0.604  10.732  0.00  0.00    -0.265 NA
ATOM     36  C18 ZIN A   1      18.944  -0.628  11.222  0.00  0.00     0.125 C 
ATOM     37  C17 ZIN A   1      19.225  -1.768  10.242  0.00  0.00     0.249 C 
ATOM     38  N14 ZIN A   1      18.694  -1.417   8.918  0.00  0.00    -0.073 N 
ATOM     39  C13 ZIN A   1      19.354  -0.198   8.431  0.00  0.00     0.249 C 
ATOM     40  H15 ZIN A   1      17.700  -1.256   8.986  0.00  0.00     0.279 HD
ATOM     41  C16 ZIN A   1      18.948  -2.520   7.981  0.00  0.00     0.269 C 
ATOM     42  C12 ZIN A   1      19.074   0.954   9.396  0.00  0.00     0.125 C 
ENDBRANCH   3  35
TORSDOF 7
ENDMDL
