MODEL 1
REMARK VINA RESULT:      -7.9      0.000      0.000
REMARK  5 active torsions:
REMARK  status: ('A' for Active; 'I' for Inactive)
REMARK    1  A    between atoms: N2_2  and  C5_5 
REMARK    2  A    between atoms: C5_5  and  C6_6 
REMARK    3  A    between atoms: C6_6  and  C7_7 
REMARK    4  A    between atoms: C20_20  and  C21_21 
REMARK    5  A    between atoms: C21_21  and  C22_22 
ROOT
ATOM      1  C7  ZIN A   1      19.510  -1.081  12.259  0.00  0.00    -0.012 C 
ATOM      2  C8  ZIN A   1      18.858  -1.062  11.090  0.00  0.00    -0.016 C 
ATOM      3  C9  ZIN A   1      18.243  -2.309  10.576  0.00  0.00    -0.017 A 
ATOM      4  C10 ZIN A   1      17.565  -3.103  11.512  0.00  0.00     0.013 A 
ATOM      5  C11 ZIN A   1      16.964  -4.281  11.131  0.00  0.00     0.001 A 
ATOM      6  C12 ZIN A   1      17.032  -4.681   9.810  0.00  0.00     0.001 A 
ATOM      7  C13 ZIN A   1      17.696  -3.905   8.886  0.00  0.00     0.010 A 
ATOM      8  C14 ZIN A   1      18.311  -2.707   9.253  0.00  0.00    -0.023 A 
ATOM      9  C15 ZIN A   1      18.991  -1.970   8.130  0.00  0.00     0.215 C 
ATOM     10  O16 ZIN A   1      19.823  -0.912   8.535  0.00  0.00    -0.346 OA
ATOM     11  C17 ZIN A   1      19.300   0.218   9.051  0.00  0.00     0.080 A 
ATOM     12  C18 ZIN A   1      19.290   1.397   8.319  0.00  0.00     0.038 A 
ATOM     13  C19 ZIN A   1      18.726   2.536   8.865  0.00  0.00     0.010 A 
ATOM     14  C20 ZIN A   1      18.171   2.511  10.132  0.00  0.00    -0.047 A 
ATOM     15  C25 ZIN A   1      18.184   1.343  10.874  0.00  0.00     0.022 A 
ATOM     16  C26 ZIN A   1      18.756   0.205  10.331  0.00  0.00     0.009 A 
ENDROOT
BRANCH   1  17
ATOM     17  C6  ZIN A   1      20.134   0.182  12.793  0.00  0.00     0.055 C 
BRANCH  17  18
ATOM     18  C5  ZIN A   1      19.795   0.328  14.279  0.00  0.00     0.237 C 
BRANCH  18  19
ATOM     19  N2  ZIN A   1      18.811   1.405  14.453  0.00  0.00    -0.079 N 
ATOM     20  C1  ZIN A   1      17.477   0.821  14.646  0.00  0.00     0.269 C 
ATOM     21  H3  ZIN A   1      18.807   1.991  13.632  0.00  0.00     0.278 HD
ATOM     22  C4  ZIN A   1      19.168   2.211  15.628  0.00  0.00     0.269 C 
ENDBRANCH  18  19
ENDBRANCH  17  18
ENDBRANCH   1  17
BRANCH  14  23
ATOM     23  C21 ZIN A   1      17.550   3.759  10.705  0.00  0.00     0.151 C 
BRANCH  23  24
ATOM     24  C22 ZIN A   1      18.181   4.066  12.039  0.00  0.00     0.176 C 
ATOM     25  O23 ZIN A   1      19.352   4.400  12.097  0.00  0.00    -0.648 OA
ATOM     26  O24 ZIN A   1      17.521   3.979  13.061  0.00  0.00    -0.648 OA
ENDBRANCH  23  24
ENDBRANCH  14  23
TORSDOF 5
ENDMDL
MODEL 2
REMARK VINA RESULT:      -7.6      2.214      6.794
REMARK  5 active torsions:
REMARK  status: ('A' for Active; 'I' for Inactive)
REMARK    1  A    between atoms: N2_2  and  C5_5 
REMARK    2  A    between atoms: C5_5  and  C6_6 
REMARK    3  A    between atoms: C6_6  and  C7_7 
REMARK    4  A    between atoms: C20_20  and  C21_21 
REMARK    5  A    between atoms: C21_21  and  C22_22 
ROOT
ATOM      1  C7  ZIN A   1      19.102   2.030   9.823  0.00  0.00    -0.012 C 
ATOM      2  C8  ZIN A   1      18.505   1.936  11.018  0.00  0.00    -0.016 C 
ATOM      3  C9  ZIN A   1      17.878   3.137  11.617  0.00  0.00    -0.017 A 
ATOM      4  C10 ZIN A   1      17.134   3.952  10.751  0.00  0.00     0.013 A 
ATOM      5  C11 ZIN A   1      16.516   5.091  11.215  0.00  0.00     0.001 A 
ATOM      6  C12 ZIN A   1      16.633   5.432  12.550  0.00  0.00     0.001 A 
ATOM      7  C13 ZIN A   1      17.362   4.636  13.404  0.00  0.00     0.010 A 
ATOM      8  C14 ZIN A   1      17.995   3.476  12.954  0.00  0.00    -0.023 A 
ATOM      9  C15 ZIN A   1      18.749   2.710  14.008  0.00  0.00     0.215 C 
ATOM     10  O16 ZIN A   1      19.592   1.699  13.516  0.00  0.00    -0.346 OA
ATOM     11  C17 ZIN A   1      19.080   0.578  12.971  0.00  0.00     0.080 A 
ATOM     12  C18 ZIN A   1      19.138  -0.633  13.645  0.00  0.00     0.038 A 
ATOM     13  C19 ZIN A   1      18.584  -1.763  13.072  0.00  0.00     0.010 A 
ATOM     14  C20 ZIN A   1      17.970  -1.698  11.833  0.00  0.00    -0.047 A 
ATOM     15  C25 ZIN A   1      17.914  -0.497  11.148  0.00  0.00     0.022 A 
ATOM     16  C26 ZIN A   1      18.476   0.633  11.719  0.00  0.00     0.009 A 
ENDROOT
BRANCH   1  17
ATOM     17  C6  ZIN A   1      19.737   0.814   9.201  0.00  0.00     0.055 C 
BRANCH  17  18
ATOM     18  C5  ZIN A   1      19.304   0.705   7.736  0.00  0.00     0.237 C 
BRANCH  18  19
ATOM     19  N2  ZIN A   1      18.577  -0.554   7.534  0.00  0.00    -0.079 N 
ATOM     20  C1  ZIN A   1      17.157  -0.266   7.294  0.00  0.00     0.269 C 
ATOM     21  H3  ZIN A   1      18.670  -1.131   8.356  0.00  0.00     0.278 HD
ATOM     22  C4  ZIN A   1      19.136  -1.262   6.374  0.00  0.00     0.269 C 
ENDBRANCH  18  19
ENDBRANCH  17  18
ENDBRANCH   1  17
BRANCH  14  23
ATOM     23  C21 ZIN A   1      17.361  -2.937  11.230  0.00  0.00     0.151 C 
BRANCH  23  24
ATOM     24  C22 ZIN A   1      18.149  -3.340  10.010  0.00  0.00     0.176 C 
ATOM     25  O23 ZIN A   1      19.318  -3.670  10.120  0.00  0.00    -0.648 OA
ATOM     26  O24 ZIN A   1      17.618  -3.335   8.912  0.00  0.00    -0.648 OA
ENDBRANCH  23  24
ENDBRANCH  14  23
TORSDOF 5
ENDMDL
MODEL 3
REMARK VINA RESULT:      -7.6      1.705      6.096
REMARK  5 active torsions:
REMARK  status: ('A' for Active; 'I' for Inactive)
REMARK    1  A    between atoms: N2_2  and  C5_5 
REMARK    2  A    between atoms: C5_5  and  C6_6 
REMARK    3  A    between atoms: C6_6  and  C7_7 
REMARK    4  A    between atoms: C20_20  and  C21_21 
REMARK    5  A    between atoms: C21_21  and  C22_22 
ROOT
ATOM      1  C7  ZIN A   1      17.340   0.649  13.265  0.00  0.00    -0.012 C 
ATOM      2  C8  ZIN A   1      17.942   1.839  13.151  0.00  0.00    -0.016 C 
ATOM      3  C9  ZIN A   1      18.427   2.531  14.368  0.00  0.00    -0.017 A 
ATOM      4  C10 ZIN A   1      19.074   1.735  15.323  0.00  0.00     0.013 A 
ATOM      5  C11 ZIN A   1      19.558   2.286  16.488  0.00  0.00     0.001 A 
ATOM      6  C12 ZIN A   1      19.401   3.642  16.713  0.00  0.00     0.001 A 
ATOM      7  C13 ZIN A   1      18.768   4.428  15.778  0.00  0.00     0.010 A 
ATOM      8  C14 ZIN A   1      18.272   3.888  14.591  0.00  0.00    -0.023 A 
ATOM      9  C15 ZIN A   1      17.610   4.876  13.667  0.00  0.00     0.215 C 
ATOM     10  O16 ZIN A   1      16.888   4.304  12.607  0.00  0.00    -0.346 OA
ATOM     11  C17 ZIN A   1      17.525   3.682  11.595  0.00  0.00     0.080 A 
ATOM     12  C18 ZIN A   1      17.604   4.265  10.338  0.00  0.00     0.038 A 
ATOM     13  C19 ZIN A   1      18.285   3.615   9.324  0.00  0.00     0.010 A 
ATOM     14  C20 ZIN A   1      18.888   2.390   9.551  0.00  0.00    -0.047 A 
ATOM     15  C25 ZIN A   1      18.807   1.796  10.798  0.00  0.00     0.022 A 
ATOM     16  C26 ZIN A   1      18.119   2.443  11.811  0.00  0.00     0.009 A 
ENDROOT
BRANCH   1  17
ATOM     17  C6  ZIN A   1      16.847  -0.067  12.033  0.00  0.00     0.055 C 
BRANCH  17  18
ATOM     18  C5  ZIN A   1      17.348  -1.513  12.051  0.00  0.00     0.237 C 
BRANCH  18  19
ATOM     19  N2  ZIN A   1      18.271  -1.725  10.928  0.00  0.00    -0.079 N 
ATOM     20  C1  ZIN A   1      19.636  -1.896  11.443  0.00  0.00     0.269 C 
ATOM     21  H3  ZIN A   1      18.241  -0.926  10.313  0.00  0.00     0.278 HD
ATOM     22  C4  ZIN A   1      17.873  -2.929  10.186  0.00  0.00     0.269 C 
ENDBRANCH  18  19
ENDBRANCH  17  18
ENDBRANCH   1  17
BRANCH  14  23
ATOM     23  C21 ZIN A   1      19.635   1.703   8.437  0.00  0.00     0.151 C 
BRANCH  23  24
ATOM     24  C22 ZIN A   1      18.961   0.394   8.114  0.00  0.00     0.176 C 
ATOM     25  O23 ZIN A   1      17.789   0.379   7.778  0.00  0.00    -0.648 OA
ATOM     26  O24 ZIN A   1      19.587  -0.649   8.190  0.00  0.00    -0.648 OA
ENDBRANCH  23  24
ENDBRANCH  14  23
TORSDOF 5
ENDMDL
MODEL 4
REMARK VINA RESULT:      -7.5      2.955      7.107
REMARK  5 active torsions:
REMARK  status: ('A' for Active; 'I' for Inactive)
REMARK    1  A    between atoms: N2_2  and  C5_5 
REMARK    2  A    between atoms: C5_5  and  C6_6 
REMARK    3  A    between atoms: C6_6  and  C7_7 
REMARK    4  A    between atoms: C20_20  and  C21_21 
REMARK    5  A    between atoms: C21_21  and  C22_22 
ROOT
ATOM      1  C7  ZIN A   1      18.117   0.083   8.535  0.00  0.00    -0.012 C 
ATOM      2  C8  ZIN A   1      18.448   0.061   9.832  0.00  0.00    -0.016 C 
ATOM      3  C9  ZIN A   1      18.645   1.338  10.557  0.00  0.00    -0.017 A 
ATOM      4  C10 ZIN A   1      17.714   2.354  10.297  0.00  0.00     0.013 A 
ATOM      5  C11 ZIN A   1      17.815   3.577  10.921  0.00  0.00     0.001 A 
ATOM      6  C12 ZIN A   1      18.848   3.802  11.812  0.00  0.00     0.001 A 
ATOM      7  C13 ZIN A   1      19.765   2.808  12.070  0.00  0.00     0.010 A 
ATOM      8  C14 ZIN A   1      19.679   1.561  11.449  0.00  0.00    -0.023 A 
ATOM      9  C15 ZIN A   1      20.751   0.578  11.839  0.00  0.00     0.215 C 
ATOM     10  O16 ZIN A   1      20.822  -0.571  11.034  0.00  0.00    -0.346 OA
ATOM     11  C17 ZIN A   1      19.853  -1.507  11.080  0.00  0.00     0.080 A 
ATOM     12  C18 ZIN A   1      20.078  -2.735  11.684  0.00  0.00     0.038 A 
ATOM     13  C19 ZIN A   1      19.058  -3.668  11.737  0.00  0.00     0.010 A 
ATOM     14  C20 ZIN A   1      17.816  -3.388  11.196  0.00  0.00    -0.047 A 
ATOM     15  C25 ZIN A   1      17.584  -2.169  10.583  0.00  0.00     0.022 A 
ATOM     16  C26 ZIN A   1      18.607  -1.238  10.523  0.00  0.00     0.009 A 
ENDROOT
BRANCH   1  17
ATOM     17  C6  ZIN A   1      17.908  -1.209   7.789  0.00  0.00     0.055 C 
BRANCH  17  18
ATOM     18  C5  ZIN A   1      19.094  -1.455   6.853  0.00  0.00     0.237 C 
BRANCH  18  19
ATOM     19  N2  ZIN A   1      18.651  -1.328   5.458  0.00  0.00    -0.079 N 
ATOM     20  C1  ZIN A   1      19.332  -0.188   4.830  0.00  0.00     0.269 C 
ATOM     21  H3  ZIN A   1      17.654  -1.179   5.435  0.00  0.00     0.278 HD
ATOM     22  C4  ZIN A   1      18.979  -2.558   4.726  0.00  0.00     0.269 C 
ENDBRANCH  18  19
ENDBRANCH  17  18
ENDBRANCH   1  17
BRANCH  14  23
ATOM     23  C21 ZIN A   1      16.714  -4.412  11.275  0.00  0.00     0.151 C 
BRANCH  23  24
ATOM     24  C22 ZIN A   1      16.797  -5.331  10.083  0.00  0.00     0.176 C 
ATOM     25  O23 ZIN A   1      16.287  -5.005   9.024  0.00  0.00    -0.648 OA
ATOM     26  O24 ZIN A   1      17.371  -6.403  10.179  0.00  0.00    -0.648 OA
ENDBRANCH  23  24
ENDBRANCH  14  23
TORSDOF 5
ENDMDL
MODEL 5
REMARK VINA RESULT:      -7.4      2.953      6.261
REMARK  5 active torsions:
REMARK  status: ('A' for Active; 'I' for Inactive)
REMARK    1  A    between atoms: N2_2  and  C5_5 
REMARK    2  A    between atoms: C5_5  and  C6_6 
REMARK    3  A    between atoms: C6_6  and  C7_7 
REMARK    4  A    between atoms: C20_20  and  C21_21 
REMARK    5  A    between atoms: C21_21  and  C22_22 
ROOT
ATOM      1  C7  ZIN A   1      17.473  -3.368  11.511  0.00  0.00    -0.012 C 
ATOM      2  C8  ZIN A   1      17.941  -2.131  11.310  0.00  0.00    -0.016 C 
ATOM      3  C9  ZIN A   1      18.360  -1.311  12.470  0.00  0.00    -0.017 A 
ATOM      4  C10 ZIN A   1      19.100  -1.968  13.465  0.00  0.00     0.013 A 
ATOM      5  C11 ZIN A   1      19.532  -1.291  14.583  0.00  0.00     0.001 A 
ATOM      6  C12 ZIN A   1      19.231   0.052  14.722  0.00  0.00     0.001 A 
ATOM      7  C13 ZIN A   1      18.507   0.701  13.748  0.00  0.00     0.010 A 
ATOM      8  C14 ZIN A   1      18.060   0.033  12.607  0.00  0.00    -0.023 A 
ATOM      9  C15 ZIN A   1      17.286   0.880  11.633  0.00  0.00     0.215 C 
ATOM     10  O16 ZIN A   1      16.619   0.164  10.625  0.00  0.00    -0.346 OA
ATOM     11  C17 ZIN A   1      17.310  -0.451   9.644  0.00  0.00     0.080 A 
ATOM     12  C18 ZIN A   1      17.313   0.052   8.351  0.00  0.00     0.038 A 
ATOM     13  C19 ZIN A   1      18.050  -0.587   7.370  0.00  0.00     0.010 A 
ATOM     14  C20 ZIN A   1      18.785  -1.721   7.665  0.00  0.00    -0.047 A 
ATOM     15  C25 ZIN A   1      18.781  -2.237   8.950  0.00  0.00     0.022 A 
ATOM     16  C26 ZIN A   1      18.038  -1.602   9.930  0.00  0.00     0.009 A 
ENDROOT
BRANCH   1  17
ATOM     17  C6  ZIN A   1      17.048  -4.213  10.337  0.00  0.00     0.055 C 
BRANCH  17  18
ATOM     18  C5  ZIN A   1      17.534  -5.651  10.543  0.00  0.00     0.237 C 
BRANCH  18  19
ATOM     19  N2  ZIN A   1      18.133  -6.147   9.297  0.00  0.00    -0.079 N 
ATOM     20  C1  ZIN A   1      17.393  -5.608   8.149  0.00  0.00     0.269 C 
ATOM     21  H3  ZIN A   1      18.091  -7.155   9.282  0.00  0.00     0.278 HD
ATOM     22  C4  ZIN A   1      19.536  -5.716   9.222  0.00  0.00     0.269 C 
ENDBRANCH  18  19
ENDBRANCH  17  18
ENDBRANCH   1  17
BRANCH  14  23
ATOM     23  C21 ZIN A   1      19.591  -2.397   6.587  0.00  0.00     0.151 C 
BRANCH  23  24
ATOM     24  C22 ZIN A   1      19.144  -1.894   5.237  0.00  0.00     0.176 C 
ATOM     25  O23 ZIN A   1      18.106  -2.304   4.747  0.00  0.00    -0.648 OA
ATOM     26  O24 ZIN A   1      19.823  -1.080   4.635  0.00  0.00    -0.648 OA
ENDBRANCH  23  24
ENDBRANCH  14  23
TORSDOF 5
ENDMDL
MODEL 6
REMARK VINA RESULT:      -6.9      2.376      4.785
REMARK  5 active torsions:
REMARK  status: ('A' for Active; 'I' for Inactive)
REMARK    1  A    between atoms: N2_2  and  C5_5 
REMARK    2  A    between atoms: C5_5  and  C6_6 
REMARK    3  A    between atoms: C6_6  and  C7_7 
REMARK    4  A    between atoms: C20_20  and  C21_21 
REMARK    5  A    between atoms: C21_21  and  C22_22 
ROOT
ATOM      1  C7  ZIN A   1      17.199   0.252   9.416  0.00  0.00    -0.012 C 
ATOM      2  C8  ZIN A   1      18.072  -0.673   8.998  0.00  0.00    -0.016 C 
ATOM      3  C9  ZIN A   1      18.558  -0.640   7.599  0.00  0.00    -0.017 A 
ATOM      4  C10 ZIN A   1      18.883   0.622   7.081  0.00  0.00     0.013 A 
ATOM      5  C11 ZIN A   1      19.340   0.756   5.789  0.00  0.00     0.001 A 
ATOM      6  C12 ZIN A   1      19.480  -0.370   4.999  0.00  0.00     0.001 A 
ATOM      7  C13 ZIN A   1      19.163  -1.611   5.503  0.00  0.00     0.010 A 
ATOM      8  C14 ZIN A   1      18.698  -1.767   6.810  0.00  0.00    -0.023 A 
ATOM      9  C15 ZIN A   1      18.400  -3.186   7.216  0.00  0.00     0.215 C 
ATOM     10  O16 ZIN A   1      17.694  -3.320   8.423  0.00  0.00    -0.346 OA
ATOM     11  C17 ZIN A   1      18.284  -3.036   9.602  0.00  0.00     0.080 A 
ATOM     12  C18 ZIN A   1      18.646  -4.047  10.480  0.00  0.00     0.038 A 
ATOM     13  C19 ZIN A   1      19.271  -3.727  11.672  0.00  0.00     0.010 A 
ATOM     14  C20 ZIN A   1      19.540  -2.409  11.997  0.00  0.00    -0.047 A 
ATOM     15  C25 ZIN A   1      19.175  -1.393  11.132  0.00  0.00     0.022 A 
ATOM     16  C26 ZIN A   1      18.542  -1.712   9.942  0.00  0.00     0.009 A 
ENDROOT
BRANCH   1  17
ATOM     17  C6  ZIN A   1      16.702   0.231  10.838  0.00  0.00     0.055 C 
BRANCH  17  18
ATOM     18  C5  ZIN A   1      17.340   1.384  11.618  0.00  0.00     0.237 C 
BRANCH  18  19
ATOM     19  N2  ZIN A   1      18.022   2.288  10.683  0.00  0.00    -0.079 N 
ATOM     20  C1  ZIN A   1      17.422   3.626  10.770  0.00  0.00     0.269 C 
ATOM     21  H3  ZIN A   1      17.924   1.935   9.743  0.00  0.00     0.278 HD
ATOM     22  C4  ZIN A   1      19.448   2.367  11.029  0.00  0.00     0.269 C 
ENDBRANCH  18  19
ENDBRANCH  17  18
ENDBRANCH   1  17
BRANCH  14  23
ATOM     23  C21 ZIN A   1      20.232  -2.081  13.294  0.00  0.00     0.151 C 
BRANCH  23  24
ATOM     24  C22 ZIN A   1      19.441  -1.032  14.033  0.00  0.00     0.176 C 
ATOM     25  O23 ZIN A   1      19.867   0.108  14.114  0.00  0.00    -0.648 OA
ATOM     26  O24 ZIN A   1      18.378  -1.324  14.553  0.00  0.00    -0.648 OA
ENDBRANCH  23  24
ENDBRANCH  14  23
TORSDOF 5
ENDMDL
MODEL 7
REMARK VINA RESULT:      -6.8      2.102      2.728
REMARK  5 active torsions:
REMARK  status: ('A' for Active; 'I' for Inactive)
REMARK    1  A    between atoms: N2_2  and  C5_5 
REMARK    2  A    between atoms: C5_5  and  C6_6 
REMARK    3  A    between atoms: C6_6  and  C7_7 
REMARK    4  A    between atoms: C20_20  and  C21_21 
REMARK    5  A    between atoms: C21_21  and  C22_22 
ROOT
ATOM      1  C7  ZIN A   1      17.959  -0.236  14.297  0.00  0.00    -0.012 C 
ATOM      2  C8  ZIN A   1      18.334  -0.082  13.021  0.00  0.00    -0.016 C 
ATOM      3  C9  ZIN A   1      18.497  -1.276  12.159  0.00  0.00    -0.017 A 
ATOM      4  C10 ZIN A   1      17.513  -2.269  12.274  0.00  0.00     0.013 A 
ATOM      5  C11 ZIN A   1      17.580  -3.417  11.516  0.00  0.00     0.001 A 
ATOM      6  C12 ZIN A   1      18.630  -3.587  10.634  0.00  0.00     0.001 A 
ATOM      7  C13 ZIN A   1      19.599  -2.616  10.517  0.00  0.00     0.010 A 
ATOM      8  C14 ZIN A   1      19.548  -1.445  11.275  0.00  0.00    -0.023 A 
ATOM      9  C15 ZIN A   1      20.676  -0.478  11.031  0.00  0.00     0.215 C 
ATOM     10  O16 ZIN A   1      20.772   0.567  11.965  0.00  0.00    -0.346 OA
ATOM     11  C17 ZIN A   1      19.848   1.548  12.001  0.00  0.00     0.080 A 
ATOM     12  C18 ZIN A   1      20.147   2.825  11.549  0.00  0.00     0.038 A 
ATOM     13  C19 ZIN A   1      19.172   3.806  11.575  0.00  0.00     0.010 A 
ATOM     14  C20 ZIN A   1      17.901   3.526  12.046  0.00  0.00    -0.047 A 
ATOM     15  C25 ZIN A   1      17.595   2.258  12.508  0.00  0.00     0.022 A 
ATOM     16  C26 ZIN A   1      18.573   1.278  12.489  0.00  0.00     0.009 A 
ENDROOT
BRANCH   1  17
ATOM     17  C6  ZIN A   1      17.784   0.972  15.181  0.00  0.00     0.055 C 
BRANCH  17  18
ATOM     18  C5  ZIN A   1      19.010   1.122  16.086  0.00  0.00     0.237 C 
BRANCH  18  19
ATOM     19  N2  ZIN A   1      18.590   1.065  17.492  0.00  0.00    -0.079 N 
ATOM     20  C1  ZIN A   1      19.286  -0.039  18.166  0.00  0.00     0.269 C 
ATOM     21  H3  ZIN A   1      17.593   0.913  17.538  0.00  0.00     0.278 HD
ATOM     22  C4  ZIN A   1      18.923   2.333  18.155  0.00  0.00     0.269 C 
ENDBRANCH  18  19
ENDBRANCH  17  18
ENDBRANCH   1  17
BRANCH  14  23
ATOM     23  C21 ZIN A   1      16.849   4.604  12.057  0.00  0.00     0.151 C 
BRANCH  23  24
ATOM     24  C22 ZIN A   1      16.921   5.364  13.356  0.00  0.00     0.176 C 
ATOM     25  O23 ZIN A   1      16.796   6.577  13.361  0.00  0.00    -0.648 OA
ATOM     26  O24 ZIN A   1      17.107   4.766  14.403  0.00  0.00    -0.648 OA
ENDBRANCH  23  24
ENDBRANCH  14  23
TORSDOF 5
ENDMDL
MODEL 8
REMARK VINA RESULT:      -6.6      2.095      6.319
REMARK  5 active torsions:
REMARK  status: ('A' for Active; 'I' for Inactive)
REMARK    1  A    between atoms: N2_2  and  C5_5 
REMARK    2  A    between atoms: C5_5  and  C6_6 
REMARK    3  A    between atoms: C6_6  and  C7_7 
REMARK    4  A    between atoms: C20_20  and  C21_21 
REMARK    5  A    between atoms: C21_21  and  C22_22 
ROOT
ATOM      1  C7  ZIN A   1      17.850   1.485  14.688  0.00  0.00    -0.012 C 
ATOM      2  C8  ZIN A   1      18.306   2.443  13.871  0.00  0.00    -0.016 C 
ATOM      3  C9  ZIN A   1      18.623   3.782  14.421  0.00  0.00    -0.017 A 
ATOM      4  C10 ZIN A   1      19.302   3.809  15.648  0.00  0.00     0.013 A 
ATOM      5  C11 ZIN A   1      19.637   5.005  16.241  0.00  0.00     0.001 A 
ATOM      6  C12 ZIN A   1      19.299   6.191  15.615  0.00  0.00     0.001 A 
ATOM      7  C13 ZIN A   1      18.634   6.170  14.410  0.00  0.00     0.010 A 
ATOM      8  C14 ZIN A   1      18.285   4.968  13.793  0.00  0.00    -0.023 A 
ATOM      9  C15 ZIN A   1      17.566   5.110  12.478  0.00  0.00     0.215 C 
ATOM     10  O16 ZIN A   1      16.990   3.926  11.988  0.00  0.00    -0.346 OA
ATOM     11  C17 ZIN A   1      17.763   2.920  11.533  0.00  0.00     0.080 A 
ATOM     12  C18 ZIN A   1      17.849   2.645  10.176  0.00  0.00     0.038 A 
ATOM     13  C19 ZIN A   1      18.668   1.621   9.736  0.00  0.00     0.010 A 
ATOM     14  C20 ZIN A   1      19.403   0.869  10.635  0.00  0.00    -0.047 A 
ATOM     15  C25 ZIN A   1      19.317   1.129  11.991  0.00  0.00     0.022 A 
ATOM     16  C26 ZIN A   1      18.492   2.149  12.433  0.00  0.00     0.009 A 
ENDROOT
BRANCH   1  17
ATOM     17  C6  ZIN A   1      17.530   0.118  14.141  0.00  0.00     0.055 C 
BRANCH  17  18
ATOM     18  C5  ZIN A   1      18.342  -0.936  14.898  0.00  0.00     0.237 C 
BRANCH  18  19
ATOM     19  N2  ZIN A   1      18.309  -0.639  16.336  0.00  0.00    -0.079 N 
ATOM     20  C1  ZIN A   1      17.022  -1.075  16.896  0.00  0.00     0.269 C 
ATOM     21  H3  ZIN A   1      18.418   0.354  16.476  0.00  0.00     0.278 HD
ATOM     22  C4  ZIN A   1      19.403  -1.352  17.009  0.00  0.00     0.269 C 
ENDBRANCH  18  19
ENDBRANCH  17  18
ENDBRANCH   1  17
BRANCH  14  23
ATOM     23  C21 ZIN A   1      20.299  -0.234  10.136  0.00  0.00     0.151 C 
BRANCH  23  24
ATOM     24  C22 ZIN A   1      19.599  -1.560  10.292  0.00  0.00     0.176 C 
ATOM     25  O23 ZIN A   1      18.823  -1.944   9.434  0.00  0.00    -0.648 OA
ATOM     26  O24 ZIN A   1      19.806  -2.246  11.278  0.00  0.00    -0.648 OA
ENDBRANCH  23  24
ENDBRANCH  14  23
TORSDOF 5
ENDMDL
MODEL 9
REMARK VINA RESULT:      -6.6      2.869      5.241
REMARK  5 active torsions:
REMARK  status: ('A' for Active; 'I' for Inactive)
REMARK    1  A    between atoms: N2_2  and  C5_5 
REMARK    2  A    between atoms: C5_5  and  C6_6 
REMARK    3  A    between atoms: C6_6  and  C7_7 
REMARK    4  A    between atoms: C20_20  and  C21_21 
REMARK    5  A    between atoms: C21_21  and  C22_22 
ROOT
ATOM      1  C7  ZIN A   1      17.733  -2.535  10.310  0.00  0.00    -0.012 C 
ATOM      2  C8  ZIN A   1      18.165  -1.269  10.253  0.00  0.00    -0.016 C 
ATOM      3  C9  ZIN A   1      18.187  -0.563   8.950  0.00  0.00    -0.017 A 
ATOM      4  C10 ZIN A   1      17.071  -0.747   8.121  0.00  0.00     0.013 A 
ATOM      5  C11 ZIN A   1      17.002  -0.135   6.890  0.00  0.00     0.001 A 
ATOM      6  C12 ZIN A   1      18.046   0.669   6.471  0.00  0.00     0.001 A 
ATOM      7  C13 ZIN A   1      19.143   0.854   7.282  0.00  0.00     0.010 A 
ATOM      8  C14 ZIN A   1      19.232   0.243   8.534  0.00  0.00    -0.023 A 
ATOM      9  C15 ZIN A   1      20.490   0.545   9.304  0.00  0.00     0.215 C 
ATOM     10  O16 ZIN A   1      20.701  -0.262  10.434  0.00  0.00    -0.346 OA
ATOM     11  C17 ZIN A   1      19.922  -0.137  11.526  0.00  0.00     0.080 A 
ATOM     12  C18 ZIN A   1      20.410   0.448  12.686  0.00  0.00     0.038 A 
ATOM     13  C19 ZIN A   1      19.580   0.584  13.785  0.00  0.00     0.010 A 
ATOM     14  C20 ZIN A   1      18.269   0.145  13.738  0.00  0.00    -0.047 A 
ATOM     15  C25 ZIN A   1      17.775  -0.448  12.590  0.00  0.00     0.022 A 
ATOM     16  C26 ZIN A   1      18.607  -0.592  11.493  0.00  0.00     0.009 A 
ENDROOT
BRANCH   1  17
ATOM     17  C6  ZIN A   1      17.700  -3.261  11.630  0.00  0.00     0.055 C 
BRANCH  17  18
ATOM     18  C5  ZIN A   1      18.392  -4.618  11.483  0.00  0.00     0.237 C 
BRANCH  18  19
ATOM     19  N2  ZIN A   1      18.292  -5.069  10.089  0.00  0.00    -0.079 N 
ATOM     20  C1  ZIN A   1      19.621  -5.467   9.606  0.00  0.00     0.269 C 
ATOM     21  H3  ZIN A   1      17.937  -4.317   9.517  0.00  0.00     0.278 HD
ATOM     22  C4  ZIN A   1      17.378  -6.217  10.009  0.00  0.00     0.269 C 
ENDBRANCH  18  19
ENDBRANCH  17  18
ENDBRANCH   1  17
BRANCH  14  23
ATOM     23  C21 ZIN A   1      17.377   0.313  14.941  0.00  0.00     0.151 C 
BRANCH  23  24
ATOM     24  C22 ZIN A   1      17.969  -0.427  16.113  0.00  0.00     0.176 C 
ATOM     25  O23 ZIN A   1      18.124  -1.635  16.056  0.00  0.00    -0.648 OA
ATOM     26  O24 ZIN A   1      18.291   0.183  17.119  0.00  0.00    -0.648 OA
ENDBRANCH  23  24
ENDBRANCH  14  23
TORSDOF 5
ENDMDL
