MODEL 1
REMARK VINA RESULT:      -5.3      0.000      0.000
REMARK  8 active torsions:
REMARK  status: ('A' for Active; 'I' for Inactive)
REMARK    1  A    between atoms: O1_1  and  C2_2 
REMARK    2  A    between atoms: C2_2  and  C3_3 
REMARK    3  A    between atoms: C3_3  and  N4_4 
REMARK    4  A    between atoms: C6_6  and  O8_7 
REMARK    5  A    between atoms: C9_8  and  O11_9 
REMARK    6  A    between atoms: C12_10  and  O14_11 
REMARK    7  A    between atoms: C15_12  and  C17_13 
REMARK    8  A    between atoms: C17_13  and  O18_14 
ROOT
ATOM      1  N4  <0> d   1      19.355   1.567  10.918  0.00  0.00     0.102 N 
ATOM      2  C5  <0> d   1      18.423   1.477   9.787  0.00  0.00     0.307 C 
ATOM      3  C6  <0> d   1      19.031   0.597   8.692  0.00  0.00     0.177 C 
ATOM      4  C9  <0> d   1      19.310  -0.797   9.261  0.00  0.00     0.179 C 
ATOM      5  C12 <0> d   1      20.245  -0.669  10.467  0.00  0.00     0.184 C 
ATOM      6  C15 <0> d   1      19.602   0.247  11.510  0.00  0.00     0.277 C 
ENDROOT
BRANCH   1   7
ATOM      7  C3  <0> d   1      18.866   2.515  11.929  0.00  0.00     0.299 C 
BRANCH   7   8
ATOM      8  C2  <0> d   1      19.672   3.813  11.843  0.00  0.00     0.194 C 
BRANCH   8   9
ATOM      9  O1  <0> d   1      21.063   3.504  11.737  0.00  0.00    -0.399 OA
ATOM     10  H19 <0> d   1      21.643   4.147  12.169  0.00  0.00     0.209 HD
ENDBRANCH   8   9
ENDBRANCH   7   8
ENDBRANCH   1   7
BRANCH   6  11
ATOM     11  C17 <0> d   1      20.542   0.394  12.708  0.00  0.00     0.202 C 
BRANCH  11  12
ATOM     12  O18 <0> d   1      21.875   0.615  12.243  0.00  0.00    -0.399 OA
ATOM     13  H31 <0> d   1      22.487  -0.106  12.446  0.00  0.00     0.209 HD
ENDBRANCH  11  12
ENDBRANCH   6  11
BRANCH   5  14
ATOM     14  O14 <0> d   1      20.467  -1.961  11.036  0.00  0.00    -0.391 OA
ATOM     15  H28 <0> d   1      20.811  -2.613  10.411  0.00  0.00     0.210 HD
ENDBRANCH   5  14
BRANCH   3  16
ATOM     16  O8  <0> d   1      18.115   0.493   7.601  0.00  0.00    -0.391 OA
ATOM     17  H26 <0> d   1      18.474   0.793   6.755  0.00  0.00     0.210 HD
ENDBRANCH   3  16
BRANCH   4  18
ATOM     18  O11 <0> d   1      19.930  -1.606   8.258  0.00  0.00    -0.390 OA
ATOM     19  H27 <0> d   1      19.465  -1.605   7.410  0.00  0.00     0.210 HD
ENDBRANCH   4  18
TORSDOF 8
ENDMDL
MODEL 2
REMARK VINA RESULT:      -5.2      2.585      5.150
REMARK  8 active torsions:
REMARK  status: ('A' for Active; 'I' for Inactive)
REMARK    1  A    between atoms: O1_1  and  C2_2 
REMARK    2  A    between atoms: C2_2  and  C3_3 
REMARK    3  A    between atoms: C3_3  and  N4_4 
REMARK    4  A    between atoms: C6_6  and  O8_7 
REMARK    5  A    between atoms: C9_8  and  O11_9 
REMARK    6  A    between atoms: C12_10  and  O14_11 
REMARK    7  A    between atoms: C15_12  and  C17_13 
REMARK    8  A    between atoms: C17_13  and  O18_14 
ROOT
ATOM      1  N4  <0> d   1      19.300  -1.518  12.248  0.00  0.00     0.102 N 
ATOM      2  C5  <0> d   1      18.349  -1.372  13.357  0.00  0.00     0.307 C 
ATOM      3  C6  <0> d   1      18.931  -0.423  14.408  0.00  0.00     0.177 C 
ATOM      4  C9  <0> d   1      19.204   0.938  13.763  0.00  0.00     0.179 C 
ATOM      5  C12 <0> d   1      20.160   0.751  12.581  0.00  0.00     0.184 C 
ATOM      6  C15 <0> d   1      19.542  -0.232  11.583  0.00  0.00     0.277 C 
ENDROOT
BRANCH   1   7
ATOM      7  C3  <0> d   1      18.836  -2.529  11.287  0.00  0.00     0.299 C 
BRANCH   7   8
ATOM      8  C2  <0> d   1      19.635  -3.820  11.479  0.00  0.00     0.194 C 
BRANCH   8   9
ATOM      9  O1  <0> d   1      21.027  -3.510  11.571  0.00  0.00    -0.399 OA
ATOM     10  H19 <0> d   1      21.540  -3.773  10.794  0.00  0.00     0.209 HD
ENDBRANCH   8   9
ENDBRANCH   7   8
ENDBRANCH   1   7
BRANCH   6  11
ATOM     11  C17 <0> d   1      20.503  -0.438  10.410  0.00  0.00     0.202 C 
BRANCH  11  12
ATOM     12  O18 <0> d   1      21.831  -0.614  10.907  0.00  0.00    -0.399 OA
ATOM     13  H31 <0> d   1      21.974  -0.241  11.788  0.00  0.00     0.209 HD
ENDBRANCH  11  12
ENDBRANCH   6  11
BRANCH   5  14
ATOM     14  O14 <0> d   1      20.377   2.009  11.940  0.00  0.00    -0.391 OA
ATOM     15  H28 <0> d   1      19.611   2.340  11.453  0.00  0.00     0.210 HD
ENDBRANCH   5  14
BRANCH   3  16
ATOM     16  O8  <0> d   1      17.997  -0.266  15.477  0.00  0.00    -0.391 OA
ATOM     17  H26 <0> d   1      18.077  -0.934  16.172  0.00  0.00     0.210 HD
ENDBRANCH   3  16
BRANCH   4  18
ATOM     18  O11 <0> d   1      19.800   1.811  14.726  0.00  0.00    -0.390 OA
ATOM     19  H27 <0> d   1      20.241   1.351  15.453  0.00  0.00     0.210 HD
ENDBRANCH   4  18
TORSDOF 8
ENDMDL
MODEL 3
REMARK VINA RESULT:      -5.0      1.664      4.263
REMARK  8 active torsions:
REMARK  status: ('A' for Active; 'I' for Inactive)
REMARK    1  A    between atoms: O1_1  and  C2_2 
REMARK    2  A    between atoms: C2_2  and  C3_3 
REMARK    3  A    between atoms: C3_3  and  N4_4 
REMARK    4  A    between atoms: C6_6  and  O8_7 
REMARK    5  A    between atoms: C9_8  and  O11_9 
REMARK    6  A    between atoms: C12_10  and  O14_11 
REMARK    7  A    between atoms: C15_12  and  C17_13 
REMARK    8  A    between atoms: C17_13  and  O18_14 
ROOT
ATOM      1  N4  <0> d   1      18.591   0.420   9.614  0.00  0.00     0.102 N 
ATOM      2  C5  <0> d   1      19.132  -0.860  10.089  0.00  0.00     0.307 C 
ATOM      3  C6  <0> d   1      20.539  -0.643  10.653  0.00  0.00     0.177 C 
ATOM      4  C9  <0> d   1      20.471   0.364  11.804  0.00  0.00     0.179 C 
ATOM      5  C12 <0> d   1      19.860   1.672  11.293  0.00  0.00     0.184 C 
ATOM      6  C15 <0> d   1      18.473   1.388  10.711  0.00  0.00     0.277 C 
ENDROOT
BRANCH   1   7
ATOM      7  C3  <0> d   1      17.300   0.228   8.940  0.00  0.00     0.299 C 
BRANCH   7   8
ATOM      8  C2  <0> d   1      17.538  -0.109   7.466  0.00  0.00     0.194 C 
BRANCH   8   9
ATOM      9  O1  <0> d   1      18.448   0.838   6.902  0.00  0.00    -0.399 OA
ATOM     10  H19 <0> d   1      19.338   0.490   6.757  0.00  0.00     0.209 HD
ENDBRANCH   8   9
ENDBRANCH   7   8
ENDBRANCH   1   7
BRANCH   6  11
ATOM     11  C17 <0> d   1      17.867   2.689  10.180  0.00  0.00     0.202 C 
BRANCH  11  12
ATOM     12  O18 <0> d   1      16.977   3.232  11.157  0.00  0.00    -0.399 OA
ATOM     13  H31 <0> d   1      16.265   2.632  11.418  0.00  0.00     0.209 HD
ENDBRANCH  11  12
ENDBRANCH   6  11
BRANCH   5  14
ATOM     14  O14 <0> d   1      19.744   2.598  12.375  0.00  0.00    -0.391 OA
ATOM     15  H28 <0> d   1      19.151   3.340  12.195  0.00  0.00     0.210 HD
ENDBRANCH   5  14
BRANCH   3  16
ATOM     16  O8  <0> d   1      21.056  -1.885  11.134  0.00  0.00    -0.391 OA
ATOM     17  H26 <0> d   1      20.527  -2.655  10.885  0.00  0.00     0.210 HD
ENDBRANCH   3  16
BRANCH   4  18
ATOM     18  O11 <0> d   1      21.789   0.613  12.298  0.00  0.00    -0.390 OA
ATOM     19  H27 <0> d   1      22.451   0.741  11.605  0.00  0.00     0.210 HD
ENDBRANCH   4  18
TORSDOF 8
ENDMDL
MODEL 4
REMARK VINA RESULT:      -4.8      2.583      4.601
REMARK  8 active torsions:
REMARK  status: ('A' for Active; 'I' for Inactive)
REMARK    1  A    between atoms: O1_1  and  C2_2 
REMARK    2  A    between atoms: C2_2  and  C3_3 
REMARK    3  A    between atoms: C3_3  and  N4_4 
REMARK    4  A    between atoms: C6_6  and  O8_7 
REMARK    5  A    between atoms: C9_8  and  O11_9 
REMARK    6  A    between atoms: C12_10  and  O14_11 
REMARK    7  A    between atoms: C15_12  and  C17_13 
REMARK    8  A    between atoms: C17_13  and  O18_14 
ROOT
ATOM      1  N4  <0> d   1      18.123  -2.133  10.038  0.00  0.00     0.102 N 
ATOM      2  C5  <0> d   1      17.847  -1.539   8.724  0.00  0.00     0.307 C 
ATOM      3  C6  <0> d   1      18.259  -0.065   8.732  0.00  0.00     0.177 C 
ATOM      4  C9  <0> d   1      19.751   0.041   9.058  0.00  0.00     0.179 C 
ATOM      5  C12 <0> d   1      20.019  -0.627  10.410  0.00  0.00     0.184 C 
ATOM      6  C15 <0> d   1      19.556  -2.085  10.354  0.00  0.00     0.277 C 
ENDROOT
BRANCH   1   7
ATOM      7  C3  <0> d   1      17.612  -3.509  10.112  0.00  0.00     0.299 C 
BRANCH   7   8
ATOM      8  C2  <0> d   1      17.676  -4.151   8.725  0.00  0.00     0.194 C 
BRANCH   8   9
ATOM      9  O1  <0> d   1      16.433  -4.799   8.443  0.00  0.00    -0.399 OA
ATOM     10  H19 <0> d   1      15.676  -4.417   8.909  0.00  0.00     0.209 HD
ENDBRANCH   8   9
ENDBRANCH   7   8
ENDBRANCH   1   7
BRANCH   6  11
ATOM     11  C17 <0> d   1      19.802  -2.751  11.709  0.00  0.00     0.202 C 
BRANCH  11  12
ATOM     12  O18 <0> d   1      21.068  -3.415  11.690  0.00  0.00    -0.399 OA
ATOM     13  H31 <0> d   1      21.211  -3.965  10.908  0.00  0.00     0.209 HD
ENDBRANCH  11  12
ENDBRANCH   6  11
BRANCH   5  14
ATOM     14  O14 <0> d   1      21.418  -0.581  10.696  0.00  0.00    -0.391 OA
ATOM     15  H28 <0> d   1      21.670   0.120  11.312  0.00  0.00     0.210 HD
ENDBRANCH   5  14
BRANCH   3  16
ATOM     16  O8  <0> d   1      18.009   0.507   7.447  0.00  0.00    -0.391 OA
ATOM     17  H26 <0> d   1      18.744   0.415   6.825  0.00  0.00     0.210 HD
ENDBRANCH   3  16
BRANCH   4  18
ATOM     18  O11 <0> d   1      20.129   1.418   9.122  0.00  0.00    -0.390 OA
ATOM     19  H27 <0> d   1      20.843   1.658   8.516  0.00  0.00     0.210 HD
ENDBRANCH   4  18
TORSDOF 8
ENDMDL
MODEL 5
REMARK VINA RESULT:      -4.8      1.557      3.548
REMARK  8 active torsions:
REMARK  status: ('A' for Active; 'I' for Inactive)
REMARK    1  A    between atoms: O1_1  and  C2_2 
REMARK    2  A    between atoms: C2_2  and  C3_3 
REMARK    3  A    between atoms: C3_3  and  N4_4 
REMARK    4  A    between atoms: C6_6  and  O8_7 
REMARK    5  A    between atoms: C9_8  and  O11_9 
REMARK    6  A    between atoms: C12_10  and  O14_11 
REMARK    7  A    between atoms: C15_12  and  C17_13 
REMARK    8  A    between atoms: C17_13  and  O18_14 
ROOT
ATOM      1  N4  <0> d   1      18.734   1.611  10.450  0.00  0.00     0.102 N 
ATOM      2  C5  <0> d   1      19.764   1.705  11.492  0.00  0.00     0.307 C 
ATOM      3  C6  <0> d   1      20.096   0.303  12.010  0.00  0.00     0.177 C 
ATOM      4  C9  <0> d   1      20.595  -0.560  10.849  0.00  0.00     0.179 C 
ATOM      5  C12 <0> d   1      19.522  -0.601   9.756  0.00  0.00     0.184 C 
ATOM      6  C15 <0> d   1      19.207   0.827   9.303  0.00  0.00     0.277 C 
ENDROOT
BRANCH   1   7
ATOM      7  C3  <0> d   1      18.290   2.947  10.028  0.00  0.00     0.299 C 
BRANCH   7   8
ATOM      8  C2  <0> d   1      17.881   3.761  11.257  0.00  0.00     0.194 C 
BRANCH   8   9
ATOM      9  O1  <0> d   1      16.561   4.277  11.069  0.00  0.00    -0.399 OA
ATOM     10  H19 <0> d   1      16.446   5.185  11.383  0.00  0.00     0.209 HD
ENDBRANCH   8   9
ENDBRANCH   7   8
ENDBRANCH   1   7
BRANCH   6  11
ATOM     11  C17 <0> d   1      18.121   0.792   8.227  0.00  0.00     0.202 C 
BRANCH  11  12
ATOM     12  O18 <0> d   1      18.731   0.699   6.938  0.00  0.00    -0.399 OA
ATOM     13  H31 <0> d   1      18.285   1.217   6.253  0.00  0.00     0.209 HD
ENDBRANCH  11  12
ENDBRANCH   6  11
BRANCH   5  14
ATOM     14  O14 <0> d   1      20.003  -1.360   8.645  0.00  0.00    -0.391 OA
ATOM     15  H28 <0> d   1      20.595  -2.084   8.889  0.00  0.00     0.210 HD
ENDBRANCH   5  14
BRANCH   3  16
ATOM     16  O8  <0> d   1      21.112   0.393  13.010  0.00  0.00    -0.391 OA
ATOM     17  H26 <0> d   1      21.251   1.287  13.352  0.00  0.00     0.210 HD
ENDBRANCH   3  16
BRANCH   4  18
ATOM     18  O11 <0> d   1      20.853  -1.886  11.315  0.00  0.00    -0.390 OA
ATOM     19  H27 <0> d   1      21.429  -2.402  10.734  0.00  0.00     0.210 HD
ENDBRANCH   4  18
TORSDOF 8
ENDMDL
MODEL 6
REMARK VINA RESULT:      -4.8      1.533      4.012
REMARK  8 active torsions:
REMARK  status: ('A' for Active; 'I' for Inactive)
REMARK    1  A    between atoms: O1_1  and  C2_2 
REMARK    2  A    between atoms: C2_2  and  C3_3 
REMARK    3  A    between atoms: C3_3  and  N4_4 
REMARK    4  A    between atoms: C6_6  and  O8_7 
REMARK    5  A    between atoms: C9_8  and  O11_9 
REMARK    6  A    between atoms: C12_10  and  O14_11 
REMARK    7  A    between atoms: C15_12  and  C17_13 
REMARK    8  A    between atoms: C17_13  and  O18_14 
ROOT
ATOM      1  N4  <0> d   1      18.157   0.185  10.852  0.00  0.00     0.102 N 
ATOM      2  C5  <0> d   1      17.941   1.493  10.221  0.00  0.00     0.307 C 
ATOM      3  C6  <0> d   1      18.496   2.595  11.127  0.00  0.00     0.177 C 
ATOM      4  C9  <0> d   1      19.990   2.358  11.354  0.00  0.00     0.179 C 
ATOM      5  C12 <0> d   1      20.191   0.969  11.968  0.00  0.00     0.184 C 
ATOM      6  C15 <0> d   1      19.588  -0.086  11.038  0.00  0.00     0.277 C 
ENDROOT
BRANCH   1   7
ATOM      7  C3  <0> d   1      17.514  -0.886  10.078  0.00  0.00     0.299 C 
BRANCH   7   8
ATOM      8  C2  <0> d   1      17.608  -0.563   8.585  0.00  0.00     0.194 C 
BRANCH   8   9
ATOM      9  O1  <0> d   1      17.504  -1.771   7.829  0.00  0.00    -0.399 OA
ATOM     10  H19 <0> d   1      18.310  -2.004   7.348  0.00  0.00     0.209 HD
ENDBRANCH   8   9
ENDBRANCH   7   8
ENDBRANCH   1   7
BRANCH   6  11
ATOM     11  C17 <0> d   1      19.768  -1.474  11.657  0.00  0.00     0.202 C 
BRANCH  11  12
ATOM     12  O18 <0> d   1      20.966  -2.068  11.152  0.00  0.00    -0.399 OA
ATOM     13  H31 <0> d   1      20.819  -2.698  10.433  0.00  0.00     0.209 HD
ENDBRANCH  11  12
ENDBRANCH   6  11
BRANCH   5  14
ATOM     14  O14 <0> d   1      21.588   0.718  12.132  0.00  0.00    -0.391 OA
ATOM     15  H28 <0> d   1      21.879   0.702  13.054  0.00  0.00     0.210 HD
ENDBRANCH   5  14
BRANCH   3  16
ATOM     16  O8  <0> d   1      18.303   3.866  10.504  0.00  0.00    -0.391 OA
ATOM     17  H26 <0> d   1      19.104   4.238  10.111  0.00  0.00     0.210 HD
ENDBRANCH   3  16
BRANCH   4  18
ATOM     18  O11 <0> d   1      20.502   3.352  12.245  0.00  0.00    -0.390 OA
ATOM     19  H27 <0> d   1      20.762   3.009  13.110  0.00  0.00     0.210 HD
ENDBRANCH   4  18
TORSDOF 8
ENDMDL
MODEL 7
REMARK VINA RESULT:      -4.8      2.637      3.225
REMARK  8 active torsions:
REMARK  status: ('A' for Active; 'I' for Inactive)
REMARK    1  A    between atoms: O1_1  and  C2_2 
REMARK    2  A    between atoms: C2_2  and  C3_3 
REMARK    3  A    between atoms: C3_3  and  N4_4 
REMARK    4  A    between atoms: C6_6  and  O8_7 
REMARK    5  A    between atoms: C9_8  and  O11_9 
REMARK    6  A    between atoms: C12_10  and  O14_11 
REMARK    7  A    between atoms: C15_12  and  C17_13 
REMARK    8  A    between atoms: C17_13  and  O18_14 
ROOT
ATOM      1  N4  <0> d   1      18.145  -0.027  12.139  0.00  0.00     0.102 N 
ATOM      2  C5  <0> d   1      17.379  -1.265  12.328  0.00  0.00     0.307 C 
ATOM      3  C6  <0> d   1      17.664  -2.224  11.168  0.00  0.00     0.177 C 
ATOM      4  C9  <0> d   1      19.163  -2.530  11.122  0.00  0.00     0.179 C 
ATOM      5  C12 <0> d   1      19.940  -1.219  10.974  0.00  0.00     0.184 C 
ATOM      6  C15 <0> d   1      19.589  -0.290  12.139  0.00  0.00     0.277 C 
ENDROOT
BRANCH   1   7
ATOM      7  C3  <0> d   1      17.791   0.971  13.158  0.00  0.00     0.299 C 
BRANCH   7   8
ATOM      8  C2  <0> d   1      17.679   0.288  14.523  0.00  0.00     0.194 C 
BRANCH   8   9
ATOM      9  O1  <0> d   1      17.338   1.259  15.515  0.00  0.00    -0.399 OA
ATOM     10  H19 <0> d   1      17.807   2.100  15.420  0.00  0.00     0.209 HD
ENDBRANCH   8   9
ENDBRANCH   7   8
ENDBRANCH   1   7
BRANCH   6  11
ATOM     11  C17 <0> d   1      20.347   1.030  11.984  0.00  0.00     0.202 C 
BRANCH  11  12
ATOM     12  O18 <0> d   1      21.726   0.827  12.301  0.00  0.00    -0.399 OA
ATOM     13  H31 <0> d   1      22.237   0.417  11.589  0.00  0.00     0.209 HD
ENDBRANCH  11  12
ENDBRANCH   6  11
BRANCH   5  14
ATOM     14  O14 <0> d   1      21.342  -1.492  10.985  0.00  0.00    -0.391 OA
ATOM     15  H28 <0> d   1      21.660  -1.881  11.811  0.00  0.00     0.210 HD
ENDBRANCH   5  14
BRANCH   3  16
ATOM     16  O8  <0> d   1      16.934  -3.437  11.362  0.00  0.00    -0.391 OA
ATOM     17  H26 <0> d   1      17.427  -4.122  11.833  0.00  0.00     0.210 HD
ENDBRANCH   3  16
BRANCH   4  18
ATOM     18  O11 <0> d   1      19.442  -3.380  10.008  0.00  0.00    -0.390 OA
ATOM     19  H27 <0> d   1      19.595  -4.305  10.247  0.00  0.00     0.210 HD
ENDBRANCH   4  18
TORSDOF 8
ENDMDL
MODEL 8
REMARK VINA RESULT:      -4.7      2.697      4.175
REMARK  8 active torsions:
REMARK  status: ('A' for Active; 'I' for Inactive)
REMARK    1  A    between atoms: O1_1  and  C2_2 
REMARK    2  A    between atoms: C2_2  and  C3_3 
REMARK    3  A    between atoms: C3_3  and  N4_4 
REMARK    4  A    between atoms: C6_6  and  O8_7 
REMARK    5  A    between atoms: C9_8  and  O11_9 
REMARK    6  A    between atoms: C12_10  and  O14_11 
REMARK    7  A    between atoms: C15_12  and  C17_13 
REMARK    8  A    between atoms: C17_13  and  O18_14 
ROOT
ATOM      1  N4  <0> d   1      18.382  -0.401  12.987  0.00  0.00     0.102 N 
ATOM      2  C5  <0> d   1      19.349  -1.501  12.878  0.00  0.00     0.307 C 
ATOM      3  C6  <0> d   1      19.813  -1.631  11.425  0.00  0.00     0.177 C 
ATOM      4  C9  <0> d   1      20.457  -0.315  10.981  0.00  0.00     0.179 C 
ATOM      5  C12 <0> d   1      19.445   0.822  11.150  0.00  0.00     0.184 C 
ATOM      6  C15 <0> d   1      18.991   0.881  12.610  0.00  0.00     0.277 C 
ENDROOT
BRANCH   1   7
ATOM      7  C3  <0> d   1      17.810  -0.335  14.338  0.00  0.00     0.299 C 
BRANCH   7   8
ATOM      8  C2  <0> d   1      18.806  -0.917  15.343  0.00  0.00     0.194 C 
BRANCH   8   9
ATOM      9  O1  <0> d   1      18.114  -1.760  16.267  0.00  0.00    -0.399 OA
ATOM     10  H19 <0> d   1      18.384  -1.638  17.188  0.00  0.00     0.209 HD
ENDBRANCH   8   9
ENDBRANCH   7   8
ENDBRANCH   1   7
BRANCH   6  11
ATOM     11  C17 <0> d   1      17.964   2.002  12.780  0.00  0.00     0.202 C 
BRANCH  11  12
ATOM     12  O18 <0> d   1      17.184   2.118  11.588  0.00  0.00    -0.399 OA
ATOM     13  H31 <0> d   1      16.412   1.535  11.565  0.00  0.00     0.209 HD
ENDBRANCH  11  12
ENDBRANCH   6  11
BRANCH   5  14
ATOM     14  O14 <0> d   1      20.056   2.062  10.789  0.00  0.00    -0.391 OA
ATOM     15  H28 <0> d   1      19.763   2.815  11.320  0.00  0.00     0.210 HD
ENDBRANCH   5  14
BRANCH   3  16
ATOM     16  O8  <0> d   1      20.769  -2.688  11.323  0.00  0.00    -0.391 OA
ATOM     17  H26 <0> d   1      20.616  -3.418  11.939  0.00  0.00     0.210 HD
ENDBRANCH   3  16
BRANCH   4  18
ATOM     18  O11 <0> d   1      20.842  -0.411   9.608  0.00  0.00    -0.390 OA
ATOM     19  H27 <0> d   1      21.041   0.440   9.194  0.00  0.00     0.210 HD
ENDBRANCH   4  18
TORSDOF 8
ENDMDL
MODEL 9
REMARK VINA RESULT:      -4.7      2.327      2.995
REMARK  8 active torsions:
REMARK  status: ('A' for Active; 'I' for Inactive)
REMARK    1  A    between atoms: O1_1  and  C2_2 
REMARK    2  A    between atoms: C2_2  and  C3_3 
REMARK    3  A    between atoms: C3_3  and  N4_4 
REMARK    4  A    between atoms: C6_6  and  O8_7 
REMARK    5  A    between atoms: C9_8  and  O11_9 
REMARK    6  A    between atoms: C12_10  and  O14_11 
REMARK    7  A    between atoms: C15_12  and  C17_13 
REMARK    8  A    between atoms: C17_13  and  O18_14 
ROOT
ATOM      1  N4  <0> d   1      18.822  -0.696   9.735  0.00  0.00     0.102 N 
ATOM      2  C5  <0> d   1      17.763  -1.567   9.210  0.00  0.00     0.307 C 
ATOM      3  C6  <0> d   1      18.321  -2.976   8.991  0.00  0.00     0.177 C 
ATOM      4  C9  <0> d   1      18.846  -3.523  10.321  0.00  0.00     0.179 C 
ATOM      5  C12 <0> d   1      19.914  -2.572  10.870  0.00  0.00     0.184 C 
ATOM      6  C15 <0> d   1      19.310  -1.175  11.034  0.00  0.00     0.277 C 
ENDROOT
BRANCH   1   7
ATOM      7  C3  <0> d   1      18.361   0.696   9.827  0.00  0.00     0.299 C 
BRANCH   7   8
ATOM      8  C2  <0> d   1      18.769   1.453   8.561  0.00  0.00     0.194 C 
BRANCH   8   9
ATOM      9  O1  <0> d   1      20.177   1.696   8.583  0.00  0.00    -0.399 OA
ATOM     10  H19 <0> d   1      20.520   1.940   9.454  0.00  0.00     0.209 HD
ENDBRANCH   8   9
ENDBRANCH   7   8
ENDBRANCH   1   7
BRANCH   6  11
ATOM     11  C17 <0> d   1      20.378  -0.217  11.563  0.00  0.00     0.202 C 
BRANCH  11  12
ATOM     12  O18 <0> d   1      21.646  -0.560  11.000  0.00  0.00    -0.399 OA
ATOM     13  H31 <0> d   1      22.086  -1.299  11.442  0.00  0.00     0.209 HD
ENDBRANCH  11  12
ENDBRANCH   6  11
BRANCH   5  14
ATOM     14  O14 <0> d   1      20.370  -3.048  12.137  0.00  0.00    -0.391 OA
ATOM     15  H28 <0> d   1      20.485  -4.007  12.179  0.00  0.00     0.210 HD
ENDBRANCH   5  14
BRANCH   3  16
ATOM     16  O8  <0> d   1      17.285  -3.828   8.500  0.00  0.00    -0.391 OA
ATOM     17  H26 <0> d   1      17.366  -4.045   7.561  0.00  0.00     0.210 HD
ENDBRANCH   3  16
BRANCH   4  18
ATOM     18  O11 <0> d   1      19.419  -4.816  10.112  0.00  0.00    -0.390 OA
ATOM     19  H27 <0> d   1      20.025  -5.095  10.812  0.00  0.00     0.210 HD
ENDBRANCH   4  18
TORSDOF 8
ENDMDL
