MODEL 1
REMARK VINA RESULT:      -3.7      0.000      0.000
REMARK  1 active torsions:
REMARK  status: ('A' for Active; 'I' for Inactive)
REMARK    1  A    between atoms: N1_1  and  C2_2 
ROOT
ATOM      1  C2  <0> d   1      17.917  -0.695   6.567  0.00  0.00     0.028 A 
ATOM      2  C3  <0> d   1      18.389  -1.982   6.310  0.00  0.00     0.048 A 
ATOM      3  C4  <0> d   1      19.295  -2.173   5.289  0.00  0.00     0.118 A 
ATOM      4  N5  <0> d   1      19.716  -1.157   4.560  0.00  0.00    -0.273 NA
ATOM      5  C6  <0> d   1      19.295   0.076   4.771  0.00  0.00     0.118 A 
ATOM      6  C7  <0> d   1      18.384   0.350   5.770  0.00  0.00     0.048 A 
ENDROOT
BRANCH   1   7
ATOM      7  N1  <0> d   1      17.002  -0.461   7.587  0.00  0.00    -0.399 N 
ATOM      8  H8  <0> d   1      16.393   0.293   7.530  0.00  0.00     0.156 HD
ATOM      9  H9  <0> d   1      16.967  -1.053   8.354  0.00  0.00     0.156 HD
ENDBRANCH   1   7
TORSDOF 1
ENDMDL
MODEL 2
REMARK VINA RESULT:      -3.7      6.418      7.455
REMARK  1 active torsions:
REMARK  status: ('A' for Active; 'I' for Inactive)
REMARK    1  A    between atoms: N1_1  and  C2_2 
ROOT
ATOM      1  C2  <0> d   1      19.741   3.389  11.516  0.00  0.00     0.028 A 
ATOM      2  C3  <0> d   1      19.117   2.624  10.531  0.00  0.00     0.048 A 
ATOM      3  C4  <0> d   1      17.749   2.707  10.385  0.00  0.00     0.118 A 
ATOM      4  N5  <0> d   1      17.032   3.497  11.161  0.00  0.00    -0.273 NA
ATOM      5  C6  <0> d   1      17.584   4.236  12.105  0.00  0.00     0.118 A 
ATOM      6  C7  <0> d   1      18.947   4.207  12.320  0.00  0.00     0.048 A 
ENDROOT
BRANCH   1   7
ATOM      7  N1  <0> d   1      21.119   3.334  11.697  0.00  0.00    -0.399 N 
ATOM      8  H8  <0> d   1      21.501   3.499  12.574  0.00  0.00     0.156 HD
ATOM      9  H9  <0> d   1      21.699   3.124  10.948  0.00  0.00     0.156 HD
ENDBRANCH   1   7
TORSDOF 1
ENDMDL
MODEL 3
REMARK VINA RESULT:      -3.7      0.012      1.777
REMARK  1 active torsions:
REMARK  status: ('A' for Active; 'I' for Inactive)
REMARK    1  A    between atoms: N1_1  and  C2_2 
ROOT
ATOM      1  C2  <0> d   1      17.919  -0.702   6.568  0.00  0.00     0.028 A 
ATOM      2  C3  <0> d   1      18.379   0.342   5.766  0.00  0.00     0.048 A 
ATOM      3  C4  <0> d   1      19.285   0.068   4.764  0.00  0.00     0.118 A 
ATOM      4  N5  <0> d   1      19.715  -1.163   4.559  0.00  0.00    -0.273 NA
ATOM      5  C6  <0> d   1      19.304  -2.177   5.296  0.00  0.00     0.118 A 
ATOM      6  C7  <0> d   1      18.402  -1.987   6.322  0.00  0.00     0.048 A 
ENDROOT
BRANCH   1   7
ATOM      7  N1  <0> d   1      17.005  -0.467   7.591  0.00  0.00    -0.399 N 
ATOM      8  H8  <0> d   1      17.252  -0.644   8.513  0.00  0.00     0.156 HD
ATOM      9  H9  <0> d   1      16.123  -0.121   7.384  0.00  0.00     0.156 HD
ENDBRANCH   1   7
TORSDOF 1
ENDMDL
MODEL 4
REMARK VINA RESULT:      -3.5     10.590     11.763
REMARK  1 active torsions:
REMARK  status: ('A' for Active; 'I' for Inactive)
REMARK    1  A    between atoms: N1_1  and  C2_2 
ROOT
ATOM      1  C2  <0> d   1      18.122   0.915  16.321  0.00  0.00     0.028 A 
ATOM      2  C3  <0> d   1      18.555   2.181  16.714  0.00  0.00     0.048 A 
ATOM      3  C4  <0> d   1      19.360   2.298  17.827  0.00  0.00     0.118 A 
ATOM      4  N5  <0> d   1      19.722   1.233  18.515  0.00  0.00    -0.273 NA
ATOM      5  C6  <0> d   1      19.334   0.018  18.176  0.00  0.00     0.118 A 
ATOM      6  C7  <0> d   1      18.522  -0.185  17.080  0.00  0.00     0.048 A 
ENDROOT
BRANCH   1   7
ATOM      7  N1  <0> d   1      17.307   0.754  15.205  0.00  0.00    -0.399 N 
ATOM      8  H8  <0> d   1      17.544   1.180  14.366  0.00  0.00     0.156 HD
ATOM      9  H9  <0> d   1      16.506   0.211  15.263  0.00  0.00     0.156 HD
ENDBRANCH   1   7
TORSDOF 1
ENDMDL
MODEL 5
REMARK VINA RESULT:      -3.4      4.727      5.948
REMARK  1 active torsions:
REMARK  status: ('A' for Active; 'I' for Inactive)
REMARK    1  A    between atoms: N1_1  and  C2_2 
ROOT
ATOM      1  C2  <0> d   1      18.941   1.922   9.505  0.00  0.00     0.028 A 
ATOM      2  C3  <0> d   1      18.461   0.912  10.338  0.00  0.00     0.048 A 
ATOM      3  C4  <0> d   1      17.569   1.236  11.338  0.00  0.00     0.118 A 
ATOM      4  N5  <0> d   1      17.170   2.482  11.511  0.00  0.00    -0.273 NA
ATOM      5  C6  <0> d   1      17.601   3.466  10.745  0.00  0.00     0.118 A 
ATOM      6  C7  <0> d   1      18.498   3.227   9.725  0.00  0.00     0.048 A 
ENDROOT
BRANCH   1   7
ATOM      7  N1  <0> d   1      19.843   1.638   8.485  0.00  0.00    -0.399 N 
ATOM      8  H8  <0> d   1      19.771   2.095   7.631  0.00  0.00     0.156 HD
ATOM      9  H9  <0> d   1      20.547   0.986   8.627  0.00  0.00     0.156 HD
ENDBRANCH   1   7
TORSDOF 1
ENDMDL
MODEL 6
REMARK VINA RESULT:      -3.4     10.331     11.376
REMARK  1 active torsions:
REMARK  status: ('A' for Active; 'I' for Inactive)
REMARK    1  A    between atoms: N1_1  and  C2_2 
ROOT
ATOM      1  C2  <0> d   1      18.430   0.204  16.079  0.00  0.00     0.028 A 
ATOM      2  C3  <0> d   1      18.787  -0.633  17.136  0.00  0.00     0.048 A 
ATOM      3  C4  <0> d   1      19.375  -0.084  18.255  0.00  0.00     0.118 A 
ATOM      4  N5  <0> d   1      19.599   1.213  18.335  0.00  0.00    -0.273 NA
ATOM      5  C6  <0> d   1      19.275   2.038  17.357  0.00  0.00     0.118 A 
ATOM      6  C7  <0> d   1      18.688   1.569  16.201  0.00  0.00     0.048 A 
ENDROOT
BRANCH   1   7
ATOM      7  N1  <0> d   1      17.835  -0.310  14.931  0.00  0.00    -0.399 N 
ATOM      8  H8  <0> d   1      17.308  -1.124  14.980  0.00  0.00     0.156 HD
ATOM      9  H9  <0> d   1      17.942   0.147  14.083  0.00  0.00     0.156 HD
ENDBRANCH   1   7
TORSDOF 1
ENDMDL
MODEL 7
REMARK VINA RESULT:      -3.4      6.646      7.179
REMARK  1 active torsions:
REMARK  status: ('A' for Active; 'I' for Inactive)
REMARK    1  A    between atoms: N1_1  and  C2_2 
ROOT
ATOM      1  C2  <0> d   1      20.118   1.038  12.043  0.00  0.00     0.028 A 
ATOM      2  C3  <0> d   1      19.773   2.320  11.617  0.00  0.00     0.048 A 
ATOM      3  C4  <0> d   1      18.441   2.663  11.534  0.00  0.00     0.118 A 
ATOM      4  N5  <0> d   1      17.498   1.797  11.852  0.00  0.00    -0.273 NA
ATOM      5  C6  <0> d   1      17.782   0.574  12.259  0.00  0.00     0.118 A 
ATOM      6  C7  <0> d   1      19.090   0.151  12.365  0.00  0.00     0.048 A 
ENDROOT
BRANCH   1   7
ATOM      7  N1  <0> d   1      21.451   0.652  12.140  0.00  0.00    -0.399 N 
ATOM      8  H8  <0> d   1      21.901   0.263  11.373  0.00  0.00     0.156 HD
ATOM      9  H9  <0> d   1      21.932   0.775  12.972  0.00  0.00     0.156 HD
ENDBRANCH   1   7
TORSDOF 1
ENDMDL
MODEL 8
REMARK VINA RESULT:      -3.4      8.231      9.280
REMARK  1 active torsions:
REMARK  status: ('A' for Active; 'I' for Inactive)
REMARK    1  A    between atoms: N1_1  and  C2_2 
ROOT
ATOM      1  C2  <0> d   1      19.855   0.192  13.882  0.00  0.00     0.028 A 
ATOM      2  C3  <0> d   1      19.112   1.281  14.338  0.00  0.00     0.048 A 
ATOM      3  C4  <0> d   1      18.055   1.059  15.195  0.00  0.00     0.118 A 
ATOM      4  N5  <0> d   1      17.744  -0.163  15.584  0.00  0.00    -0.273 NA
ATOM      5  C6  <0> d   1      18.422  -1.219  15.176  0.00  0.00     0.118 A 
ATOM      6  C7  <0> d   1      19.490  -1.084  14.314  0.00  0.00     0.048 A 
ENDROOT
BRANCH   1   7
ATOM      7  N1  <0> d   1      20.929   0.372  13.016  0.00  0.00    -0.399 N 
ATOM      8  H8  <0> d   1      20.833   0.942  12.236  0.00  0.00     0.156 HD
ATOM      9  H9  <0> d   1      21.775  -0.066  13.194  0.00  0.00     0.156 HD
ENDBRANCH   1   7
TORSDOF 1
ENDMDL
MODEL 9
REMARK VINA RESULT:      -3.3      4.174      5.157
REMARK  1 active torsions:
REMARK  status: ('A' for Active; 'I' for Inactive)
REMARK    1  A    between atoms: N1_1  and  C2_2 
ROOT
ATOM      1  C2  <0> d   1      20.262  -0.205  10.493  0.00  0.00     0.028 A 
ATOM      2  C3  <0> d   1      19.888  -0.398   9.164  0.00  0.00     0.048 A 
ATOM      3  C4  <0> d   1      18.637   0.010   8.753  0.00  0.00     0.118 A 
ATOM      4  N5  <0> d   1      17.798   0.577   9.600  0.00  0.00    -0.273 NA
ATOM      5  C6  <0> d   1      18.114   0.778  10.865  0.00  0.00     0.118 A 
ATOM      6  C7  <0> d   1      19.344   0.394  11.357  0.00  0.00     0.048 A 
ENDROOT
BRANCH   1   7
ATOM      7  N1  <0> d   1      21.515  -0.603  10.948  0.00  0.00    -0.399 N 
ATOM      8  H8  <0> d   1      22.049  -1.218  10.421  0.00  0.00     0.156 HD
ATOM      9  H9  <0> d   1      21.857  -0.261  11.788  0.00  0.00     0.156 HD
ENDBRANCH   1   7
TORSDOF 1
ENDMDL
