MODEL 1
REMARK VINA RESULT:      -5.1      0.000      0.000
REMARK  3 active torsions:
REMARK  status: ('A' for Active; 'I' for Inactive)
REMARK    1  A    between atoms: O2_2  and  C3_3 
REMARK    2  A    between atoms: C3_3  and  C5_5 
REMARK    3  A    between atoms: C10_10  and  O11_11 
ROOT
ATOM      1  C5  <0> d   1      19.174   1.644  16.605  0.00  0.00     0.072 A 
ATOM      2  C6  <0> d   1      18.904   0.773  15.546  0.00  0.00     0.020 A 
ATOM      3  C7  <0> d   1      18.801  -0.582  15.780  0.00  0.00     0.001 A 
ATOM      4  C8  <0> d   1      18.964  -1.084  17.061  0.00  0.00     0.003 A 
ATOM      5  C9  <0> d   1      19.231  -0.234  18.116  0.00  0.00     0.037 A 
ATOM      6  C10 <0> d   1      19.343   1.131  17.899  0.00  0.00     0.082 A 
ENDROOT
BRANCH   1   7
ATOM      7  C3  <0> d   1      19.286   3.094  16.362  0.00  0.00     0.295 C 
ATOM      8  O4  <0> d   1      20.256   3.704  16.763  0.00  0.00    -0.259 OA
BRANCH   7   9
ATOM      9  O2  <0> d   1      18.310   3.742  15.695  0.00  0.00    -0.322 OA
ATOM     10  C1  <0> d   1      18.678   4.376  14.441  0.00  0.00     0.213 C 
ENDBRANCH   7   9
ENDBRANCH   1   7
BRANCH   6  11
ATOM     11  O11 <0> d   1      19.606   1.966  18.934  0.00  0.00    -0.360 OA
ATOM     12  H19 <0> d   1      19.242   2.856  18.825  0.00  0.00     0.217 HD
ENDBRANCH   6  11
TORSDOF 3
ENDMDL
MODEL 2
REMARK VINA RESULT:      -5.1     10.340     11.826
REMARK  3 active torsions:
REMARK  status: ('A' for Active; 'I' for Inactive)
REMARK    1  A    between atoms: O2_2  and  C3_3 
REMARK    2  A    between atoms: C3_3  and  C5_5 
REMARK    3  A    between atoms: C10_10  and  O11_11 
ROOT
ATOM      1  C5  <0> d   1      19.197  -1.693   6.442  0.00  0.00     0.072 A 
ATOM      2  C6  <0> d   1      18.935  -0.940   7.589  0.00  0.00     0.020 A 
ATOM      3  C7  <0> d   1      18.813   0.430   7.499  0.00  0.00     0.001 A 
ATOM      4  C8  <0> d   1      18.947   1.064   6.275  0.00  0.00     0.003 A 
ATOM      5  C9  <0> d   1      19.205   0.332   5.133  0.00  0.00     0.037 A 
ATOM      6  C10 <0> d   1      19.337  -1.046   5.205  0.00  0.00     0.082 A 
ENDROOT
BRANCH   1   7
ATOM      7  C3  <0> d   1      19.329  -3.158   6.530  0.00  0.00     0.295 C 
ATOM      8  O4  <0> d   1      20.424  -3.677   6.438  0.00  0.00    -0.259 OA
BRANCH   7   9
ATOM      9  O2  <0> d   1      18.235  -3.924   6.713  0.00  0.00    -0.322 OA
ATOM     10  C1  <0> d   1      17.769  -4.692   5.572  0.00  0.00     0.213 C 
ENDBRANCH   7   9
ENDBRANCH   1   7
BRANCH   6  11
ATOM     11  O11 <0> d   1      19.591  -1.766   4.085  0.00  0.00    -0.360 OA
ATOM     12  H19 <0> d   1      19.606  -1.240   3.273  0.00  0.00     0.217 HD
ENDBRANCH   6  11
TORSDOF 3
ENDMDL
MODEL 3
REMARK VINA RESULT:      -5.0      5.589      7.452
REMARK  3 active torsions:
REMARK  status: ('A' for Active; 'I' for Inactive)
REMARK    1  A    between atoms: O2_2  and  C3_3 
REMARK    2  A    between atoms: C3_3  and  C5_5 
REMARK    3  A    between atoms: C10_10  and  O11_11 
ROOT
ATOM      1  C5  <0> d   1      17.647   0.639  10.246  0.00  0.00     0.072 A 
ATOM      2  C6  <0> d   1      18.214   0.093   9.092  0.00  0.00     0.020 A 
ATOM      3  C7  <0> d   1      18.932   0.897   8.232  0.00  0.00     0.001 A 
ATOM      4  C8  <0> d   1      19.094   2.245   8.509  0.00  0.00     0.003 A 
ATOM      5  C9  <0> d   1      18.539   2.797   9.647  0.00  0.00     0.037 A 
ATOM      6  C10 <0> d   1      17.810   2.004  10.519  0.00  0.00     0.082 A 
ENDROOT
BRANCH   1   7
ATOM      7  C3  <0> d   1      16.878  -0.216  11.170  0.00  0.00     0.295 C 
ATOM      8  O4  <0> d   1      15.772   0.127  11.536  0.00  0.00    -0.259 OA
BRANCH   7   9
ATOM      9  O2  <0> d   1      17.404  -1.377  11.608  0.00  0.00    -0.322 OA
ATOM     10  C1  <0> d   1      18.183  -1.326  12.833  0.00  0.00     0.213 C 
ENDBRANCH   7   9
ENDBRANCH   1   7
BRANCH   6  11
ATOM     11  O11 <0> d   1      17.263   2.545  11.637  0.00  0.00    -0.360 OA
ATOM     12  H19 <0> d   1      17.707   2.288  12.456  0.00  0.00     0.217 HD
ENDBRANCH   6  11
TORSDOF 3
ENDMDL
MODEL 4
REMARK VINA RESULT:      -5.0      6.388      8.201
REMARK  3 active torsions:
REMARK  status: ('A' for Active; 'I' for Inactive)
REMARK    1  A    between atoms: O2_2  and  C3_3 
REMARK    2  A    between atoms: C3_3  and  C5_5 
REMARK    3  A    between atoms: C10_10  and  O11_11 
ROOT
ATOM      1  C5  <0> d   1      17.617   0.435   9.960  0.00  0.00     0.072 A 
ATOM      2  C6  <0> d   1      18.123   1.698  10.275  0.00  0.00     0.020 A 
ATOM      3  C7  <0> d   1      18.850   2.401   9.337  0.00  0.00     0.001 A 
ATOM      4  C8  <0> d   1      19.079   1.859   8.082  0.00  0.00     0.003 A 
ATOM      5  C9  <0> d   1      18.584   0.611   7.758  0.00  0.00     0.037 A 
ATOM      6  C10 <0> d   1      17.856  -0.111   8.691  0.00  0.00     0.082 A 
ENDROOT
BRANCH   1   7
ATOM      7  C3  <0> d   1      16.839  -0.322  10.958  0.00  0.00     0.295 C 
ATOM      8  O4  <0> d   1      15.905   0.205  11.527  0.00  0.00    -0.259 OA
BRANCH   7   9
ATOM      9  O2  <0> d   1      17.166  -1.599  11.239  0.00  0.00    -0.322 OA
ATOM     10  C1  <0> d   1      18.171  -1.810  12.267  0.00  0.00     0.213 C 
ENDBRANCH   7   9
ENDBRANCH   1   7
BRANCH   6  11
ATOM     11  O11 <0> d   1      17.369  -1.337   8.374  0.00  0.00    -0.360 OA
ATOM     12  H19 <0> d   1      17.858  -1.785   7.670  0.00  0.00     0.217 HD
ENDBRANCH   6  11
TORSDOF 3
ENDMDL
MODEL 5
REMARK VINA RESULT:      -5.0      6.231      7.285
REMARK  3 active torsions:
REMARK  status: ('A' for Active; 'I' for Inactive)
REMARK    1  A    between atoms: O2_2  and  C3_3 
REMARK    2  A    between atoms: C3_3  and  C5_5 
REMARK    3  A    between atoms: C10_10  and  O11_11 
ROOT
ATOM      1  C5  <0> d   1      18.255   2.013   9.791  0.00  0.00     0.072 A 
ATOM      2  C6  <0> d   1      19.048   2.232   8.662  0.00  0.00     0.020 A 
ATOM      3  C7  <0> d   1      19.070   1.301   7.646  0.00  0.00     0.001 A 
ATOM      4  C8  <0> d   1      18.306   0.148   7.739  0.00  0.00     0.003 A 
ATOM      5  C9  <0> d   1      17.518  -0.081   8.850  0.00  0.00     0.037 A 
ATOM      6  C10 <0> d   1      17.489   0.843   9.884  0.00  0.00     0.082 A 
ENDROOT
BRANCH   1   7
ATOM      7  C3  <0> d   1      18.228   3.005  10.882  0.00  0.00     0.295 C 
ATOM      8  O4  <0> d   1      19.264   3.360  11.406  0.00  0.00    -0.259 OA
BRANCH   7   9
ATOM      9  O2  <0> d   1      17.052   3.517  11.297  0.00  0.00    -0.322 OA
ATOM     10  C1  <0> d   1      16.769   4.895  10.938  0.00  0.00     0.213 C 
ENDBRANCH   7   9
ENDBRANCH   1   7
BRANCH   6  11
ATOM     11  O11 <0> d   1      16.715   0.619  10.975  0.00  0.00    -0.360 OA
ATOM     12  H19 <0> d   1      16.801  -0.271  11.344  0.00  0.00     0.217 HD
ENDBRANCH   6  11
TORSDOF 3
ENDMDL
MODEL 6
REMARK VINA RESULT:      -5.0      9.359     10.541
REMARK  3 active torsions:
REMARK  status: ('A' for Active; 'I' for Inactive)
REMARK    1  A    between atoms: O2_2  and  C3_3 
REMARK    2  A    between atoms: C3_3  and  C5_5 
REMARK    3  A    between atoms: C10_10  and  O11_11 
ROOT
ATOM      1  C5  <0> d   1      19.176  -0.316   6.769  0.00  0.00     0.072 A 
ATOM      2  C6  <0> d   1      18.976   1.067   6.735  0.00  0.00     0.020 A 
ATOM      3  C7  <0> d   1      19.018   1.797   7.903  0.00  0.00     0.001 A 
ATOM      4  C8  <0> d   1      19.260   1.165   9.113  0.00  0.00     0.003 A 
ATOM      5  C9  <0> d   1      19.459  -0.200   9.161  0.00  0.00     0.037 A 
ATOM      6  C10 <0> d   1      19.414  -0.951   7.996  0.00  0.00     0.082 A 
ENDROOT
BRANCH   1   7
ATOM      7  C3  <0> d   1      19.131  -1.103   5.524  0.00  0.00     0.295 C 
ATOM      8  O4  <0> d   1      19.932  -0.885   4.638  0.00  0.00    -0.259 OA
BRANCH   7   9
ATOM      9  O2  <0> d   1      18.199  -2.064   5.368  0.00  0.00    -0.322 OA
ATOM     10  C1  <0> d   1      17.263  -1.903   4.269  0.00  0.00     0.213 C 
ENDBRANCH   7   9
ENDBRANCH   1   7
BRANCH   6  11
ATOM     11  O11 <0> d   1      19.610  -2.292   8.043  0.00  0.00    -0.360 OA
ATOM     12  H19 <0> d   1      18.827  -2.812   7.814  0.00  0.00     0.217 HD
ENDBRANCH   6  11
TORSDOF 3
ENDMDL
MODEL 7
REMARK VINA RESULT:      -4.9      5.599      7.187
REMARK  3 active torsions:
REMARK  status: ('A' for Active; 'I' for Inactive)
REMARK    1  A    between atoms: O2_2  and  C3_3 
REMARK    2  A    between atoms: C3_3  and  C5_5 
REMARK    3  A    between atoms: C10_10  and  O11_11 
ROOT
ATOM      1  C5  <0> d   1      18.928   2.866  10.423  0.00  0.00     0.072 A 
ATOM      2  C6  <0> d   1      17.777   3.638  10.247  0.00  0.00     0.020 A 
ATOM      3  C7  <0> d   1      17.474   4.635  11.149  0.00  0.00     0.001 A 
ATOM      4  C8  <0> d   1      18.306   4.875  12.231  0.00  0.00     0.003 A 
ATOM      5  C9  <0> d   1      19.447   4.119  12.416  0.00  0.00     0.037 A 
ATOM      6  C10 <0> d   1      19.764   3.108  11.522  0.00  0.00     0.082 A 
ENDROOT
BRANCH   1   7
ATOM      7  C3  <0> d   1      19.258   1.797   9.462  0.00  0.00     0.295 C 
ATOM      8  O4  <0> d   1      19.508   0.677   9.860  0.00  0.00    -0.259 OA
BRANCH   7   9
ATOM      9  O2  <0> d   1      19.283   2.064   8.141  0.00  0.00    -0.322 OA
ATOM     10  C1  <0> d   1      18.920   0.982   7.243  0.00  0.00     0.213 C 
ENDBRANCH   7   9
ENDBRANCH   1   7
BRANCH   6  11
ATOM     11  O11 <0> d   1      20.884   2.364  11.703  0.00  0.00    -0.360 OA
ATOM     12  H19 <0> d   1      20.844   1.488  11.297  0.00  0.00     0.217 HD
ENDBRANCH   6  11
TORSDOF 3
ENDMDL
MODEL 8
REMARK VINA RESULT:      -4.8      8.403      9.724
REMARK  3 active torsions:
REMARK  status: ('A' for Active; 'I' for Inactive)
REMARK    1  A    between atoms: O2_2  and  C3_3 
REMARK    2  A    between atoms: C3_3  and  C5_5 
REMARK    3  A    between atoms: C10_10  and  O11_11 
ROOT
ATOM      1  C5  <0> d   1      18.686   0.621   7.667  0.00  0.00     0.072 A 
ATOM      2  C6  <0> d   1      19.251   1.784   8.195  0.00  0.00     0.020 A 
ATOM      3  C7  <0> d   1      18.877   2.223   9.447  0.00  0.00     0.001 A 
ATOM      4  C8  <0> d   1      17.943   1.514  10.185  0.00  0.00     0.003 A 
ATOM      5  C9  <0> d   1      17.377   0.362   9.675  0.00  0.00     0.037 A 
ATOM      6  C10 <0> d   1      17.738  -0.091   8.415  0.00  0.00     0.082 A 
ENDROOT
BRANCH   1   7
ATOM      7  C3  <0> d   1      19.082   0.146   6.328  0.00  0.00     0.295 C 
ATOM      8  O4  <0> d   1      19.252   0.942   5.427  0.00  0.00    -0.259 OA
BRANCH   7   9
ATOM      9  O2  <0> d   1      19.252  -1.172   6.104  0.00  0.00    -0.322 OA
ATOM     10  C1  <0> d   1      19.114  -1.631   4.733  0.00  0.00     0.213 C 
ENDBRANCH   7   9
ENDBRANCH   1   7
BRANCH   6  11
ATOM     11  O11 <0> d   1      17.182  -1.221   7.913  0.00  0.00    -0.360 OA
ATOM     12  H19 <0> d   1      16.687  -1.086   7.093  0.00  0.00     0.217 HD
ENDBRANCH   6  11
TORSDOF 3
ENDMDL
MODEL 9
REMARK VINA RESULT:      -4.8      5.967      7.496
REMARK  3 active torsions:
REMARK  status: ('A' for Active; 'I' for Inactive)
REMARK    1  A    between atoms: O2_2  and  C3_3 
REMARK    2  A    between atoms: C3_3  and  C5_5 
REMARK    3  A    between atoms: C10_10  and  O11_11 
ROOT
ATOM      1  C5  <0> d   1      18.116   1.792   9.667  0.00  0.00     0.072 A 
ATOM      2  C6  <0> d   1      18.905   2.139   8.568  0.00  0.00     0.020 A 
ATOM      3  C7  <0> d   1      18.968   1.300   7.475  0.00  0.00     0.001 A 
ATOM      4  C8  <0> d   1      18.251   0.114   7.463  0.00  0.00     0.003 A 
ATOM      5  C9  <0> d   1      17.467  -0.240   8.543  0.00  0.00     0.037 A 
ATOM      6  C10 <0> d   1      17.396   0.589   9.652  0.00  0.00     0.082 A 
ENDROOT
BRANCH   1   7
ATOM      7  C3  <0> d   1      18.044   2.684  10.839  0.00  0.00     0.295 C 
ATOM      8  O4  <0> d   1      17.002   3.244  11.113  0.00  0.00    -0.259 OA
BRANCH   7   9
ATOM      9  O2  <0> d   1      19.136   2.878  11.606  0.00  0.00    -0.322 OA
ATOM     10  C1  <0> d   1      19.627   1.734  12.354  0.00  0.00     0.213 C 
ENDBRANCH   7   9
ENDBRANCH   1   7
BRANCH   6  11
ATOM     11  O11 <0> d   1      16.627   0.241  10.713  0.00  0.00    -0.360 OA
ATOM     12  H19 <0> d   1      16.528   0.941  11.374  0.00  0.00     0.217 HD
ENDBRANCH   6  11
TORSDOF 3
ENDMDL
