MODEL 1
REMARK VINA RESULT:      -2.6      0.000      0.000
REMARK  1 active torsions:
REMARK  status: ('A' for Active; 'I' for Inactive)
REMARK    1  A    between atoms: C2_2  and  O4_4 
ROOT
ATOM      1  O1  <0> d   1      18.215   1.555  17.606  0.00  0.00    -0.618 OA
ATOM      2  C2  <0> d   1      19.196   1.521  18.334  0.00  0.00     0.312 C 
ATOM      3  O3  <0> d   1      19.914   0.531  18.345  0.00  0.00    -0.618 OA
ENDROOT
BRANCH   2   4
ATOM      4  O4  <0> d   1      19.488   2.571  19.117  0.00  0.00    -0.747 OA
ATOM      5  H5  <0> d   1      18.864   3.310  19.113  0.00  0.00     0.171 HD
ENDBRANCH   2   4
TORSDOF 1
ENDMDL
MODEL 2
REMARK VINA RESULT:      -2.5     13.994     14.252
REMARK  1 active torsions:
REMARK  status: ('A' for Active; 'I' for Inactive)
REMARK    1  A    between atoms: C2_2  and  O4_4 
ROOT
ATOM      1  O1  <0> d   1      19.945  -0.752   4.603  0.00  0.00    -0.618 OA
ATOM      2  C2  <0> d   1      19.187  -1.711   4.577  0.00  0.00     0.312 C 
ATOM      3  O3  <0> d   1      19.506  -2.756   5.126  0.00  0.00    -0.618 OA
ENDROOT
BRANCH   2   4
ATOM      4  O4  <0> d   1      18.004  -1.614   3.952  0.00  0.00    -0.747 OA
ATOM      5  H5  <0> d   1      17.318  -1.090   4.387  0.00  0.00     0.171 HD
ENDBRANCH   2   4
TORSDOF 1
ENDMDL
MODEL 3
REMARK VINA RESULT:      -2.5     13.528     13.830
REMARK  1 active torsions:
REMARK  status: ('A' for Active; 'I' for Inactive)
REMARK    1  A    between atoms: C2_2  and  O4_4 
ROOT
ATOM      1  O1  <0> d   1      18.026  -0.884   5.251  0.00  0.00    -0.618 OA
ATOM      2  C2  <0> d   1      19.143  -0.856   4.755  0.00  0.00     0.312 C 
ATOM      3  O3  <0> d   1      19.657  -1.889   4.349  0.00  0.00    -0.618 OA
ENDROOT
BRANCH   2   4
ATOM      4  O4  <0> d   1      19.802   0.308   4.649  0.00  0.00    -0.747 OA
ATOM      5  H5  <0> d   1      19.501   1.035   5.211  0.00  0.00     0.171 HD
ENDBRANCH   2   4
TORSDOF 1
ENDMDL
MODEL 4
REMARK VINA RESULT:      -2.4      7.797      8.224
REMARK  1 active torsions:
REMARK  status: ('A' for Active; 'I' for Inactive)
REMARK    1  A    between atoms: C2_2  and  O4_4 
ROOT
ATOM      1  O1  <0> d   1      20.150  -0.375   9.418  0.00  0.00    -0.618 OA
ATOM      2  C2  <0> d   1      20.449  -0.491  10.598  0.00  0.00     0.312 C 
ATOM      3  O3  <0> d   1      19.573  -0.499  11.451  0.00  0.00    -0.618 OA
ENDROOT
BRANCH   2   4
ATOM      4  O4  <0> d   1      21.736  -0.616  10.954  0.00  0.00    -0.747 OA
ATOM      5  H5  <0> d   1      21.962  -0.399  11.869  0.00  0.00     0.171 HD
ENDBRANCH   2   4
TORSDOF 1
ENDMDL
MODEL 5
REMARK VINA RESULT:      -2.4      6.018      6.385
REMARK  1 active torsions:
REMARK  status: ('A' for Active; 'I' for Inactive)
REMARK    1  A    between atoms: C2_2  and  O4_4 
ROOT
ATOM      1  O1  <0> d   1      19.716   0.453  11.344  0.00  0.00    -0.618 OA
ATOM      2  C2  <0> d   1      20.453   0.536  12.316  0.00  0.00     0.312 C 
ATOM      3  O3  <0> d   1      19.980   0.526  13.444  0.00  0.00    -0.618 OA
ENDROOT
BRANCH   2   4
ATOM      4  O4  <0> d   1      21.781   0.632  12.146  0.00  0.00    -0.747 OA
ATOM      5  H5  <0> d   1      22.186   0.032  11.506  0.00  0.00     0.171 HD
ENDBRANCH   2   4
TORSDOF 1
ENDMDL
MODEL 6
REMARK VINA RESULT:      -2.4     12.874     13.218
REMARK  1 active torsions:
REMARK  status: ('A' for Active; 'I' for Inactive)
REMARK    1  A    between atoms: C2_2  and  O4_4 
ROOT
ATOM      1  O1  <0> d   1      19.634  -5.933   6.640  0.00  0.00    -0.618 OA
ATOM      2  C2  <0> d   1      20.572  -5.427   7.238  0.00  0.00     0.312 C 
ATOM      3  O3  <0> d   1      21.003  -5.954   8.254  0.00  0.00    -0.618 OA
ENDROOT
BRANCH   2   4
ATOM      4  O4  <0> d   1      21.132  -4.298   6.778  0.00  0.00    -0.747 OA
ATOM      5  H5  <0> d   1      22.044  -4.119   7.044  0.00  0.00     0.171 HD
ENDBRANCH   2   4
TORSDOF 1
ENDMDL
MODEL 7
REMARK VINA RESULT:      -2.2      8.170      8.778
REMARK  1 active torsions:
REMARK  status: ('A' for Active; 'I' for Inactive)
REMARK    1  A    between atoms: C2_2  and  O4_4 
ROOT
ATOM      1  O1  <0> d   1      18.433   3.556   9.898  0.00  0.00    -0.618 OA
ATOM      2  C2  <0> d   1      17.560   4.291  10.336  0.00  0.00     0.312 C 
ATOM      3  O3  <0> d   1      16.787   3.879  11.189  0.00  0.00    -0.618 OA
ENDROOT
BRANCH   2   4
ATOM      4  O4  <0> d   1      17.454   5.550   9.884  0.00  0.00    -0.747 OA
ATOM      5  H5  <0> d   1      18.097   5.835   9.221  0.00  0.00     0.171 HD
ENDBRANCH   2   4
TORSDOF 1
ENDMDL
MODEL 8
REMARK VINA RESULT:      -2.0     14.275     14.374
REMARK  1 active torsions:
REMARK  status: ('A' for Active; 'I' for Inactive)
REMARK    1  A    between atoms: C2_2  and  O4_4 
ROOT
ATOM      1  O1  <0> d   1      17.573  -2.133   4.420  0.00  0.00    -0.618 OA
ATOM      2  C2  <0> d   1      18.752  -2.415   4.569  0.00  0.00     0.312 C 
ATOM      3  O3  <0> d   1      19.065  -3.483   5.077  0.00  0.00    -0.618 OA
ENDROOT
BRANCH   2   4
ATOM      4  O4  <0> d   1      19.704  -1.557   4.169  0.00  0.00    -0.747 OA
ATOM      5  H5  <0> d   1      20.188  -1.086   4.860  0.00  0.00     0.171 HD
ENDBRANCH   2   4
TORSDOF 1
ENDMDL
MODEL 9
REMARK VINA RESULT:      -2.0      7.747      8.245
REMARK  1 active torsions:
REMARK  status: ('A' for Active; 'I' for Inactive)
REMARK    1  A    between atoms: C2_2  and  O4_4 
ROOT
ATOM      1  O1  <0> d   1      17.988   4.260   9.947  0.00  0.00    -0.618 OA
ATOM      2  C2  <0> d   1      17.192   3.889  10.797  0.00  0.00     0.312 C 
ATOM      3  O3  <0> d   1      17.237   2.741  11.215  0.00  0.00    -0.618 OA
ENDROOT
BRANCH   2   4
ATOM      4  O4  <0> d   1      16.273   4.743  11.274  0.00  0.00    -0.747 OA
ATOM      5  H5  <0> d   1      16.397   5.680  11.072  0.00  0.00     0.171 HD
ENDBRANCH   2   4
TORSDOF 1
ENDMDL
