MODEL 1
REMARK VINA RESULT:      -6.4      0.000      0.000
REMARK  5 active torsions:
REMARK  status: ('A' for Active; 'I' for Inactive)
REMARK    1  A    between atoms: C2_2  and  O4_3 
REMARK    2  A    between atoms: C2_2  and  C5_4 
REMARK    3  A    between atoms: C5_4  and  O7_5 
REMARK    4  A    between atoms: C5_4  and  C8_6 
REMARK    5  A    between atoms: C18_15  and  N19_16 
ROOT
ATOM      1  C8  <0> d   1      18.077   1.810  15.492  0.00  0.00     0.131 C 
ATOM      2  C10 <0> d   1      17.715   0.325  15.330  0.00  0.00     0.149 C 
ATOM      3  N11 <0> d   1      18.813  -0.343  14.616  0.00  0.00    -0.370 N 
ATOM      4  C12 <0> d   1      19.350   0.262  13.490  0.00  0.00     0.175 A 
ATOM      5  C13 <0> d   1      19.119   1.609  13.252  0.00  0.00     0.144 A 
ATOM      6  N14 <0> d   1      18.335   2.365  14.154  0.00  0.00    -0.373 N 
ATOM      7  C15 <0> d   1      19.671   2.203  12.112  0.00  0.00     0.290 A 
ATOM      8  O16 <0> d   1      19.489   3.387  11.875  0.00  0.00    -0.265 OA
ATOM      9  N17 <0> d   1      20.412   1.437  11.281  0.00  0.00    -0.153 N 
ATOM     10  C18 <0> d   1      20.607   0.119  11.557  0.00  0.00     0.703 A 
ATOM     11  N20 <0> d   1      20.090  -0.445  12.628  0.00  0.00    -0.045 NA
ATOM     12  H28 <0> d   1      19.157  -1.194  14.928  0.00  0.00     0.161 HD
ATOM     13  H29 <0> d   1      17.976   3.228  13.895  0.00  0.00     0.160 HD
ATOM     14  H30 <0> d   1      20.804   1.829  10.485  0.00  0.00     0.187 HD
ENDROOT
BRANCH   1  15
ATOM     15  C5  <0> d   1      19.330   1.945  16.359  0.00  0.00     0.170 C 
BRANCH  15  16
ATOM     16  C2  <0> d   1      18.961   1.725  17.827  0.00  0.00     0.145 C 
ATOM     17  C1  <0> d   1      18.956   3.068  18.559  0.00  0.00     0.042 C 
BRANCH  16  18
ATOM     18  O4  <0> d   1      19.917   0.854  18.435  0.00  0.00    -0.393 OA
ATOM     19  H24 <0> d   1      20.329   0.232  17.820  0.00  0.00     0.210 HD
ENDBRANCH  16  18
ENDBRANCH  15  16
BRANCH  15  20
ATOM     20  O7  <0> d   1      19.882   3.253  16.198  0.00  0.00    -0.391 OA
ATOM     21  H25 <0> d   1      19.220   3.945  16.066  0.00  0.00     0.210 HD
ENDBRANCH  15  20
ENDBRANCH   1  15
BRANCH  10  22
ATOM     22  N19 <0> d   1      21.361  -0.640  10.698  0.00  0.00    -0.233 N 
ATOM     23  H31 <0> d   1      21.036  -1.506  10.404  0.00  0.00     0.174 HD
ATOM     24  H32 <0> d   1      22.218  -0.312  10.386  0.00  0.00     0.174 HD
ENDBRANCH  10  22
TORSDOF 5
ENDMDL
MODEL 2
REMARK VINA RESULT:      -6.3      5.123      8.430
REMARK  5 active torsions:
REMARK  status: ('A' for Active; 'I' for Inactive)
REMARK    1  A    between atoms: C2_2  and  O4_3 
REMARK    2  A    between atoms: C2_2  and  C5_4 
REMARK    3  A    between atoms: C5_4  and  O7_5 
REMARK    4  A    between atoms: C5_4  and  C8_6 
REMARK    5  A    between atoms: C18_15  and  N19_16 
ROOT
ATOM      1  C8  <0> d   1      18.049  -1.801   7.459  0.00  0.00     0.131 C 
ATOM      2  C10 <0> d   1      17.755  -0.300   7.598  0.00  0.00     0.149 C 
ATOM      3  N11 <0> d   1      18.887   0.329   8.294  0.00  0.00    -0.370 N 
ATOM      4  C12 <0> d   1      19.404  -0.280   9.427  0.00  0.00     0.175 A 
ATOM      5  C13 <0> d   1      19.115  -1.612   9.689  0.00  0.00     0.144 A 
ATOM      6  N14 <0> d   1      18.292  -2.346   8.804  0.00  0.00    -0.373 N 
ATOM      7  C15 <0> d   1      19.648  -2.211  10.834  0.00  0.00     0.290 A 
ATOM      8  O16 <0> d   1      19.415  -3.382  11.092  0.00  0.00    -0.265 OA
ATOM      9  N17 <0> d   1      20.428  -1.466  11.648  0.00  0.00    -0.153 N 
ATOM     10  C18 <0> d   1      20.679  -0.163  11.349  0.00  0.00     0.703 A 
ATOM     11  N20 <0> d   1      20.181   0.407  10.272  0.00  0.00    -0.045 NA
ATOM     12  H28 <0> d   1      19.266   1.160   7.966  0.00  0.00     0.161 HD
ATOM     13  H29 <0> d   1      17.897  -3.188   9.079  0.00  0.00     0.160 HD
ATOM     14  H30 <0> d   1      20.808  -1.862  12.448  0.00  0.00     0.187 HD
ENDROOT
BRANCH   1  15
ATOM     15  C5  <0> d   1      19.289  -2.007   6.586  0.00  0.00     0.170 C 
BRANCH  15  16
ATOM     16  C2  <0> d   1      18.943  -1.695   5.128  0.00  0.00     0.145 C 
ATOM     17  C1  <0> d   1      18.794  -3.003   4.349  0.00  0.00     0.042 C 
BRANCH  16  18
ATOM     18  O4  <0> d   1      19.988  -0.911   4.548  0.00  0.00    -0.393 OA
ATOM     19  H24 <0> d   1      20.307  -1.247   3.699  0.00  0.00     0.210 HD
ENDBRANCH  16  18
ENDBRANCH  15  16
BRANCH  15  20
ATOM     20  O7  <0> d   1      19.727  -3.362   6.692  0.00  0.00    -0.391 OA
ATOM     21  H25 <0> d   1      19.464  -3.920   5.947  0.00  0.00     0.210 HD
ENDBRANCH  15  20
ENDBRANCH   1  15
BRANCH  10  22
ATOM     22  N19 <0> d   1      21.473   0.576  12.190  0.00  0.00    -0.233 N 
ATOM     23  H31 <0> d   1      21.073   1.078  12.917  0.00  0.00     0.174 HD
ATOM     24  H32 <0> d   1      22.434   0.595  12.058  0.00  0.00     0.174 HD
ENDBRANCH  10  22
TORSDOF 5
ENDMDL
MODEL 3
REMARK VINA RESULT:      -6.3      2.545      5.652
REMARK  5 active torsions:
REMARK  status: ('A' for Active; 'I' for Inactive)
REMARK    1  A    between atoms: C2_2  and  O4_3 
REMARK    2  A    between atoms: C2_2  and  C5_4 
REMARK    3  A    between atoms: C5_4  and  O7_5 
REMARK    4  A    between atoms: C5_4  and  C8_6 
REMARK    5  A    between atoms: C18_15  and  N19_16 
ROOT
ATOM      1  C8  <0> d   1      18.405   0.605  13.355  0.00  0.00     0.131 C 
ATOM      2  C10 <0> d   1      18.432   2.140  13.283  0.00  0.00     0.149 C 
ATOM      3  N11 <0> d   1      19.118   2.646  14.481  0.00  0.00    -0.370 N 
ATOM      4  C12 <0> d   1      18.790   2.118  15.719  0.00  0.00     0.175 A 
ATOM      5  C13 <0> d   1      18.112   0.909  15.798  0.00  0.00     0.144 A 
ATOM      6  N14 <0> d   1      17.754   0.219  14.617  0.00  0.00    -0.373 N 
ATOM      7  C15 <0> d   1      17.792   0.389  17.055  0.00  0.00     0.290 A 
ATOM      8  O16 <0> d   1      17.198  -0.673  17.159  0.00  0.00    -0.265 OA
ATOM      9  N17 <0> d   1      18.155   1.088  18.153  0.00  0.00    -0.153 N 
ATOM     10  C18 <0> d   1      18.816   2.270  18.024  0.00  0.00     0.703 A 
ATOM     11  N20 <0> d   1      19.121   2.764  16.843  0.00  0.00    -0.045 NA
ATOM     12  H28 <0> d   1      19.791   3.341  14.405  0.00  0.00     0.161 HD
ATOM     13  H29 <0> d   1      17.094  -0.492  14.639  0.00  0.00     0.160 HD
ATOM     14  H30 <0> d   1      17.943   0.746  19.036  0.00  0.00     0.187 HD
ENDROOT
BRANCH   1  15
ATOM     15  C5  <0> d   1      19.835   0.061  13.323  0.00  0.00     0.170 C 
BRANCH  15  16
ATOM     16  C2  <0> d   1      20.473   0.384  11.970  0.00  0.00     0.145 C 
ATOM     17  C1  <0> d   1      20.326  -0.821  11.037  0.00  0.00     0.042 C 
BRANCH  16  18
ATOM     18  O4  <0> d   1      21.859   0.678  12.154  0.00  0.00    -0.393 OA
ATOM     19  H24 <0> d   1      22.120   0.781  13.079  0.00  0.00     0.210 HD
ENDBRANCH  16  18
ENDBRANCH  15  16
BRANCH  15  20
ATOM     20  O7  <0> d   1      19.810  -1.355  13.512  0.00  0.00    -0.391 OA
ATOM     21  H25 <0> d   1      20.050  -1.861  12.724  0.00  0.00     0.210 HD
ENDBRANCH  15  20
ENDBRANCH   1  15
BRANCH  10  22
ATOM     22  N19 <0> d   1      19.174   2.964  19.152  0.00  0.00    -0.233 N 
ATOM     23  H31 <0> d   1      19.931   3.570  19.128  0.00  0.00     0.174 HD
ATOM     24  H32 <0> d   1      18.671   2.848  19.973  0.00  0.00     0.174 HD
ENDBRANCH  10  22
TORSDOF 5
ENDMDL
MODEL 4
REMARK VINA RESULT:      -6.3      5.125      8.048
REMARK  5 active torsions:
REMARK  status: ('A' for Active; 'I' for Inactive)
REMARK    1  A    between atoms: C2_2  and  O4_3 
REMARK    2  A    between atoms: C2_2  and  C5_4 
REMARK    3  A    between atoms: C5_4  and  O7_5 
REMARK    4  A    between atoms: C5_4  and  C8_6 
REMARK    5  A    between atoms: C18_15  and  N19_16 
ROOT
ATOM      1  C8  <0> d   1      18.127  -3.253   8.608  0.00  0.00     0.131 C 
ATOM      2  C10 <0> d   1      18.400  -1.962   7.822  0.00  0.00     0.149 C 
ATOM      3  N11 <0> d   1      19.586  -1.312   8.400  0.00  0.00    -0.370 N 
ATOM      4  C12 <0> d   1      19.688  -1.199   9.777  0.00  0.00     0.175 A 
ATOM      5  C13 <0> d   1      18.891  -1.985  10.597  0.00  0.00     0.144 A 
ATOM      6  N14 <0> d   1      17.974  -2.899  10.028  0.00  0.00    -0.373 N 
ATOM      7  C15 <0> d   1      19.010  -1.861  11.984  0.00  0.00     0.290 A 
ATOM      8  O16 <0> d   1      18.325  -2.540  12.733  0.00  0.00    -0.265 OA
ATOM      9  N17 <0> d   1      19.900  -0.972  12.478  0.00  0.00    -0.153 N 
ATOM     10  C18 <0> d   1      20.657  -0.221  11.632  0.00  0.00     0.703 A 
ATOM     11  N20 <0> d   1      20.551  -0.335  10.326  0.00  0.00    -0.045 NA
ATOM     12  H28 <0> d   1      20.287  -0.967   7.824  0.00  0.00     0.161 HD
ATOM     13  H29 <0> d   1      17.261  -3.282  10.563  0.00  0.00     0.160 HD
ATOM     14  H30 <0> d   1      20.000  -0.869  13.437  0.00  0.00     0.187 HD
ENDROOT
BRANCH   1  15
ATOM     15  C5  <0> d   1      19.301  -4.220   8.439  0.00  0.00     0.170 C 
BRANCH  15  16
ATOM     16  C2  <0> d   1      19.627  -4.371   6.952  0.00  0.00     0.145 C 
ATOM     17  C1  <0> d   1      19.167  -5.747   6.467  0.00  0.00     0.042 C 
BRANCH  16  18
ATOM     18  O4  <0> d   1      21.037  -4.244   6.757  0.00  0.00    -0.393 OA
ATOM     19  H24 <0> d   1      21.568  -4.716   7.412  0.00  0.00     0.210 HD
ENDBRANCH  16  18
ENDBRANCH  15  16
BRANCH  15  20
ATOM     20  O7  <0> d   1      18.951  -5.493   8.982  0.00  0.00    -0.391 OA
ATOM     21  H25 <0> d   1      18.979  -6.216   8.340  0.00  0.00     0.210 HD
ENDBRANCH  15  20
ENDBRANCH   1  15
BRANCH  10  22
ATOM     22  N19 <0> d   1      21.555   0.676  12.155  0.00  0.00    -0.233 N 
ATOM     23  H31 <0> d   1      22.091   1.226  11.562  0.00  0.00     0.174 HD
ATOM     24  H32 <0> d   1      21.652   0.760  13.116  0.00  0.00     0.174 HD
ENDBRANCH  10  22
TORSDOF 5
ENDMDL
MODEL 5
REMARK VINA RESULT:      -6.1      4.380      7.486
REMARK  5 active torsions:
REMARK  status: ('A' for Active; 'I' for Inactive)
REMARK    1  A    between atoms: C2_2  and  O4_3 
REMARK    2  A    between atoms: C2_2  and  C5_4 
REMARK    3  A    between atoms: C5_4  and  O7_5 
REMARK    4  A    between atoms: C5_4  and  C8_6 
REMARK    5  A    between atoms: C18_15  and  N19_16 
ROOT
ATOM      1  C8  <0> d   1      18.093   0.414   7.814  0.00  0.00     0.131 C 
ATOM      2  C10 <0> d   1      19.232   1.439   7.919  0.00  0.00     0.149 C 
ATOM      3  N11 <0> d   1      19.999   1.154   9.141  0.00  0.00    -0.370 N 
ATOM      4  C12 <0> d   1      19.316   0.906  10.321  0.00  0.00     0.175 A 
ATOM      5  C13 <0> d   1      17.969   0.575  10.285  0.00  0.00     0.144 A 
ATOM      6  N14 <0> d   1      17.292   0.494   9.046  0.00  0.00    -0.373 N 
ATOM      7  C15 <0> d   1      17.296   0.324  11.485  0.00  0.00     0.290 A 
ATOM      8  O16 <0> d   1      16.111   0.028  11.487  0.00  0.00    -0.265 OA
ATOM      9  N17 <0> d   1      17.988   0.415  12.642  0.00  0.00    -0.153 N 
ATOM     10  C18 <0> d   1      19.308   0.746  12.626  0.00  0.00     0.703 A 
ATOM     11  N20 <0> d   1      19.946   0.982  11.500  0.00  0.00    -0.045 NA
ATOM     12  H28 <0> d   1      20.968   1.141   9.122  0.00  0.00     0.161 HD
ATOM     13  H29 <0> d   1      16.322   0.493   9.011  0.00  0.00     0.160 HD
ATOM     14  H30 <0> d   1      17.542   0.245  13.487  0.00  0.00     0.187 HD
ENDROOT
BRANCH   1  15
ATOM     15  C5  <0> d   1      18.675  -0.994   7.667  0.00  0.00     0.170 C 
BRANCH  15  16
ATOM     16  C2  <0> d   1      19.208  -1.178   6.245  0.00  0.00     0.145 C 
ATOM     17  C1  <0> d   1      18.075  -0.948   5.242  0.00  0.00     0.042 C 
BRANCH  16  18
ATOM     18  O4  <0> d   1      19.716  -2.505   6.094  0.00  0.00    -0.393 OA
ATOM     19  H24 <0> d   1      19.113  -3.195   6.403  0.00  0.00     0.210 HD
ENDBRANCH  16  18
ENDBRANCH  15  16
BRANCH  15  20
ATOM     20  O7  <0> d   1      17.655  -1.960   7.922  0.00  0.00    -0.391 OA
ATOM     21  H25 <0> d   1      17.578  -2.641   7.239  0.00  0.00     0.210 HD
ENDBRANCH  15  20
ENDBRANCH   1  15
BRANCH  10  22
ATOM     22  N19 <0> d   1      19.991   0.834  13.813  0.00  0.00    -0.233 N 
ATOM     23  H31 <0> d   1      19.622   0.432  14.615  0.00  0.00     0.174 HD
ATOM     24  H32 <0> d   1      20.841   1.299  13.850  0.00  0.00     0.174 HD
ENDBRANCH  10  22
TORSDOF 5
ENDMDL
MODEL 6
REMARK VINA RESULT:      -6.1      4.465      6.366
REMARK  5 active torsions:
REMARK  status: ('A' for Active; 'I' for Inactive)
REMARK    1  A    between atoms: C2_2  and  O4_3 
REMARK    2  A    between atoms: C2_2  and  C5_4 
REMARK    3  A    between atoms: C5_4  and  O7_5 
REMARK    4  A    between atoms: C5_4  and  C8_6 
REMARK    5  A    between atoms: C18_15  and  N19_16 
ROOT
ATOM      1  C8  <0> d   1      18.727  -0.696  10.292  0.00  0.00     0.131 C 
ATOM      2  C10 <0> d   1      17.980  -1.922  10.838  0.00  0.00     0.149 C 
ATOM      3  N11 <0> d   1      18.615  -3.131  10.291  0.00  0.00    -0.370 N 
ATOM      4  C12 <0> d   1      18.922  -3.178   8.940  0.00  0.00     0.175 A 
ATOM      5  C13 <0> d   1      18.970  -2.005   8.201  0.00  0.00     0.144 A 
ATOM      6  N14 <0> d   1      18.703  -0.763   8.822  0.00  0.00    -0.373 N 
ATOM      7  C15 <0> d   1      19.284  -2.070   6.840  0.00  0.00     0.290 A 
ATOM      8  O16 <0> d   1      19.336  -1.056   6.161  0.00  0.00    -0.265 OA
ATOM      9  N17 <0> d   1      19.530  -3.281   6.293  0.00  0.00    -0.153 N 
ATOM     10  C18 <0> d   1      19.468  -4.403   7.060  0.00  0.00     0.703 A 
ATOM     11  N20 <0> d   1      19.174  -4.348   8.341  0.00  0.00    -0.045 NA
ATOM     12  H28 <0> d   1      18.815  -3.885  10.867  0.00  0.00     0.161 HD
ATOM     13  H29 <0> d   1      18.507   0.025   8.292  0.00  0.00     0.160 HD
ATOM     14  H30 <0> d   1      19.751  -3.350   5.351  0.00  0.00     0.187 HD
ENDROOT
BRANCH   1  15
ATOM     15  C5  <0> d   1      20.175  -0.710  10.786  0.00  0.00     0.170 C 
BRANCH  15  16
ATOM     16  C2  <0> d   1      20.319   0.247  11.971  0.00  0.00     0.145 C 
ATOM     17  C1  <0> d   1      19.517   1.521  11.696  0.00  0.00     0.042 C 
BRANCH  16  18
ATOM     18  O4  <0> d   1      21.697   0.581  12.150  0.00  0.00    -0.393 OA
ATOM     19  H24 <0> d   1      21.865   1.173  12.896  0.00  0.00     0.210 HD
ENDBRANCH  16  18
ENDBRANCH  15  16
BRANCH  15  20
ATOM     20  O7  <0> d   1      21.043  -0.296   9.730  0.00  0.00    -0.391 OA
ATOM     21  H25 <0> d   1      21.357   0.615   9.814  0.00  0.00     0.210 HD
ENDBRANCH  15  20
ENDBRANCH   1  15
BRANCH  10  22
ATOM     22  N19 <0> d   1      19.721  -5.623   6.484  0.00  0.00    -0.233 N 
ATOM     23  H31 <0> d   1      20.238  -5.674   5.665  0.00  0.00     0.174 HD
ATOM     24  H32 <0> d   1      19.382  -6.433   6.895  0.00  0.00     0.174 HD
ENDBRANCH  10  22
TORSDOF 5
ENDMDL
MODEL 7
REMARK VINA RESULT:      -6.0      2.394      5.431
REMARK  5 active torsions:
REMARK  status: ('A' for Active; 'I' for Inactive)
REMARK    1  A    between atoms: C2_2  and  O4_3 
REMARK    2  A    between atoms: C2_2  and  C5_4 
REMARK    3  A    between atoms: C5_4  and  O7_5 
REMARK    4  A    between atoms: C5_4  and  C8_6 
REMARK    5  A    between atoms: C18_15  and  N19_16 
ROOT
ATOM      1  C8  <0> d   1      18.703   0.790  12.799  0.00  0.00     0.131 C 
ATOM      2  C10 <0> d   1      18.002   2.023  12.210  0.00  0.00     0.149 C 
ATOM      3  N11 <0> d   1      18.659   3.226  12.743  0.00  0.00    -0.370 N 
ATOM      4  C12 <0> d   1      18.939   3.296  14.098  0.00  0.00     0.175 A 
ATOM      5  C13 <0> d   1      18.939   2.139  14.865  0.00  0.00     0.144 A 
ATOM      6  N14 <0> d   1      18.650   0.891  14.266  0.00  0.00    -0.373 N 
ATOM      7  C15 <0> d   1      19.227   2.228  16.231  0.00  0.00     0.290 A 
ATOM      8  O16 <0> d   1      19.237   1.228  16.933  0.00  0.00    -0.265 OA
ATOM      9  N17 <0> d   1      19.496   3.444  16.755  0.00  0.00    -0.153 N 
ATOM     10  C18 <0> d   1      19.481   4.549  15.962  0.00  0.00     0.703 A 
ATOM     11  N20 <0> d   1      19.211   4.472  14.676  0.00  0.00    -0.045 NA
ATOM     12  H28 <0> d   1      18.892   3.961  12.154  0.00  0.00     0.161 HD
ATOM     13  H29 <0> d   1      18.421   0.122  14.811  0.00  0.00     0.160 HD
ATOM     14  H30 <0> d   1      19.699   3.529  17.700  0.00  0.00     0.187 HD
ENDROOT
BRANCH   1  15
ATOM     15  C5  <0> d   1      20.161   0.753  12.336  0.00  0.00     0.170 C 
BRANCH  15  16
ATOM     16  C2  <0> d   1      20.289  -0.185  11.134  0.00  0.00     0.145 C 
ATOM     17  C1  <0> d   1      19.464  -1.449  11.383  0.00  0.00     0.042 C 
BRANCH  16  18
ATOM     18  O4  <0> d   1      21.662  -0.540  10.951  0.00  0.00    -0.393 OA
ATOM     19  H24 <0> d   1      21.867  -0.874  10.067  0.00  0.00     0.210 HD
ENDBRANCH  16  18
ENDBRANCH  15  16
BRANCH  15  20
ATOM     20  O7  <0> d   1      20.987   0.279  13.400  0.00  0.00    -0.391 OA
ATOM     21  H25 <0> d   1      20.515  -0.248  14.060  0.00  0.00     0.210 HD
ENDBRANCH  15  20
ENDBRANCH   1  15
BRANCH  10  22
ATOM     22  N19 <0> d   1      19.755   5.774  16.515  0.00  0.00    -0.233 N 
ATOM     23  H31 <0> d   1      19.061   6.451  16.563  0.00  0.00     0.174 HD
ATOM     24  H32 <0> d   1      20.642   5.964  16.858  0.00  0.00     0.174 HD
ENDBRANCH  10  22
TORSDOF 5
ENDMDL
MODEL 8
REMARK VINA RESULT:      -6.0      4.422      6.048
REMARK  5 active torsions:
REMARK  status: ('A' for Active; 'I' for Inactive)
REMARK    1  A    between atoms: C2_2  and  O4_3 
REMARK    2  A    between atoms: C2_2  and  C5_4 
REMARK    3  A    between atoms: C5_4  and  O7_5 
REMARK    4  A    between atoms: C5_4  and  C8_6 
REMARK    5  A    between atoms: C18_15  and  N19_16 
ROOT
ATOM      1  C8  <0> d   1      18.535  -0.155  10.551  0.00  0.00     0.131 C 
ATOM      2  C10 <0> d   1      17.506  -0.484  11.643  0.00  0.00     0.149 C 
ATOM      3  N11 <0> d   1      17.594  -1.921  11.943  0.00  0.00    -0.370 N 
ATOM      4  C12 <0> d   1      17.653  -2.825  10.895  0.00  0.00     0.175 A 
ATOM      5  C13 <0> d   1      17.985  -2.387   9.621  0.00  0.00     0.144 A 
ATOM      6  N14 <0> d   1      18.261  -1.019   9.391  0.00  0.00    -0.373 N 
ATOM      7  C15 <0> d   1      18.043  -3.313   8.576  0.00  0.00     0.290 A 
ATOM      8  O16 <0> d   1      18.335  -2.960   7.443  0.00  0.00    -0.265 OA
ATOM      9  N17 <0> d   1      17.771  -4.609   8.847  0.00  0.00    -0.153 N 
ATOM     10  C18 <0> d   1      17.447  -4.989  10.113  0.00  0.00     0.703 A 
ATOM     11  N20 <0> d   1      17.391  -4.121  11.101  0.00  0.00    -0.045 NA
ATOM     12  H28 <0> d   1      17.611  -2.231  12.862  0.00  0.00     0.161 HD
ATOM     13  H29 <0> d   1      18.268  -0.660   8.490  0.00  0.00     0.160 HD
ATOM     14  H30 <0> d   1      17.805  -5.269   8.137  0.00  0.00     0.187 HD
ENDROOT
BRANCH   1  15
ATOM     15  C5  <0> d   1      19.948  -0.423  11.073  0.00  0.00     0.170 C 
BRANCH  15  16
ATOM     16  C2  <0> d   1      20.343   0.676  12.061  0.00  0.00     0.145 C 
ATOM     17  C1  <0> d   1      19.890   2.034  11.521  0.00  0.00     0.042 C 
BRANCH  16  18
ATOM     18  O4  <0> d   1      21.762   0.679  12.229  0.00  0.00    -0.393 OA
ATOM     19  H24 <0> d   1      22.196  -0.128  11.921  0.00  0.00     0.210 HD
ENDBRANCH  16  18
ENDBRANCH  15  16
BRANCH  15  20
ATOM     20  O7  <0> d   1      20.866  -0.433   9.979  0.00  0.00    -0.391 OA
ATOM     21  H25 <0> d   1      21.728  -0.046  10.186  0.00  0.00     0.210 HD
ENDBRANCH  15  20
ENDBRANCH   1  15
BRANCH  10  22
ATOM     22  N19 <0> d   1      17.172  -6.309  10.366  0.00  0.00    -0.233 N 
ATOM     23  H31 <0> d   1      16.278  -6.656  10.216  0.00  0.00     0.174 HD
ATOM     24  H32 <0> d   1      17.871  -6.896  10.694  0.00  0.00     0.174 HD
ENDBRANCH  10  22
TORSDOF 5
ENDMDL
MODEL 9
REMARK VINA RESULT:      -5.7      2.477      5.426
REMARK  5 active torsions:
REMARK  status: ('A' for Active; 'I' for Inactive)
REMARK    1  A    between atoms: C2_2  and  O4_3 
REMARK    2  A    between atoms: C2_2  and  C5_4 
REMARK    3  A    between atoms: C5_4  and  O7_5 
REMARK    4  A    between atoms: C5_4  and  C8_6 
REMARK    5  A    between atoms: C18_15  and  N19_16 
ROOT
ATOM      1  C8  <0> d   1      19.087   0.669  13.377  0.00  0.00     0.131 C 
ATOM      2  C10 <0> d   1      18.960  -0.702  14.058  0.00  0.00     0.149 C 
ATOM      3  N11 <0> d   1      18.104  -0.551  15.244  0.00  0.00    -0.370 N 
ATOM      4  C12 <0> d   1      18.322   0.517  16.100  0.00  0.00     0.175 A 
ATOM      5  C13 <0> d   1      19.070   1.605  15.673  0.00  0.00     0.144 A 
ATOM      6  N14 <0> d   1      19.612   1.624  14.367  0.00  0.00    -0.373 N 
ATOM      7  C15 <0> d   1      19.277   2.675  16.548  0.00  0.00     0.290 A 
ATOM      8  O16 <0> d   1      19.929   3.649  16.202  0.00  0.00    -0.265 OA
ATOM      9  N17 <0> d   1      18.739   2.609  17.786  0.00  0.00    -0.153 N 
ATOM     10  C18 <0> d   1      18.016   1.518  18.160  0.00  0.00     0.703 A 
ATOM     11  N20 <0> d   1      17.817   0.509  17.340  0.00  0.00    -0.045 NA
ATOM     12  H28 <0> d   1      17.398  -1.190  15.425  0.00  0.00     0.161 HD
ATOM     13  H29 <0> d   1      20.313   2.251  14.131  0.00  0.00     0.160 HD
ATOM     14  H30 <0> d   1      18.870   3.340  18.410  0.00  0.00     0.187 HD
ENDROOT
BRANCH   1  15
ATOM     15  C5  <0> d   1      17.714   1.134  12.889  0.00  0.00     0.170 C 
BRANCH  15  16
ATOM     16  C2  <0> d   1      17.340   0.368  11.618  0.00  0.00     0.145 C 
ATOM     17  C1  <0> d   1      17.695   1.212  10.392  0.00  0.00     0.042 C 
BRANCH  16  18
ATOM     18  O4  <0> d   1      15.936   0.098  11.619  0.00  0.00    -0.393 OA
ATOM     19  H24 <0> d   1      15.407   0.769  12.071  0.00  0.00     0.210 HD
ENDBRANCH  16  18
ENDBRANCH  15  16
BRANCH  15  20
ATOM     20  O7  <0> d   1      17.756   2.533  12.607  0.00  0.00    -0.391 OA
ATOM     21  H25 <0> d   1      17.789   2.743  11.664  0.00  0.00     0.210 HD
ENDBRANCH  15  20
ENDBRANCH   1  15
BRANCH  10  22
ATOM     22  N19 <0> d   1      17.479   1.471  19.422  0.00  0.00    -0.233 N 
ATOM     23  H31 <0> d   1      17.360   0.617  19.866  0.00  0.00     0.174 HD
ATOM     24  H32 <0> d   1      17.220   2.291  19.869  0.00  0.00     0.174 HD
ENDBRANCH  10  22
TORSDOF 5
ENDMDL
