MODEL 1
REMARK VINA RESULT:      -8.7      0.000      0.000
REMARK  5 active torsions:
REMARK  status: ('A' for Active; 'I' for Inactive)
REMARK    1  A    between atoms: C4_4  and  C5_5 
REMARK    2  A    between atoms: C4_4  and  C11_11 
REMARK    3  A    between atoms: N19_19  and  C20_20 
REMARK    4  A    between atoms: C20_20  and  O21_21 
REMARK    5  A    between atoms: O21_21  and  P22_22 
ROOT
ATOM      1  O1  <0> d   1      20.350   1.926  11.238  0.00  0.00    -0.247 OA
ATOM      2  C2  <0> d   1      19.528   1.125  11.638  0.00  0.00     0.328 A 
ATOM      3  N3  <0> d   1      19.825   0.084  12.436  0.00  0.00    -0.316 N 
ATOM      4  C4  <0> d   1      18.562  -0.631  12.685  0.00  0.00     0.171 A 
ATOM      5  C17 <0> d   1      17.539   0.172  11.906  0.00  0.00     0.267 A 
ATOM      6  O18 <0> d   1      16.349  -0.045  11.818  0.00  0.00    -0.269 OA
ATOM      7  N19 <0> d   1      18.226   1.183  11.337  0.00  0.00    -0.244 N 
ATOM      8  H26 <0> d   1      20.701  -0.151  12.781  0.00  0.00     0.166 HD
ENDROOT
BRANCH   4   9
ATOM      9  C5  <0> d   1      18.638  -2.041  12.160  0.00  0.00    -0.016 A 
ATOM     10  C10 <0> d   1      19.867  -2.610  11.882  0.00  0.00     0.010 A 
ATOM     11  C9  <0> d   1      19.938  -3.905  11.406  0.00  0.00     0.001 A 
ATOM     12  C8  <0> d   1      18.780  -4.630  11.197  0.00  0.00     0.000 A 
ATOM     13  C7  <0> d   1      17.550  -4.060  11.470  0.00  0.00     0.001 A 
ATOM     14  C6  <0> d   1      17.480  -2.766  11.952  0.00  0.00     0.010 A 
ENDBRANCH   4   9
BRANCH   4  15
ATOM     15  C11 <0> d   1      18.233  -0.631  14.155  0.00  0.00    -0.016 A 
ATOM     16  C16 <0> d   1      17.438   0.366  14.686  0.00  0.00     0.010 A 
ATOM     17  C15 <0> d   1      17.132   0.364  16.034  0.00  0.00     0.001 A 
ATOM     18  C14 <0> d   1      17.628  -0.633  16.853  0.00  0.00     0.000 A 
ATOM     19  C13 <0> d   1      18.428  -1.628  16.323  0.00  0.00     0.001 A 
ATOM     20  C12 <0> d   1      18.730  -1.627  14.974  0.00  0.00     0.010 A 
ENDBRANCH   4  15
BRANCH   7  21
ATOM     21  C20 <0> d   1      17.622   2.212  10.488  0.00  0.00     0.321 C 
BRANCH  21  22
ATOM     22  O21 <0> d   1      16.910   3.145  11.303  0.00  0.00    -0.262 OA
BRANCH  22  23
ATOM     23  P22 <0> d   1      17.307   4.703  11.406  0.00  0.00     0.423 P 
ATOM     24  O23 <0> d   1      18.755   4.835  11.991  0.00  0.00    -0.617 OA
ATOM     25  O24 <0> d   1      17.259   5.348   9.979  0.00  0.00    -0.617 OA
ATOM     26  O25 <0> d   1      16.294   5.439  12.348  0.00  0.00    -0.617 OA
ENDBRANCH  22  23
ENDBRANCH  21  22
ENDBRANCH   7  21
TORSDOF 5
ENDMDL
MODEL 2
REMARK VINA RESULT:      -8.7      3.708      7.141
REMARK  5 active torsions:
REMARK  status: ('A' for Active; 'I' for Inactive)
REMARK    1  A    between atoms: C4_4  and  C5_5 
REMARK    2  A    between atoms: C4_4  and  C11_11 
REMARK    3  A    between atoms: N19_19  and  C20_20 
REMARK    4  A    between atoms: C20_20  and  O21_21 
REMARK    5  A    between atoms: O21_21  and  P22_22 
ROOT
ATOM      1  O1  <0> d   1      20.419  -2.010  11.609  0.00  0.00    -0.247 OA
ATOM      2  C2  <0> d   1      19.600  -1.214  11.191  0.00  0.00     0.328 A 
ATOM      3  N3  <0> d   1      19.911  -0.158  10.419  0.00  0.00    -0.316 N 
ATOM      4  C4  <0> d   1      18.647   0.544  10.136  0.00  0.00     0.171 A 
ATOM      5  C17 <0> d   1      17.609  -0.284  10.867  0.00  0.00     0.267 A 
ATOM      6  O18 <0> d   1      16.414  -0.083  10.916  0.00  0.00    -0.269 OA
ATOM      7  N19 <0> d   1      18.289  -1.294  11.445  0.00  0.00    -0.244 N 
ATOM      8  H26 <0> d   1      20.795   0.094  10.109  0.00  0.00     0.166 HD
ENDROOT
BRANCH   4   9
ATOM      9  C5  <0> d   1      18.687   1.947  10.683  0.00  0.00    -0.016 A 
ATOM     10  C10 <0> d   1      19.752   2.357  11.462  0.00  0.00     0.010 A 
ATOM     11  C9  <0> d   1      19.791   3.645  11.960  0.00  0.00     0.001 A 
ATOM     12  C8  <0> d   1      18.759   4.523  11.686  0.00  0.00     0.000 A 
ATOM     13  C7  <0> d   1      17.690   4.113  10.911  0.00  0.00     0.001 A 
ATOM     14  C6  <0> d   1      17.654   2.825  10.409  0.00  0.00     0.010 A 
ENDBRANCH   4   9
BRANCH   4  15
ATOM     15  C11 <0> d   1      18.370   0.562   8.656  0.00  0.00    -0.016 A 
ATOM     16  C16 <0> d   1      17.299  -0.147   8.144  0.00  0.00     0.010 A 
ATOM     17  C15 <0> d   1      17.042  -0.127   6.786  0.00  0.00     0.001 A 
ATOM     18  C14 <0> d   1      17.861   0.595   5.938  0.00  0.00     0.000 A 
ATOM     19  C13 <0> d   1      18.935   1.299   6.449  0.00  0.00     0.001 A 
ATOM     20  C12 <0> d   1      19.189   1.282   7.807  0.00  0.00     0.010 A 
ENDBRANCH   4  15
BRANCH   7  21
ATOM     21  C20 <0> d   1      17.670  -2.343  12.258  0.00  0.00     0.321 C 
BRANCH  21  22
ATOM     22  O21 <0> d   1      16.972  -3.254  11.408  0.00  0.00    -0.262 OA
BRANCH  22  23
ATOM     23  P22 <0> d   1      17.397  -4.798  11.238  0.00  0.00     0.423 P 
ATOM     24  O23 <0> d   1      18.878  -4.879  10.731  0.00  0.00    -0.617 OA
ATOM     25  O24 <0> d   1      17.278  -5.527  12.620  0.00  0.00    -0.617 OA
ATOM     26  O25 <0> d   1      16.451  -5.490  10.199  0.00  0.00    -0.617 OA
ENDBRANCH  22  23
ENDBRANCH  21  22
ENDBRANCH   7  21
TORSDOF 5
ENDMDL
MODEL 3
REMARK VINA RESULT:      -8.7      3.954      6.426
REMARK  5 active torsions:
REMARK  status: ('A' for Active; 'I' for Inactive)
REMARK    1  A    between atoms: C4_4  and  C5_5 
REMARK    2  A    between atoms: C4_4  and  C11_11 
REMARK    3  A    between atoms: N19_19  and  C20_20 
REMARK    4  A    between atoms: C20_20  and  O21_21 
REMARK    5  A    between atoms: O21_21  and  P22_22 
ROOT
ATOM      1  O1  <0> d   1      16.791  -1.885  12.041  0.00  0.00    -0.247 OA
ATOM      2  C2  <0> d   1      17.541  -1.147  11.432  0.00  0.00     0.328 A 
ATOM      3  N3  <0> d   1      17.134  -0.056  10.759  0.00  0.00    -0.316 N 
ATOM      4  C4  <0> d   1      18.340   0.550  10.170  0.00  0.00     0.171 A 
ATOM      5  C17 <0> d   1      19.458  -0.369  10.621  0.00  0.00     0.267 A 
ATOM      6  O18 <0> d   1      20.640  -0.262  10.373  0.00  0.00    -0.269 OA
ATOM      7  N19 <0> d   1      18.865  -1.327  11.362  0.00  0.00    -0.244 N 
ATOM      8  H26 <0> d   1      16.223   0.268  10.676  0.00  0.00     0.166 HD
ENDROOT
BRANCH   4   9
ATOM      9  C5  <0> d   1      18.244   0.570   8.667  0.00  0.00    -0.016 A 
ATOM     10  C10 <0> d   1      17.266  -0.168   8.027  0.00  0.00     0.010 A 
ATOM     11  C9  <0> d   1      17.174  -0.147   6.648  0.00  0.00     0.001 A 
ATOM     12  C8  <0> d   1      18.067   0.604   5.907  0.00  0.00     0.000 A 
ATOM     13  C7  <0> d   1      19.049   1.338   6.546  0.00  0.00     0.001 A 
ATOM     14  C6  <0> d   1      19.137   1.321   7.926  0.00  0.00     0.010 A 
ENDBRANCH   4   9
BRANCH   4  15
ATOM     15  C11 <0> d   1      18.547   1.944  10.704  0.00  0.00    -0.016 A 
ATOM     16  C16 <0> d   1      17.624   2.934  10.427  0.00  0.00     0.010 A 
ATOM     17  C15 <0> d   1      17.811   4.212  10.920  0.00  0.00     0.001 A 
ATOM     18  C14 <0> d   1      18.927   4.502  11.683  0.00  0.00     0.000 A 
ATOM     19  C13 <0> d   1      19.853   3.513  11.955  0.00  0.00     0.001 A 
ATOM     20  C12 <0> d   1      19.663   2.234  11.466  0.00  0.00     0.010 A 
ENDBRANCH   4  15
BRANCH   7  21
ATOM     21  C20 <0> d   1      19.581  -2.432  12.002  0.00  0.00     0.321 C 
BRANCH  21  22
ATOM     22  O21 <0> d   1      20.055  -3.336  11.001  0.00  0.00    -0.262 OA
BRANCH  22  23
ATOM     23  P22 <0> d   1      19.108  -4.416  10.273  0.00  0.00     0.423 P 
ATOM     24  O23 <0> d   1      18.121  -5.035  11.322  0.00  0.00    -0.617 OA
ATOM     25  O24 <0> d   1      18.288  -3.711   9.139  0.00  0.00    -0.617 OA
ATOM     26  O25 <0> d   1      19.990  -5.551   9.652  0.00  0.00    -0.617 OA
ENDBRANCH  22  23
ENDBRANCH  21  22
ENDBRANCH   7  21
TORSDOF 5
ENDMDL
MODEL 4
REMARK VINA RESULT:      -8.6      3.267      6.833
REMARK  5 active torsions:
REMARK  status: ('A' for Active; 'I' for Inactive)
REMARK    1  A    between atoms: C4_4  and  C5_5 
REMARK    2  A    between atoms: C4_4  and  C11_11 
REMARK    3  A    between atoms: N19_19  and  C20_20 
REMARK    4  A    between atoms: C20_20  and  O21_21 
REMARK    5  A    between atoms: O21_21  and  P22_22 
ROOT
ATOM      1  O1  <0> d   1      21.028   0.255  12.605  0.00  0.00    -0.247 OA
ATOM      2  C2  <0> d   1      20.005   0.573  12.030  0.00  0.00     0.328 A 
ATOM      3  N3  <0> d   1      19.951   1.497  11.055  0.00  0.00    -0.316 N 
ATOM      4  C4  <0> d   1      18.543   1.581  10.631  0.00  0.00     0.171 A 
ATOM      5  C17 <0> d   1      17.843   0.570  11.518  0.00  0.00     0.267 A 
ATOM      6  O18 <0> d   1      16.662   0.294  11.523  0.00  0.00    -0.269 OA
ATOM      7  N19 <0> d   1      18.808   0.037  12.294  0.00  0.00    -0.244 N 
ATOM      8  H26 <0> d   1      20.695   2.009  10.700  0.00  0.00     0.166 HD
ENDROOT
BRANCH   4   9
ATOM      9  C5  <0> d   1      17.999   2.965  10.874  0.00  0.00    -0.016 A 
ATOM     10  C10 <0> d   1      17.546   3.320  12.131  0.00  0.00     0.010 A 
ATOM     11  C9  <0> d   1      17.051   4.591  12.354  0.00  0.00     0.001 A 
ATOM     12  C8  <0> d   1      16.999   5.505  11.318  0.00  0.00     0.000 A 
ATOM     13  C7  <0> d   1      17.446   5.148  10.059  0.00  0.00     0.001 A 
ATOM     14  C6  <0> d   1      17.946   3.879   9.837  0.00  0.00     0.010 A 
ENDBRANCH   4   9
BRANCH   4  15
ATOM     15  C11 <0> d   1      18.403   1.205   9.179  0.00  0.00    -0.016 A 
ATOM     16  C16 <0> d   1      17.452   0.280   8.794  0.00  0.00     0.010 A 
ATOM     17  C15 <0> d   1      17.319  -0.062   7.460  0.00  0.00     0.001 A 
ATOM     18  C14 <0> d   1      18.144   0.516   6.514  0.00  0.00     0.000 A 
ATOM     19  C13 <0> d   1      19.099   1.438   6.900  0.00  0.00     0.001 A 
ATOM     20  C12 <0> d   1      19.228   1.783   8.233  0.00  0.00     0.010 A 
ENDBRANCH   4  15
BRANCH   7  21
ATOM     21  C20 <0> d   1      18.572  -0.993  13.308  0.00  0.00     0.321 C 
BRANCH  21  22
ATOM     22  O21 <0> d   1      19.164  -2.223  12.883  0.00  0.00    -0.262 OA
BRANCH  22  23
ATOM     23  P22 <0> d   1      18.628  -3.065  11.619  0.00  0.00     0.423 P 
ATOM     24  O23 <0> d   1      19.031  -4.570  11.786  0.00  0.00    -0.617 OA
ATOM     25  O24 <0> d   1      17.067  -2.949  11.539  0.00  0.00    -0.617 OA
ATOM     26  O25 <0> d   1      19.263  -2.497  10.305  0.00  0.00    -0.617 OA
ENDBRANCH  22  23
ENDBRANCH  21  22
ENDBRANCH   7  21
TORSDOF 5
ENDMDL
MODEL 5
REMARK VINA RESULT:      -8.5      3.220      6.559
REMARK  5 active torsions:
REMARK  status: ('A' for Active; 'I' for Inactive)
REMARK    1  A    between atoms: C4_4  and  C5_5 
REMARK    2  A    between atoms: C4_4  and  C11_11 
REMARK    3  A    between atoms: N19_19  and  C20_20 
REMARK    4  A    between atoms: C20_20  and  O21_21 
REMARK    5  A    between atoms: O21_21  and  P22_22 
ROOT
ATOM      1  O1  <0> d   1      20.840   0.251  12.924  0.00  0.00    -0.247 OA
ATOM      2  C2  <0> d   1      19.850   0.580  12.300  0.00  0.00     0.328 A 
ATOM      3  N3  <0> d   1      19.859   1.486  11.306  0.00  0.00    -0.316 N 
ATOM      4  C4  <0> d   1      18.473   1.593  10.820  0.00  0.00     0.171 A 
ATOM      5  C17 <0> d   1      17.712   0.616  11.694  0.00  0.00     0.267 A 
ATOM      6  O18 <0> d   1      16.527   0.366  11.653  0.00  0.00    -0.269 OA
ATOM      7  N19 <0> d   1      18.631   0.077  12.521  0.00  0.00    -0.244 N 
ATOM      8  H26 <0> d   1      20.629   1.975  10.974  0.00  0.00     0.166 HD
ENDROOT
BRANCH   4   9
ATOM      9  C5  <0> d   1      17.951   2.993  11.013  0.00  0.00    -0.016 A 
ATOM     10  C10 <0> d   1      17.526   3.408  12.261  0.00  0.00     0.010 A 
ATOM     11  C9  <0> d   1      17.052   4.694  12.440  0.00  0.00     0.001 A 
ATOM     12  C8  <0> d   1      16.992   5.563  11.366  0.00  0.00     0.000 A 
ATOM     13  C7  <0> d   1      17.411   5.147  10.116  0.00  0.00     0.001 A 
ATOM     14  C6  <0> d   1      17.891   3.863   9.940  0.00  0.00     0.010 A 
ENDBRANCH   4   9
BRANCH   4  15
ATOM     15  C11 <0> d   1      18.386   1.192   9.371  0.00  0.00    -0.016 A 
ATOM     16  C16 <0> d   1      17.431   0.282   8.961  0.00  0.00     0.010 A 
ATOM     17  C15 <0> d   1      17.347  -0.083   7.630  0.00  0.00     0.001 A 
ATOM     18  C14 <0> d   1      18.226   0.457   6.710  0.00  0.00     0.000 A 
ATOM     19  C13 <0> d   1      19.186   1.364   7.120  0.00  0.00     0.001 A 
ATOM     20  C12 <0> d   1      19.265   1.731   8.450  0.00  0.00     0.010 A 
ENDBRANCH   4  15
BRANCH   7  21
ATOM     21  C20 <0> d   1      18.327  -0.928  13.542  0.00  0.00     0.321 C 
BRANCH  21  22
ATOM     22  O21 <0> d   1      17.668  -0.304  14.645  0.00  0.00    -0.262 OA
BRANCH  22  23
ATOM     23  P22 <0> d   1      18.318  -0.204  16.115  0.00  0.00     0.423 P 
ATOM     24  O23 <0> d   1      19.240   1.061  16.194  0.00  0.00    -0.617 OA
ATOM     25  O24 <0> d   1      17.177  -0.086  17.183  0.00  0.00    -0.617 OA
ATOM     26  O25 <0> d   1      19.168  -1.489  16.399  0.00  0.00    -0.617 OA
ENDBRANCH  22  23
ENDBRANCH  21  22
ENDBRANCH   7  21
TORSDOF 5
ENDMDL
MODEL 6
REMARK VINA RESULT:      -8.3      1.170      4.130
REMARK  5 active torsions:
REMARK  status: ('A' for Active; 'I' for Inactive)
REMARK    1  A    between atoms: C4_4  and  C5_5 
REMARK    2  A    between atoms: C4_4  and  C11_11 
REMARK    3  A    between atoms: N19_19  and  C20_20 
REMARK    4  A    between atoms: C20_20  and  O21_21 
REMARK    5  A    between atoms: O21_21  and  P22_22 
ROOT
ATOM      1  O1  <0> d   1      16.863   1.805  10.891  0.00  0.00    -0.247 OA
ATOM      2  C2  <0> d   1      17.620   1.076  11.503  0.00  0.00     0.328 A 
ATOM      3  N3  <0> d   1      17.224  -0.023  12.170  0.00  0.00    -0.316 N 
ATOM      4  C4  <0> d   1      18.434  -0.614  12.765  0.00  0.00     0.171 A 
ATOM      5  C17 <0> d   1      19.542   0.324  12.325  0.00  0.00     0.267 A 
ATOM      6  O18 <0> d   1      20.723   0.232  12.581  0.00  0.00    -0.269 OA
ATOM      7  N19 <0> d   1      18.940   1.275  11.583  0.00  0.00    -0.244 N 
ATOM      8  H26 <0> d   1      16.317  -0.360  12.245  0.00  0.00     0.166 HD
ENDROOT
BRANCH   4   9
ATOM      9  C5  <0> d   1      18.328  -0.639  14.268  0.00  0.00    -0.016 A 
ATOM     10  C10 <0> d   1      19.131  -1.490  15.004  0.00  0.00     0.010 A 
ATOM     11  C9  <0> d   1      19.037  -1.510  16.382  0.00  0.00     0.001 A 
ATOM     12  C8  <0> d   1      18.132  -0.686  17.026  0.00  0.00     0.000 A 
ATOM     13  C7  <0> d   1      17.324   0.161  16.289  0.00  0.00     0.001 A 
ATOM     14  C6  <0> d   1      17.423   0.185  14.911  0.00  0.00     0.010 A 
ENDBRANCH   4   9
BRANCH   4  15
ATOM     15  C11 <0> d   1      18.666  -2.002  12.228  0.00  0.00    -0.016 A 
ATOM     16  C16 <0> d   1      19.954  -2.453  12.009  0.00  0.00     0.010 A 
ATOM     17  C15 <0> d   1      20.167  -3.729  11.521  0.00  0.00     0.001 A 
ATOM     18  C14 <0> d   1      19.091  -4.551  11.245  0.00  0.00     0.000 A 
ATOM     19  C13 <0> d   1      17.802  -4.099  11.459  0.00  0.00     0.001 A 
ATOM     20  C12 <0> d   1      17.590  -2.824  11.951  0.00  0.00     0.010 A 
ENDBRANCH   4  15
BRANCH   7  21
ATOM     21  C20 <0> d   1      19.645   2.393  10.952  0.00  0.00     0.321 C 
BRANCH  21  22
ATOM     22  O21 <0> d   1      20.119   3.287  11.960  0.00  0.00    -0.262 OA
BRANCH  22  23
ATOM     23  P22 <0> d   1      19.150   4.271  12.789  0.00  0.00     0.423 P 
ATOM     24  O23 <0> d   1      18.044   4.840  11.835  0.00  0.00    -0.617 OA
ATOM     25  O24 <0> d   1      18.472   3.473  13.955  0.00  0.00    -0.617 OA
ATOM     26  O25 <0> d   1      19.988   5.454  13.382  0.00  0.00    -0.617 OA
ENDBRANCH  22  23
ENDBRANCH  21  22
ENDBRANCH   7  21
TORSDOF 5
ENDMDL
MODEL 7
REMARK VINA RESULT:      -8.0      3.098      5.191
REMARK  5 active torsions:
REMARK  status: ('A' for Active; 'I' for Inactive)
REMARK    1  A    between atoms: C4_4  and  C5_5 
REMARK    2  A    between atoms: C4_4  and  C11_11 
REMARK    3  A    between atoms: N19_19  and  C20_20 
REMARK    4  A    between atoms: C20_20  and  O21_21 
REMARK    5  A    between atoms: O21_21  and  P22_22 
ROOT
ATOM      1  O1  <0> d   1      20.516   0.537  13.077  0.00  0.00    -0.247 OA
ATOM      2  C2  <0> d   1      19.638   0.134  12.340  0.00  0.00     0.328 A 
ATOM      3  N3  <0> d   1      19.866  -0.596  11.234  0.00  0.00    -0.316 N 
ATOM      4  C4  <0> d   1      18.550  -0.876  10.634  0.00  0.00     0.171 A 
ATOM      5  C17 <0> d   1      17.577  -0.191  11.574  0.00  0.00     0.267 A 
ATOM      6  O18 <0> d   1      16.369  -0.155  11.479  0.00  0.00    -0.269 OA
ATOM      7  N19 <0> d   1      18.335   0.363  12.541  0.00  0.00    -0.244 N 
ATOM      8  H26 <0> d   1      20.730  -0.883  10.896  0.00  0.00     0.166 HD
ENDROOT
BRANCH   4   9
ATOM      9  C5  <0> d   1      18.460  -0.280   9.253  0.00  0.00    -0.016 A 
ATOM     10  C10 <0> d   1      19.378   0.672   8.849  0.00  0.00     0.010 A 
ATOM     11  C9  <0> d   1      19.298   1.214   7.580  0.00  0.00     0.001 A 
ATOM     12  C8  <0> d   1      18.295   0.813   6.718  0.00  0.00     0.000 A 
ATOM     13  C7  <0> d   1      17.374  -0.135   7.124  0.00  0.00     0.001 A 
ATOM     14  C6  <0> d   1      17.457  -0.682   8.391  0.00  0.00     0.010 A 
ENDBRANCH   4   9
BRANCH   4  15
ATOM     15  C11 <0> d   1      18.293  -2.359  10.587  0.00  0.00    -0.016 A 
ATOM     16  C16 <0> d   1      17.360  -2.926  11.435  0.00  0.00     0.010 A 
ATOM     17  C15 <0> d   1      17.120  -4.287  11.389  0.00  0.00     0.001 A 
ATOM     18  C14 <0> d   1      17.819  -5.082  10.501  0.00  0.00     0.000 A 
ATOM     19  C13 <0> d   1      18.756  -4.516   9.657  0.00  0.00     0.001 A 
ATOM     20  C12 <0> d   1      18.993  -3.155   9.700  0.00  0.00     0.010 A 
ENDBRANCH   4  15
BRANCH   7  21
ATOM     21  C20 <0> d   1      17.799   1.129  13.669  0.00  0.00     0.321 C 
BRANCH  21  22
ATOM     22  O21 <0> d   1      17.369   0.231  14.693  0.00  0.00    -0.262 OA
BRANCH  22  23
ATOM     23  P22 <0> d   1      18.257  -0.108  15.994  0.00  0.00     0.423 P 
ATOM     24  O23 <0> d   1      19.217   1.093  16.297  0.00  0.00    -0.617 OA
ATOM     25  O24 <0> d   1      17.314  -0.345  17.222  0.00  0.00    -0.617 OA
ATOM     26  O25 <0> d   1      19.104  -1.398  15.727  0.00  0.00    -0.617 OA
ENDBRANCH  22  23
ENDBRANCH  21  22
ENDBRANCH   7  21
TORSDOF 5
ENDMDL
MODEL 8
REMARK VINA RESULT:      -8.0      3.492      6.025
REMARK  5 active torsions:
REMARK  status: ('A' for Active; 'I' for Inactive)
REMARK    1  A    between atoms: C4_4  and  C5_5 
REMARK    2  A    between atoms: C4_4  and  C11_11 
REMARK    3  A    between atoms: N19_19  and  C20_20 
REMARK    4  A    between atoms: C20_20  and  O21_21 
REMARK    5  A    between atoms: O21_21  and  P22_22 
ROOT
ATOM      1  O1  <0> d   1      20.609  -3.539  11.471  0.00  0.00    -0.247 OA
ATOM      2  C2  <0> d   1      19.798  -2.688  11.778  0.00  0.00     0.328 A 
ATOM      3  N3  <0> d   1      20.112  -1.556  12.434  0.00  0.00    -0.316 N 
ATOM      4  C4  <0> d   1      18.856  -0.808  12.609  0.00  0.00     0.171 A 
ATOM      5  C17 <0> d   1      17.816  -1.697  11.956  0.00  0.00     0.267 A 
ATOM      6  O18 <0> d   1      16.627  -1.484  11.858  0.00  0.00    -0.269 OA
ATOM      7  N19 <0> d   1      18.492  -2.771  11.498  0.00  0.00    -0.244 N 
ATOM      8  H26 <0> d   1      20.994  -1.286  12.733  0.00  0.00     0.166 HD
ENDROOT
BRANCH   4   9
ATOM      9  C5  <0> d   1      18.549  -0.623  14.073  0.00  0.00    -0.016 A 
ATOM     10  C10 <0> d   1      17.662   0.358  14.475  0.00  0.00     0.010 A 
ATOM     11  C9  <0> d   1      17.377   0.525  15.817  0.00  0.00     0.001 A 
ATOM     12  C8  <0> d   1      17.987  -0.283  16.759  0.00  0.00     0.000 A 
ATOM     13  C7  <0> d   1      18.879  -1.260  16.358  0.00  0.00     0.001 A 
ATOM     14  C6  <0> d   1      19.159  -1.430  15.015  0.00  0.00     0.010 A 
ENDBRANCH   4   9
BRANCH   4  15
ATOM     15  C11 <0> d   1      18.932   0.526  11.913  0.00  0.00    -0.016 A 
ATOM     16  C16 <0> d   1      18.003   0.853  10.943  0.00  0.00     0.010 A 
ATOM     17  C15 <0> d   1      18.069   2.079  10.307  0.00  0.00     0.001 A 
ATOM     18  C14 <0> d   1      19.069   2.974  10.635  0.00  0.00     0.000 A 
ATOM     19  C13 <0> d   1      20.002   2.645  11.601  0.00  0.00     0.001 A 
ATOM     20  C12 <0> d   1      19.932   1.421  12.240  0.00  0.00     0.010 A 
ENDBRANCH   4  15
BRANCH   7  21
ATOM     21  C20 <0> d   1      17.871  -3.893  10.791  0.00  0.00     0.321 C 
BRANCH  21  22
ATOM     22  O21 <0> d   1      17.637  -3.527   9.430  0.00  0.00    -0.262 OA
BRANCH  22  23
ATOM     23  P22 <0> d   1      18.605  -3.972   8.222  0.00  0.00     0.423 P 
ATOM     24  O23 <0> d   1      17.752  -4.636   7.087  0.00  0.00    -0.617 OA
ATOM     25  O24 <0> d   1      19.340  -2.711   7.652  0.00  0.00    -0.617 OA
ATOM     26  O25 <0> d   1      19.662  -5.000   8.751  0.00  0.00    -0.617 OA
ENDBRANCH  22  23
ENDBRANCH  21  22
ENDBRANCH   7  21
TORSDOF 5
ENDMDL
MODEL 9
REMARK VINA RESULT:      -8.0      2.985      4.837
REMARK  5 active torsions:
REMARK  status: ('A' for Active; 'I' for Inactive)
REMARK    1  A    between atoms: C4_4  and  C5_5 
REMARK    2  A    between atoms: C4_4  and  C11_11 
REMARK    3  A    between atoms: N19_19  and  C20_20 
REMARK    4  A    between atoms: C20_20  and  O21_21 
REMARK    5  A    between atoms: O21_21  and  P22_22 
ROOT
ATOM      1  O1  <0> d   1      20.459  -0.510   9.983  0.00  0.00    -0.247 OA
ATOM      2  C2  <0> d   1      19.582  -0.118  10.726  0.00  0.00     0.328 A 
ATOM      3  N3  <0> d   1      19.811   0.591  11.846  0.00  0.00    -0.316 N 
ATOM      4  C4  <0> d   1      18.496   0.863  12.450  0.00  0.00     0.171 A 
ATOM      5  C17 <0> d   1      17.522   0.200  11.496  0.00  0.00     0.267 A 
ATOM      6  O18 <0> d   1      16.313   0.167  11.589  0.00  0.00    -0.269 OA
ATOM      7  N19 <0> d   1      18.279  -0.338  10.519  0.00  0.00    -0.244 N 
ATOM      8  H26 <0> d   1      20.675   0.867  12.190  0.00  0.00     0.166 HD
ENDROOT
BRANCH   4   9
ATOM      9  C5  <0> d   1      18.402   0.242  13.819  0.00  0.00    -0.016 A 
ATOM     10  C10 <0> d   1      17.388   0.616  14.681  0.00  0.00     0.010 A 
ATOM     11  C9  <0> d   1      17.299   0.043  15.935  0.00  0.00     0.001 A 
ATOM     12  C8  <0> d   1      18.230  -0.898  16.333  0.00  0.00     0.000 A 
ATOM     13  C7  <0> d   1      19.249  -1.268  15.474  0.00  0.00     0.001 A 
ATOM     14  C6  <0> d   1      19.334  -0.699  14.217  0.00  0.00     0.010 A 
ENDBRANCH   4   9
BRANCH   4  15
ATOM     15  C11 <0> d   1      18.244   2.347  12.525  0.00  0.00    -0.016 A 
ATOM     16  C16 <0> d   1      17.421   2.956  11.596  0.00  0.00     0.010 A 
ATOM     17  C15 <0> d   1      17.185   4.316  11.668  0.00  0.00     0.001 A 
ATOM     18  C14 <0> d   1      17.780   5.069  12.663  0.00  0.00     0.000 A 
ATOM     19  C13 <0> d   1      18.608   4.461  13.588  0.00  0.00     0.001 A 
ATOM     20  C12 <0> d   1      18.839   3.100  13.519  0.00  0.00     0.010 A 
ENDBRANCH   4  15
BRANCH   7  21
ATOM     21  C20 <0> d   1      17.740  -1.080   9.377  0.00  0.00     0.321 C 
BRANCH  21  22
ATOM     22  O21 <0> d   1      17.389  -0.165   8.337  0.00  0.00    -0.262 OA
BRANCH  22  23
ATOM     23  P22 <0> d   1      18.301   0.071   7.031  0.00  0.00     0.423 P 
ATOM     24  O23 <0> d   1      19.245  -1.163   6.823  0.00  0.00    -0.617 OA
ATOM     25  O24 <0> d   1      17.379   0.240   5.775  0.00  0.00    -0.617 OA
ATOM     26  O25 <0> d   1      19.165   1.363   7.223  0.00  0.00    -0.617 OA
ENDBRANCH  22  23
ENDBRANCH  21  22
ENDBRANCH   7  21
TORSDOF 5
ENDMDL
