MODEL 1
REMARK VINA RESULT:      -7.4      0.000      0.000
REMARK  16 active torsions:
REMARK  status: ('A' for Active; 'I' for Inactive)
REMARK    1  A    between atoms: C4_4  and  O5_5 
REMARK    2  A    between atoms: C8_8  and  O9_9 
REMARK    3  A    between atoms: C14_14  and  N15_15 
REMARK    4  A    between atoms: N15_15  and  C16_16 
REMARK    5  A    between atoms: C16_16  and  C17_17 
REMARK    6  A    between atoms: C17_17  and  N18_18 
REMARK    7  A    between atoms: N18_18  and  C21_21 
REMARK    8  A    between atoms: C21_21  and  C22_22 
REMARK    9  A    between atoms: C22_22  and  O23_23 
REMARK   10  A    between atoms: C26_26  and  N27_27 
REMARK   11  A    between atoms: N27_27  and  C28_28 
REMARK   12  A    between atoms: C28_28  and  C29_29 
REMARK   13  A    between atoms: C29_29  and  N30_30 
REMARK   14  A    between atoms: N30_30  and  C33_33 
REMARK   15  A    between atoms: C33_33  and  C34_34 
REMARK   16  A    between atoms: C34_34  and  O35_35 
ROOT
ATOM      1  O1  ZIN A   1      20.675  -0.398  10.246  0.00  0.00    -0.286 OA
ATOM      2  C2  ZIN A   1      19.746  -0.939   9.676  0.00  0.00     0.199 C 
ATOM      3  C3  ZIN A   1      19.207  -0.399   8.410  0.00  0.00     0.065 A 
ATOM      4  C4  ZIN A   1      19.345   0.947   8.077  0.00  0.00     0.081 A 
ATOM      5  C6  ZIN A   1      18.824   1.416   6.872  0.00  0.00     0.040 A 
ATOM      6  C7  ZIN A   1      18.174   0.560   6.009  0.00  0.00     0.040 A 
ATOM      7  C8  ZIN A   1      18.026  -0.790   6.325  0.00  0.00     0.081 A 
ATOM      8  C10 ZIN A   1      18.540  -1.276   7.525  0.00  0.00     0.065 A 
ATOM      9  C11 ZIN A   1      18.406  -2.699   7.901  0.00  0.00     0.199 C 
ATOM     10  O12 ZIN A   1      18.265  -3.563   7.055  0.00  0.00    -0.286 OA
ATOM     11  C13 ZIN A   1      18.450  -3.036   9.338  0.00  0.00     0.058 A 
ATOM     12  C14 ZIN A   1      17.850  -4.193   9.832  0.00  0.00     0.043 A 
ATOM     13  C24 ZIN A   1      17.915  -4.474  11.201  0.00  0.00     0.032 A 
ATOM     14  C25 ZIN A   1      18.562  -3.621  12.061  0.00  0.00     0.032 A 
ATOM     15  C26 ZIN A   1      19.170  -2.454  11.584  0.00  0.00     0.043 A 
ATOM     16  C36 ZIN A   1      19.121  -2.160  10.220  0.00  0.00     0.058 A 
ENDROOT
BRANCH  12  17
ATOM     17  N15 ZIN A   1      17.194  -5.061   8.972  0.00  0.00    -0.388 N 
ATOM     18  H41 ZIN A   1      17.662  -5.431   8.206  0.00  0.00     0.159 HD
BRANCH  17  19
ATOM     19  C16 ZIN A   1      15.795  -5.420   9.217  0.00  0.00     0.147 C 
BRANCH  19  20
ATOM     20  C17 ZIN A   1      15.228  -6.137   7.991  0.00  0.00     0.251 C 
BRANCH  20  21
ATOM     21  N18 ZIN A   1      15.929  -5.674   6.786  0.00  0.00    -0.072 N 
ATOM     22  H19 ZIN A   1      15.980  -4.667   6.791  0.00  0.00     0.277 HD
ATOM     23  H20 ZIN A   1      16.861  -6.059   6.771  0.00  0.00     0.277 HD
BRANCH  21  24
ATOM     24  C21 ZIN A   1      15.196  -6.120   5.592  0.00  0.00     0.258 C 
BRANCH  24  25
ATOM     25  C22 ZIN A   1      15.656  -5.309   4.380  0.00  0.00     0.191 C 
BRANCH  25  26
ATOM     26  O23 ZIN A   1      16.467  -4.216   4.816  0.00  0.00    -0.399 OA
ATOM     27  H50 ZIN A   1      17.042  -4.426   5.563  0.00  0.00     0.209 HD
ENDBRANCH  25  26
ENDBRANCH  24  25
ENDBRANCH  21  24
ENDBRANCH  20  21
ENDBRANCH  19  20
ENDBRANCH  17  19
ENDBRANCH  12  17
BRANCH  15  28
ATOM     28  N27 ZIN A   1      19.822  -1.598  12.460  0.00  0.00    -0.388 N 
ATOM     29  H53 ZIN A   1      20.734  -1.322  12.279  0.00  0.00     0.159 HD
BRANCH  28  30
ATOM     30  C28 ZIN A   1      19.132  -1.111  13.658  0.00  0.00     0.147 C 
BRANCH  30  31
ATOM     31  C29 ZIN A   1      19.676   0.269  14.033  0.00  0.00     0.251 C 
BRANCH  31  32
ATOM     32  N30 ZIN A   1      20.106   0.972  12.817  0.00  0.00    -0.072 N 
ATOM     33  H31 ZIN A   1      20.946   1.496  13.011  0.00  0.00     0.277 HD
ATOM     34  H32 ZIN A   1      20.289   0.302  12.087  0.00  0.00     0.277 HD
BRANCH  32  35
ATOM     35  C33 ZIN A   1      19.046   1.891  12.382  0.00  0.00     0.258 C 
BRANCH  35  36
ATOM     36  C34 ZIN A   1      19.641   3.280  12.140  0.00  0.00     0.191 C 
BRANCH  36  37
ATOM     37  O35 ZIN A   1      20.918   3.148  11.512  0.00  0.00    -0.399 OA
ATOM     38  H62 ZIN A   1      21.523   2.552  11.974  0.00  0.00     0.209 HD
ENDBRANCH  36  37
ENDBRANCH  35  36
ENDBRANCH  32  35
ENDBRANCH  31  32
ENDBRANCH  30  31
ENDBRANCH  28  30
ENDBRANCH  15  28
BRANCH   7  39
ATOM     39  O9  ZIN A   1      17.385  -1.625   5.470  0.00  0.00    -0.360 OA
ATOM     40  H40 ZIN A   1      16.992  -1.179   4.707  0.00  0.00     0.217 HD
ENDBRANCH   7  39
BRANCH   4  41
ATOM     41  O5  ZIN A   1      19.983   1.796   8.920  0.00  0.00    -0.360 OA
ATOM     42  H37 ZIN A   1      20.763   1.414   9.348  0.00  0.00     0.217 HD
ENDBRANCH   4  41
TORSDOF 16
ENDMDL
MODEL 2
REMARK VINA RESULT:      -7.2      4.731     10.679
REMARK  16 active torsions:
REMARK  status: ('A' for Active; 'I' for Inactive)
REMARK    1  A    between atoms: C4_4  and  O5_5 
REMARK    2  A    between atoms: C8_8  and  O9_9 
REMARK    3  A    between atoms: C14_14  and  N15_15 
REMARK    4  A    between atoms: N15_15  and  C16_16 
REMARK    5  A    between atoms: C16_16  and  C17_17 
REMARK    6  A    between atoms: C17_17  and  N18_18 
REMARK    7  A    between atoms: N18_18  and  C21_21 
REMARK    8  A    between atoms: C21_21  and  C22_22 
REMARK    9  A    between atoms: C22_22  and  O23_23 
REMARK   10  A    between atoms: C26_26  and  N27_27 
REMARK   11  A    between atoms: N27_27  and  C28_28 
REMARK   12  A    between atoms: C28_28  and  C29_29 
REMARK   13  A    between atoms: C29_29  and  N30_30 
REMARK   14  A    between atoms: N30_30  and  C33_33 
REMARK   15  A    between atoms: C33_33  and  C34_34 
REMARK   16  A    between atoms: C34_34  and  O35_35 
ROOT
ATOM      1  O1  ZIN A   1      19.111   0.779  12.987  0.00  0.00    -0.286 OA
ATOM      2  C2  ZIN A   1      18.878   1.368  14.027  0.00  0.00     0.199 C 
ATOM      3  C3  ZIN A   1      18.981   0.684  15.333  0.00  0.00     0.065 A 
ATOM      4  C4  ZIN A   1      18.839  -0.697  15.443  0.00  0.00     0.081 A 
ATOM      5  C6  ZIN A   1      18.945  -1.303  16.695  0.00  0.00     0.040 A 
ATOM      6  C7  ZIN A   1      19.187  -0.547  17.821  0.00  0.00     0.040 A 
ATOM      7  C8  ZIN A   1      19.332   0.837  17.730  0.00  0.00     0.081 A 
ATOM      8  C10 ZIN A   1      19.229   1.459  16.489  0.00  0.00     0.065 A 
ATOM      9  C11 ZIN A   1      19.375   2.923  16.345  0.00  0.00     0.199 C 
ATOM     10  O12 ZIN A   1      20.005   3.575  17.157  0.00  0.00    -0.286 OA
ATOM     11  C13 ZIN A   1      18.731   3.566  15.183  0.00  0.00     0.058 A 
ATOM     12  C14 ZIN A   1      18.366   4.912  15.205  0.00  0.00     0.043 A 
ATOM     13  C24 ZIN A   1      17.758   5.481  14.082  0.00  0.00     0.032 A 
ATOM     14  C25 ZIN A   1      17.515   4.727  12.959  0.00  0.00     0.032 A 
ATOM     15  C26 ZIN A   1      17.872   3.375  12.918  0.00  0.00     0.043 A 
ATOM     16  C36 ZIN A   1      18.487   2.791  14.027  0.00  0.00     0.058 A 
ENDROOT
BRANCH  12  17
ATOM     17  N15 ZIN A   1      18.607   5.681  16.334  0.00  0.00    -0.388 N 
ATOM     18  H41 ZIN A   1      19.104   5.307  17.079  0.00  0.00     0.159 HD
BRANCH  17  19
ATOM     19  C16 ZIN A   1      18.112   7.058  16.403  0.00  0.00     0.147 C 
BRANCH  19  20
ATOM     20  C17 ZIN A   1      17.301   7.246  17.686  0.00  0.00     0.251 C 
BRANCH  20  21
ATOM     21  N18 ZIN A   1      18.051   6.699  18.824  0.00  0.00    -0.072 N 
ATOM     22  H19 ZIN A   1      18.618   5.926  18.514  0.00  0.00     0.277 HD
ATOM     23  H20 ZIN A   1      18.645   7.418  19.211  0.00  0.00     0.277 HD
BRANCH  21  24
ATOM     24  C21 ZIN A   1      17.111   6.235  19.853  0.00  0.00     0.258 C 
BRANCH  24  25
ATOM     25  C22 ZIN A   1      17.373   4.758  20.154  0.00  0.00     0.191 C 
BRANCH  25  26
ATOM     26  O23 ZIN A   1      18.444   4.287  19.333  0.00  0.00    -0.399 OA
ATOM     27  H50 ZIN A   1      18.416   3.337  19.157  0.00  0.00     0.209 HD
ENDBRANCH  25  26
ENDBRANCH  24  25
ENDBRANCH  21  24
ENDBRANCH  20  21
ENDBRANCH  19  20
ENDBRANCH  17  19
ENDBRANCH  12  17
BRANCH  15  28
ATOM     28  N27 ZIN A   1      17.624   2.622  11.780  0.00  0.00    -0.388 N 
ATOM     29  H53 ZIN A   1      17.108   1.803  11.843  0.00  0.00     0.159 HD
BRANCH  28  30
ATOM     30  C28 ZIN A   1      18.138   3.065  10.481  0.00  0.00     0.147 C 
BRANCH  30  31
ATOM     31  C29 ZIN A   1      18.434   1.845   9.607  0.00  0.00     0.251 C 
BRANCH  31  32
ATOM     32  N30 ZIN A   1      19.747   1.293   9.965  0.00  0.00    -0.072 N 
ATOM     33  H31 ZIN A   1      20.474   1.866   9.560  0.00  0.00     0.277 HD
ATOM     34  H32 ZIN A   1      19.847   1.284  10.968  0.00  0.00     0.277 HD
BRANCH  32  35
ATOM     35  C33 ZIN A   1      19.860  -0.077   9.449  0.00  0.00     0.258 C 
BRANCH  35  36
ATOM     36  C34 ZIN A   1      20.389  -0.997  10.553  0.00  0.00     0.191 C 
BRANCH  36  37
ATOM     37  O35 ZIN A   1      21.699  -0.573  10.937  0.00  0.00    -0.399 OA
ATOM     38  H62 ZIN A   1      21.748  -0.213  11.833  0.00  0.00     0.209 HD
ENDBRANCH  36  37
ENDBRANCH  35  36
ENDBRANCH  32  35
ENDBRANCH  31  32
ENDBRANCH  30  31
ENDBRANCH  28  30
ENDBRANCH  15  28
BRANCH   7  39
ATOM     39  O9  ZIN A   1      19.572   1.572  18.844  0.00  0.00    -0.360 OA
ATOM     40  H40 ZIN A   1      19.102   1.260  19.630  0.00  0.00     0.217 HD
ENDBRANCH   7  39
BRANCH   4  41
ATOM     41  O5  ZIN A   1      18.600  -1.448  14.340  0.00  0.00    -0.360 OA
ATOM     42  H37 ZIN A   1      17.975  -2.173  14.485  0.00  0.00     0.217 HD
ENDBRANCH   4  41
TORSDOF 16
ENDMDL
MODEL 3
REMARK VINA RESULT:      -7.2      1.921      7.974
REMARK  16 active torsions:
REMARK  status: ('A' for Active; 'I' for Inactive)
REMARK    1  A    between atoms: C4_4  and  O5_5 
REMARK    2  A    between atoms: C8_8  and  O9_9 
REMARK    3  A    between atoms: C14_14  and  N15_15 
REMARK    4  A    between atoms: N15_15  and  C16_16 
REMARK    5  A    between atoms: C16_16  and  C17_17 
REMARK    6  A    between atoms: C17_17  and  N18_18 
REMARK    7  A    between atoms: N18_18  and  C21_21 
REMARK    8  A    between atoms: C21_21  and  C22_22 
REMARK    9  A    between atoms: C22_22  and  O23_23 
REMARK   10  A    between atoms: C26_26  and  N27_27 
REMARK   11  A    between atoms: N27_27  and  C28_28 
REMARK   12  A    between atoms: C28_28  and  C29_29 
REMARK   13  A    between atoms: C29_29  and  N30_30 
REMARK   14  A    between atoms: N30_30  and  C33_33 
REMARK   15  A    between atoms: C33_33  and  C34_34 
REMARK   16  A    between atoms: C34_34  and  O35_35 
ROOT
ATOM      1  O1  ZIN A   1      19.492  -3.524   6.739  0.00  0.00    -0.286 OA
ATOM      2  C2  ZIN A   1      19.239  -2.759   7.652  0.00  0.00     0.199 C 
ATOM      3  C3  ZIN A   1      18.970  -3.260   9.017  0.00  0.00     0.065 A 
ATOM      4  C4  ZIN A   1      18.494  -4.550   9.236  0.00  0.00     0.081 A 
ATOM      5  C6  ZIN A   1      18.255  -4.984  10.540  0.00  0.00     0.040 A 
ATOM      6  C7  ZIN A   1      18.483  -4.146  11.610  0.00  0.00     0.040 A 
ATOM      7  C8  ZIN A   1      18.959  -2.851  11.409  0.00  0.00     0.081 A 
ATOM      8  C10 ZIN A   1      19.204  -2.401  10.115  0.00  0.00     0.065 A 
ATOM      9  C11 ZIN A   1      19.708  -1.036   9.855  0.00  0.00     0.199 C 
ATOM     10  O12 ZIN A   1      20.334  -0.425  10.701  0.00  0.00    -0.286 OA
ATOM     11  C13 ZIN A   1      19.425  -0.440   8.534  0.00  0.00     0.058 A 
ATOM     12  C14 ZIN A   1      19.386   0.942   8.352  0.00  0.00     0.043 A 
ATOM     13  C24 ZIN A   1      19.114   1.464   7.084  0.00  0.00     0.032 A 
ATOM     14  C25 ZIN A   1      18.885   0.630   6.017  0.00  0.00     0.032 A 
ATOM     15  C26 ZIN A   1      18.920  -0.760   6.179  0.00  0.00     0.043 A 
ATOM     16  C36 ZIN A   1      19.196  -1.300   7.436  0.00  0.00     0.058 A 
ENDROOT
BRANCH  12  17
ATOM     17  N15 ZIN A   1      19.616   1.793   9.424  0.00  0.00    -0.388 N 
ATOM     18  H41 ZIN A   1      20.475   1.784   9.874  0.00  0.00     0.159 HD
BRANCH  17  19
ATOM     19  C16 ZIN A   1      18.562   2.704   9.876  0.00  0.00     0.147 C 
BRANCH  19  20
ATOM     20  C17 ZIN A   1      18.834   3.124  11.321  0.00  0.00     0.251 C 
BRANCH  20  21
ATOM     21  N18 ZIN A   1      19.545   2.044  12.019  0.00  0.00    -0.072 N 
ATOM     22  H19 ZIN A   1      19.636   1.249  11.406  0.00  0.00     0.277 HD
ATOM     23  H20 ZIN A   1      20.461   2.367  12.291  0.00  0.00     0.277 HD
BRANCH  21  24
ATOM     24  C21 ZIN A   1      18.789   1.654  13.217  0.00  0.00     0.258 C 
BRANCH  24  25
ATOM     25  C22 ZIN A   1      19.674   0.795  14.121  0.00  0.00     0.191 C 
BRANCH  25  26
ATOM     26  O23 ZIN A   1      20.815   0.348  13.386  0.00  0.00    -0.399 OA
ATOM     27  H50 ZIN A   1      21.602   0.206  13.930  0.00  0.00     0.209 HD
ENDBRANCH  25  26
ENDBRANCH  24  25
ENDBRANCH  21  24
ENDBRANCH  20  21
ENDBRANCH  19  20
ENDBRANCH  17  19
ENDBRANCH  12  17
BRANCH  15  28
ATOM     28  N27 ZIN A   1      18.688  -1.595   5.096  0.00  0.00    -0.388 N 
ATOM     29  H53 ZIN A   1      19.404  -2.151   4.750  0.00  0.00     0.159 HD
BRANCH  28  30
ATOM     30  C28 ZIN A   1      17.362  -1.637   4.474  0.00  0.00     0.147 C 
BRANCH  30  31
ATOM     31  C29 ZIN A   1      17.106  -3.039   3.914  0.00  0.00     0.251 C 
BRANCH  31  32
ATOM     32  N30 ZIN A   1      17.143  -4.017   5.009  0.00  0.00    -0.072 N 
ATOM     33  H31 ZIN A   1      18.101  -4.184   5.278  0.00  0.00     0.277 HD
ATOM     34  H32 ZIN A   1      16.629  -3.658   5.799  0.00  0.00     0.277 HD
BRANCH  32  35
ATOM     35  C33 ZIN A   1      16.534  -5.276   4.561  0.00  0.00     0.258 C 
BRANCH  35  36
ATOM     36  C34 ZIN A   1      17.464  -6.443   4.900  0.00  0.00     0.191 C 
BRANCH  36  37
ATOM     37  O35 ZIN A   1      18.721  -5.934   5.351  0.00  0.00    -0.399 OA
ATOM     38  H62 ZIN A   1      18.744  -4.972   5.446  0.00  0.00     0.209 HD
ENDBRANCH  36  37
ENDBRANCH  35  36
ENDBRANCH  32  35
ENDBRANCH  31  32
ENDBRANCH  30  31
ENDBRANCH  28  30
ENDBRANCH  15  28
BRANCH   7  39
ATOM     39  O9  ZIN A   1      19.182  -2.035  12.469  0.00  0.00    -0.360 OA
ATOM     40  H40 ZIN A   1      20.093  -1.716  12.534  0.00  0.00     0.217 HD
ENDBRANCH   7  39
BRANCH   4  41
ATOM     41  O5  ZIN A   1      18.266  -5.381   8.188  0.00  0.00    -0.360 OA
ATOM     42  H37 ZIN A   1      18.148  -6.307   8.439  0.00  0.00     0.217 HD
ENDBRANCH   4  41
TORSDOF 16
ENDMDL
MODEL 4
REMARK VINA RESULT:      -7.1      3.280      9.193
REMARK  16 active torsions:
REMARK  status: ('A' for Active; 'I' for Inactive)
REMARK    1  A    between atoms: C4_4  and  O5_5 
REMARK    2  A    between atoms: C8_8  and  O9_9 
REMARK    3  A    between atoms: C14_14  and  N15_15 
REMARK    4  A    between atoms: N15_15  and  C16_16 
REMARK    5  A    between atoms: C16_16  and  C17_17 
REMARK    6  A    between atoms: C17_17  and  N18_18 
REMARK    7  A    between atoms: N18_18  and  C21_21 
REMARK    8  A    between atoms: C21_21  and  C22_22 
REMARK    9  A    between atoms: C22_22  and  O23_23 
REMARK   10  A    between atoms: C26_26  and  N27_27 
REMARK   11  A    between atoms: N27_27  and  C28_28 
REMARK   12  A    between atoms: C28_28  and  C29_29 
REMARK   13  A    between atoms: C29_29  and  N30_30 
REMARK   14  A    between atoms: N30_30  and  C33_33 
REMARK   15  A    between atoms: C33_33  and  C34_34 
REMARK   16  A    between atoms: C34_34  and  O35_35 
ROOT
ATOM      1  O1  ZIN A   1      20.645   0.030  11.737  0.00  0.00    -0.286 OA
ATOM      2  C2  ZIN A   1      19.825   0.687  12.352  0.00  0.00     0.199 C 
ATOM      3  C3  ZIN A   1      19.413   0.309  13.721  0.00  0.00     0.065 A 
ATOM      4  C4  ZIN A   1      19.510  -1.006  14.171  0.00  0.00     0.081 A 
ATOM      5  C6  ZIN A   1      19.112  -1.321  15.470  0.00  0.00     0.040 A 
ATOM      6  C7  ZIN A   1      18.623  -0.343  16.309  0.00  0.00     0.040 A 
ATOM      7  C8  ZIN A   1      18.519   0.978  15.876  0.00  0.00     0.081 A 
ATOM      8  C10 ZIN A   1      18.911   1.310  14.582  0.00  0.00     0.065 A 
ATOM      9  C11 ZIN A   1      18.818   2.698  14.080  0.00  0.00     0.199 C 
ATOM     10  O12 ZIN A   1      18.832   3.645  14.844  0.00  0.00    -0.286 OA
ATOM     11  C13 ZIN A   1      18.707   2.893  12.621  0.00  0.00     0.058 A 
ATOM     12  C14 ZIN A   1      18.121   4.039  12.083  0.00  0.00     0.043 A 
ATOM     13  C24 ZIN A   1      18.036   4.184  10.694  0.00  0.00     0.032 A 
ATOM     14  C25 ZIN A   1      18.523   3.209   9.857  0.00  0.00     0.032 A 
ATOM     15  C26 ZIN A   1      19.113   2.052  10.378  0.00  0.00     0.043 A 
ATOM     16  C36 ZIN A   1      19.212   1.892  11.761  0.00  0.00     0.058 A 
ENDROOT
BRANCH  12  17
ATOM     17  N15 ZIN A   1      17.628   5.029  12.920  0.00  0.00    -0.388 N 
ATOM     18  H41 ZIN A   1      18.189   5.396  13.621  0.00  0.00     0.159 HD
BRANCH  17  19
ATOM     19  C16 ZIN A   1      16.258   5.520  12.747  0.00  0.00     0.147 C 
BRANCH  19  20
ATOM     20  C17 ZIN A   1      15.684   5.922  14.106  0.00  0.00     0.251 C 
BRANCH  20  21
ATOM     21  N18 ZIN A   1      16.410   5.220  15.172  0.00  0.00    -0.072 N 
ATOM     22  H19 ZIN A   1      15.853   4.450  15.509  0.00  0.00     0.277 HD
ATOM     23  H20 ZIN A   1      17.284   4.870  14.809  0.00  0.00     0.277 HD
BRANCH  21  24
ATOM     24  C21 ZIN A   1      16.678   6.151  16.277  0.00  0.00     0.258 C 
BRANCH  24  25
ATOM     25  C22 ZIN A   1      17.727   7.174  15.838  0.00  0.00     0.191 C 
BRANCH  25  26
ATOM     26  O23 ZIN A   1      18.897   6.492  15.382  0.00  0.00    -0.399 OA
ATOM     27  H50 ZIN A   1      18.744   5.911  14.626  0.00  0.00     0.209 HD
ENDBRANCH  25  26
ENDBRANCH  24  25
ENDBRANCH  21  24
ENDBRANCH  20  21
ENDBRANCH  19  20
ENDBRANCH  17  19
ENDBRANCH  12  17
BRANCH  15  28
ATOM     28  N27 ZIN A   1      19.602   1.073   9.525  0.00  0.00    -0.388 N 
ATOM     29  H53 ZIN A   1      20.389   0.563   9.773  0.00  0.00     0.159 HD
BRANCH  28  30
ATOM     30  C28 ZIN A   1      18.929   0.810   8.250  0.00  0.00     0.147 C 
BRANCH  30  31
ATOM     31  C29 ZIN A   1      19.243  -0.617   7.794  0.00  0.00     0.251 C 
BRANCH  31  32
ATOM     32  N30 ZIN A   1      18.064  -1.467   8.003  0.00  0.00    -0.072 N 
ATOM     33  H31 ZIN A   1      17.394  -0.978   8.578  0.00  0.00     0.277 HD
ATOM     34  H32 ZIN A   1      17.645  -1.689   7.113  0.00  0.00     0.277 HD
BRANCH  32  35
ATOM     35  C33 ZIN A   1      18.469  -2.709   8.675  0.00  0.00     0.258 C 
BRANCH  35  36
ATOM     36  C34 ZIN A   1      18.573  -2.465  10.182  0.00  0.00     0.191 C 
BRANCH  36  37
ATOM     37  O35 ZIN A   1      19.938  -2.580  10.590  0.00  0.00    -0.399 OA
ATOM     38  H62 ZIN A   1      20.561  -2.119  10.011  0.00  0.00     0.209 HD
ENDBRANCH  36  37
ENDBRANCH  35  36
ENDBRANCH  32  35
ENDBRANCH  31  32
ENDBRANCH  30  31
ENDBRANCH  28  30
ENDBRANCH  15  28
BRANCH   7  39
ATOM     39  O9  ZIN A   1      18.037   1.933  16.709  0.00  0.00    -0.360 OA
ATOM     40  H40 ZIN A   1      17.874   1.622  17.610  0.00  0.00     0.217 HD
ENDBRANCH   7  39
BRANCH   4  41
ATOM     41  O5  ZIN A   1      19.989  -1.974  13.351  0.00  0.00    -0.360 OA
ATOM     42  H37 ZIN A   1      20.550  -2.625  13.797  0.00  0.00     0.217 HD
ENDBRANCH   4  41
TORSDOF 16
ENDMDL
MODEL 5
REMARK VINA RESULT:      -7.0      3.484      6.032
REMARK  16 active torsions:
REMARK  status: ('A' for Active; 'I' for Inactive)
REMARK    1  A    between atoms: C4_4  and  O5_5 
REMARK    2  A    between atoms: C8_8  and  O9_9 
REMARK    3  A    between atoms: C14_14  and  N15_15 
REMARK    4  A    between atoms: N15_15  and  C16_16 
REMARK    5  A    between atoms: C16_16  and  C17_17 
REMARK    6  A    between atoms: C17_17  and  N18_18 
REMARK    7  A    between atoms: N18_18  and  C21_21 
REMARK    8  A    between atoms: C21_21  and  C22_22 
REMARK    9  A    between atoms: C22_22  and  O23_23 
REMARK   10  A    between atoms: C26_26  and  N27_27 
REMARK   11  A    between atoms: N27_27  and  C28_28 
REMARK   12  A    between atoms: C28_28  and  C29_29 
REMARK   13  A    between atoms: C29_29  and  N30_30 
REMARK   14  A    between atoms: N30_30  and  C33_33 
REMARK   15  A    between atoms: C33_33  and  C34_34 
REMARK   16  A    between atoms: C34_34  and  O35_35 
ROOT
ATOM      1  O1  ZIN A   1      18.150   3.201  15.435  0.00  0.00    -0.286 OA
ATOM      2  C2  ZIN A   1      18.291   2.478  14.466  0.00  0.00     0.199 C 
ATOM      3  C3  ZIN A   1      18.255   3.024  13.093  0.00  0.00     0.065 A 
ATOM      4  C4  ZIN A   1      17.582   4.207  12.799  0.00  0.00     0.081 A 
ATOM      5  C6  ZIN A   1      17.574   4.689  11.491  0.00  0.00     0.040 A 
ATOM      6  C7  ZIN A   1      18.224   4.004  10.488  0.00  0.00     0.040 A 
ATOM      7  C8  ZIN A   1      18.903   2.818  10.763  0.00  0.00     0.081 A 
ATOM      8  C10 ZIN A   1      18.922   2.322  12.063  0.00  0.00     0.065 A 
ATOM      9  C11 ZIN A   1      19.628   1.067  12.401  0.00  0.00     0.199 C 
ATOM     10  O12 ZIN A   1      20.554   0.665  11.721  0.00  0.00    -0.286 OA
ATOM     11  C13 ZIN A   1      19.172   0.322  13.591  0.00  0.00     0.058 A 
ATOM     12  C14 ZIN A   1      19.385  -1.050  13.716  0.00  0.00     0.043 A 
ATOM     13  C24 ZIN A   1      18.937  -1.718  14.860  0.00  0.00     0.032 A 
ATOM     14  C25 ZIN A   1      18.287  -1.035  15.860  0.00  0.00     0.032 A 
ATOM     15  C26 ZIN A   1      18.062   0.342  15.752  0.00  0.00     0.043 A 
ATOM     16  C36 ZIN A   1      18.509   1.027  14.620  0.00  0.00     0.058 A 
ENDROOT
BRANCH  12  17
ATOM     17  N15 ZIN A   1      20.041  -1.748  12.712  0.00  0.00    -0.388 N 
ATOM     18  H41 ZIN A   1      20.942  -1.497  12.455  0.00  0.00     0.159 HD
BRANCH  17  19
ATOM     19  C16 ZIN A   1      19.372  -2.864  12.038  0.00  0.00     0.147 C 
BRANCH  19  20
ATOM     20  C17 ZIN A   1      18.840  -2.398  10.682  0.00  0.00     0.251 C 
BRANCH  20  21
ATOM     21  N18 ZIN A   1      19.920  -1.746   9.929  0.00  0.00    -0.072 N 
ATOM     22  H19 ZIN A   1      20.353  -1.041  10.505  0.00  0.00     0.277 HD
ATOM     23  H20 ZIN A   1      20.608  -2.435   9.665  0.00  0.00     0.277 HD
BRANCH  21  24
ATOM     24  C21 ZIN A   1      19.366  -1.120   8.721  0.00  0.00     0.258 C 
BRANCH  24  25
ATOM     25  C22 ZIN A   1      17.855  -0.945   8.885  0.00  0.00     0.191 C 
BRANCH  25  26
ATOM     26  O23 ZIN A   1      17.485   0.383   8.509  0.00  0.00    -0.399 OA
ATOM     27  H50 ZIN A   1      16.825   0.423   7.805  0.00  0.00     0.209 HD
ENDBRANCH  25  26
ENDBRANCH  24  25
ENDBRANCH  21  24
ENDBRANCH  20  21
ENDBRANCH  19  20
ENDBRANCH  17  19
ENDBRANCH  12  17
BRANCH  15  28
ATOM     28  N27 ZIN A   1      17.406   1.023  16.767  0.00  0.00    -0.388 N 
ATOM     29  H53 ZIN A   1      16.633   1.571  16.562  0.00  0.00     0.159 HD
BRANCH  28  30
ATOM     30  C28 ZIN A   1      17.881   0.913  18.149  0.00  0.00     0.147 C 
BRANCH  30  31
ATOM     31  C29 ZIN A   1      17.249   2.021  18.994  0.00  0.00     0.251 C 
BRANCH  31  32
ATOM     32  N30 ZIN A   1      17.380   3.306  18.295  0.00  0.00    -0.072 N 
ATOM     33  H31 ZIN A   1      18.358   3.535  18.192  0.00  0.00     0.277 HD
ATOM     34  H32 ZIN A   1      16.954   3.238  17.383  0.00  0.00     0.277 HD
BRANCH  32  35
ATOM     35  C33 ZIN A   1      16.710   4.357  19.071  0.00  0.00     0.258 C 
BRANCH  35  36
ATOM     36  C34 ZIN A   1      16.395   5.545  18.158  0.00  0.00     0.191 C 
BRANCH  36  37
ATOM     37  O35 ZIN A   1      16.584   5.160  16.795  0.00  0.00    -0.399 OA
ATOM     38  H62 ZIN A   1      15.800   5.276  16.241  0.00  0.00     0.209 HD
ENDBRANCH  36  37
ENDBRANCH  35  36
ENDBRANCH  32  35
ENDBRANCH  31  32
ENDBRANCH  30  31
ENDBRANCH  28  30
ENDBRANCH  15  28
BRANCH   7  39
ATOM     39  O9  ZIN A   1      19.541   2.151   9.769  0.00  0.00    -0.360 OA
ATOM     40  H40 ZIN A   1      19.730   2.693   8.990  0.00  0.00     0.217 HD
ENDBRANCH   7  39
BRANCH   4  41
ATOM     41  O5  ZIN A   1      16.939   4.888  13.780  0.00  0.00    -0.360 OA
ATOM     42  H37 ZIN A   1      17.373   5.714  14.037  0.00  0.00     0.217 HD
ENDBRANCH   4  41
TORSDOF 16
ENDMDL
MODEL 6
REMARK VINA RESULT:      -7.0      3.843      9.611
REMARK  16 active torsions:
REMARK  status: ('A' for Active; 'I' for Inactive)
REMARK    1  A    between atoms: C4_4  and  O5_5 
REMARK    2  A    between atoms: C8_8  and  O9_9 
REMARK    3  A    between atoms: C14_14  and  N15_15 
REMARK    4  A    between atoms: N15_15  and  C16_16 
REMARK    5  A    between atoms: C16_16  and  C17_17 
REMARK    6  A    between atoms: C17_17  and  N18_18 
REMARK    7  A    between atoms: N18_18  and  C21_21 
REMARK    8  A    between atoms: C21_21  and  C22_22 
REMARK    9  A    between atoms: C22_22  and  O23_23 
REMARK   10  A    between atoms: C26_26  and  N27_27 
REMARK   11  A    between atoms: N27_27  and  C28_28 
REMARK   12  A    between atoms: C28_28  and  C29_29 
REMARK   13  A    between atoms: C29_29  and  N30_30 
REMARK   14  A    between atoms: N30_30  and  C33_33 
REMARK   15  A    between atoms: C33_33  and  C34_34 
REMARK   16  A    between atoms: C34_34  and  O35_35 
ROOT
ATOM      1  O1  ZIN A   1      20.733   0.337  12.271  0.00  0.00    -0.286 OA
ATOM      2  C2  ZIN A   1      19.834   0.901  12.867  0.00  0.00     0.199 C 
ATOM      3  C3  ZIN A   1      19.349   0.402  14.171  0.00  0.00     0.065 A 
ATOM      4  C4  ZIN A   1      19.493  -0.935  14.536  0.00  0.00     0.081 A 
ATOM      5  C6  ZIN A   1      19.024  -1.365  15.777  0.00  0.00     0.040 A 
ATOM      6  C7  ZIN A   1      18.418  -0.480  16.642  0.00  0.00     0.040 A 
ATOM      7  C8  ZIN A   1      18.265   0.862  16.294  0.00  0.00     0.081 A 
ATOM      8  C10 ZIN A   1      18.728   1.309  15.059  0.00  0.00     0.065 A 
ATOM      9  C11 ZIN A   1      18.586   2.722  14.648  0.00  0.00     0.199 C 
ATOM     10  O12 ZIN A   1      18.489   3.611  15.473  0.00  0.00    -0.286 OA
ATOM     11  C13 ZIN A   1      18.568   3.017  13.201  0.00  0.00     0.058 A 
ATOM     12  C14 ZIN A   1      17.953   4.164  12.700  0.00  0.00     0.043 A 
ATOM     13  C24 ZIN A   1      17.959   4.405  11.323  0.00  0.00     0.032 A 
ATOM     14  C25 ZIN A   1      18.562   3.522  10.459  0.00  0.00     0.032 A 
ATOM     15  C26 ZIN A   1      19.182   2.364  10.943  0.00  0.00     0.043 A 
ATOM     16  C36 ZIN A   1      19.193   2.111  12.316  0.00  0.00     0.058 A 
ENDROOT
BRANCH  12  17
ATOM     17  N15 ZIN A   1      17.343   5.062  13.564  0.00  0.00    -0.388 N 
ATOM     18  H41 ZIN A   1      17.799   5.344  14.372  0.00  0.00     0.159 HD
BRANCH  17  19
ATOM     19  C16 ZIN A   1      16.008   5.582  13.257  0.00  0.00     0.147 C 
BRANCH  19  20
ATOM     20  C17 ZIN A   1      15.279   5.918  14.558  0.00  0.00     0.251 C 
BRANCH  20  21
ATOM     21  N18 ZIN A   1      16.136   5.582  15.702  0.00  0.00    -0.072 N 
ATOM     22  H19 ZIN A   1      16.140   4.582  15.838  0.00  0.00     0.277 HD
ATOM     23  H20 ZIN A   1      17.077   5.900  15.522  0.00  0.00     0.277 HD
BRANCH  21  24
ATOM     24  C21 ZIN A   1      15.620   6.238  16.911  0.00  0.00     0.258 C 
BRANCH  24  25
ATOM     25  C22 ZIN A   1      16.247   5.593  18.148  0.00  0.00     0.191 C 
BRANCH  25  26
ATOM     26  O23 ZIN A   1      17.024   4.460  17.754  0.00  0.00    -0.399 OA
ATOM     27  H50 ZIN A   1      17.008   3.732  18.389  0.00  0.00     0.209 HD
ENDBRANCH  25  26
ENDBRANCH  24  25
ENDBRANCH  21  24
ENDBRANCH  20  21
ENDBRANCH  19  20
ENDBRANCH  17  19
ENDBRANCH  12  17
BRANCH  15  28
ATOM     28  N27 ZIN A   1      19.789   1.480  10.064  0.00  0.00    -0.388 N 
ATOM     29  H53 ZIN A   1      20.749   1.348  10.094  0.00  0.00     0.159 HD
BRANCH  28  30
ATOM     30  C28 ZIN A   1      18.978   0.742   9.091  0.00  0.00     0.147 C 
BRANCH  30  31
ATOM     31  C29 ZIN A   1      19.273   1.263   7.683  0.00  0.00     0.251 C 
BRANCH  31  32
ATOM     32  N30 ZIN A   1      18.349   0.639   6.727  0.00  0.00    -0.072 N 
ATOM     33  H31 ZIN A   1      17.455   0.489   7.172  0.00  0.00     0.277 HD
ATOM     34  H32 ZIN A   1      18.229   1.244   5.929  0.00  0.00     0.277 HD
BRANCH  32  35
ATOM     35  C33 ZIN A   1      18.897  -0.650   6.285  0.00  0.00     0.258 C 
BRANCH  35  36
ATOM     36  C34 ZIN A   1      18.623  -0.837   4.791  0.00  0.00     0.191 C 
BRANCH  36  37
ATOM     37  O35 ZIN A   1      19.732  -1.504   4.184  0.00  0.00    -0.399 OA
ATOM     38  H62 ZIN A   1      19.762  -1.418   3.221  0.00  0.00     0.209 HD
ENDBRANCH  36  37
ENDBRANCH  35  36
ENDBRANCH  32  35
ENDBRANCH  31  32
ENDBRANCH  30  31
ENDBRANCH  28  30
ENDBRANCH  15  28
BRANCH   7  39
ATOM     39  O9  ZIN A   1      17.669   1.726  17.152  0.00  0.00    -0.360 OA
ATOM     40  H40 ZIN A   1      18.289   2.224  17.702  0.00  0.00     0.217 HD
ENDBRANCH   7  39
BRANCH   4  41
ATOM     41  O5  ZIN A   1      20.087  -1.813  13.690  0.00  0.00    -0.360 OA
ATOM     42  H37 ZIN A   1      20.965  -2.103  13.977  0.00  0.00     0.217 HD
ENDBRANCH   4  41
TORSDOF 16
ENDMDL
MODEL 7
REMARK VINA RESULT:      -6.9      1.738      2.125
REMARK  16 active torsions:
REMARK  status: ('A' for Active; 'I' for Inactive)
REMARK    1  A    between atoms: C4_4  and  O5_5 
REMARK    2  A    between atoms: C8_8  and  O9_9 
REMARK    3  A    between atoms: C14_14  and  N15_15 
REMARK    4  A    between atoms: N15_15  and  C16_16 
REMARK    5  A    between atoms: C16_16  and  C17_17 
REMARK    6  A    between atoms: C17_17  and  N18_18 
REMARK    7  A    between atoms: N18_18  and  C21_21 
REMARK    8  A    between atoms: C21_21  and  C22_22 
REMARK    9  A    between atoms: C22_22  and  O23_23 
REMARK   10  A    between atoms: C26_26  and  N27_27 
REMARK   11  A    between atoms: N27_27  and  C28_28 
REMARK   12  A    between atoms: C28_28  and  C29_29 
REMARK   13  A    between atoms: C29_29  and  N30_30 
REMARK   14  A    between atoms: N30_30  and  C33_33 
REMARK   15  A    between atoms: C33_33  and  C34_34 
REMARK   16  A    between atoms: C34_34  and  O35_35 
ROOT
ATOM      1  O1  ZIN A   1      20.547  -0.413  10.319  0.00  0.00    -0.286 OA
ATOM      2  C2  ZIN A   1      19.632  -0.935   9.710  0.00  0.00     0.199 C 
ATOM      3  C3  ZIN A   1      19.152  -0.379   8.427  0.00  0.00     0.065 A 
ATOM      4  C4  ZIN A   1      19.324   0.966   8.109  0.00  0.00     0.081 A 
ATOM      5  C6  ZIN A   1      18.858   1.450   6.887  0.00  0.00     0.040 A 
ATOM      6  C7  ZIN A   1      18.228   0.611   5.995  0.00  0.00     0.040 A 
ATOM      7  C8  ZIN A   1      18.046  -0.739   6.296  0.00  0.00     0.081 A 
ATOM      8  C10 ZIN A   1      18.505  -1.240   7.511  0.00  0.00     0.065 A 
ATOM      9  C11 ZIN A   1      18.333  -2.663   7.873  0.00  0.00     0.199 C 
ATOM     10  O12 ZIN A   1      18.211  -3.519   7.018  0.00  0.00    -0.286 OA
ATOM     11  C13 ZIN A   1      18.316  -3.008   9.309  0.00  0.00     0.058 A 
ATOM     12  C14 ZIN A   1      17.678  -4.158   9.773  0.00  0.00     0.043 A 
ATOM     13  C24 ZIN A   1      17.686  -4.448  11.141  0.00  0.00     0.032 A 
ATOM     14  C25 ZIN A   1      18.313  -3.610  12.031  0.00  0.00     0.032 A 
ATOM     15  C26 ZIN A   1      18.958  -2.451  11.585  0.00  0.00     0.043 A 
ATOM     16  C36 ZIN A   1      18.966  -2.148  10.222  0.00  0.00     0.058 A 
ENDROOT
BRANCH  12  17
ATOM     17  N15 ZIN A   1      17.042  -5.011   8.882  0.00  0.00    -0.388 N 
ATOM     18  H41 ZIN A   1      17.459  -5.223   8.032  0.00  0.00     0.159 HD
BRANCH  17  19
ATOM     19  C16 ZIN A   1      15.741  -5.590   9.223  0.00  0.00     0.147 C 
BRANCH  19  20
ATOM     20  C17 ZIN A   1      15.039  -6.058   7.948  0.00  0.00     0.251 C 
BRANCH  20  21
ATOM     21  N18 ZIN A   1      15.838  -5.669   6.778  0.00  0.00    -0.072 N 
ATOM     22  H19 ZIN A   1      15.931  -4.666   6.752  0.00  0.00     0.277 HD
ATOM     23  H20 ZIN A   1      16.752  -6.091   6.840  0.00  0.00     0.277 HD
BRANCH  21  24
ATOM     24  C21 ZIN A   1      15.169  -6.130   5.553  0.00  0.00     0.258 C 
BRANCH  24  25
ATOM     25  C22 ZIN A   1      15.759  -5.401   4.345  0.00  0.00     0.191 C 
BRANCH  25  26
ATOM     26  O23 ZIN A   1      16.417  -4.209   4.782  0.00  0.00    -0.399 OA
ATOM     27  H50 ZIN A   1      16.134  -3.410   4.316  0.00  0.00     0.209 HD
ENDBRANCH  25  26
ENDBRANCH  24  25
ENDBRANCH  21  24
ENDBRANCH  20  21
ENDBRANCH  19  20
ENDBRANCH  17  19
ENDBRANCH  12  17
BRANCH  15  28
ATOM     28  N27 ZIN A   1      19.589  -1.611  12.491  0.00  0.00    -0.388 N 
ATOM     29  H53 ZIN A   1      20.550  -1.487  12.448  0.00  0.00     0.159 HD
BRANCH  28  30
ATOM     30  C28 ZIN A   1      18.805  -0.912  13.512  0.00  0.00     0.147 C 
BRANCH  30  31
ATOM     31  C29 ZIN A   1      19.298  -1.319  14.902  0.00  0.00     0.251 C 
BRANCH  31  32
ATOM     32  N30 ZIN A   1      19.056  -0.222  15.847  0.00  0.00    -0.072 N 
ATOM     33  H31 ZIN A   1      19.879   0.360  15.904  0.00  0.00     0.277 HD
ATOM     34  H32 ZIN A   1      18.274   0.331  15.530  0.00  0.00     0.277 HD
BRANCH  32  35
ATOM     35  C33 ZIN A   1      18.756  -0.776  17.174  0.00  0.00     0.258 C 
BRANCH  35  36
ATOM     36  C34 ZIN A   1      18.644   0.362  18.191  0.00  0.00     0.191 C 
BRANCH  36  37
ATOM     37  O35 ZIN A   1      19.922   0.984  18.351  0.00  0.00    -0.399 OA
ATOM     38  H62 ZIN A   1      20.294   1.332  17.529  0.00  0.00     0.209 HD
ENDBRANCH  36  37
ENDBRANCH  35  36
ENDBRANCH  32  35
ENDBRANCH  31  32
ENDBRANCH  30  31
ENDBRANCH  28  30
ENDBRANCH  15  28
BRANCH   7  39
ATOM     39  O9  ZIN A   1      17.425  -1.558   5.412  0.00  0.00    -0.360 OA
ATOM     40  H40 ZIN A   1      16.719  -2.092   5.799  0.00  0.00     0.217 HD
ENDBRANCH   7  39
BRANCH   4  41
ATOM     41  O5  ZIN A   1      19.943   1.800   8.981  0.00  0.00    -0.360 OA
ATOM     42  H37 ZIN A   1      20.901   1.859   8.856  0.00  0.00     0.217 HD
ENDBRANCH   4  41
TORSDOF 16
ENDMDL
MODEL 8
REMARK VINA RESULT:      -6.9      4.659      8.553
REMARK  16 active torsions:
REMARK  status: ('A' for Active; 'I' for Inactive)
REMARK    1  A    between atoms: C4_4  and  O5_5 
REMARK    2  A    between atoms: C8_8  and  O9_9 
REMARK    3  A    between atoms: C14_14  and  N15_15 
REMARK    4  A    between atoms: N15_15  and  C16_16 
REMARK    5  A    between atoms: C16_16  and  C17_17 
REMARK    6  A    between atoms: C17_17  and  N18_18 
REMARK    7  A    between atoms: N18_18  and  C21_21 
REMARK    8  A    between atoms: C21_21  and  C22_22 
REMARK    9  A    between atoms: C22_22  and  O23_23 
REMARK   10  A    between atoms: C26_26  and  N27_27 
REMARK   11  A    between atoms: N27_27  and  C28_28 
REMARK   12  A    between atoms: C28_28  and  C29_29 
REMARK   13  A    between atoms: C29_29  and  N30_30 
REMARK   14  A    between atoms: N30_30  and  C33_33 
REMARK   15  A    between atoms: C33_33  and  C34_34 
REMARK   16  A    between atoms: C34_34  and  O35_35 
ROOT
ATOM      1  O1  ZIN A   1      18.345   3.600  17.454  0.00  0.00    -0.286 OA
ATOM      2  C2  ZIN A   1      18.575   2.911  16.478  0.00  0.00     0.199 C 
ATOM      3  C3  ZIN A   1      18.785   1.453  16.605  0.00  0.00     0.065 A 
ATOM      4  C4  ZIN A   1      19.233   0.884  17.795  0.00  0.00     0.081 A 
ATOM      5  C6  ZIN A   1      19.417  -0.496  17.872  0.00  0.00     0.040 A 
ATOM      6  C7  ZIN A   1      19.161  -1.300  16.783  0.00  0.00     0.040 A 
ATOM      7  C8  ZIN A   1      18.712  -0.748  15.583  0.00  0.00     0.081 A 
ATOM      8  C10 ZIN A   1      18.523   0.628  15.487  0.00  0.00     0.065 A 
ATOM      9  C11 ZIN A   1      18.049   1.256  14.236  0.00  0.00     0.199 C 
ATOM     10  O12 ZIN A   1      17.401   0.626  13.422  0.00  0.00    -0.286 OA
ATOM     11  C13 ZIN A   1      18.390   2.674  14.009  0.00  0.00     0.058 A 
ATOM     12  C14 ZIN A   1      18.458   3.210  12.723  0.00  0.00     0.043 A 
ATOM     13  C24 ZIN A   1      18.784   4.559  12.552  0.00  0.00     0.032 A 
ATOM     14  C25 ZIN A   1      19.041   5.360  13.639  0.00  0.00     0.032 A 
ATOM     15  C26 ZIN A   1      18.980   4.841  14.937  0.00  0.00     0.043 A 
ATOM     16  C36 ZIN A   1      18.649   3.498  15.127  0.00  0.00     0.058 A 
ENDROOT
BRANCH  12  17
ATOM     17  N15 ZIN A   1      18.200   2.409  11.620  0.00  0.00    -0.388 N 
ATOM     18  H41 ZIN A   1      17.358   1.932  11.552  0.00  0.00     0.159 HD
BRANCH  17  19
ATOM     19  C16 ZIN A   1      19.199   2.282  10.556  0.00  0.00     0.147 C 
BRANCH  19  20
ATOM     20  C17 ZIN A   1      19.635   0.821  10.436  0.00  0.00     0.251 C 
BRANCH  20  21
ATOM     21  N18 ZIN A   1      18.517  -0.056  10.807  0.00  0.00    -0.072 N 
ATOM     22  H19 ZIN A   1      18.208   0.168  11.740  0.00  0.00     0.277 HD
ATOM     23  H20 ZIN A   1      17.756   0.078  10.158  0.00  0.00     0.277 HD
BRANCH  21  24
ATOM     24  C21 ZIN A   1      18.957  -1.457  10.760  0.00  0.00     0.258 C 
BRANCH  24  25
ATOM     25  C22 ZIN A   1      17.765  -2.376  11.034  0.00  0.00     0.191 C 
BRANCH  25  26
ATOM     26  O23 ZIN A   1      16.896  -1.758  11.986  0.00  0.00    -0.399 OA
ATOM     27  H50 ZIN A   1      17.290  -1.007  12.449  0.00  0.00     0.209 HD
ENDBRANCH  25  26
ENDBRANCH  24  25
ENDBRANCH  21  24
ENDBRANCH  20  21
ENDBRANCH  19  20
ENDBRANCH  17  19
ENDBRANCH  12  17
BRANCH  15  28
ATOM     28  N27 ZIN A   1      19.240   5.658  16.027  0.00  0.00    -0.388 N 
ATOM     29  H53 ZIN A   1      19.881   5.379  16.700  0.00  0.00     0.159 HD
BRANCH  28  30
ATOM     30  C28 ZIN A   1      18.547   6.942  16.163  0.00  0.00     0.147 C 
BRANCH  30  31
ATOM     31  C29 ZIN A   1      17.609   6.890  17.371  0.00  0.00     0.251 C 
BRANCH  31  32
ATOM     32  N30 ZIN A   1      18.293   6.234  18.493  0.00  0.00    -0.072 N 
ATOM     33  H31 ZIN A   1      18.406   5.251  18.289  0.00  0.00     0.277 HD
ATOM     34  H32 ZIN A   1      19.199   6.655  18.629  0.00  0.00     0.277 HD
BRANCH  32  35
ATOM     35  C33 ZIN A   1      17.492   6.391  19.714  0.00  0.00     0.258 C 
BRANCH  35  36
ATOM     36  C34 ZIN A   1      17.307   5.026  20.383  0.00  0.00     0.191 C 
BRANCH  36  37
ATOM     37  O35 ZIN A   1      18.498   4.253  20.223  0.00  0.00    -0.399 OA
ATOM     38  H62 ZIN A   1      19.306   4.717  20.479  0.00  0.00     0.209 HD
ENDBRANCH  36  37
ENDBRANCH  35  36
ENDBRANCH  32  35
ENDBRANCH  31  32
ENDBRANCH  30  31
ENDBRANCH  28  30
ENDBRANCH  15  28
BRANCH   7  39
ATOM     39  O9  ZIN A   1      18.461  -1.547  14.516  0.00  0.00    -0.360 OA
ATOM     40  H40 ZIN A   1      18.170  -2.439  14.753  0.00  0.00     0.217 HD
ENDBRANCH   7  39
BRANCH   4  41
ATOM     41  O5  ZIN A   1      19.488   1.667  18.872  0.00  0.00    -0.360 OA
ATOM     42  H37 ZIN A   1      18.748   2.235  19.129  0.00  0.00     0.217 HD
ENDBRANCH   4  41
TORSDOF 16
ENDMDL
MODEL 9
REMARK VINA RESULT:      -6.9      3.095      5.689
REMARK  16 active torsions:
REMARK  status: ('A' for Active; 'I' for Inactive)
REMARK    1  A    between atoms: C4_4  and  O5_5 
REMARK    2  A    between atoms: C8_8  and  O9_9 
REMARK    3  A    between atoms: C14_14  and  N15_15 
REMARK    4  A    between atoms: N15_15  and  C16_16 
REMARK    5  A    between atoms: C16_16  and  C17_17 
REMARK    6  A    between atoms: C17_17  and  N18_18 
REMARK    7  A    between atoms: N18_18  and  C21_21 
REMARK    8  A    between atoms: C21_21  and  C22_22 
REMARK    9  A    between atoms: C22_22  and  O23_23 
REMARK   10  A    between atoms: C26_26  and  N27_27 
REMARK   11  A    between atoms: N27_27  and  C28_28 
REMARK   12  A    between atoms: C28_28  and  C29_29 
REMARK   13  A    between atoms: C29_29  and  N30_30 
REMARK   14  A    between atoms: N30_30  and  C33_33 
REMARK   15  A    between atoms: C33_33  and  C34_34 
REMARK   16  A    between atoms: C34_34  and  O35_35 
ROOT
ATOM      1  O1  ZIN A   1      18.967   2.512  15.085  0.00  0.00    -0.286 OA
ATOM      2  C2  ZIN A   1      18.685   2.372  13.909  0.00  0.00     0.199 C 
ATOM      3  C3  ZIN A   1      18.024   3.452  13.147  0.00  0.00     0.065 A 
ATOM      4  C4  ZIN A   1      17.253   4.422  13.782  0.00  0.00     0.081 A 
ATOM      5  C6  ZIN A   1      16.648   5.426  13.026  0.00  0.00     0.040 A 
ATOM      6  C7  ZIN A   1      16.805   5.464  11.658  0.00  0.00     0.040 A 
ATOM      7  C8  ZIN A   1      17.574   4.500  11.004  0.00  0.00     0.081 A 
ATOM      8  C10 ZIN A   1      18.185   3.491  11.743  0.00  0.00     0.065 A 
ATOM      9  C11 ZIN A   1      19.008   2.449  11.092  0.00  0.00     0.199 C 
ATOM     10  O12 ZIN A   1      19.546   2.652  10.020  0.00  0.00    -0.286 OA
ATOM     11  C13 ZIN A   1      19.153   1.156  11.790  0.00  0.00     0.058 A 
ATOM     12  C14 ZIN A   1      19.444  -0.017  11.094  0.00  0.00     0.043 A 
ATOM     13  C24 ZIN A   1      19.573  -1.221  11.793  0.00  0.00     0.032 A 
ATOM     14  C25 ZIN A   1      19.415  -1.259  13.157  0.00  0.00     0.032 A 
ATOM     15  C26 ZIN A   1      19.122  -0.093  13.874  0.00  0.00     0.043 A 
ATOM     16  C36 ZIN A   1      18.996   1.119  13.193  0.00  0.00     0.058 A 
ENDROOT
BRANCH  12  17
ATOM     17  N15 ZIN A   1      19.606   0.012   9.716  0.00  0.00    -0.388 N 
ATOM     18  H41 ZIN A   1      20.078   0.749   9.298  0.00  0.00     0.159 HD
BRANCH  17  19
ATOM     19  C16 ZIN A   1      19.063  -1.071   8.892  0.00  0.00     0.147 C 
BRANCH  19  20
ATOM     20  C17 ZIN A   1      17.662  -0.693   8.410  0.00  0.00     0.251 C 
BRANCH  20  21
ATOM     21  N18 ZIN A   1      17.506  -1.082   7.002  0.00  0.00    -0.072 N 
ATOM     22  H19 ZIN A   1      17.225  -2.050   6.949  0.00  0.00     0.277 HD
ATOM     23  H20 ZIN A   1      16.802  -0.504   6.569  0.00  0.00     0.277 HD
BRANCH  21  24
ATOM     24  C21 ZIN A   1      18.784  -0.905   6.301  0.00  0.00     0.258 C 
BRANCH  24  25
ATOM     25  C22 ZIN A   1      19.015  -2.084   5.354  0.00  0.00     0.191 C 
BRANCH  25  26
ATOM     26  O23 ZIN A   1      19.653  -1.622   4.162  0.00  0.00    -0.399 OA
ATOM     27  H50 ZIN A   1      20.503  -1.188   4.314  0.00  0.00     0.209 HD
ENDBRANCH  25  26
ENDBRANCH  24  25
ENDBRANCH  21  24
ENDBRANCH  20  21
ENDBRANCH  19  20
ENDBRANCH  17  19
ENDBRANCH  12  17
BRANCH  15  28
ATOM     28  N27 ZIN A   1      18.965  -0.141  15.251  0.00  0.00    -0.388 N 
ATOM     29  H53 ZIN A   1      19.309   0.578  15.803  0.00  0.00     0.159 HD
BRANCH  28  30
ATOM     30  C28 ZIN A   1      18.279  -1.278  15.871  0.00  0.00     0.147 C 
BRANCH  30  31
ATOM     31  C29 ZIN A   1      17.187  -0.763  16.811  0.00  0.00     0.251 C 
BRANCH  31  32
ATOM     32  N30 ZIN A   1      17.252   0.703  16.879  0.00  0.00    -0.072 N 
ATOM     33  H31 ZIN A   1      18.006   1.033  16.296  0.00  0.00     0.277 HD
ATOM     34  H32 ZIN A   1      16.380   1.094  16.556  0.00  0.00     0.277 HD
BRANCH  32  35
ATOM     35  C33 ZIN A   1      17.488   1.118  18.268  0.00  0.00     0.258 C 
BRANCH  35  36
ATOM     36  C34 ZIN A   1      18.984   1.031  18.580  0.00  0.00     0.191 C 
BRANCH  36  37
ATOM     37  O35 ZIN A   1      19.708   1.867  17.674  0.00  0.00    -0.399 OA
ATOM     38  H62 ZIN A   1      20.363   2.435  18.103  0.00  0.00     0.209 HD
ENDBRANCH  36  37
ENDBRANCH  35  36
ENDBRANCH  32  35
ENDBRANCH  31  32
ENDBRANCH  30  31
ENDBRANCH  28  30
ENDBRANCH  15  28
BRANCH   7  39
ATOM     39  O9  ZIN A   1      17.724   4.546   9.657  0.00  0.00    -0.360 OA
ATOM     40  H40 ZIN A   1      18.060   3.726   9.271  0.00  0.00     0.217 HD
ENDBRANCH   7  39
BRANCH   4  41
ATOM     41  O5  ZIN A   1      17.093   4.393  15.128  0.00  0.00    -0.360 OA
ATOM     42  H37 ZIN A   1      16.605   5.149  15.484  0.00  0.00     0.217 HD
ENDBRANCH   4  41
TORSDOF 16
ENDMDL
