MODEL 1
REMARK VINA RESULT:      -6.7      0.000      0.000
REMARK  5 active torsions:
REMARK  status: ('A' for Active; 'I' for Inactive)
REMARK    1  A    between atoms: N2_2  and  C5_5 
REMARK    2  A    between atoms: C5_5  and  C6_6 
REMARK    3  A    between atoms: C6_6  and  C7_7 
REMARK    4  A    between atoms: C7_7  and  C9_8 
REMARK    5  A    between atoms: C7_7  and  C16_15 
ROOT
ATOM      1  C7  ZIN A   1      19.378  -0.913  12.653  0.00  0.00     0.072 C 
ENDROOT
BRANCH   1   2
ATOM      2  C6  ZIN A   1      18.852   0.227  11.778  0.00  0.00     0.043 C 
BRANCH   2   3
ATOM      3  C5  ZIN A   1      19.742   0.372  10.542  0.00  0.00     0.235 C 
BRANCH   3   4
ATOM      4  N2  ZIN A   1      19.893   1.796  10.212  0.00  0.00    -0.079 N 
ATOM      5  C1  ZIN A   1      18.944   2.156   9.150  0.00  0.00     0.269 C 
ATOM      6  H3  ZIN A   1      20.835   1.969   9.894  0.00  0.00     0.278 HD
ATOM      7  C4  ZIN A   1      19.622   2.608  11.406  0.00  0.00     0.269 C 
ENDBRANCH   3   4
ENDBRANCH   2   3
ENDBRANCH   1   2
BRANCH   1   8
ATOM      8  C9  ZIN A   1      18.932  -2.234  12.078  0.00  0.00    -0.048 A 
ATOM      9  C15 ZIN A   1      17.595  -2.450  11.804  0.00  0.00     0.009 A 
ATOM     10  C14 ZIN A   1      17.186  -3.659  11.272  0.00  0.00     0.024 A 
ATOM     11  C12 ZIN A   1      18.114  -4.655  11.026  0.00  0.00     0.034 A 
ATOM     12  C11 ZIN A   1      19.450  -4.440  11.307  0.00  0.00     0.024 A 
ATOM     13 Cl13 ZIN A   1      17.598  -6.176  10.366  0.00  0.00    -0.084 Cl
ATOM     14  C10 ZIN A   1      19.859  -3.229  11.834  0.00  0.00     0.009 A 
ENDBRANCH   1   8
BRANCH   1  15
ATOM     15  C16 ZIN A   1      18.836  -0.766  14.052  0.00  0.00     0.042 A 
ATOM     16  N21 ZIN A   1      17.911   0.140  14.300  0.00  0.00    -0.265 NA
ATOM     17  C20 ZIN A   1      17.403   0.301  15.506  0.00  0.00     0.117 A 
ATOM     18  C19 ZIN A   1      17.837  -0.475  16.564  0.00  0.00     0.019 A 
ATOM     19  C18 ZIN A   1      18.814  -1.435  16.343  0.00  0.00     0.003 A 
ATOM     20  C17 ZIN A   1      19.319  -1.578  15.060  0.00  0.00     0.028 A 
ENDBRANCH   1  15
TORSDOF 5
ENDMDL
MODEL 2
REMARK VINA RESULT:      -6.7      3.034      5.448
REMARK  5 active torsions:
REMARK  status: ('A' for Active; 'I' for Inactive)
REMARK    1  A    between atoms: N2_2  and  C5_5 
REMARK    2  A    between atoms: C5_5  and  C6_6 
REMARK    3  A    between atoms: C6_6  and  C7_7 
REMARK    4  A    between atoms: C7_7  and  C9_8 
REMARK    5  A    between atoms: C7_7  and  C16_15 
ROOT
ATOM      1  C7  ZIN A   1      17.530   0.880  10.517  0.00  0.00     0.072 C 
ENDROOT
BRANCH   1   2
ATOM      2  C6  ZIN A   1      18.221  -0.214  11.333  0.00  0.00     0.043 C 
BRANCH   2   3
ATOM      3  C5  ZIN A   1      17.266  -0.722  12.416  0.00  0.00     0.235 C 
BRANCH   3   4
ATOM      4  N2  ZIN A   1      17.944  -0.696  13.719  0.00  0.00    -0.079 N 
ATOM      5  C1  ZIN A   1      19.394  -0.821  13.519  0.00  0.00     0.269 C 
ATOM      6  H3  ZIN A   1      17.615  -1.465  14.284  0.00  0.00     0.278 HD
ATOM      7  C4  ZIN A   1      17.650   0.573  14.399  0.00  0.00     0.269 C 
ENDBRANCH   3   4
ENDBRANCH   2   3
ENDBRANCH   1   2
BRANCH   1   8
ATOM      8  C9  ZIN A   1      17.904   0.733   9.063  0.00  0.00    -0.048 A 
ATOM      9  C15 ZIN A   1      17.291  -0.232   8.287  0.00  0.00     0.009 A 
ATOM     10  C14 ZIN A   1      17.630  -0.363   6.953  0.00  0.00     0.024 A 
ATOM     11  C12 ZIN A   1      18.591   0.464   6.399  0.00  0.00     0.034 A 
ATOM     12  C11 ZIN A   1      19.207   1.426   7.179  0.00  0.00     0.024 A 
ATOM     13 Cl13 ZIN A   1      19.022   0.294   4.726  0.00  0.00    -0.084 Cl
ATOM     14  C10 ZIN A   1      18.864   1.560   8.511  0.00  0.00     0.009 A 
ENDBRANCH   1   8
BRANCH   1  15
ATOM     15  C16 ZIN A   1      17.969   2.233  11.014  0.00  0.00     0.042 A 
ATOM     16  N21 ZIN A   1      17.137   3.253  10.950  0.00  0.00    -0.265 NA
ATOM     17  C20 ZIN A   1      17.476   4.453  11.379  0.00  0.00     0.117 A 
ATOM     18  C19 ZIN A   1      18.733   4.687  11.904  0.00  0.00     0.019 A 
ATOM     19  C18 ZIN A   1      19.637   3.639  11.982  0.00  0.00     0.003 A 
ATOM     20  C17 ZIN A   1      19.243   2.391  11.527  0.00  0.00     0.028 A 
ENDBRANCH   1  15
TORSDOF 5
ENDMDL
MODEL 3
REMARK VINA RESULT:      -6.6      3.119      5.450
REMARK  5 active torsions:
REMARK  status: ('A' for Active; 'I' for Inactive)
REMARK    1  A    between atoms: N2_2  and  C5_5 
REMARK    2  A    between atoms: C5_5  and  C6_6 
REMARK    3  A    between atoms: C6_6  and  C7_7 
REMARK    4  A    between atoms: C7_7  and  C9_8 
REMARK    5  A    between atoms: C7_7  and  C16_15 
ROOT
ATOM      1  C7  ZIN A   1      17.550   0.976  10.863  0.00  0.00     0.072 C 
ENDROOT
BRANCH   1   2
ATOM      2  C6  ZIN A   1      18.365  -0.015  11.695  0.00  0.00     0.043 C 
BRANCH   2   3
ATOM      3  C5  ZIN A   1      17.454  -1.147  12.174  0.00  0.00     0.235 C 
BRANCH   3   4
ATOM      4  N2  ZIN A   1      18.162  -2.429  12.056  0.00  0.00    -0.079 N 
ATOM      5  C1  ZIN A   1      17.383  -3.343  11.209  0.00  0.00     0.269 C 
ATOM      6  H3  ZIN A   1      18.277  -2.836  12.973  0.00  0.00     0.278 HD
ATOM      7  C4  ZIN A   1      19.482  -2.206  11.451  0.00  0.00     0.269 C 
ENDBRANCH   3   4
ENDBRANCH   2   3
ENDBRANCH   1   2
BRANCH   1   8
ATOM      8  C9  ZIN A   1      17.921   0.835   9.408  0.00  0.00    -0.048 A 
ATOM      9  C15 ZIN A   1      17.295  -0.117   8.626  0.00  0.00     0.009 A 
ATOM     10  C14 ZIN A   1      17.630  -0.244   7.291  0.00  0.00     0.024 A 
ATOM     11  C12 ZIN A   1      18.602   0.574   6.742  0.00  0.00     0.034 A 
ATOM     12  C11 ZIN A   1      19.232   1.522   7.527  0.00  0.00     0.024 A 
ATOM     13 Cl13 ZIN A   1      19.029   0.409   5.067  0.00  0.00    -0.084 Cl
ATOM     14  C10 ZIN A   1      18.892   1.652   8.860  0.00  0.00     0.009 A 
ENDBRANCH   1   8
BRANCH   1  15
ATOM     15  C16 ZIN A   1      17.846   2.381  11.321  0.00  0.00     0.042 A 
ATOM     16  N21 ZIN A   1      17.003   3.353  11.033  0.00  0.00    -0.265 NA
ATOM     17  C20 ZIN A   1      17.217   4.595  11.418  0.00  0.00     0.117 A 
ATOM     18  C19 ZIN A   1      18.352   4.927  12.134  0.00  0.00     0.019 A 
ATOM     19  C18 ZIN A   1      19.265   3.933  12.452  0.00  0.00     0.003 A 
ATOM     20  C17 ZIN A   1      19.002   2.637  12.034  0.00  0.00     0.028 A 
ENDBRANCH   1  15
TORSDOF 5
ENDMDL
MODEL 4
REMARK VINA RESULT:      -6.6      3.057      5.529
REMARK  5 active torsions:
REMARK  status: ('A' for Active; 'I' for Inactive)
REMARK    1  A    between atoms: N2_2  and  C5_5 
REMARK    2  A    between atoms: C5_5  and  C6_6 
REMARK    3  A    between atoms: C6_6  and  C7_7 
REMARK    4  A    between atoms: C7_7  and  C9_8 
REMARK    5  A    between atoms: C7_7  and  C16_15 
ROOT
ATOM      1  C7  ZIN A   1      18.300   0.761  10.726  0.00  0.00     0.072 C 
ENDROOT
BRANCH   1   2
ATOM      2  C6  ZIN A   1      19.550   0.088  11.297  0.00  0.00     0.043 C 
BRANCH   2   3
ATOM      3  C5  ZIN A   1      19.137  -1.112  12.151  0.00  0.00     0.235 C 
BRANCH   3   4
ATOM      4  N2  ZIN A   1      18.937  -2.284  11.286  0.00  0.00    -0.079 N 
ATOM      5  C1  ZIN A   1      19.891  -3.337  11.659  0.00  0.00     0.269 C 
ATOM      6  H3  ZIN A   1      19.087  -2.020  10.323  0.00  0.00     0.278 HD
ATOM      7  C4  ZIN A   1      17.565  -2.784  11.449  0.00  0.00     0.269 C 
ENDBRANCH   3   4
ENDBRANCH   2   3
ENDBRANCH   1   2
BRANCH   1   8
ATOM      8  C9  ZIN A   1      18.301   0.629   9.223  0.00  0.00    -0.048 A 
ATOM      9  C15 ZIN A   1      19.241   1.308   8.472  0.00  0.00     0.009 A 
ATOM     10  C14 ZIN A   1      19.245   1.183   7.095  0.00  0.00     0.024 A 
ATOM     11  C12 ZIN A   1      18.302   0.388   6.470  0.00  0.00     0.034 A 
ATOM     12  C11 ZIN A   1      17.358  -0.286   7.223  0.00  0.00     0.024 A 
ATOM     13 Cl13 ZIN A   1      18.303   0.238   4.740  0.00  0.00    -0.084 Cl
ATOM     14  C10 ZIN A   1      17.358  -0.166   8.599  0.00  0.00     0.009 A 
ENDBRANCH   1   8
BRANCH   1  15
ATOM     15  C16 ZIN A   1      18.299   2.220  11.101  0.00  0.00     0.042 A 
ATOM     16  N21 ZIN A   1      17.229   2.953  10.864  0.00  0.00    -0.265 NA
ATOM     17  C20 ZIN A   1      17.180   4.233  11.180  0.00  0.00     0.117 A 
ATOM     18  C19 ZIN A   1      18.264   4.857  11.766  0.00  0.00     0.019 A 
ATOM     19  C18 ZIN A   1      19.409   4.119  12.027  0.00  0.00     0.003 A 
ATOM     20  C17 ZIN A   1      19.421   2.776  11.685  0.00  0.00     0.028 A 
ENDBRANCH   1  15
TORSDOF 5
ENDMDL
MODEL 5
REMARK VINA RESULT:      -6.6      2.592      4.722
REMARK  5 active torsions:
REMARK  status: ('A' for Active; 'I' for Inactive)
REMARK    1  A    between atoms: N2_2  and  C5_5 
REMARK    2  A    between atoms: C5_5  and  C6_6 
REMARK    3  A    between atoms: C6_6  and  C7_7 
REMARK    4  A    between atoms: C7_7  and  C9_8 
REMARK    5  A    between atoms: C7_7  and  C16_15 
ROOT
ATOM      1  C7  ZIN A   1      18.258  -0.659  12.377  0.00  0.00     0.072 C 
ENDROOT
BRANCH   1   2
ATOM      2  C6  ZIN A   1      19.440   0.101  11.771  0.00  0.00     0.043 C 
BRANCH   2   3
ATOM      3  C5  ZIN A   1      18.928   1.078  10.711  0.00  0.00     0.235 C 
BRANCH   3   4
ATOM      4  N2  ZIN A   1      19.804   1.026   9.532  0.00  0.00    -0.079 N 
ATOM      5  C1  ZIN A   1      19.899  -0.360   9.055  0.00  0.00     0.269 C 
ATOM      6  H3  ZIN A   1      20.723   1.360   9.782  0.00  0.00     0.278 HD
ATOM      7  C4  ZIN A   1      19.246   1.873   8.470  0.00  0.00     0.269 C 
ENDBRANCH   3   4
ENDBRANCH   2   3
ENDBRANCH   1   2
BRANCH   1   8
ATOM      8  C9  ZIN A   1      18.301  -0.539  13.879  0.00  0.00    -0.048 A 
ATOM      9  C15 ZIN A   1      17.667   0.518  14.505  0.00  0.00     0.009 A 
ATOM     10  C14 ZIN A   1      17.701   0.626  15.883  0.00  0.00     0.024 A 
ATOM     11  C12 ZIN A   1      18.380  -0.318  16.633  0.00  0.00     0.034 A 
ATOM     12  C11 ZIN A   1      19.018  -1.372  16.005  0.00  0.00     0.024 A 
ATOM     13 Cl13 ZIN A   1      18.429  -0.179  18.363  0.00  0.00    -0.084 Cl
ATOM     14  C10 ZIN A   1      18.979  -1.482  14.628  0.00  0.00     0.009 A 
ENDBRANCH   1   8
BRANCH   1  15
ATOM     15  C16 ZIN A   1      18.341  -2.112  11.987  0.00  0.00     0.042 A 
ATOM     16  N21 ZIN A   1      17.235  -2.785  11.740  0.00  0.00    -0.265 NA
ATOM     17  C20 ZIN A   1      17.259  -4.057  11.390  0.00  0.00     0.117 A 
ATOM     18  C19 ZIN A   1      18.457  -4.736  11.281  0.00  0.00     0.019 A 
ATOM     19  C18 ZIN A   1      19.642  -4.063  11.538  0.00  0.00     0.003 A 
ATOM     20  C17 ZIN A   1      19.576  -2.726  11.898  0.00  0.00     0.028 A 
ENDBRANCH   1  15
TORSDOF 5
ENDMDL
MODEL 6
REMARK VINA RESULT:      -6.5      2.745      5.382
REMARK  5 active torsions:
REMARK  status: ('A' for Active; 'I' for Inactive)
REMARK    1  A    between atoms: N2_2  and  C5_5 
REMARK    2  A    between atoms: C5_5  and  C6_6 
REMARK    3  A    between atoms: C6_6  and  C7_7 
REMARK    4  A    between atoms: C7_7  and  C9_8 
REMARK    5  A    between atoms: C7_7  and  C16_15 
ROOT
ATOM      1  C7  ZIN A   1      18.580  -0.664  12.343  0.00  0.00     0.072 C 
ENDROOT
BRANCH   1   2
ATOM      2  C6  ZIN A   1      17.326  -1.367  11.821  0.00  0.00     0.043 C 
BRANCH   2   3
ATOM      3  C5  ZIN A   1      17.656  -2.826  11.501  0.00  0.00     0.235 C 
BRANCH   3   4
ATOM      4  N2  ZIN A   1      18.988  -2.904  10.886  0.00  0.00    -0.079 N 
ATOM      5  C1  ZIN A   1      19.706  -4.070  11.418  0.00  0.00     0.269 C 
ATOM      6  H3  ZIN A   1      19.507  -2.064  11.100  0.00  0.00     0.278 HD
ATOM      7  C4  ZIN A   1      18.849  -3.037   9.430  0.00  0.00     0.269 C 
ENDBRANCH   3   4
ENDBRANCH   2   3
ENDBRANCH   1   2
BRANCH   1   8
ATOM      8  C9  ZIN A   1      18.507  -0.556  13.846  0.00  0.00    -0.048 A 
ATOM      9  C15 ZIN A   1      17.640   0.347  14.431  0.00  0.00     0.009 A 
ATOM     10  C14 ZIN A   1      17.567   0.442  15.808  0.00  0.00     0.024 A 
ATOM     11  C12 ZIN A   1      18.372  -0.358  16.600  0.00  0.00     0.034 A 
ATOM     12  C11 ZIN A   1      19.243  -1.257  16.013  0.00  0.00     0.024 A 
ATOM     13 Cl13 ZIN A   1      18.287  -0.232  18.329  0.00  0.00    -0.084 Cl
ATOM     14  C10 ZIN A   1      19.311  -1.356  14.636  0.00  0.00     0.009 A 
ENDBRANCH   1   8
BRANCH   1  15
ATOM     15  C16 ZIN A   1      18.670   0.717  11.745  0.00  0.00     0.042 A 
ATOM     16  N21 ZIN A   1      19.721   1.471  12.000  0.00  0.00    -0.265 NA
ATOM     17  C20 ZIN A   1      19.845   2.682  11.494  0.00  0.00     0.117 A 
ATOM     18  C19 ZIN A   1      18.860   3.212  10.682  0.00  0.00     0.019 A 
ATOM     19  C18 ZIN A   1      17.737   2.451  10.396  0.00  0.00     0.003 A 
ATOM     20  C17 ZIN A   1      17.646   1.180  10.942  0.00  0.00     0.028 A 
ENDBRANCH   1  15
TORSDOF 5
ENDMDL
MODEL 7
REMARK VINA RESULT:      -6.4      3.047      4.677
REMARK  5 active torsions:
REMARK  status: ('A' for Active; 'I' for Inactive)
REMARK    1  A    between atoms: N2_2  and  C5_5 
REMARK    2  A    between atoms: C5_5  and  C6_6 
REMARK    3  A    between atoms: C6_6  and  C7_7 
REMARK    4  A    between atoms: C7_7  and  C9_8 
REMARK    5  A    between atoms: C7_7  and  C16_15 
ROOT
ATOM      1  C7  ZIN A   1      19.582   1.115   9.764  0.00  0.00     0.072 C 
ENDROOT
BRANCH   1   2
ATOM      2  C6  ZIN A   1      19.078   2.558   9.825  0.00  0.00     0.043 C 
BRANCH   2   3
ATOM      3  C5  ZIN A   1      19.563   3.213  11.120  0.00  0.00     0.235 C 
BRANCH   3   4
ATOM      4  N2  ZIN A   1      18.460   3.967  11.732  0.00  0.00    -0.079 N 
ATOM      5  C1  ZIN A   1      17.347   4.067  10.778  0.00  0.00     0.269 C 
ATOM      6  H3  ZIN A   1      18.780   4.893  11.974  0.00  0.00     0.278 HD
ATOM      7  C4  ZIN A   1      18.005   3.273  12.944  0.00  0.00     0.269 C 
ENDBRANCH   3   4
ENDBRANCH   2   3
ENDBRANCH   1   2
BRANCH   1   8
ATOM      8  C9  ZIN A   1      19.303   0.543   8.397  0.00  0.00    -0.048 A 
ATOM      9  C15 ZIN A   1      18.966   1.384   7.353  0.00  0.00     0.009 A 
ATOM     10  C14 ZIN A   1      18.715   0.861   6.099  0.00  0.00     0.024 A 
ATOM     11  C12 ZIN A   1      18.790  -0.505   5.891  0.00  0.00     0.034 A 
ATOM     12  C11 ZIN A   1      19.121  -1.345   6.938  0.00  0.00     0.024 A 
ATOM     13 Cl13 ZIN A   1      18.467  -1.162   4.317  0.00  0.00    -0.084 Cl
ATOM     14  C10 ZIN A   1      19.377  -0.822   8.190  0.00  0.00     0.009 A 
ENDBRANCH   1   8
BRANCH   1  15
ATOM     15  C16 ZIN A   1      18.873   0.289  10.807  0.00  0.00     0.042 A 
ATOM     16  N21 ZIN A   1      19.578  -0.405  11.679  0.00  0.00    -0.265 NA
ATOM     17  C20 ZIN A   1      19.001  -1.137  12.612  0.00  0.00     0.117 A 
ATOM     18  C19 ZIN A   1      17.624  -1.210  12.702  0.00  0.00     0.019 A 
ATOM     19  C18 ZIN A   1      16.850  -0.497  11.799  0.00  0.00     0.003 A 
ATOM     20  C17 ZIN A   1      17.492   0.265  10.836  0.00  0.00     0.028 A 
ENDBRANCH   1  15
TORSDOF 5
ENDMDL
MODEL 8
REMARK VINA RESULT:      -6.3      1.263      4.210
REMARK  5 active torsions:
REMARK  status: ('A' for Active; 'I' for Inactive)
REMARK    1  A    between atoms: N2_2  and  C5_5 
REMARK    2  A    between atoms: C5_5  and  C6_6 
REMARK    3  A    between atoms: C6_6  and  C7_7 
REMARK    4  A    between atoms: C7_7  and  C9_8 
REMARK    5  A    between atoms: C7_7  and  C16_15 
ROOT
ATOM      1  C7  ZIN A   1      18.197  -1.370  12.910  0.00  0.00     0.072 C 
ENDROOT
BRANCH   1   2
ATOM      2  C6  ZIN A   1      19.218  -1.368  14.049  0.00  0.00     0.043 C 
BRANCH   2   3
ATOM      3  C5  ZIN A   1      18.484  -1.400  15.391  0.00  0.00     0.235 C 
BRANCH   3   4
ATOM      4  N2  ZIN A   1      17.828  -0.105  15.621  0.00  0.00    -0.079 N 
ATOM      5  C1  ZIN A   1      17.019  -0.177  16.845  0.00  0.00     0.269 C 
ATOM      6  H3  ZIN A   1      17.232   0.114  14.836  0.00  0.00     0.278 HD
ATOM      7  C4  ZIN A   1      18.848   0.942  15.768  0.00  0.00     0.269 C 
ENDBRANCH   3   4
ENDBRANCH   2   3
ENDBRANCH   1   2
BRANCH   1   8
ATOM      8  C9  ZIN A   1      18.437  -2.565  12.022  0.00  0.00    -0.048 A 
ATOM      9  C15 ZIN A   1      19.716  -3.069  11.875  0.00  0.00     0.009 A 
ATOM     10  C14 ZIN A   1      19.936  -4.167  11.065  0.00  0.00     0.024 A 
ATOM     11  C12 ZIN A   1      18.879  -4.754  10.393  0.00  0.00     0.034 A 
ATOM     12  C11 ZIN A   1      17.601  -4.245  10.537  0.00  0.00     0.024 A 
ATOM     13 Cl13 ZIN A   1      19.157  -6.129   9.370  0.00  0.00    -0.084 Cl
ATOM     14  C10 ZIN A   1      17.381  -3.150  11.350  0.00  0.00     0.009 A 
ENDBRANCH   1   8
BRANCH   1  15
ATOM     15  C16 ZIN A   1      18.343  -0.106  12.101  0.00  0.00     0.042 A 
ATOM     16  N21 ZIN A   1      19.473   0.571  12.148  0.00  0.00    -0.265 NA
ATOM     17  C20 ZIN A   1      19.648   1.678  11.454  0.00  0.00     0.117 A 
ATOM     18  C19 ZIN A   1      18.638   2.177  10.654  0.00  0.00     0.019 A 
ATOM     19  C18 ZIN A   1      17.433   1.494  10.582  0.00  0.00     0.003 A 
ATOM     20  C17 ZIN A   1      17.288   0.332  11.323  0.00  0.00     0.028 A 
ENDBRANCH   1  15
TORSDOF 5
ENDMDL
MODEL 9
REMARK VINA RESULT:      -6.3      2.769      5.631
REMARK  5 active torsions:
REMARK  status: ('A' for Active; 'I' for Inactive)
REMARK    1  A    between atoms: N2_2  and  C5_5 
REMARK    2  A    between atoms: C5_5  and  C6_6 
REMARK    3  A    between atoms: C6_6  and  C7_7 
REMARK    4  A    between atoms: C7_7  and  C9_8 
REMARK    5  A    between atoms: C7_7  and  C16_15 
ROOT
ATOM      1  C7  ZIN A   1      19.194  -1.175  13.174  0.00  0.00     0.072 C 
ENDROOT
BRANCH   1   2
ATOM      2  C6  ZIN A   1      18.280  -1.197  14.400  0.00  0.00     0.043 C 
BRANCH   2   3
ATOM      3  C5  ZIN A   1      19.131  -1.299  15.668  0.00  0.00     0.235 C 
BRANCH   3   4
ATOM      4  N2  ZIN A   1      18.608  -0.377  16.685  0.00  0.00    -0.079 N 
ATOM      5  C1  ZIN A   1      18.983   1.000  16.337  0.00  0.00     0.269 C 
ATOM      6  H3  ZIN A   1      18.997  -0.614  17.586  0.00  0.00     0.278 HD
ATOM      7  C4  ZIN A   1      17.144  -0.487  16.740  0.00  0.00     0.269 C 
ENDBRANCH   3   4
ENDBRANCH   2   3
ENDBRANCH   1   2
BRANCH   1   8
ATOM      8  C9  ZIN A   1      18.913   0.064  12.361  0.00  0.00    -0.048 A 
ATOM      9  C15 ZIN A   1      17.907   0.929  12.747  0.00  0.00     0.009 A 
ATOM     10  C14 ZIN A   1      17.653   2.068  12.006  0.00  0.00     0.024 A 
ATOM     11  C12 ZIN A   1      18.398   2.335  10.871  0.00  0.00     0.034 A 
ATOM     12  C11 ZIN A   1      19.401   1.465  10.483  0.00  0.00     0.024 A 
ATOM     13 Cl13 ZIN A   1      18.073   3.761   9.936  0.00  0.00    -0.084 Cl
ATOM     14  C10 ZIN A   1      19.658   0.330  11.227  0.00  0.00     0.009 A 
ENDBRANCH   1   8
BRANCH   1  15
ATOM     15  C16 ZIN A   1      18.934  -2.397  12.331  0.00  0.00     0.042 A 
ATOM     16  N21 ZIN A   1      19.934  -3.196  12.015  0.00  0.00    -0.265 NA
ATOM     17  C20 ZIN A   1      19.753  -4.279  11.285  0.00  0.00     0.117 A 
ATOM     18  C19 ZIN A   1      18.498  -4.610  10.811  0.00  0.00     0.019 A 
ATOM     19  C18 ZIN A   1      17.422  -3.790  11.118  0.00  0.00     0.003 A 
ATOM     20  C17 ZIN A   1      17.651  -2.664  11.892  0.00  0.00     0.028 A 
ENDBRANCH   1  15
TORSDOF 5
ENDMDL
