MODEL 1
REMARK VINA RESULT:      -9.5      0.000      0.000
REMARK  7 active torsions:
REMARK  status: ('A' for Active; 'I' for Inactive)
REMARK    1  A    between atoms: C2_2  and  N3_3 
REMARK    2  A    between atoms: N7_7  and  C8_8 
REMARK    3  A    between atoms: C8_8  and  C9_9 
REMARK    4  A    between atoms: C12_12  and  N13_13 
REMARK    5  A    between atoms: N13_13  and  C14_14 
REMARK    6  A    between atoms: C19_19  and  C20_20 
REMARK    7  A    between atoms: N28_28  and  C29_29 
ROOT
ATOM      1  C14 ZIN A   1      18.380   3.459  10.038  0.00  0.00     0.728 A 
ATOM      2  N15 ZIN A   1      17.577   4.472   9.746  0.00  0.00    -0.072 NA
ATOM      3  C16 ZIN A   1      17.069   5.236  10.700  0.00  0.00     0.181 A 
ATOM      4  C17 ZIN A   1      17.384   4.969  12.022  0.00  0.00     0.164 A 
ATOM      5  F18 ZIN A   1      16.882   5.728  13.020  0.00  0.00    -0.202 F 
ATOM      6  C19 ZIN A   1      18.234   3.891  12.298  0.00  0.00     0.126 A 
ATOM      7  N34 ZIN A   1      18.703   3.164  11.286  0.00  0.00    -0.059 NA
ENDROOT
BRANCH   1   8
ATOM      8  N13 ZIN A   1      18.891   2.683   9.007  0.00  0.00    -0.171 N 
ATOM      9  H52 ZIN A   1      19.265   3.108   8.220  0.00  0.00     0.186 HD
BRANCH   8  10
ATOM     10  C12 ZIN A   1      18.863   1.295   9.101  0.00  0.00     0.142 A 
ATOM     11  C11 ZIN A   1      17.708   0.604   8.752  0.00  0.00     0.051 A 
ATOM     12  C10 ZIN A   1      17.693  -0.777   8.850  0.00  0.00     0.014 A 
ATOM     13  C9  ZIN A   1      18.839  -1.421   9.297  0.00  0.00    -0.012 A 
ATOM     14  C36 ZIN A   1      19.949  -0.671   9.632  0.00  0.00     0.128 A 
ATOM     15  N35 ZIN A   1      19.935   0.644   9.523  0.00  0.00    -0.242 NA
BRANCH  13  16
ATOM     16  C8  ZIN A   1      18.868  -2.922   9.419  0.00  0.00     0.312 C 
BRANCH  16  17
ATOM     17  N7  ZIN A   1      18.355  -3.526   8.182  0.00  0.00     0.096 N 
ATOM     18  C6  ZIN A   1      17.775  -4.850   8.443  0.00  0.00     0.300 C 
ATOM     19  C5  ZIN A   1      17.201  -5.417   7.143  0.00  0.00     0.265 C 
ATOM     20  N3  ZIN A   1      18.270  -5.521   6.140  0.00  0.00    -0.068 N 
ATOM     21  H4  ZIN A   1      19.000  -6.123   6.487  0.00  0.00     0.280 HD
ATOM     22  C38 ZIN A   1      18.822  -4.186   5.872  0.00  0.00     0.265 C 
ATOM     23  C37 ZIN A   1      19.410  -3.609   7.162  0.00  0.00     0.300 C 
BRANCH  20  24
ATOM     24  C2  ZIN A   1      17.722  -6.082   4.897  0.00  0.00     0.230 C 
ATOM     25  C1  ZIN A   1      16.240  -5.720   4.784  0.00  0.00     0.034 C 
ENDBRANCH  20  24
ENDBRANCH  16  17
ENDBRANCH  13  16
ENDBRANCH   8  10
ENDBRANCH   1   8
BRANCH   6  26
ATOM     26  C20 ZIN A   1      18.603   3.563  13.695  0.00  0.00     0.002 A 
ATOM     27  C33 ZIN A   1      18.327   2.299  14.207  0.00  0.00     0.046 A 
ATOM     28  C32 ZIN A   1      18.677   1.997  15.513  0.00  0.00     0.069 A 
ATOM     29  C24 ZIN A   1      19.300   2.968  16.316  0.00  0.00     0.124 A 
ATOM     30  N28 ZIN A   1      18.552   0.871  16.304  0.00  0.00    -0.329 N 
ATOM     31  C22 ZIN A   1      19.567   4.237  15.787  0.00  0.00     0.148 A 
ATOM     32  N25 ZIN A   1      19.517   2.398  17.528  0.00  0.00    -0.230 NA
ATOM     33  C21 ZIN A   1      19.223   4.526  14.499  0.00  0.00     0.058 A 
ATOM     34  F23 ZIN A   1      20.165   5.176  16.554  0.00  0.00    -0.203 F 
ATOM     35  C26 ZIN A   1      19.080   1.173  17.521  0.00  0.00     0.104 A 
ATOM     36  C27 ZIN A   1      19.149   0.224  18.690  0.00  0.00     0.091 C 
BRANCH  30  37
ATOM     37  C29 ZIN A   1      17.960  -0.409  15.907  0.00  0.00     0.083 C 
ATOM     38  C30 ZIN A   1      19.034  -1.498  15.933  0.00  0.00     0.032 C 
ATOM     39  C31 ZIN A   1      16.838  -0.776  16.881  0.00  0.00     0.032 C 
ENDBRANCH  30  37
ENDBRANCH   6  26
TORSDOF 7
ENDMDL
MODEL 2
REMARK VINA RESULT:      -9.1      3.467     10.335
REMARK  7 active torsions:
REMARK  status: ('A' for Active; 'I' for Inactive)
REMARK    1  A    between atoms: C2_2  and  N3_3 
REMARK    2  A    between atoms: N7_7  and  C8_8 
REMARK    3  A    between atoms: C8_8  and  C9_9 
REMARK    4  A    between atoms: C12_12  and  N13_13 
REMARK    5  A    between atoms: N13_13  and  C14_14 
REMARK    6  A    between atoms: C19_19  and  C20_20 
REMARK    7  A    between atoms: N28_28  and  C29_29 
ROOT
ATOM      1  C14 ZIN A   1      20.006  -0.257   8.980  0.00  0.00     0.728 A 
ATOM      2  N15 ZIN A   1      19.506   0.912   8.605  0.00  0.00    -0.072 NA
ATOM      3  C16 ZIN A   1      18.690   1.003   7.565  0.00  0.00     0.181 A 
ATOM      4  C17 ZIN A   1      18.358  -0.143   6.863  0.00  0.00     0.164 A 
ATOM      5  F18 ZIN A   1      17.529  -0.086   5.798  0.00  0.00    -0.202 F 
ATOM      6  C19 ZIN A   1      18.903  -1.362   7.283  0.00  0.00     0.126 A 
ATOM      7  N34 ZIN A   1      19.720  -1.375   8.334  0.00  0.00    -0.059 NA
ENDROOT
BRANCH   1   8
ATOM      8  N13 ZIN A   1      20.857  -0.306  10.074  0.00  0.00    -0.171 N 
ATOM      9  H52 ZIN A   1      21.809  -0.171   9.954  0.00  0.00     0.186 HD
BRANCH   8  10
ATOM     10  C12 ZIN A   1      20.344  -0.551  11.344  0.00  0.00     0.142 A 
ATOM     11  C11 ZIN A   1      19.628  -1.718  11.584  0.00  0.00     0.051 A 
ATOM     12  C10 ZIN A   1      19.123  -1.950  12.852  0.00  0.00     0.014 A 
ATOM     13  C9  ZIN A   1      19.352  -1.002  13.839  0.00  0.00    -0.012 A 
ATOM     14  C36 ZIN A   1      20.067   0.138  13.529  0.00  0.00     0.128 A 
ATOM     15  N35 ZIN A   1      20.540   0.330  12.313  0.00  0.00    -0.242 NA
BRANCH  13  16
ATOM     16  C8  ZIN A   1      18.820  -1.212  15.234  0.00  0.00     0.312 C 
BRANCH  16  17
ATOM     17  N7  ZIN A   1      19.056  -0.004  16.035  0.00  0.00     0.096 N 
ATOM     18  C6  ZIN A   1      19.049  -0.315  17.471  0.00  0.00     0.300 C 
ATOM     19  C5  ZIN A   1      19.356   0.956  18.267  0.00  0.00     0.265 C 
ATOM     20  N3  ZIN A   1      18.344   1.978  17.966  0.00  0.00    -0.068 N 
ATOM     21  H4  ZIN A   1      17.430   1.629  18.209  0.00  0.00     0.280 HD
ATOM     22  C38 ZIN A   1      18.381   2.296  16.532  0.00  0.00     0.265 C 
ATOM     23  C37 ZIN A   1      18.065   1.036  15.722  0.00  0.00     0.300 C 
BRANCH  20  24
ATOM     24  C2  ZIN A   1      18.629   3.192  18.743  0.00  0.00     0.230 C 
ATOM     25  C1  ZIN A   1      18.035   4.407  18.027  0.00  0.00     0.034 C 
ENDBRANCH  20  24
ENDBRANCH  16  17
ENDBRANCH  13  16
ENDBRANCH   8  10
ENDBRANCH   1   8
BRANCH   6  26
ATOM     26  C20 ZIN A   1      18.579  -2.618   6.567  0.00  0.00     0.002 A 
ATOM     27  C33 ZIN A   1      18.094  -3.715   7.273  0.00  0.00     0.046 A 
ATOM     28  C32 ZIN A   1      17.789  -4.885   6.597  0.00  0.00     0.069 A 
ATOM     29  C24 ZIN A   1      17.980  -4.964   5.206  0.00  0.00     0.124 A 
ATOM     30  N28 ZIN A   1      17.301  -6.118   6.985  0.00  0.00    -0.329 N 
ATOM     31  C22 ZIN A   1      18.474  -3.853   4.511  0.00  0.00     0.148 A 
ATOM     32  N25 ZIN A   1      17.608  -6.212   4.827  0.00  0.00    -0.230 NA
ATOM     33  C21 ZIN A   1      18.768  -2.702   5.182  0.00  0.00     0.058 A 
ATOM     34  F23 ZIN A   1      18.662  -3.922   3.175  0.00  0.00    -0.203 F 
ATOM     35  C26 ZIN A   1      17.211  -6.886   5.866  0.00  0.00     0.104 A 
ATOM     36  C27 ZIN A   1      16.722  -8.312   5.835  0.00  0.00     0.091 C 
BRANCH  30  37
ATOM     37  C29 ZIN A   1      16.947  -6.523   8.348  0.00  0.00     0.083 C 
ATOM     38  C30 ZIN A   1      18.133  -6.266   9.280  0.00  0.00     0.032 C 
ATOM     39  C31 ZIN A   1      15.739  -5.712   8.823  0.00  0.00     0.032 C 
ENDBRANCH  30  37
ENDBRANCH   6  26
TORSDOF 7
ENDMDL
MODEL 3
REMARK VINA RESULT:      -9.0      3.813     10.706
REMARK  7 active torsions:
REMARK  status: ('A' for Active; 'I' for Inactive)
REMARK    1  A    between atoms: C2_2  and  N3_3 
REMARK    2  A    between atoms: N7_7  and  C8_8 
REMARK    3  A    between atoms: C8_8  and  C9_9 
REMARK    4  A    between atoms: C12_12  and  N13_13 
REMARK    5  A    between atoms: N13_13  and  C14_14 
REMARK    6  A    between atoms: C19_19  and  C20_20 
REMARK    7  A    between atoms: N28_28  and  C29_29 
ROOT
ATOM      1  C14 ZIN A   1      18.422   0.262   7.541  0.00  0.00     0.728 A 
ATOM      2  N15 ZIN A   1      18.897   0.973   6.529  0.00  0.00    -0.072 NA
ATOM      3  C16 ZIN A   1      19.298   0.385   5.412  0.00  0.00     0.181 A 
ATOM      4  C17 ZIN A   1      19.217  -0.993   5.305  0.00  0.00     0.164 A 
ATOM      5  F18 ZIN A   1      19.617  -1.624   4.180  0.00  0.00    -0.202 F 
ATOM      6  C19 ZIN A   1      18.711  -1.716   6.392  0.00  0.00     0.126 A 
ATOM      7  N34 ZIN A   1      18.332  -1.057   7.484  0.00  0.00    -0.059 NA
ENDROOT
BRANCH   1   8
ATOM      8  N13 ZIN A   1      18.014   0.918   8.694  0.00  0.00    -0.171 N 
ATOM      9  H52 ZIN A   1      17.614   1.799   8.634  0.00  0.00     0.186 HD
BRANCH   8  10
ATOM     10  C12 ZIN A   1      18.180   0.311   9.935  0.00  0.00     0.142 A 
ATOM     11  C11 ZIN A   1      17.064  -0.012  10.699  0.00  0.00     0.051 A 
ATOM     12  C10 ZIN A   1      17.242  -0.616  11.932  0.00  0.00     0.014 A 
ATOM     13  C9  ZIN A   1      18.536  -0.876  12.360  0.00  0.00    -0.012 A 
ATOM     14  C36 ZIN A   1      19.600  -0.523  11.552  0.00  0.00     0.128 A 
ATOM     15  N35 ZIN A   1      19.399   0.047  10.380  0.00  0.00    -0.242 NA
BRANCH  13  16
ATOM     16  C8  ZIN A   1      18.778  -1.531  13.695  0.00  0.00     0.312 C 
BRANCH  16  17
ATOM     17  N7  ZIN A   1      18.324  -0.638  14.769  0.00  0.00     0.096 N 
ATOM     18  C6  ZIN A   1      19.268   0.470  14.968  0.00  0.00     0.300 C 
ATOM     19  C5  ZIN A   1      18.729   1.407  16.051  0.00  0.00     0.265 C 
ATOM     20  N3  ZIN A   1      18.556   0.658  17.304  0.00  0.00    -0.068 N 
ATOM     21  H4  ZIN A   1      19.441   0.271  17.590  0.00  0.00     0.280 HD
ATOM     22  C38 ZIN A   1      17.590  -0.430  17.095  0.00  0.00     0.265 C 
ATOM     23  C37 ZIN A   1      18.121  -1.382  16.020  0.00  0.00     0.300 C 
BRANCH  20  24
ATOM     24  C2  ZIN A   1      18.055   1.562  18.348  0.00  0.00     0.230 C 
ATOM     25  C1  ZIN A   1      18.999   2.758  18.484  0.00  0.00     0.034 C 
ENDBRANCH  20  24
ENDBRANCH  16  17
ENDBRANCH  13  16
ENDBRANCH   8  10
ENDBRANCH   1   8
BRANCH   6  26
ATOM     26  C20 ZIN A   1      18.603  -3.192   6.328  0.00  0.00     0.002 A 
ATOM     27  C33 ZIN A   1      17.985  -3.797   5.238  0.00  0.00     0.046 A 
ATOM     28  C32 ZIN A   1      17.890  -5.177   5.183  0.00  0.00     0.069 A 
ATOM     29  C24 ZIN A   1      18.408  -5.961   6.230  0.00  0.00     0.124 A 
ATOM     30  N28 ZIN A   1      17.358  -6.068   4.269  0.00  0.00    -0.329 N 
ATOM     31  C22 ZIN A   1      19.022  -5.336   7.323  0.00  0.00     0.148 A 
ATOM     32  N25 ZIN A   1      18.169  -7.257   5.909  0.00  0.00    -0.230 NA
ATOM     33  C21 ZIN A   1      19.117  -3.976   7.369  0.00  0.00     0.058 A 
ATOM     34  F23 ZIN A   1      19.521  -6.082   8.333  0.00  0.00    -0.203 F 
ATOM     35  C26 ZIN A   1      17.556  -7.319   4.763  0.00  0.00     0.104 A 
ATOM     36  C27 ZIN A   1      17.128  -8.594   4.082  0.00  0.00     0.091 C 
BRANCH  30  37
ATOM     37  C29 ZIN A   1      16.701  -5.726   3.005  0.00  0.00     0.083 C 
ATOM     38  C30 ZIN A   1      15.620  -4.674   3.260  0.00  0.00     0.032 C 
ATOM     39  C31 ZIN A   1      17.737  -5.167   2.028  0.00  0.00     0.032 C 
ENDBRANCH  30  37
ENDBRANCH   6  26
TORSDOF 7
ENDMDL
MODEL 4
REMARK VINA RESULT:      -8.9      1.971      3.154
REMARK  7 active torsions:
REMARK  status: ('A' for Active; 'I' for Inactive)
REMARK    1  A    between atoms: C2_2  and  N3_3 
REMARK    2  A    between atoms: N7_7  and  C8_8 
REMARK    3  A    between atoms: C8_8  and  C9_9 
REMARK    4  A    between atoms: C12_12  and  N13_13 
REMARK    5  A    between atoms: N13_13  and  C14_14 
REMARK    6  A    between atoms: C19_19  and  C20_20 
REMARK    7  A    between atoms: N28_28  and  C29_29 
ROOT
ATOM      1  C14 ZIN A   1      18.386   3.287   9.748  0.00  0.00     0.728 A 
ATOM      2  N15 ZIN A   1      17.804   4.467   9.899  0.00  0.00    -0.072 NA
ATOM      3  C16 ZIN A   1      17.314   4.841  11.071  0.00  0.00     0.181 A 
ATOM      4  C17 ZIN A   1      17.413   3.981  12.152  0.00  0.00     0.164 A 
ATOM      5  F18 ZIN A   1      16.922   4.331  13.361  0.00  0.00    -0.202 F 
ATOM      6  C19 ZIN A   1      18.032   2.740  11.960  0.00  0.00     0.126 A 
ATOM      7  N34 ZIN A   1      18.497   2.432  10.752  0.00  0.00    -0.059 NA
ENDROOT
BRANCH   1   8
ATOM      8  N13 ZIN A   1      18.886   2.935   8.503  0.00  0.00    -0.171 N 
ATOM      9  H52 ZIN A   1      19.153   3.624   7.876  0.00  0.00     0.186 HD
BRANCH   8  10
ATOM     10  C12 ZIN A   1      19.003   1.593   8.154  0.00  0.00     0.142 A 
ATOM     11  C11 ZIN A   1      18.478   1.147   6.945  0.00  0.00     0.051 A 
ATOM     12  C10 ZIN A   1      18.601  -0.190   6.609  0.00  0.00     0.014 A 
ATOM     13  C9  ZIN A   1      19.247  -1.038   7.498  0.00  0.00    -0.012 A 
ATOM     14  C36 ZIN A   1      19.739  -0.529   8.683  0.00  0.00     0.128 A 
ATOM     15  N35 ZIN A   1      19.611   0.751   8.974  0.00  0.00    -0.242 NA
BRANCH  13  16
ATOM     16  C8  ZIN A   1      19.403  -2.502   7.174  0.00  0.00     0.312 C 
BRANCH  16  17
ATOM     17  N7  ZIN A   1      19.014  -3.306   8.340  0.00  0.00     0.096 N 
ATOM     18  C6  ZIN A   1      19.583  -4.658   8.260  0.00  0.00     0.300 C 
ATOM     19  C5  ZIN A   1      19.203  -5.443   9.518  0.00  0.00     0.265 C 
ATOM     20  N3  ZIN A   1      17.740  -5.515   9.628  0.00  0.00    -0.068 N 
ATOM     21  H4  ZIN A   1      17.363  -5.969   8.810  0.00  0.00     0.280 HD
ATOM     22  C38 ZIN A   1      17.189  -4.157   9.732  0.00  0.00     0.265 C 
ATOM     23  C37 ZIN A   1      17.551  -3.362   8.474  0.00  0.00     0.300 C 
BRANCH  20  24
ATOM     24  C2  ZIN A   1      17.376  -6.283  10.826  0.00  0.00     0.230 C 
ATOM     25  C1  ZIN A   1      17.568  -5.411  12.068  0.00  0.00     0.034 C 
ENDBRANCH  20  24
ENDBRANCH  16  17
ENDBRANCH  13  16
ENDBRANCH   8  10
ENDBRANCH   1   8
BRANCH   6  26
ATOM     26  C20 ZIN A   1      18.163   1.783  13.084  0.00  0.00     0.002 A 
ATOM     27  C33 ZIN A   1      18.507   2.244  14.351  0.00  0.00     0.046 A 
ATOM     28  C32 ZIN A   1      18.625   1.345  15.398  0.00  0.00     0.069 A 
ATOM     29  C24 ZIN A   1      18.408  -0.026  15.176  0.00  0.00     0.124 A 
ATOM     30  N28 ZIN A   1      18.938   1.469  16.739  0.00  0.00    -0.329 N 
ATOM     31  C22 ZIN A   1      18.069  -0.474  13.894  0.00  0.00     0.148 A 
ATOM     32  N25 ZIN A   1      18.597  -0.653  16.364  0.00  0.00    -0.230 NA
ATOM     33  C21 ZIN A   1      17.949   0.417  12.867  0.00  0.00     0.058 A 
ATOM     34  F23 ZIN A   1      17.859  -1.791  13.672  0.00  0.00    -0.203 F 
ATOM     35  C26 ZIN A   1      18.906   0.220  17.277  0.00  0.00     0.104 A 
ATOM     36  C27 ZIN A   1      19.188  -0.104  18.722  0.00  0.00     0.091 C 
BRANCH  30  37
ATOM     37  C29 ZIN A   1      19.248   2.713  17.448  0.00  0.00     0.083 C 
ATOM     38  C30 ZIN A   1      19.971   3.673  16.500  0.00  0.00     0.032 C 
ATOM     39  C31 ZIN A   1      17.950   3.359  17.935  0.00  0.00     0.032 C 
ENDBRANCH  30  37
ENDBRANCH   6  26
TORSDOF 7
ENDMDL
MODEL 5
REMARK VINA RESULT:      -8.9      2.884      5.301
REMARK  7 active torsions:
REMARK  status: ('A' for Active; 'I' for Inactive)
REMARK    1  A    between atoms: C2_2  and  N3_3 
REMARK    2  A    between atoms: N7_7  and  C8_8 
REMARK    3  A    between atoms: C8_8  and  C9_9 
REMARK    4  A    between atoms: C12_12  and  N13_13 
REMARK    5  A    between atoms: N13_13  and  C14_14 
REMARK    6  A    between atoms: C19_19  and  C20_20 
REMARK    7  A    between atoms: N28_28  and  C29_29 
ROOT
ATOM      1  C14 ZIN A   1      18.301   0.194  15.576  0.00  0.00     0.728 A 
ATOM      2  N15 ZIN A   1      18.562  -0.382  16.740  0.00  0.00    -0.072 NA
ATOM      3  C16 ZIN A   1      18.910   0.338  17.795  0.00  0.00     0.181 A 
ATOM      4  C17 ZIN A   1      19.001   1.715  17.675  0.00  0.00     0.164 A 
ATOM      5  F18 ZIN A   1      19.353   2.480  18.731  0.00  0.00    -0.202 F 
ATOM      6  C19 ZIN A   1      18.720   2.294  16.431  0.00  0.00     0.126 A 
ATOM      7  N34 ZIN A   1      18.381   1.504  15.414  0.00  0.00    -0.059 NA
ENDROOT
BRANCH   1   8
ATOM      8  N13 ZIN A   1      17.941  -0.600  14.496  0.00  0.00    -0.171 N 
ATOM      9  H52 ZIN A   1      17.532  -1.465  14.646  0.00  0.00     0.186 HD
BRANCH   8  10
ATOM     10  C12 ZIN A   1      18.170  -0.153  13.198  0.00  0.00     0.142 A 
ATOM     11  C11 ZIN A   1      17.093   0.059  12.343  0.00  0.00     0.051 A 
ATOM     12  C10 ZIN A   1      17.333   0.504  11.054  0.00  0.00     0.014 A 
ATOM     13  C9  ZIN A   1      18.647   0.723  10.664  0.00  0.00    -0.012 A 
ATOM     14  C36 ZIN A   1      19.669   0.487  11.563  0.00  0.00     0.128 A 
ATOM     15  N35 ZIN A   1      19.409   0.067  12.787  0.00  0.00    -0.242 NA
BRANCH  13  16
ATOM     16  C8  ZIN A   1      18.956   1.207   9.271  0.00  0.00     0.312 C 
BRANCH  16  17
ATOM     17  N7  ZIN A   1      18.571   0.177   8.297  0.00  0.00     0.096 N 
ATOM     18  C6  ZIN A   1      19.521  -0.945   8.314  0.00  0.00     0.300 C 
ATOM     19  C5  ZIN A   1      19.053  -2.020   7.331  0.00  0.00     0.265 C 
ATOM     20  N3  ZIN A   1      18.970  -1.446   5.981  0.00  0.00    -0.068 N 
ATOM     21  H4  ZIN A   1      19.875  -1.097   5.707  0.00  0.00     0.280 HD
ATOM     22  C38 ZIN A   1      17.998  -0.344   5.975  0.00  0.00     0.265 C 
ATOM     23  C37 ZIN A   1      18.459   0.746   6.947  0.00  0.00     0.300 C 
BRANCH  20  24
ATOM     24  C2  ZIN A   1      18.537  -2.483   5.034  0.00  0.00     0.230 C 
ATOM     25  C1  ZIN A   1      17.387  -1.946   4.180  0.00  0.00     0.034 C 
ENDBRANCH  20  24
ENDBRANCH  16  17
ENDBRANCH  13  16
ENDBRANCH   8  10
ENDBRANCH   1   8
BRANCH   6  26
ATOM     26  C20 ZIN A   1      18.802   3.762  16.249  0.00  0.00     0.002 A 
ATOM     27  C33 ZIN A   1      17.636   4.518  16.176  0.00  0.00     0.046 A 
ATOM     28  C32 ZIN A   1      17.720   5.891  16.009  0.00  0.00     0.069 A 
ATOM     29  C24 ZIN A   1      18.977   6.512  15.905  0.00  0.00     0.124 A 
ATOM     30  N28 ZIN A   1      16.785   6.904  15.905  0.00  0.00    -0.329 N 
ATOM     31  C22 ZIN A   1      20.140   5.735  15.975  0.00  0.00     0.148 A 
ATOM     32  N25 ZIN A   1      18.749   7.840  15.745  0.00  0.00    -0.230 NA
ATOM     33  C21 ZIN A   1      20.051   4.384  16.144  0.00  0.00     0.058 A 
ATOM     34  F23 ZIN A   1      21.352   6.325  15.874  0.00  0.00    -0.203 F 
ATOM     35  C26 ZIN A   1      17.469   8.068  15.745  0.00  0.00     0.104 A 
ATOM     36  C27 ZIN A   1      16.835   9.427  15.591  0.00  0.00     0.091 C 
BRANCH  30  37
ATOM     37  C29 ZIN A   1      15.329   6.751  15.956  0.00  0.00     0.083 C 
ATOM     38  C30 ZIN A   1      14.863   5.907  14.767  0.00  0.00     0.032 C 
ATOM     39  C31 ZIN A   1      14.935   6.055  17.260  0.00  0.00     0.032 C 
ENDBRANCH  30  37
ENDBRANCH   6  26
TORSDOF 7
ENDMDL
MODEL 6
REMARK VINA RESULT:      -8.8      1.975      3.053
REMARK  7 active torsions:
REMARK  status: ('A' for Active; 'I' for Inactive)
REMARK    1  A    between atoms: C2_2  and  N3_3 
REMARK    2  A    between atoms: N7_7  and  C8_8 
REMARK    3  A    between atoms: C8_8  and  C9_9 
REMARK    4  A    between atoms: C12_12  and  N13_13 
REMARK    5  A    between atoms: N13_13  and  C14_14 
REMARK    6  A    between atoms: C19_19  and  C20_20 
REMARK    7  A    between atoms: N28_28  and  C29_29 
ROOT
ATOM      1  C14 ZIN A   1      19.645   0.198   9.663  0.00  0.00     0.728 A 
ATOM      2  N15 ZIN A   1      19.303   0.907   8.597  0.00  0.00    -0.072 NA
ATOM      3  C16 ZIN A   1      18.892   2.160   8.715  0.00  0.00     0.181 A 
ATOM      4  C17 ZIN A   1      18.819   2.733   9.973  0.00  0.00     0.164 A 
ATOM      5  F18 ZIN A   1      18.403   4.009  10.129  0.00  0.00    -0.202 F 
ATOM      6  C19 ZIN A   1      19.186   1.958  11.080  0.00  0.00     0.126 A 
ATOM      7  N34 ZIN A   1      19.585   0.704  10.884  0.00  0.00    -0.059 NA
ENDROOT
BRANCH   1   8
ATOM      8  N13 ZIN A   1      20.070  -1.112   9.495  0.00  0.00    -0.171 N 
ATOM      9  H52 ZIN A   1      21.005  -1.300   9.321  0.00  0.00     0.186 HD
BRANCH   8  10
ATOM     10  C12 ZIN A   1      19.154  -2.157   9.574  0.00  0.00     0.142 A 
ATOM     11  C11 ZIN A   1      18.659  -2.728   8.406  0.00  0.00     0.051 A 
ATOM     12  C10 ZIN A   1      17.748  -3.767   8.498  0.00  0.00     0.014 A 
ATOM     13  C9  ZIN A   1      17.362  -4.199   9.760  0.00  0.00    -0.012 A 
ATOM     14  C36 ZIN A   1      17.890  -3.582  10.877  0.00  0.00     0.128 A 
ATOM     15  N35 ZIN A   1      18.760  -2.597  10.758  0.00  0.00    -0.242 NA
BRANCH  13  16
ATOM     16  C8  ZIN A   1      16.373  -5.326   9.908  0.00  0.00     0.312 C 
BRANCH  16  17
ATOM     17  N7  ZIN A   1      16.084  -5.901   8.587  0.00  0.00     0.096 N 
ATOM     18  C6  ZIN A   1      14.637  -5.946   8.337  0.00  0.00     0.300 C 
ATOM     19  C5  ZIN A   1      14.382  -6.495   6.932  0.00  0.00     0.265 C 
ATOM     20  N3  ZIN A   1      14.957  -7.842   6.821  0.00  0.00    -0.068 N 
ATOM     21  H4  ZIN A   1      14.536  -8.446   7.510  0.00  0.00     0.280 HD
ATOM     22  C38 ZIN A   1      16.407  -7.777   7.048  0.00  0.00     0.265 C 
ATOM     23  C37 ZIN A   1      16.679  -7.238   8.455  0.00  0.00     0.300 C 
BRANCH  20  24
ATOM     24  C2  ZIN A   1      14.697  -8.376   5.477  0.00  0.00     0.230 C 
ATOM     25  C1  ZIN A   1      15.876  -8.047   4.560  0.00  0.00     0.034 C 
ENDBRANCH  20  24
ENDBRANCH  16  17
ENDBRANCH  13  16
ENDBRANCH   8  10
ENDBRANCH   1   8
BRANCH   6  26
ATOM     26  C20 ZIN A   1      19.126   2.525  12.448  0.00  0.00     0.002 A 
ATOM     27  C33 ZIN A   1      18.967   1.680  13.542  0.00  0.00     0.046 A 
ATOM     28  C32 ZIN A   1      18.916   2.215  14.818  0.00  0.00     0.069 A 
ATOM     29  C24 ZIN A   1      19.015   3.605  15.003  0.00  0.00     0.124 A 
ATOM     30  N28 ZIN A   1      18.773   1.673  16.082  0.00  0.00    -0.329 N 
ATOM     31  C22 ZIN A   1      19.170   4.442  13.891  0.00  0.00     0.148 A 
ATOM     32  N25 ZIN A   1      18.929   3.834  16.338  0.00  0.00    -0.230 NA
ATOM     33  C21 ZIN A   1      19.225   3.908  12.636  0.00  0.00     0.058 A 
ATOM     34  F23 ZIN A   1      19.265   5.779  14.060  0.00  0.00    -0.203 F 
ATOM     35  C26 ZIN A   1      18.788   2.705  16.968  0.00  0.00     0.104 A 
ATOM     36  C27 ZIN A   1      18.659   2.560  18.463  0.00  0.00     0.091 C 
BRANCH  30  37
ATOM     37  C29 ZIN A   1      18.631   0.251  16.406  0.00  0.00     0.083 C 
ATOM     38  C30 ZIN A   1      17.146  -0.109  16.483  0.00  0.00     0.032 C 
ATOM     39  C31 ZIN A   1      19.303  -0.589  15.318  0.00  0.00     0.032 C 
ENDBRANCH  30  37
ENDBRANCH   6  26
TORSDOF 7
ENDMDL
MODEL 7
REMARK VINA RESULT:      -8.8      3.875     10.701
REMARK  7 active torsions:
REMARK  status: ('A' for Active; 'I' for Inactive)
REMARK    1  A    between atoms: C2_2  and  N3_3 
REMARK    2  A    between atoms: N7_7  and  C8_8 
REMARK    3  A    between atoms: C8_8  and  C9_9 
REMARK    4  A    between atoms: C12_12  and  N13_13 
REMARK    5  A    between atoms: N13_13  and  C14_14 
REMARK    6  A    between atoms: C19_19  and  C20_20 
REMARK    7  A    between atoms: N28_28  and  C29_29 
ROOT
ATOM      1  C14 ZIN A   1      19.904   0.330  11.965  0.00  0.00     0.728 A 
ATOM      2  N15 ZIN A   1      19.687  -0.170  13.173  0.00  0.00    -0.072 NA
ATOM      3  C16 ZIN A   1      19.286  -1.422  13.332  0.00  0.00     0.181 A 
ATOM      4  C17 ZIN A   1      19.091  -2.217  12.215  0.00  0.00     0.164 A 
ATOM      5  F18 ZIN A   1      18.681  -3.498  12.341  0.00  0.00    -0.202 F 
ATOM      6  C19 ZIN A   1      19.327  -1.660  10.953  0.00  0.00     0.126 A 
ATOM      7  N34 ZIN A   1      19.725  -0.392  10.871  0.00  0.00    -0.059 NA
ENDROOT
BRANCH   1   8
ATOM      8  N13 ZIN A   1      20.324   1.647  11.845  0.00  0.00    -0.171 N 
ATOM      9  H52 ZIN A   1      21.255   1.844  11.661  0.00  0.00     0.186 HD
BRANCH   8  10
ATOM     10  C12 ZIN A   1      19.407   2.685  11.989  0.00  0.00     0.142 A 
ATOM     11  C11 ZIN A   1      18.808   3.236  10.861  0.00  0.00     0.051 A 
ATOM     12  C10 ZIN A   1      17.898   4.267  11.018  0.00  0.00     0.014 A 
ATOM     13  C9  ZIN A   1      17.618   4.713  12.302  0.00  0.00    -0.012 A 
ATOM     14  C36 ZIN A   1      18.255   4.124  13.377  0.00  0.00     0.128 A 
ATOM     15  N35 ZIN A   1      19.114   3.139  13.197  0.00  0.00    -0.242 NA
BRANCH  13  16
ATOM     16  C8  ZIN A   1      16.635   5.834  12.520  0.00  0.00     0.312 C 
BRANCH  16  17
ATOM     17  N7  ZIN A   1      16.509   6.103  13.959  0.00  0.00     0.096 N 
ATOM     18  C6  ZIN A   1      15.114   5.972  14.399  0.00  0.00     0.300 C 
ATOM     19  C5  ZIN A   1      15.035   6.202  15.910  0.00  0.00     0.265 C 
ATOM     20  N3  ZIN A   1      15.543   7.542  16.229  0.00  0.00    -0.068 N 
ATOM     21  H4  ZIN A   1      14.993   8.235  15.745  0.00  0.00     0.280 HD
ATOM     22  C38 ZIN A   1      16.947   7.648  15.806  0.00  0.00     0.265 C 
ATOM     23  C37 ZIN A   1      17.040   7.431  14.293  0.00  0.00     0.300 C 
BRANCH  20  24
ATOM     24  C2  ZIN A   1      15.452   7.769  17.678  0.00  0.00     0.230 C 
ATOM     25  C1  ZIN A   1      14.460   6.777  18.287  0.00  0.00     0.034 C 
ENDBRANCH  20  24
ENDBRANCH  16  17
ENDBRANCH  13  16
ENDBRANCH   8  10
ENDBRANCH   1   8
BRANCH   6  26
ATOM     26  C20 ZIN A   1      19.134  -2.468   9.726  0.00  0.00     0.002 A 
ATOM     27  C33 ZIN A   1      18.806  -1.842   8.527  0.00  0.00     0.046 A 
ATOM     28  C32 ZIN A   1      18.630  -2.602   7.383  0.00  0.00     0.069 A 
ATOM     29  C24 ZIN A   1      18.773  -4.000   7.438  0.00  0.00     0.124 A 
ATOM     30  N28 ZIN A   1      18.313  -2.304   6.071  0.00  0.00    -0.329 N 
ATOM     31  C22 ZIN A   1      19.098  -4.615   8.654  0.00  0.00     0.148 A 
ATOM     32  N25 ZIN A   1      18.541  -4.471   6.187  0.00  0.00    -0.230 NA
ATOM     33  C21 ZIN A   1      19.275  -3.860   9.776  0.00  0.00     0.058 A 
ATOM     34  F23 ZIN A   1      19.237  -5.958   8.715  0.00  0.00    -0.203 F 
ATOM     35  C26 ZIN A   1      18.273  -3.480   5.389  0.00  0.00     0.104 A 
ATOM     36  C27 ZIN A   1      17.962  -3.614   3.920  0.00  0.00     0.091 C 
BRANCH  30  37
ATOM     37  C29 ZIN A   1      18.066  -0.969   5.519  0.00  0.00     0.083 C 
ATOM     38  C30 ZIN A   1      17.197  -0.169   6.491  0.00  0.00     0.032 C 
ATOM     39  C31 ZIN A   1      19.400  -0.248   5.314  0.00  0.00     0.032 C 
ENDBRANCH  30  37
ENDBRANCH   6  26
TORSDOF 7
ENDMDL
MODEL 8
REMARK VINA RESULT:      -8.7      2.852      5.448
REMARK  7 active torsions:
REMARK  status: ('A' for Active; 'I' for Inactive)
REMARK    1  A    between atoms: C2_2  and  N3_3 
REMARK    2  A    between atoms: N7_7  and  C8_8 
REMARK    3  A    between atoms: C8_8  and  C9_9 
REMARK    4  A    between atoms: C12_12  and  N13_13 
REMARK    5  A    between atoms: N13_13  and  C14_14 
REMARK    6  A    between atoms: C19_19  and  C20_20 
REMARK    7  A    between atoms: N28_28  and  C29_29 
ROOT
ATOM      1  C14 ZIN A   1      19.241  -1.013  15.286  0.00  0.00     0.728 A 
ATOM      2  N15 ZIN A   1      19.243  -1.845  16.317  0.00  0.00    -0.072 NA
ATOM      3  C16 ZIN A   1      19.034  -1.406  17.548  0.00  0.00     0.181 A 
ATOM      4  C17 ZIN A   1      18.809  -0.056  17.756  0.00  0.00     0.164 A 
ATOM      5  F18 ZIN A   1      18.593   0.426  19.000  0.00  0.00    -0.202 F 
ATOM      6  C19 ZIN A   1      18.814   0.798  16.647  0.00  0.00     0.126 A 
ATOM      7  N34 ZIN A   1      19.036   0.284  15.439  0.00  0.00    -0.059 NA
ENDROOT
BRANCH   1   8
ATOM      8  N13 ZIN A   1      19.465  -1.516  14.012  0.00  0.00    -0.171 N 
ATOM      9  H52 ZIN A   1      19.878  -2.386  13.900  0.00  0.00     0.186 HD
BRANCH   8  10
ATOM     10  C12 ZIN A   1      19.098  -0.771  12.895  0.00  0.00     0.142 A 
ATOM     11  C11 ZIN A   1      17.755  -0.664  12.550  0.00  0.00     0.051 A 
ATOM     12  C10 ZIN A   1      17.402   0.081  11.438  0.00  0.00     0.014 A 
ATOM     13  C9  ZIN A   1      18.409   0.694  10.706  0.00  0.00    -0.012 A 
ATOM     14  C36 ZIN A   1      19.723   0.540  11.102  0.00  0.00     0.128 A 
ATOM     15  N35 ZIN A   1      20.029  -0.172  12.170  0.00  0.00    -0.242 NA
BRANCH  13  16
ATOM     16  C8  ZIN A   1      18.072   1.513   9.487  0.00  0.00     0.312 C 
BRANCH  16  17
ATOM     17  N7  ZIN A   1      18.461   0.776   8.277  0.00  0.00     0.096 N 
ATOM     18  C6  ZIN A   1      18.833   1.697   7.195  0.00  0.00     0.300 C 
ATOM     19  C5  ZIN A   1      19.286   0.891   5.976  0.00  0.00     0.265 C 
ATOM     20  N3  ZIN A   1      18.195   0.010   5.538  0.00  0.00    -0.068 N 
ATOM     21  H4  ZIN A   1      17.387   0.566   5.305  0.00  0.00     0.280 HD
ATOM     22  C38 ZIN A   1      17.852  -0.921   6.622  0.00  0.00     0.265 C 
ATOM     23  C37 ZIN A   1      17.386  -0.129   7.846  0.00  0.00     0.300 C 
BRANCH  20  24
ATOM     24  C2  ZIN A   1      18.624  -0.751   4.357  0.00  0.00     0.230 C 
ATOM     25  C1  ZIN A   1      18.668  -2.241   4.699  0.00  0.00     0.034 C 
ENDBRANCH  20  24
ENDBRANCH  16  17
ENDBRANCH  13  16
ENDBRANCH   8  10
ENDBRANCH   1   8
BRANCH   6  26
ATOM     26  C20 ZIN A   1      18.578   2.251  16.815  0.00  0.00     0.002 A 
ATOM     27  C33 ZIN A   1      18.537   3.081  15.699  0.00  0.00     0.046 A 
ATOM     28  C32 ZIN A   1      18.313   4.438  15.862  0.00  0.00     0.069 A 
ATOM     29  C24 ZIN A   1      18.137   4.972  17.151  0.00  0.00     0.124 A 
ATOM     30  N28 ZIN A   1      18.213   5.507  14.991  0.00  0.00    -0.329 N 
ATOM     31  C22 ZIN A   1      18.187   4.124  18.264  0.00  0.00     0.148 A 
ATOM     32  N25 ZIN A   1      17.945   6.307  17.002  0.00  0.00    -0.230 NA
ATOM     33  C21 ZIN A   1      18.403   2.787  18.096  0.00  0.00     0.058 A 
ATOM     34  F23 ZIN A   1      18.020   4.630  19.506  0.00  0.00    -0.203 F 
ATOM     35  C26 ZIN A   1      17.989   6.619  15.741  0.00  0.00     0.104 A 
ATOM     36  C27 ZIN A   1      17.816   8.011  15.188  0.00  0.00     0.091 C 
BRANCH  30  37
ATOM     37  C29 ZIN A   1      18.328   5.451  13.531  0.00  0.00     0.083 C 
ATOM     38  C30 ZIN A   1      19.595   4.682  13.149  0.00  0.00     0.032 C 
ATOM     39  C31 ZIN A   1      17.104   4.740  12.950  0.00  0.00     0.032 C 
ENDBRANCH  30  37
ENDBRANCH   6  26
TORSDOF 7
ENDMDL
MODEL 9
REMARK VINA RESULT:      -8.6      3.715     11.336
REMARK  7 active torsions:
REMARK  status: ('A' for Active; 'I' for Inactive)
REMARK    1  A    between atoms: C2_2  and  N3_3 
REMARK    2  A    between atoms: N7_7  and  C8_8 
REMARK    3  A    between atoms: C8_8  and  C9_9 
REMARK    4  A    between atoms: C12_12  and  N13_13 
REMARK    5  A    between atoms: N13_13  and  C14_14 
REMARK    6  A    between atoms: C19_19  and  C20_20 
REMARK    7  A    between atoms: N28_28  and  C29_29 
ROOT
ATOM      1  C14 ZIN A   1      18.888  -3.240   9.236  0.00  0.00     0.728 A 
ATOM      2  N15 ZIN A   1      19.401  -3.907  10.260  0.00  0.00    -0.072 NA
ATOM      3  C16 ZIN A   1      18.936  -5.100  10.598  0.00  0.00     0.181 A 
ATOM      4  C17 ZIN A   1      17.899  -5.655   9.868  0.00  0.00     0.164 A 
ATOM      5  F18 ZIN A   1      17.401  -6.869  10.186  0.00  0.00    -0.202 F 
ATOM      6  C19 ZIN A   1      17.378  -4.925   8.793  0.00  0.00     0.126 A 
ATOM      7  N34 ZIN A   1      17.893  -3.729   8.515  0.00  0.00    -0.059 NA
ENDROOT
BRANCH   1   8
ATOM      8  N13 ZIN A   1      19.405  -1.993   8.917  0.00  0.00    -0.171 N 
ATOM      9  H52 ZIN A   1      19.890  -1.867   8.087  0.00  0.00     0.186 HD
BRANCH   8  10
ATOM     10  C12 ZIN A   1      19.227  -0.922   9.788  0.00  0.00     0.142 A 
ATOM     11  C11 ZIN A   1      18.051  -0.182   9.740  0.00  0.00     0.051 A 
ATOM     12  C10 ZIN A   1      17.886   0.879  10.612  0.00  0.00     0.014 A 
ATOM     13  C9  ZIN A   1      18.908   1.165  11.507  0.00  0.00    -0.012 A 
ATOM     14  C36 ZIN A   1      20.053   0.392  11.496  0.00  0.00     0.128 A 
ATOM     15  N35 ZIN A   1      20.179  -0.617  10.656  0.00  0.00    -0.242 NA
BRANCH  13  16
ATOM     16  C8  ZIN A   1      18.773   2.312  12.475  0.00  0.00     0.312 C 
BRANCH  16  17
ATOM     17  N7  ZIN A   1      18.795   1.798  13.851  0.00  0.00     0.096 N 
ATOM     18  C6  ZIN A   1      17.627   0.946  14.113  0.00  0.00     0.300 C 
ATOM     19  C5  ZIN A   1      17.718   0.384  15.534  0.00  0.00     0.265 C 
ATOM     20  N3  ZIN A   1      17.764   1.493  16.497  0.00  0.00    -0.068 N 
ATOM     21  H4  ZIN A   1      16.934   2.057  16.401  0.00  0.00     0.280 HD
ATOM     22  C38 ZIN A   1      18.951   2.320  16.237  0.00  0.00     0.265 C 
ATOM     23  C37 ZIN A   1      18.868   2.898  14.822  0.00  0.00     0.300 C 
BRANCH  20  24
ATOM     24  C2  ZIN A   1      17.834   0.953  17.861  0.00  0.00     0.230 C 
ATOM     25  C1  ZIN A   1      19.283   0.990  18.351  0.00  0.00     0.034 C 
ENDBRANCH  20  24
ENDBRANCH  16  17
ENDBRANCH  13  16
ENDBRANCH   8  10
ENDBRANCH   1   8
BRANCH   6  26
ATOM     26  C20 ZIN A   1      16.267  -5.473   7.978  0.00  0.00     0.002 A 
ATOM     27  C33 ZIN A   1      16.449  -5.694   6.617  0.00  0.00     0.046 A 
ATOM     28  C32 ZIN A   1      15.408  -6.209   5.862  0.00  0.00     0.069 A 
ATOM     29  C24 ZIN A   1      14.174  -6.499   6.470  0.00  0.00     0.124 A 
ATOM     30  N28 ZIN A   1      15.262  -6.540   4.528  0.00  0.00    -0.329 N 
ATOM     31  C22 ZIN A   1      14.006  -6.266   7.840  0.00  0.00     0.148 A 
ATOM     32  N25 ZIN A   1      13.358  -6.979   5.498  0.00  0.00    -0.230 NA
ATOM     33  C21 ZIN A   1      15.037  -5.763   8.580  0.00  0.00     0.058 A 
ATOM     34  F23 ZIN A   1      12.823  -6.541   8.432  0.00  0.00    -0.203 F 
ATOM     35  C26 ZIN A   1      13.994  -7.003   4.364  0.00  0.00     0.104 A 
ATOM     36  C27 ZIN A   1      13.410  -7.476   3.057  0.00  0.00     0.091 C 
BRANCH  30  37
ATOM     37  C29 ZIN A   1      16.283  -6.414   3.484  0.00  0.00     0.083 C 
ATOM     38  C30 ZIN A   1      16.813  -4.979   3.460  0.00  0.00     0.032 C 
ATOM     39  C31 ZIN A   1      17.434  -7.378   3.780  0.00  0.00     0.032 C 
ENDBRANCH  30  37
ENDBRANCH   6  26
TORSDOF 7
ENDMDL
