MODEL 1
REMARK VINA RESULT:      -7.9      0.000      0.000
REMARK  5 active torsions:
REMARK  status: ('A' for Active; 'I' for Inactive)
REMARK    1  A    between atoms: C3_3  and  C4_4 
REMARK    2  A    between atoms: C8_8  and  C9_9 
REMARK    3  A    between atoms: C12_12  and  O13_13 
REMARK    4  A    between atoms: O13_13  and  C14_14 
REMARK    5  A    between atoms: C14_14  and  C15_15 
ROOT
ATOM      1  C9  ZIN A   1      18.859   1.526  12.596  0.00  0.00     0.001 A 
ATOM      2  C10 ZIN A   1      19.386   0.600  11.689  0.00  0.00     0.017 A 
ATOM      3  C11 ZIN A   1      19.391   0.876  10.340  0.00  0.00     0.039 A 
ATOM      4  C12 ZIN A   1      18.875   2.076   9.869  0.00  0.00     0.089 A 
ATOM      5  C18 ZIN A   1      18.344   3.013  10.770  0.00  0.00     0.078 A 
ATOM      6  C19 ZIN A   1      17.811   4.251  10.289  0.00  0.00     0.102 C 
ATOM      7  N20 ZIN A   1      17.387   5.233   9.906  0.00  0.00    -0.191 NA
ATOM      8  C21 ZIN A   1      18.333   2.730  12.135  0.00  0.00     0.039 A 
ENDROOT
BRANCH   4   9
ATOM      9  O13 ZIN A   1      18.884   2.344   8.540  0.00  0.00    -0.349 OA
BRANCH   9  10
ATOM     10  C14 ZIN A   1      19.447   1.349   7.682  0.00  0.00     0.179 C 
BRANCH  10  11
ATOM     11  C15 ZIN A   1      18.426   0.967   6.608  0.00  0.00     0.002 C 
ATOM     12  C16 ZIN A   1      19.157   0.393   5.392  0.00  0.00     0.011 C 
ATOM     13  C17 ZIN A   1      17.467  -0.084   7.169  0.00  0.00     0.011 C 
ENDBRANCH  10  11
ENDBRANCH   9  10
ENDBRANCH   4   9
BRANCH   1  14
ATOM     14  C8  ZIN A   1      18.855   1.223  14.042  0.00  0.00     0.109 A 
ATOM     15  S7  ZIN A   1      18.796   2.397  15.282  0.00  0.00    -0.061 SA
ATOM     16  C3  ZIN A   1      18.834   1.128  16.503  0.00  0.00     0.107 A 
ATOM     17  C2  ZIN A   1      18.888  -0.078  15.851  0.00  0.00     0.056 A 
ATOM     18  C1  ZIN A   1      18.934  -1.400  16.573  0.00  0.00     0.072 C 
ATOM     19  N22 ZIN A   1      18.904   0.022  14.551  0.00  0.00    -0.244 NA
BRANCH  16  20
ATOM     20  C4  ZIN A   1      18.812   1.318  17.907  0.00  0.00     0.218 C 
ATOM     21  O5  ZIN A   1      17.741   1.368  18.502  0.00  0.00    -0.643 OA
ATOM     22  O6  ZIN A   1      19.863   1.434  18.526  0.00  0.00    -0.643 OA
ENDBRANCH  16  20
ENDBRANCH   1  14
TORSDOF 5
ENDMDL
MODEL 2
REMARK VINA RESULT:      -7.2      3.853      7.902
REMARK  5 active torsions:
REMARK  status: ('A' for Active; 'I' for Inactive)
REMARK    1  A    between atoms: C3_3  and  C4_4 
REMARK    2  A    between atoms: C8_8  and  C9_9 
REMARK    3  A    between atoms: C12_12  and  O13_13 
REMARK    4  A    between atoms: O13_13  and  C14_14 
REMARK    5  A    between atoms: C14_14  and  C15_15 
ROOT
ATOM      1  C9  ZIN A   1      18.992   1.359   9.546  0.00  0.00     0.001 A 
ATOM      2  C10 ZIN A   1      19.649   1.025  10.736  0.00  0.00     0.017 A 
ATOM      3  C11 ZIN A   1      19.658   1.905  11.794  0.00  0.00     0.039 A 
ATOM      4  C12 ZIN A   1      19.015   3.131  11.691  0.00  0.00     0.089 A 
ATOM      5  C18 ZIN A   1      18.352   3.477  10.503  0.00  0.00     0.078 A 
ATOM      6  C19 ZIN A   1      17.687   4.740  10.392  0.00  0.00     0.102 C 
ATOM      7  N20 ZIN A   1      17.161   5.743  10.305  0.00  0.00    -0.191 NA
ATOM      8  C21 ZIN A   1      18.348   2.588   9.429  0.00  0.00     0.039 A 
ENDROOT
BRANCH   4   9
ATOM      9  O13 ZIN A   1      19.025   3.993  12.737  0.00  0.00    -0.349 OA
BRANCH   9  10
ATOM     10  C14 ZIN A   1      18.169   3.687  13.840  0.00  0.00     0.179 C 
BRANCH  10  11
ATOM     11  C15 ZIN A   1      17.748   4.983  14.534  0.00  0.00     0.002 C 
ATOM     12  C16 ZIN A   1      18.860   6.025  14.384  0.00  0.00     0.011 C 
ATOM     13  C17 ZIN A   1      16.464   5.512  13.892  0.00  0.00     0.011 C 
ENDBRANCH  10  11
ENDBRANCH   9  10
ENDBRANCH   4   9
BRANCH   1  14
ATOM     14  C8  ZIN A   1      18.986   0.411   8.414  0.00  0.00     0.109 A 
ATOM     15  S7  ZIN A   1      18.736   0.846   6.781  0.00  0.00    -0.061 SA
ATOM     16  C3  ZIN A   1      18.904  -0.838   6.292  0.00  0.00     0.107 A 
ATOM     17  C2  ZIN A   1      19.137  -1.580   7.423  0.00  0.00     0.056 A 
ATOM     18  C1  ZIN A   1      19.334  -3.074   7.398  0.00  0.00     0.072 C 
ATOM     19  N22 ZIN A   1      19.166  -0.878   8.521  0.00  0.00    -0.244 NA
BRANCH  16  20
ATOM     20  C4  ZIN A   1      18.815  -1.337   4.969  0.00  0.00     0.218 C 
ATOM     21  O5  ZIN A   1      19.830  -1.478   4.297  0.00  0.00    -0.643 OA
ATOM     22  O6  ZIN A   1      17.723  -1.627   4.496  0.00  0.00    -0.643 OA
ENDBRANCH  16  20
ENDBRANCH   1  14
TORSDOF 5
ENDMDL
MODEL 3
REMARK VINA RESULT:      -7.2      3.298      4.416
REMARK  5 active torsions:
REMARK  status: ('A' for Active; 'I' for Inactive)
REMARK    1  A    between atoms: C3_3  and  C4_4 
REMARK    2  A    between atoms: C8_8  and  C9_9 
REMARK    3  A    between atoms: C12_12  and  O13_13 
REMARK    4  A    between atoms: O13_13  and  C14_14 
REMARK    5  A    between atoms: C14_14  and  C15_15 
ROOT
ATOM      1  C9  ZIN A   1      18.028   3.287  11.622  0.00  0.00     0.001 A 
ATOM      2  C10 ZIN A   1      18.451   3.623  10.331  0.00  0.00     0.017 A 
ATOM      3  C11 ZIN A   1      18.505   2.661   9.348  0.00  0.00     0.039 A 
ATOM      4  C12 ZIN A   1      18.139   1.352   9.628  0.00  0.00     0.089 A 
ATOM      5  C18 ZIN A   1      17.713   1.003  10.919  0.00  0.00     0.078 A 
ATOM      6  C19 ZIN A   1      17.336  -0.346  11.213  0.00  0.00     0.102 C 
ATOM      7  N20 ZIN A   1      17.037  -1.417  11.445  0.00  0.00    -0.191 NA
ATOM      8  C21 ZIN A   1      17.664   1.976  11.917  0.00  0.00     0.039 A 
ENDROOT
BRANCH   4   9
ATOM      9  O13 ZIN A   1      18.193   0.409   8.655  0.00  0.00    -0.349 OA
BRANCH   9  10
ATOM     10  C14 ZIN A   1      19.126   0.624   7.594  0.00  0.00     0.179 C 
BRANCH  10  11
ATOM     11  C15 ZIN A   1      18.373   0.728   6.266  0.00  0.00     0.002 C 
ATOM     12  C16 ZIN A   1      19.264   0.215   5.133  0.00  0.00     0.011 C 
ATOM     13  C17 ZIN A   1      17.099  -0.117   6.336  0.00  0.00     0.011 C 
ENDBRANCH  10  11
ENDBRANCH   9  10
ENDBRANCH   4   9
BRANCH   1  14
ATOM     14  C8  ZIN A   1      17.973   4.324  12.674  0.00  0.00     0.109 A 
ATOM     15  S7  ZIN A   1      19.339   5.084  13.363  0.00  0.00    -0.061 SA
ATOM     16  C3  ZIN A   1      18.294   6.049  14.402  0.00  0.00     0.107 A 
ATOM     17  C2  ZIN A   1      16.995   5.702  14.127  0.00  0.00     0.056 A 
ATOM     18  C1  ZIN A   1      15.814   6.324  14.826  0.00  0.00     0.072 C 
ATOM     19  N22 ZIN A   1      16.875   4.782  13.211  0.00  0.00    -0.244 NA
BRANCH  16  20
ATOM     20  C4  ZIN A   1      18.718   7.012  15.352  0.00  0.00     0.218 C 
ATOM     21  O5  ZIN A   1      19.229   6.650  16.405  0.00  0.00    -0.643 OA
ATOM     22  O6  ZIN A   1      18.573   8.205  15.120  0.00  0.00    -0.643 OA
ENDBRANCH  16  20
ENDBRANCH   1  14
TORSDOF 5
ENDMDL
MODEL 4
REMARK VINA RESULT:      -7.2      3.421      8.208
REMARK  5 active torsions:
REMARK  status: ('A' for Active; 'I' for Inactive)
REMARK    1  A    between atoms: C3_3  and  C4_4 
REMARK    2  A    between atoms: C8_8  and  C9_9 
REMARK    3  A    between atoms: C12_12  and  O13_13 
REMARK    4  A    between atoms: O13_13  and  C14_14 
REMARK    5  A    between atoms: C14_14  and  C15_15 
ROOT
ATOM      1  C9  ZIN A   1      18.097  -0.322  10.221  0.00  0.00     0.001 A 
ATOM      2  C10 ZIN A   1      17.877  -1.267  11.230  0.00  0.00     0.017 A 
ATOM      3  C11 ZIN A   1      17.582  -0.858  12.511  0.00  0.00     0.039 A 
ATOM      4  C12 ZIN A   1      17.498   0.494  12.812  0.00  0.00     0.089 A 
ATOM      5  C18 ZIN A   1      17.717   1.452  11.809  0.00  0.00     0.078 A 
ATOM      6  C19 ZIN A   1      17.632   2.847  12.115  0.00  0.00     0.102 C 
ATOM      7  N20 ZIN A   1      17.566   3.954  12.359  0.00  0.00    -0.191 NA
ATOM      8  C21 ZIN A   1      18.022   1.037  10.513  0.00  0.00     0.039 A 
ENDROOT
BRANCH   4   9
ATOM      9  O13 ZIN A   1      17.206   0.892  14.075  0.00  0.00    -0.349 OA
BRANCH   9  10
ATOM     10  C14 ZIN A   1      18.169   0.595  15.088  0.00  0.00     0.179 C 
BRANCH  10  11
ATOM     11  C15 ZIN A   1      17.528  -0.292  16.157  0.00  0.00     0.002 C 
ATOM     12  C16 ZIN A   1      18.271  -1.629  16.222  0.00  0.00     0.011 C 
ATOM     13  C17 ZIN A   1      17.614   0.405  17.516  0.00  0.00     0.011 C 
ENDBRANCH  10  11
ENDBRANCH   9  10
ENDBRANCH   4   9
BRANCH   1  14
ATOM     14  C8  ZIN A   1      18.414  -0.767   8.849  0.00  0.00     0.109 A 
ATOM     15  S7  ZIN A   1      18.192   0.179   7.443  0.00  0.00    -0.061 SA
ATOM     16  C3  ZIN A   1      18.808  -1.136   6.445  0.00  0.00     0.107 A 
ATOM     17  C2  ZIN A   1      19.128  -2.178   7.279  0.00  0.00     0.056 A 
ATOM     18  C1  ZIN A   1      19.690  -3.485   6.780  0.00  0.00     0.072 C 
ATOM     19  N22 ZIN A   1      18.897  -1.939   8.540  0.00  0.00    -0.244 NA
BRANCH  16  20
ATOM     20  C4  ZIN A   1      18.949  -1.120   5.036  0.00  0.00     0.218 C 
ATOM     21  O5  ZIN A   1      18.008  -1.448   4.322  0.00  0.00    -0.643 OA
ATOM     22  O6  ZIN A   1      20.011  -0.779   4.530  0.00  0.00    -0.643 OA
ENDBRANCH  16  20
ENDBRANCH   1  14
TORSDOF 5
ENDMDL
MODEL 5
REMARK VINA RESULT:      -7.1      2.276      3.508
REMARK  5 active torsions:
REMARK  status: ('A' for Active; 'I' for Inactive)
REMARK    1  A    between atoms: C3_3  and  C4_4 
REMARK    2  A    between atoms: C8_8  and  C9_9 
REMARK    3  A    between atoms: C12_12  and  O13_13 
REMARK    4  A    between atoms: O13_13  and  C14_14 
REMARK    5  A    between atoms: C14_14  and  C15_15 
ROOT
ATOM      1  C9  ZIN A   1      18.177   0.099  12.843  0.00  0.00     0.001 A 
ATOM      2  C10 ZIN A   1      17.398   0.884  11.986  0.00  0.00     0.017 A 
ATOM      3  C11 ZIN A   1      17.153   0.469  10.696  0.00  0.00     0.039 A 
ATOM      4  C12 ZIN A   1      17.677  -0.732  10.236  0.00  0.00     0.089 A 
ATOM      5  C18 ZIN A   1      18.460  -1.528  11.087  0.00  0.00     0.078 A 
ATOM      6  C19 ZIN A   1      19.002  -2.766  10.617  0.00  0.00     0.102 C 
ATOM      7  N20 ZIN A   1      19.433  -3.748  10.243  0.00  0.00    -0.191 NA
ATOM      8  C21 ZIN A   1      18.712  -1.104  12.391  0.00  0.00     0.039 A 
ENDROOT
BRANCH   4   9
ATOM      9  O13 ZIN A   1      17.432  -1.137   8.966  0.00  0.00    -0.349 OA
BRANCH   9  10
ATOM     10  C14 ZIN A   1      17.361  -0.120   7.963  0.00  0.00     0.179 C 
BRANCH  10  11
ATOM     11  C15 ZIN A   1      18.766   0.174   7.435  0.00  0.00     0.002 C 
ATOM     12  C16 ZIN A   1      18.774   0.048   5.910  0.00  0.00     0.011 C 
ATOM     13  C17 ZIN A   1      19.172   1.595   7.831  0.00  0.00     0.011 C 
ENDBRANCH  10  11
ENDBRANCH   9  10
ENDBRANCH   4   9
BRANCH   1  14
ATOM     14  C8  ZIN A   1      18.436   0.550  14.226  0.00  0.00     0.109 A 
ATOM     15  S7  ZIN A   1      18.257  -0.425  15.618  0.00  0.00    -0.061 SA
ATOM     16  C3  ZIN A   1      18.758   0.919  16.640  0.00  0.00     0.107 A 
ATOM     17  C2  ZIN A   1      19.018   1.991  15.823  0.00  0.00     0.056 A 
ATOM     18  C1  ZIN A   1      19.475   3.329  16.346  0.00  0.00     0.072 C 
ATOM     19  N22 ZIN A   1      18.828   1.751  14.556  0.00  0.00    -0.244 NA
BRANCH  16  20
ATOM     20  C4  ZIN A   1      18.874   0.898  18.052  0.00  0.00     0.218 C 
ATOM     21  O5  ZIN A   1      19.973   0.757  18.575  0.00  0.00    -0.643 OA
ATOM     22  O6  ZIN A   1      17.874   1.019  18.750  0.00  0.00    -0.643 OA
ENDBRANCH  16  20
ENDBRANCH   1  14
TORSDOF 5
ENDMDL
MODEL 6
REMARK VINA RESULT:      -6.9      3.560      8.117
REMARK  5 active torsions:
REMARK  status: ('A' for Active; 'I' for Inactive)
REMARK    1  A    between atoms: C3_3  and  C4_4 
REMARK    2  A    between atoms: C8_8  and  C9_9 
REMARK    3  A    between atoms: C12_12  and  O13_13 
REMARK    4  A    between atoms: O13_13  and  C14_14 
REMARK    5  A    between atoms: C14_14  and  C15_15 
ROOT
ATOM      1  C9  ZIN A   1      18.565   1.120   9.444  0.00  0.00     0.001 A 
ATOM      2  C10 ZIN A   1      18.687   2.491   9.190  0.00  0.00     0.017 A 
ATOM      3  C11 ZIN A   1      18.505   3.403  10.205  0.00  0.00     0.039 A 
ATOM      4  C12 ZIN A   1      18.199   2.970  11.489  0.00  0.00     0.089 A 
ATOM      5  C18 ZIN A   1      18.074   1.598  11.755  0.00  0.00     0.078 A 
ATOM      6  C19 ZIN A   1      17.758   1.147  13.077  0.00  0.00     0.102 C 
ATOM      7  N20 ZIN A   1      17.508   0.791  14.125  0.00  0.00    -0.191 NA
ATOM      8  C21 ZIN A   1      18.253   0.675  10.726  0.00  0.00     0.039 A 
ENDROOT
BRANCH   4   9
ATOM      9  O13 ZIN A   1      18.022   3.873  12.485  0.00  0.00    -0.349 OA
BRANCH   9  10
ATOM     10  C14 ZIN A   1      19.106   4.765  12.753  0.00  0.00     0.179 C 
BRANCH  10  11
ATOM     11  C15 ZIN A   1      19.020   5.253  14.200  0.00  0.00     0.002 C 
ATOM     12  C16 ZIN A   1      19.012   4.048  15.144  0.00  0.00     0.011 C 
ATOM     13  C17 ZIN A   1      20.228   6.138  14.513  0.00  0.00     0.011 C 
ENDBRANCH  10  11
ENDBRANCH   9  10
ENDBRANCH   4   9
BRANCH   1  14
ATOM     14  C8  ZIN A   1      18.761   0.147   8.350  0.00  0.00     0.109 A 
ATOM     15  S7  ZIN A   1      18.825  -1.548   8.556  0.00  0.00    -0.061 SA
ATOM     16  C3  ZIN A   1      19.065  -1.763   6.824  0.00  0.00     0.107 A 
ATOM     17  C2  ZIN A   1      19.075  -0.518   6.246  0.00  0.00     0.056 A 
ATOM     18  C1  ZIN A   1      19.259  -0.301   4.766  0.00  0.00     0.072 C 
ATOM     19  N22 ZIN A   1      18.917   0.461   7.093  0.00  0.00    -0.244 NA
BRANCH  16  20
ATOM     20  C4  ZIN A   1      19.221  -2.998   6.148  0.00  0.00     0.218 C 
ATOM     21  O5  ZIN A   1      18.282  -3.479   5.525  0.00  0.00    -0.643 OA
ATOM     22  O6  ZIN A   1      20.295  -3.586   6.188  0.00  0.00    -0.643 OA
ENDBRANCH  16  20
ENDBRANCH   1  14
TORSDOF 5
ENDMDL
MODEL 7
REMARK VINA RESULT:      -6.9      3.544      8.095
REMARK  5 active torsions:
REMARK  status: ('A' for Active; 'I' for Inactive)
REMARK    1  A    between atoms: C3_3  and  C4_4 
REMARK    2  A    between atoms: C8_8  and  C9_9 
REMARK    3  A    between atoms: C12_12  and  O13_13 
REMARK    4  A    between atoms: O13_13  and  C14_14 
REMARK    5  A    between atoms: C14_14  and  C15_15 
ROOT
ATOM      1  C9  ZIN A   1      19.070   1.149   9.803  0.00  0.00     0.001 A 
ATOM      2  C10 ZIN A   1      18.874   2.529   9.684  0.00  0.00     0.017 A 
ATOM      3  C11 ZIN A   1      18.895   3.331  10.802  0.00  0.00     0.039 A 
ATOM      4  C12 ZIN A   1      19.111   2.778  12.057  0.00  0.00     0.089 A 
ATOM      5  C18 ZIN A   1      19.309   1.394  12.189  0.00  0.00     0.078 A 
ATOM      6  C19 ZIN A   1      19.532   0.819  13.481  0.00  0.00     0.102 C 
ATOM      7  N20 ZIN A   1      19.709   0.364  14.506  0.00  0.00    -0.191 NA
ATOM      8  C21 ZIN A   1      19.282   0.581  11.057  0.00  0.00     0.039 A 
ENDROOT
BRANCH   4   9
ATOM      9  O13 ZIN A   1      19.132   3.573  13.155  0.00  0.00    -0.349 OA
BRANCH   9  10
ATOM     10  C14 ZIN A   1      17.869   3.935  13.718  0.00  0.00     0.179 C 
BRANCH  10  11
ATOM     11  C15 ZIN A   1      17.635   5.434  13.522  0.00  0.00     0.002 C 
ATOM     12  C16 ZIN A   1      16.239   5.659  12.937  0.00  0.00     0.011 C 
ATOM     13  C17 ZIN A   1      17.744   6.148  14.870  0.00  0.00     0.011 C 
ENDBRANCH  10  11
ENDBRANCH   9  10
ENDBRANCH   4   9
BRANCH   1  14
ATOM     14  C8  ZIN A   1      19.046   0.293   8.599  0.00  0.00     0.109 A 
ATOM     15  S7  ZIN A   1      18.816   0.863   7.004  0.00  0.00    -0.061 SA
ATOM     16  C3  ZIN A   1      18.942  -0.781   6.384  0.00  0.00     0.107 A 
ATOM     17  C2  ZIN A   1      19.148  -1.616   7.453  0.00  0.00     0.056 A 
ATOM     18  C1  ZIN A   1      19.305  -3.108   7.311  0.00  0.00     0.072 C 
ATOM     19  N22 ZIN A   1      19.190  -1.004   8.605  0.00  0.00    -0.244 NA
BRANCH  16  20
ATOM     20  C4  ZIN A   1      18.847  -1.171   5.026  0.00  0.00     0.218 C 
ATOM     21  O5  ZIN A   1      19.862  -1.280   4.347  0.00  0.00    -0.643 OA
ATOM     22  O6  ZIN A   1      17.751  -1.400   4.529  0.00  0.00    -0.643 OA
ENDBRANCH  16  20
ENDBRANCH   1  14
TORSDOF 5
ENDMDL
MODEL 8
REMARK VINA RESULT:      -6.8      2.392      3.508
REMARK  5 active torsions:
REMARK  status: ('A' for Active; 'I' for Inactive)
REMARK    1  A    between atoms: C3_3  and  C4_4 
REMARK    2  A    between atoms: C8_8  and  C9_9 
REMARK    3  A    between atoms: C12_12  and  O13_13 
REMARK    4  A    between atoms: O13_13  and  C14_14 
REMARK    5  A    between atoms: C14_14  and  C15_15 
ROOT
ATOM      1  C9  ZIN A   1      18.912   2.189  11.594  0.00  0.00     0.001 A 
ATOM      2  C10 ZIN A   1      19.072   2.937  10.422  0.00  0.00     0.017 A 
ATOM      3  C11 ZIN A   1      19.026   2.317   9.193  0.00  0.00     0.039 A 
ATOM      4  C12 ZIN A   1      18.821   0.947   9.107  0.00  0.00     0.089 A 
ATOM      5  C18 ZIN A   1      18.660   0.187  10.276  0.00  0.00     0.078 A 
ATOM      6  C19 ZIN A   1      18.449  -1.227  10.191  0.00  0.00     0.102 C 
ATOM      7  N20 ZIN A   1      18.282  -2.348  10.124  0.00  0.00    -0.191 NA
ATOM      8  C21 ZIN A   1      18.712   0.813  11.520  0.00  0.00     0.039 A 
ENDROOT
BRANCH   4   9
ATOM      9  O13 ZIN A   1      18.776   0.343   7.894  0.00  0.00    -0.349 OA
BRANCH   9  10
ATOM     10  C14 ZIN A   1      19.005   1.167   6.749  0.00  0.00     0.179 C 
BRANCH  10  11
ATOM     11  C15 ZIN A   1      18.291   0.566   5.537  0.00  0.00     0.002 C 
ATOM     12  C16 ZIN A   1      19.247  -0.370   4.794  0.00  0.00     0.011 C 
ATOM     13  C17 ZIN A   1      17.067  -0.223   6.007  0.00  0.00     0.011 C 
ENDBRANCH  10  11
ENDBRANCH   9  10
ENDBRANCH   4   9
BRANCH   1  14
ATOM     14  C8  ZIN A   1      18.963   2.859  12.910  0.00  0.00     0.109 A 
ATOM     15  S7  ZIN A   1      18.716   2.078  14.410  0.00  0.00    -0.061 SA
ATOM     16  C3  ZIN A   1      18.963   3.602  15.258  0.00  0.00     0.107 A 
ATOM     17  C2  ZIN A   1      19.211   4.569  14.317  0.00  0.00     0.056 A 
ATOM     18  C1  ZIN A   1      19.472   6.011  14.670  0.00  0.00     0.072 C 
ATOM     19  N22 ZIN A   1      19.195   4.131  13.089  0.00  0.00    -0.244 NA
BRANCH  16  20
ATOM     20  C4  ZIN A   1      18.913   3.796  16.661  0.00  0.00     0.218 C 
ATOM     21  O5  ZIN A   1      19.842   3.415  17.365  0.00  0.00    -0.643 OA
ATOM     22  O6  ZIN A   1      17.942   4.342  17.170  0.00  0.00    -0.643 OA
ENDBRANCH  16  20
ENDBRANCH   1  14
TORSDOF 5
ENDMDL
MODEL 9
REMARK VINA RESULT:      -6.8      3.565      4.292
REMARK  5 active torsions:
REMARK  status: ('A' for Active; 'I' for Inactive)
REMARK    1  A    between atoms: C3_3  and  C4_4 
REMARK    2  A    between atoms: C8_8  and  C9_9 
REMARK    3  A    between atoms: C12_12  and  O13_13 
REMARK    4  A    between atoms: O13_13  and  C14_14 
REMARK    5  A    between atoms: C14_14  and  C15_15 
ROOT
ATOM      1  C9  ZIN A   1      18.946  -1.084  13.046  0.00  0.00     0.001 A 
ATOM      2  C10 ZIN A   1      19.505  -2.367  13.034  0.00  0.00     0.017 A 
ATOM      3  C11 ZIN A   1      19.505  -3.112  11.876  0.00  0.00     0.039 A 
ATOM      4  C12 ZIN A   1      18.952  -2.596  10.712  0.00  0.00     0.089 A 
ATOM      5  C18 ZIN A   1      18.389  -1.311  10.712  0.00  0.00     0.078 A 
ATOM      6  C19 ZIN A   1      17.817  -0.776   9.514  0.00  0.00     0.102 C 
ATOM      7  N20 ZIN A   1      17.363  -0.352   8.563  0.00  0.00    -0.191 NA
ATOM      8  C21 ZIN A   1      18.383  -0.558  11.886  0.00  0.00     0.039 A 
ENDROOT
BRANCH   4   9
ATOM      9  O13 ZIN A   1      18.956  -3.334   9.574  0.00  0.00    -0.349 OA
BRANCH   9  10
ATOM     10  C14 ZIN A   1      19.389  -4.692   9.683  0.00  0.00     0.179 C 
BRANCH  10  11
ATOM     11  C15 ZIN A   1      18.224  -5.626   9.348  0.00  0.00     0.002 C 
ATOM     12  C16 ZIN A   1      17.383  -5.863  10.605  0.00  0.00     0.011 C 
ATOM     13  C17 ZIN A   1      17.353  -4.987   8.265  0.00  0.00     0.011 C 
ENDBRANCH  10  11
ENDBRANCH   9  10
ENDBRANCH   4   9
BRANCH   1  14
ATOM     14  C8  ZIN A   1      18.949  -0.290  14.292  0.00  0.00     0.109 A 
ATOM     15  S7  ZIN A   1      18.875  -0.949  15.866  0.00  0.00    -0.061 SA
ATOM     16  C3  ZIN A   1      18.929   0.670  16.561  0.00  0.00     0.107 A 
ATOM     17  C2  ZIN A   1      19.000   1.566  15.525  0.00  0.00     0.056 A 
ATOM     18  C1  ZIN A   1      19.062   3.058  15.733  0.00  0.00     0.072 C 
ATOM     19  N22 ZIN A   1      19.001   1.014  14.343  0.00  0.00    -0.244 NA
BRANCH  16  20
ATOM     20  C4  ZIN A   1      18.905   0.988  17.941  0.00  0.00     0.218 C 
ATOM     21  O5  ZIN A   1      17.834   1.105  18.525  0.00  0.00    -0.643 OA
ATOM     22  O6  ZIN A   1      19.956   1.148  18.551  0.00  0.00    -0.643 OA
ENDBRANCH  16  20
ENDBRANCH   1  14
TORSDOF 5
ENDMDL
