MODEL 1
REMARK VINA RESULT:      -9.7      0.000      0.000
REMARK  9 active torsions:
REMARK  status: ('A' for Active; 'I' for Inactive)
REMARK    1  A    between atoms: O2_2  and  C3_3 
REMARK    2  A    between atoms: C12_12  and  O13_13 
REMARK    3  A    between atoms: C17_17  and  O18_18 
REMARK    4  A    between atoms: C17_17  and  C19_19 
REMARK    5  A    between atoms: C23_23  and  O25_24 
REMARK    6  A    between atoms: O25_24  and  C26_25 
REMARK    7  A    between atoms: C29_27  and  N31_28 
REMARK    8  A    between atoms: C35_32  and  O37_33 
REMARK    9  A    between atoms: C42_37  and  O43_38 
ROOT
ATOM      1  C3  ZIN A   1      17.352   3.632  12.640  0.00  0.00     0.083 A 
ATOM      2  C4  ZIN A   1      17.519   4.361  13.813  0.00  0.00     0.038 A 
ATOM      3  C5  ZIN A   1      18.282   3.856  14.847  0.00  0.00     0.004 A 
ATOM      4  C6  ZIN A   1      18.893   2.618  14.732  0.00  0.00     0.017 A 
ATOM      5  C7  ZIN A   1      18.739   1.874  13.569  0.00  0.00     0.032 A 
ATOM      6  C8  ZIN A   1      17.959   2.379  12.513  0.00  0.00     0.062 A 
ATOM      7  C9  ZIN A   1      17.795   1.587  11.279  0.00  0.00     0.200 C 
ATOM      8  O10 ZIN A   1      17.343   2.102  10.273  0.00  0.00    -0.286 OA
ATOM      9  C11 ZIN A   1      18.186   0.166  11.279  0.00  0.00     0.066 A 
ATOM     10  C12 ZIN A   1      17.790  -0.685  10.251  0.00  0.00     0.090 A 
ATOM     11  C14 ZIN A   1      18.168  -2.035  10.260  0.00  0.00     0.014 A 
ATOM     12  C15 ZIN A   1      18.936  -2.528  11.284  0.00  0.00    -0.009 A 
ATOM     13  C16 ZIN A   1      19.381  -3.967  11.344  0.00  0.00     0.088 C 
ATOM     14  C17 ZIN A   1      18.532  -4.833  10.417  0.00  0.00     0.124 C 
ATOM     15  C22 ZIN A   1      18.513  -4.179   9.030  0.00  0.00     0.083 C 
ATOM     16  C23 ZIN A   1      17.693  -2.894   9.116  0.00  0.00     0.164 C 
ATOM     17  C42 ZIN A   1      19.341  -1.686  12.329  0.00  0.00     0.088 A 
ATOM     18  C44 ZIN A   1      18.972  -0.343  12.336  0.00  0.00     0.066 A 
ATOM     19  C45 ZIN A   1      19.385   0.549  13.433  0.00  0.00     0.197 C 
ATOM     20  O46 ZIN A   1      20.249   0.203  14.215  0.00  0.00    -0.286 OA
ENDROOT
BRANCH  16  21
ATOM     21  O25 ZIN A   1      17.830  -2.166   7.894  0.00  0.00    -0.351 OA
BRANCH  21  22
ATOM     22  C26 ZIN A   1      19.184  -1.995   7.469  0.00  0.00     0.263 C 
ATOM     23  O41 ZIN A   1      19.469  -0.602   7.330  0.00  0.00    -0.354 OA
ATOM     24  C38 ZIN A   1      18.625   0.076   6.398  0.00  0.00     0.151 C 
ATOM     25  C35 ZIN A   1      18.805  -0.538   5.007  0.00  0.00     0.177 C 
ATOM     26  C40 ZIN A   1      19.000   1.559   6.354  0.00  0.00     0.042 C 
ATOM     27  C29 ZIN A   1      18.485  -2.035   5.073  0.00  0.00     0.219 C 
ATOM     28  C28 ZIN A   1      19.387  -2.693   6.121  0.00  0.00     0.096 C 
BRANCH  25  29
ATOM     29  O37 ZIN A   1      20.155  -0.357   4.575  0.00  0.00    -0.391 OA
ATOM     30  H64 ZIN A   1      20.253  -0.267   3.617  0.00  0.00     0.210 HD
ENDBRANCH  25  29
BRANCH  27  31
ATOM     31  N31 ZIN A   1      18.726  -2.649   3.760  0.00  0.00    -0.072 N 
ATOM     32  H32 ZIN A   1      17.882  -2.605   3.209  0.00  0.00     0.274 HD
ATOM     33  H33 ZIN A   1      19.464  -2.150   3.286  0.00  0.00     0.274 HD
ATOM     34  H34 ZIN A   1      18.997  -3.613   3.885  0.00  0.00     0.274 HD
ENDBRANCH  27  31
ENDBRANCH  21  22
ENDBRANCH  16  21
BRANCH  10  35
ATOM     35  O13 ZIN A   1      17.033  -0.205   9.234  0.00  0.00    -0.359 OA
ATOM     36  H53 ZIN A   1      16.507   0.573   9.469  0.00  0.00     0.217 HD
ENDBRANCH  10  35
BRANCH  14  37
ATOM     37  O18 ZIN A   1      19.098  -6.141  10.326  0.00  0.00    -0.382 OA
ATOM     38  H56 ZIN A   1      19.539  -6.436  11.134  0.00  0.00     0.211 HD
ENDBRANCH  14  37
BRANCH  14  39
ATOM     39  C19 ZIN A   1      17.126  -4.925  10.955  0.00  0.00     0.157 C 
ATOM     40  C20 ZIN A   1      16.005  -5.381  10.057  0.00  0.00     0.094 C 
ATOM     41  O21 ZIN A   1      16.899  -4.633  12.104  0.00  0.00    -0.295 OA
ENDBRANCH  14  39
BRANCH  17  42
ATOM     42  O43 ZIN A   1      20.096  -2.181  13.340  0.00  0.00    -0.359 OA
ATOM     43  H68 ZIN A   1      20.116  -1.619  14.127  0.00  0.00     0.217 HD
ENDBRANCH  17  42
BRANCH   1  44
ATOM     44  O2  ZIN A   1      16.602   4.133  11.627  0.00  0.00    -0.355 OA
ATOM     45  C1  ZIN A   1      16.985   5.407  11.106  0.00  0.00     0.210 C 
ENDBRANCH   1  44
TORSDOF 9
ENDMDL
MODEL 2
REMARK VINA RESULT:      -8.1      1.157      1.691
REMARK  9 active torsions:
REMARK  status: ('A' for Active; 'I' for Inactive)
REMARK    1  A    between atoms: O2_2  and  C3_3 
REMARK    2  A    between atoms: C12_12  and  O13_13 
REMARK    3  A    between atoms: C17_17  and  O18_18 
REMARK    4  A    between atoms: C17_17  and  C19_19 
REMARK    5  A    between atoms: C23_23  and  O25_24 
REMARK    6  A    between atoms: O25_24  and  C26_25 
REMARK    7  A    between atoms: C29_27  and  N31_28 
REMARK    8  A    between atoms: C35_32  and  O37_33 
REMARK    9  A    between atoms: C42_37  and  O43_38 
ROOT
ATOM      1  C3  ZIN A   1      17.145   4.236  12.801  0.00  0.00     0.083 A 
ATOM      2  C4  ZIN A   1      17.069   4.935  14.002  0.00  0.00     0.038 A 
ATOM      3  C5  ZIN A   1      17.655   4.427  15.144  0.00  0.00     0.004 A 
ATOM      4  C6  ZIN A   1      18.328   3.216  15.112  0.00  0.00     0.017 A 
ATOM      5  C7  ZIN A   1      18.416   2.503  13.923  0.00  0.00     0.032 A 
ATOM      6  C8  ZIN A   1      17.817   3.011  12.755  0.00  0.00     0.062 A 
ATOM      7  C9  ZIN A   1      17.910   2.252  11.494  0.00  0.00     0.200 C 
ATOM      8  O10 ZIN A   1      17.624   2.780  10.435  0.00  0.00    -0.286 OA
ATOM      9  C11 ZIN A   1      18.354   0.846  11.531  0.00  0.00     0.066 A 
ATOM     10  C12 ZIN A   1      18.184   0.014  10.429  0.00  0.00     0.090 A 
ATOM     11  C14 ZIN A   1      18.611  -1.321  10.474  0.00  0.00     0.014 A 
ATOM     12  C15 ZIN A   1      19.203  -1.817  11.607  0.00  0.00    -0.009 A 
ATOM     13  C16 ZIN A   1      19.690  -3.239  11.713  0.00  0.00     0.088 C 
ATOM     14  C17 ZIN A   1      19.058  -4.107  10.628  0.00  0.00     0.124 C 
ATOM     15  C22 ZIN A   1      19.260  -3.412   9.276  0.00  0.00     0.083 C 
ATOM     16  C23 ZIN A   1      18.385  -2.161   9.243  0.00  0.00     0.164 C 
ATOM     17  C42 ZIN A   1      19.379  -0.992  12.727  0.00  0.00     0.088 A 
ATOM     18  C44 ZIN A   1      18.959   0.335  12.699  0.00  0.00     0.066 A 
ATOM     19  C45 ZIN A   1      19.131   1.207  13.874  0.00  0.00     0.197 C 
ATOM     20  O46 ZIN A   1      19.855   0.870  14.791  0.00  0.00    -0.286 OA
ENDROOT
BRANCH  16  21
ATOM     21  O25 ZIN A   1      18.708  -1.391   8.083  0.00  0.00    -0.351 OA
BRANCH  21  22
ATOM     22  C26 ZIN A   1      17.651  -1.314   7.125  0.00  0.00     0.263 C 
ATOM     23  O41 ZIN A   1      17.589  -2.532   6.383  0.00  0.00    -0.354 OA
ATOM     24  C38 ZIN A   1      18.793  -2.852   5.684  0.00  0.00     0.151 C 
ATOM     25  C35 ZIN A   1      19.103  -1.749   4.670  0.00  0.00     0.177 C 
ATOM     26  C40 ZIN A   1      18.621  -4.185   4.953  0.00  0.00     0.042 C 
ATOM     27  C29 ZIN A   1      19.214  -0.408   5.404  0.00  0.00     0.219 C 
ATOM     28  C28 ZIN A   1      17.913  -0.147   6.168  0.00  0.00     0.096 C 
BRANCH  25  29
ATOM     29  O37 ZIN A   1      18.051  -1.678   3.704  0.00  0.00    -0.391 OA
ATOM     30  H64 ZIN A   1      17.169  -1.590   4.089  0.00  0.00     0.210 HD
ENDBRANCH  25  29
BRANCH  27  31
ATOM     31  N31 ZIN A   1      19.437   0.670   4.430  0.00  0.00    -0.072 N 
ATOM     32  H32 ZIN A   1      20.426   0.853   4.353  0.00  0.00     0.274 HD
ATOM     33  H33 ZIN A   1      19.076   0.390   3.531  0.00  0.00     0.274 HD
ATOM     34  H34 ZIN A   1      18.963   1.505   4.739  0.00  0.00     0.274 HD
ENDBRANCH  27  31
ENDBRANCH  21  22
ENDBRANCH  16  21
BRANCH  10  35
ATOM     35  O13 ZIN A   1      17.602   0.497   9.304  0.00  0.00    -0.359 OA
ATOM     36  H53 ZIN A   1      16.832   1.059   9.470  0.00  0.00     0.217 HD
ENDBRANCH  10  35
BRANCH  14  37
ATOM     37  O18 ZIN A   1      19.686  -5.390  10.609  0.00  0.00    -0.382 OA
ATOM     38  H56 ZIN A   1      19.391  -5.982  11.314  0.00  0.00     0.211 HD
ENDBRANCH  14  37
BRANCH  14  39
ATOM     39  C19 ZIN A   1      17.584  -4.268  10.901  0.00  0.00     0.157 C 
ATOM     40  C20 ZIN A   1      16.684  -4.862   9.849  0.00  0.00     0.094 C 
ATOM     41  O21 ZIN A   1      17.126  -3.920  11.963  0.00  0.00    -0.295 OA
ENDBRANCH  14  39
BRANCH  17  42
ATOM     42  O43 ZIN A   1      19.961  -1.489  13.846  0.00  0.00    -0.359 OA
ATOM     43  H68 ZIN A   1      19.334  -1.739  14.539  0.00  0.00     0.217 HD
ENDBRANCH  17  42
BRANCH   1  44
ATOM     44  O2  ZIN A   1      16.568   4.740  11.681  0.00  0.00    -0.355 OA
ATOM     45  C1  ZIN A   1      17.028   6.016  11.233  0.00  0.00     0.210 C 
ENDBRANCH   1  44
TORSDOF 9
ENDMDL
MODEL 3
REMARK VINA RESULT:      -7.1      2.487      5.585
REMARK  9 active torsions:
REMARK  status: ('A' for Active; 'I' for Inactive)
REMARK    1  A    between atoms: O2_2  and  C3_3 
REMARK    2  A    between atoms: C12_12  and  O13_13 
REMARK    3  A    between atoms: C17_17  and  O18_18 
REMARK    4  A    between atoms: C17_17  and  C19_19 
REMARK    5  A    between atoms: C23_23  and  O25_24 
REMARK    6  A    between atoms: O25_24  and  C26_25 
REMARK    7  A    between atoms: C29_27  and  N31_28 
REMARK    8  A    between atoms: C35_32  and  O37_33 
REMARK    9  A    between atoms: C42_37  and  O43_38 
ROOT
ATOM      1  C3  ZIN A   1      19.233   1.594  16.896  0.00  0.00     0.083 A 
ATOM      2  C4  ZIN A   1      19.310   2.726  17.702  0.00  0.00     0.038 A 
ATOM      3  C5  ZIN A   1      18.839   3.941  17.246  0.00  0.00     0.004 A 
ATOM      4  C6  ZIN A   1      18.285   4.052  15.981  0.00  0.00     0.017 A 
ATOM      5  C7  ZIN A   1      18.199   2.934  15.160  0.00  0.00     0.032 A 
ATOM      6  C8  ZIN A   1      18.681   1.693  15.616  0.00  0.00     0.062 A 
ATOM      7  C9  ZIN A   1      18.590   0.507  14.743  0.00  0.00     0.200 C 
ATOM      8  O10 ZIN A   1      18.764  -0.608  15.199  0.00  0.00    -0.286 OA
ATOM      9  C11 ZIN A   1      18.286   0.688  13.312  0.00  0.00     0.066 A 
ATOM     10  C12 ZIN A   1      18.473  -0.350  12.404  0.00  0.00     0.090 A 
ATOM     11  C14 ZIN A   1      18.179  -0.168  11.045  0.00  0.00     0.014 A 
ATOM     12  C15 ZIN A   1      17.702   1.039  10.600  0.00  0.00    -0.009 A 
ATOM     13  C16 ZIN A   1      17.361   1.292   9.154  0.00  0.00     0.088 C 
ATOM     14  C17 ZIN A   1      18.012   0.245   8.254  0.00  0.00     0.124 C 
ATOM     15  C22 ZIN A   1      17.668  -1.145   8.806  0.00  0.00     0.083 C 
ATOM     16  C23 ZIN A   1      18.416  -1.337  10.123  0.00  0.00     0.164 C 
ATOM     17  C42 ZIN A   1      17.511   2.096  11.501  0.00  0.00     0.088 A 
ATOM     18  C44 ZIN A   1      17.800   1.931  12.853  0.00  0.00     0.066 A 
ATOM     19  C45 ZIN A   1      17.611   3.038  13.806  0.00  0.00     0.197 C 
ATOM     20  O46 ZIN A   1      16.975   4.024  13.486  0.00  0.00    -0.286 OA
ENDROOT
BRANCH  16  21
ATOM     21  O25 ZIN A   1      17.956  -2.533  10.756  0.00  0.00    -0.351 OA
BRANCH  21  22
ATOM     22  C26 ZIN A   1      18.688  -3.703  10.386  0.00  0.00     0.263 C 
ATOM     23  O41 ZIN A   1      18.052  -4.333   9.273  0.00  0.00    -0.354 OA
ATOM     24  C38 ZIN A   1      16.698  -4.718   9.516  0.00  0.00     0.151 C 
ATOM     25  C35 ZIN A   1      16.655  -5.732  10.662  0.00  0.00     0.177 C 
ATOM     26  C40 ZIN A   1      16.113  -5.352   8.252  0.00  0.00     0.042 C 
ATOM     27  C29 ZIN A   1      17.297  -5.111  11.907  0.00  0.00     0.219 C 
ATOM     28  C28 ZIN A   1      18.726  -4.676  11.568  0.00  0.00     0.096 C 
BRANCH  25  29
ATOM     29  O37 ZIN A   1      17.377  -6.908  10.289  0.00  0.00    -0.391 OA
ATOM     30  H64 ZIN A   1      18.201  -6.729   9.816  0.00  0.00     0.210 HD
ENDBRANCH  25  29
BRANCH  27  31
ATOM     31  N31 ZIN A   1      17.328  -6.101  12.992  0.00  0.00    -0.072 N 
ATOM     32  H32 ZIN A   1      16.523  -6.704  12.919  0.00  0.00     0.274 HD
ATOM     33  H33 ZIN A   1      18.169  -6.653  12.919  0.00  0.00     0.274 HD
ATOM     34  H34 ZIN A   1      17.313  -5.625  13.881  0.00  0.00     0.274 HD
ENDBRANCH  27  31
ENDBRANCH  21  22
ENDBRANCH  16  21
BRANCH  10  35
ATOM     35  O13 ZIN A   1      18.943  -1.546  12.837  0.00  0.00    -0.359 OA
ATOM     36  H53 ZIN A   1      19.585  -1.478  13.557  0.00  0.00     0.217 HD
ENDBRANCH  10  35
BRANCH  14  37
ATOM     37  O18 ZIN A   1      17.509   0.372   6.923  0.00  0.00    -0.382 OA
ATOM     38  H56 ZIN A   1      17.909  -0.242   6.292  0.00  0.00     0.211 HD
ENDBRANCH  14  37
BRANCH  14  39
ATOM     39  C19 ZIN A   1      19.508   0.435   8.253  0.00  0.00     0.157 C 
ATOM     40  C20 ZIN A   1      20.090   1.813   8.431  0.00  0.00     0.094 C 
ATOM     41  O21 ZIN A   1      20.237  -0.516   8.109  0.00  0.00    -0.295 OA
ENDBRANCH  14  39
BRANCH  17  42
ATOM     42  O43 ZIN A   1      17.043   3.286  11.053  0.00  0.00    -0.359 OA
ATOM     43  H68 ZIN A   1      17.722   3.855  10.661  0.00  0.00     0.217 HD
ENDBRANCH  17  42
BRANCH   1  44
ATOM     44  O2  ZIN A   1      19.695   0.402  17.349  0.00  0.00    -0.355 OA
ATOM     45  C1  ZIN A   1      19.111  -0.106  18.549  0.00  0.00     0.210 C 
ENDBRANCH   1  44
TORSDOF 9
ENDMDL
MODEL 4
REMARK VINA RESULT:      -7.1      4.152      9.639
REMARK  9 active torsions:
REMARK  status: ('A' for Active; 'I' for Inactive)
REMARK    1  A    between atoms: O2_2  and  C3_3 
REMARK    2  A    between atoms: C12_12  and  O13_13 
REMARK    3  A    between atoms: C17_17  and  O18_18 
REMARK    4  A    between atoms: C17_17  and  C19_19 
REMARK    5  A    between atoms: C23_23  and  O25_24 
REMARK    6  A    between atoms: O25_24  and  C26_25 
REMARK    7  A    between atoms: C29_27  and  N31_28 
REMARK    8  A    between atoms: C35_32  and  O37_33 
REMARK    9  A    between atoms: C42_37  and  O43_38 
ROOT
ATOM      1  C3  ZIN A   1      14.644  -9.091   6.243  0.00  0.00     0.083 A 
ATOM      2  C4  ZIN A   1      14.078 -10.024   5.380  0.00  0.00     0.038 A 
ATOM      3  C5  ZIN A   1      14.444 -10.058   4.050  0.00  0.00     0.004 A 
ATOM      4  C6  ZIN A   1      15.380  -9.165   3.554  0.00  0.00     0.017 A 
ATOM      5  C7  ZIN A   1      15.958  -8.225   4.398  0.00  0.00     0.032 A 
ATOM      6  C8  ZIN A   1      15.586  -8.181   5.755  0.00  0.00     0.062 A 
ATOM      7  C9  ZIN A   1      16.200  -7.182   6.650  0.00  0.00     0.200 C 
ATOM      8  O10 ZIN A   1      16.086  -7.285   7.857  0.00  0.00    -0.286 OA
ATOM      9  C11 ZIN A   1      16.953  -6.057   6.065  0.00  0.00     0.066 A 
ATOM     10  C12 ZIN A   1      17.297  -4.950   6.834  0.00  0.00     0.090 A 
ATOM     11  C14 ZIN A   1      18.015  -3.887   6.269  0.00  0.00     0.014 A 
ATOM     12  C15 ZIN A   1      18.386  -3.931   4.949  0.00  0.00    -0.009 A 
ATOM     13  C16 ZIN A   1      19.164  -2.824   4.287  0.00  0.00     0.088 C 
ATOM     14  C17 ZIN A   1      19.082  -1.540   5.110  0.00  0.00     0.124 C 
ATOM     15  C22 ZIN A   1      19.460  -1.873   6.560  0.00  0.00     0.083 C 
ATOM     16  C23 ZIN A   1      18.343  -2.720   7.165  0.00  0.00     0.164 C 
ATOM     17  C42 ZIN A   1      18.044  -5.038   4.159  0.00  0.00     0.088 A 
ATOM     18  C44 ZIN A   1      17.330  -6.101   4.705  0.00  0.00     0.066 A 
ATOM     19  C45 ZIN A   1      16.959  -7.265   3.882  0.00  0.00     0.197 C 
ATOM     20  O46 ZIN A   1      17.471  -7.436   2.792  0.00  0.00    -0.286 OA
ENDROOT
BRANCH  16  21
ATOM     21  O25 ZIN A   1      18.763  -3.210   8.439  0.00  0.00    -0.351 OA
BRANCH  21  22
ATOM     22  C26 ZIN A   1      17.996  -2.708   9.536  0.00  0.00     0.263 C 
ATOM     23  O41 ZIN A   1      18.084  -1.283   9.567  0.00  0.00    -0.354 OA
ATOM     24  C38 ZIN A   1      19.416  -0.783   9.695  0.00  0.00     0.151 C 
ATOM     25  C35 ZIN A   1      20.022  -1.277  11.011  0.00  0.00     0.177 C 
ATOM     26  C40 ZIN A   1      19.391   0.747   9.687  0.00  0.00     0.042 C 
ATOM     27  C29 ZIN A   1      19.988  -2.809  11.036  0.00  0.00     0.219 C 
ATOM     28  C28 ZIN A   1      18.544  -3.280  10.847  0.00  0.00     0.096 C 
BRANCH  25  29
ATOM     29  O37 ZIN A   1      19.263  -0.765  12.109  0.00  0.00    -0.391 OA
ATOM     30  H64 ZIN A   1      19.345   0.190  12.232  0.00  0.00     0.210 HD
ENDBRANCH  25  29
BRANCH  27  31
ATOM     31  N31 ZIN A   1      20.499  -3.292  12.326  0.00  0.00    -0.072 N 
ATOM     32  H32 ZIN A   1      20.684  -2.505  12.929  0.00  0.00     0.274 HD
ATOM     33  H33 ZIN A   1      19.810  -3.891  12.757  0.00  0.00     0.274 HD
ATOM     34  H34 ZIN A   1      21.351  -3.810  12.177  0.00  0.00     0.274 HD
ENDBRANCH  27  31
ENDBRANCH  21  22
ENDBRANCH  16  21
BRANCH  10  35
ATOM     35  O13 ZIN A   1      16.936  -4.900   8.140  0.00  0.00    -0.359 OA
ATOM     36  H53 ZIN A   1      16.537  -4.059   8.405  0.00  0.00     0.217 HD
ENDBRANCH  10  35
BRANCH  14  37
ATOM     37  O18 ZIN A   1      19.991  -0.571   4.586  0.00  0.00    -0.382 OA
ATOM     38  H56 ZIN A   1      20.917  -0.743   4.803  0.00  0.00     0.211 HD
ENDBRANCH  14  37
BRANCH  14  39
ATOM     39  C19 ZIN A   1      17.677  -0.996   5.063  0.00  0.00     0.157 C 
ATOM     40  C20 ZIN A   1      17.236   0.037   6.068  0.00  0.00     0.094 C 
ATOM     41  O21 ZIN A   1      16.906  -1.388   4.221  0.00  0.00    -0.295 OA
ENDBRANCH  14  39
BRANCH  17  42
ATOM     42  O43 ZIN A   1      18.410  -5.073   2.855  0.00  0.00    -0.359 OA
ATOM     43  H68 ZIN A   1      18.105  -4.313   2.339  0.00  0.00     0.217 HD
ENDBRANCH  17  42
BRANCH   1  44
ATOM     44  O2  ZIN A   1      14.282  -9.063   7.550  0.00  0.00    -0.355 OA
ATOM     45  C1  ZIN A   1      12.892  -8.904   7.834  0.00  0.00     0.210 C 
ENDBRANCH   1  44
TORSDOF 9
ENDMDL
MODEL 5
REMARK VINA RESULT:      -6.8      2.439      7.278
REMARK  9 active torsions:
REMARK  status: ('A' for Active; 'I' for Inactive)
REMARK    1  A    between atoms: O2_2  and  C3_3 
REMARK    2  A    between atoms: C12_12  and  O13_13 
REMARK    3  A    between atoms: C17_17  and  O18_18 
REMARK    4  A    between atoms: C17_17  and  C19_19 
REMARK    5  A    between atoms: C23_23  and  O25_24 
REMARK    6  A    between atoms: O25_24  and  C26_25 
REMARK    7  A    between atoms: C29_27  and  N31_28 
REMARK    8  A    between atoms: C35_32  and  O37_33 
REMARK    9  A    between atoms: C42_37  and  O43_38 
ROOT
ATOM      1  C3  ZIN A   1      19.202  -1.566   5.894  0.00  0.00     0.083 A 
ATOM      2  C4  ZIN A   1      19.313  -2.687   5.076  0.00  0.00     0.038 A 
ATOM      3  C5  ZIN A   1      18.889  -3.922   5.523  0.00  0.00     0.004 A 
ATOM      4  C6  ZIN A   1      18.347  -4.065   6.790  0.00  0.00     0.017 A 
ATOM      5  C7  ZIN A   1      18.227  -2.959   7.623  0.00  0.00     0.032 A 
ATOM      6  C8  ZIN A   1      18.662  -1.697   7.176  0.00  0.00     0.062 A 
ATOM      7  C9  ZIN A   1      18.535  -0.524   8.062  0.00  0.00     0.200 C 
ATOM      8  O10 ZIN A   1      18.667   0.601   7.616  0.00  0.00    -0.286 OA
ATOM      9  C11 ZIN A   1      18.247  -0.730   9.493  0.00  0.00     0.066 A 
ATOM     10  C12 ZIN A   1      18.403   0.305  10.410  0.00  0.00     0.090 A 
ATOM     11  C14 ZIN A   1      18.125   0.099  11.769  0.00  0.00     0.014 A 
ATOM     12  C15 ZIN A   1      17.693  -1.128  12.205  0.00  0.00    -0.009 A 
ATOM     13  C16 ZIN A   1      17.370  -1.407  13.650  0.00  0.00     0.088 C 
ATOM     14  C17 ZIN A   1      17.990  -0.346  14.556  0.00  0.00     0.124 C 
ATOM     15  C22 ZIN A   1      17.594   1.036  14.020  0.00  0.00     0.083 C 
ATOM     16  C23 ZIN A   1      18.325   1.267  12.701  0.00  0.00     0.164 C 
ATOM     17  C42 ZIN A   1      17.534  -2.182  11.295  0.00  0.00     0.088 A 
ATOM     18  C44 ZIN A   1      17.808  -1.994   9.942  0.00  0.00     0.066 A 
ATOM     19  C45 ZIN A   1      17.652  -3.097   8.979  0.00  0.00     0.197 C 
ATOM     20  O46 ZIN A   1      17.054  -4.109   9.293  0.00  0.00    -0.286 OA
ENDROOT
BRANCH  16  21
ATOM     21  O25 ZIN A   1      17.820   2.452  12.083  0.00  0.00    -0.351 OA
BRANCH  21  22
ATOM     22  C26 ZIN A   1      18.566   3.631  12.391  0.00  0.00     0.263 C 
ATOM     23  O41 ZIN A   1      17.933   4.330  13.464  0.00  0.00    -0.354 OA
ATOM     24  C38 ZIN A   1      16.586   4.720  13.192  0.00  0.00     0.151 C 
ATOM     25  C35 ZIN A   1      16.562   5.668  11.991  0.00  0.00     0.177 C 
ATOM     26  C40 ZIN A   1      16.003   5.431  14.416  0.00  0.00     0.042 C 
ATOM     27  C29 ZIN A   1      17.203   4.970  10.786  0.00  0.00     0.219 C 
ATOM     28  C28 ZIN A   1      18.623   4.536  11.158  0.00  0.00     0.096 C 
BRANCH  25  29
ATOM     29  O37 ZIN A   1      17.299   6.853  12.303  0.00  0.00    -0.391 OA
ATOM     30  H64 ZIN A   1      18.258   6.745  12.250  0.00  0.00     0.210 HD
ENDBRANCH  25  29
BRANCH  27  31
ATOM     31  N31 ZIN A   1      17.253   5.898   9.649  0.00  0.00    -0.072 N 
ATOM     32  H32 ZIN A   1      17.486   5.388   8.810  0.00  0.00     0.274 HD
ATOM     33  H33 ZIN A   1      16.353   6.340   9.534  0.00  0.00     0.274 HD
ATOM     34  H34 ZIN A   1      17.955   6.602   9.820  0.00  0.00     0.274 HD
ENDBRANCH  27  31
ENDBRANCH  21  22
ENDBRANCH  16  21
BRANCH  10  35
ATOM     35  O13 ZIN A   1      18.827   1.521   9.986  0.00  0.00    -0.359 OA
ATOM     36  H53 ZIN A   1      19.779   1.662  10.086  0.00  0.00     0.217 HD
ENDBRANCH  10  35
BRANCH  14  37
ATOM     37  O18 ZIN A   1      17.501  -0.504  15.889  0.00  0.00    -0.382 OA
ATOM     38  H56 ZIN A   1      16.751   0.067  16.103  0.00  0.00     0.211 HD
ENDBRANCH  14  37
BRANCH  14  39
ATOM     39  C19 ZIN A   1      19.491  -0.484  14.546  0.00  0.00     0.157 C 
ATOM     40  C20 ZIN A   1      20.122  -1.831  14.304  0.00  0.00     0.094 C 
ATOM     41  O21 ZIN A   1      20.187   0.485  14.733  0.00  0.00    -0.295 OA
ENDBRANCH  14  39
BRANCH  17  42
ATOM     42  O43 ZIN A   1      17.111  -3.393  11.733  0.00  0.00    -0.359 OA
ATOM     43  H68 ZIN A   1      17.574  -3.710  12.522  0.00  0.00     0.217 HD
ENDBRANCH  17  42
BRANCH   1  44
ATOM     44  O2  ZIN A   1      19.619  -0.354   5.450  0.00  0.00    -0.355 OA
ATOM     45  C1  ZIN A   1      18.957   0.178   4.301  0.00  0.00     0.210 C 
ENDBRANCH   1  44
TORSDOF 9
ENDMDL
