MODEL 1
REMARK VINA RESULT:     -11.0      0.000      0.000
REMARK  4 active torsions:
REMARK  status: ('A' for Active; 'I' for Inactive)
REMARK    1  A    between atoms: C24_20  and  C26_21 
REMARK       I    between atoms: C26_21  and  N28_23 
REMARK    2  A    between atoms: N28_23  and  C29_24 
REMARK    3  A    between atoms: C31_26  and  C32_27 
REMARK    4  A    between atoms: C38_33  and  C39_34 
ROOT
ATOM      1  C1  ZIN A   1      19.570  -0.172  11.159  0.00  0.00     0.016 C 
ATOM      2  C2  ZIN A   1      18.283   0.320  10.492  0.00  0.00    -0.028 C 
ATOM      3  C3  ZIN A   1      17.110  -0.522  10.957  0.00  0.00     0.011 C 
ATOM      4  C4  ZIN A   1      17.458  -1.992  10.666  0.00  0.00     0.007 C 
ATOM      5  C5  ZIN A   1      17.757  -2.208   9.186  0.00  0.00     0.004 C 
ATOM      6  C7  ZIN A   1      18.876  -1.273   8.696  0.00  0.00    -0.004 C 
ATOM      7  C9  ZIN A   1      19.122  -1.505   7.205  0.00  0.00     0.007 C 
ATOM      8  C10 ZIN A   1      19.526  -2.964   6.966  0.00  0.00     0.026 C 
ATOM      9  C11 ZIN A   1      18.405  -3.878   7.456  0.00  0.00     0.097 C 
ATOM     10  N13 ZIN A   1      18.736  -5.284   7.232  0.00  0.00    -0.352 N 
ATOM     11  C14 ZIN A   1      18.128  -6.235   7.974  0.00  0.00     0.241 C 
ATOM     12  O15 ZIN A   1      18.417  -7.407   7.825  0.00  0.00    -0.269 OA
ATOM     13  C16 ZIN A   1      17.111  -5.840   8.967  0.00  0.00     0.071 C 
ATOM     14  C17 ZIN A   1      17.125  -4.595   9.449  0.00  0.00    -0.009 C 
ATOM     15  C18 ZIN A   1      18.197  -3.650   8.942  0.00  0.00    -0.002 C 
ATOM     16  C19 ZIN A   1      19.497  -3.899   9.710  0.00  0.00     0.022 C 
ATOM     17  C20 ZIN A   1      18.394   0.155   8.952  0.00  0.00    -0.001 C 
ATOM     18  C22 ZIN A   1      19.376   1.270   8.579  0.00  0.00     0.007 C 
ATOM     19  C23 ZIN A   1      18.902   2.459   9.461  0.00  0.00     0.015 C 
ATOM     20  C24 ZIN A   1      18.152   1.828  10.675  0.00  0.00     0.086 C 
ATOM     21  H54 ZIN A   1      19.388  -5.531   6.556  0.00  0.00     0.163 HD
ENDROOT
BRANCH  20  22
ATOM     22  C26 ZIN A   1      18.789   2.267  11.967  0.00  0.00     0.227 C 
ATOM     23  O27 ZIN A   1      19.933   2.672  11.974  0.00  0.00    -0.273 OA
ATOM     24  N28 ZIN A   1      18.089   2.210  13.118  0.00  0.00    -0.326 N 
ATOM     25  H64 ZIN A   1      17.204   1.813  13.128  0.00  0.00     0.169 HD
BRANCH  24  26
ATOM     26  C29 ZIN A   1      18.638   2.725  14.298  0.00  0.00     0.050 A 
ATOM     27  C38 ZIN A   1      18.873   1.886  15.378  0.00  0.00     0.074 A 
ATOM     28  C37 ZIN A   1      19.422   2.395  16.539  0.00  0.00     0.019 A 
ATOM     29  C36 ZIN A   1      19.724   3.742  16.630  0.00  0.00     0.017 A 
ATOM     30  C31 ZIN A   1      19.486   4.580  15.557  0.00  0.00     0.050 A 
ATOM     31  C30 ZIN A   1      18.943   4.076  14.391  0.00  0.00     0.046 A 
BRANCH  27  32
ATOM     32  C39 ZIN A   1      18.544   0.419  15.281  0.00  0.00     0.419 C 
ATOM     33  F40 ZIN A   1      19.429  -0.200  14.392  0.00  0.00    -0.166 F 
ATOM     34  F41 ZIN A   1      18.664  -0.171  16.544  0.00  0.00    -0.166 F 
ATOM     35  F42 ZIN A   1      17.233   0.265  14.818  0.00  0.00    -0.166 F 
ENDBRANCH  27  32
BRANCH  30  36
ATOM     36  C32 ZIN A   1      19.817   6.047  15.660  0.00  0.00     0.417 C 
ATOM     37  F33 ZIN A   1      19.088   6.618  16.708  0.00  0.00    -0.166 F 
ATOM     38  F34 ZIN A   1      21.186   6.199  15.908  0.00  0.00    -0.166 F 
ATOM     39  F35 ZIN A   1      19.487   6.685  14.459  0.00  0.00    -0.166 F 
ENDBRANCH  30  36
ENDBRANCH  24  26
ENDBRANCH  20  22
TORSDOF 4
ENDMDL
MODEL 2
REMARK VINA RESULT:     -10.8      3.930      9.838
REMARK  4 active torsions:
REMARK  status: ('A' for Active; 'I' for Inactive)
REMARK    1  A    between atoms: C24_20  and  C26_21 
REMARK       I    between atoms: C26_21  and  N28_23 
REMARK    2  A    between atoms: N28_23  and  C29_24 
REMARK    3  A    between atoms: C31_26  and  C32_27 
REMARK    4  A    between atoms: C38_33  and  C39_34 
ROOT
ATOM      1  C1  ZIN A   1      19.624   0.855  11.778  0.00  0.00     0.016 C 
ATOM      2  C2  ZIN A   1      18.338   0.373  12.454  0.00  0.00    -0.028 C 
ATOM      3  C3  ZIN A   1      17.169   1.226  11.998  0.00  0.00     0.011 C 
ATOM      4  C4  ZIN A   1      17.532   2.692  12.289  0.00  0.00     0.007 C 
ATOM      5  C5  ZIN A   1      17.843   2.903  13.767  0.00  0.00     0.004 C 
ATOM      6  C7  ZIN A   1      18.957   1.958  14.248  0.00  0.00    -0.004 C 
ATOM      7  C9  ZIN A   1      19.215   2.186  15.737  0.00  0.00     0.007 C 
ATOM      8  C10 ZIN A   1      19.633   3.641  15.976  0.00  0.00     0.026 C 
ATOM      9  C11 ZIN A   1      18.516   4.565  15.496  0.00  0.00     0.097 C 
ATOM     10  N13 ZIN A   1      18.861   5.967  15.719  0.00  0.00    -0.352 N 
ATOM     11  C14 ZIN A   1      18.255   6.925  14.983  0.00  0.00     0.241 C 
ATOM     12  O15 ZIN A   1      18.555   8.094  15.132  0.00  0.00    -0.269 OA
ATOM     13  C16 ZIN A   1      17.228   6.540  13.997  0.00  0.00     0.071 C 
ATOM     14  C17 ZIN A   1      17.228   5.296  13.513  0.00  0.00    -0.009 C 
ATOM     15  C18 ZIN A   1      18.296   4.341  14.011  0.00  0.00    -0.002 C 
ATOM     16  C19 ZIN A   1      19.592   4.580  13.233  0.00  0.00     0.022 C 
ATOM     17  C20 ZIN A   1      18.461   0.535  13.993  0.00  0.00    -0.001 C 
ATOM     18  C22 ZIN A   1      19.437  -0.590  14.357  0.00  0.00     0.007 C 
ATOM     19  C23 ZIN A   1      18.946  -1.773  13.477  0.00  0.00     0.015 C 
ATOM     20  C24 ZIN A   1      18.193  -1.134  12.270  0.00  0.00     0.086 C 
ATOM     21  H54 ZIN A   1      19.519   6.208  16.391  0.00  0.00     0.163 HD
ENDROOT
BRANCH  20  22
ATOM     22  C26 ZIN A   1      18.818  -1.576  10.972  0.00  0.00     0.227 C 
ATOM     23  O27 ZIN A   1      19.993  -1.875  10.934  0.00  0.00    -0.273 OA
ATOM     24  N28 ZIN A   1      18.071  -1.639   9.851  0.00  0.00    -0.326 N 
ATOM     25  H64 ZIN A   1      17.153  -1.325   9.862  0.00  0.00     0.169 HD
BRANCH  24  26
ATOM     26  C29 ZIN A   1      18.619  -2.159   8.673  0.00  0.00     0.050 A 
ATOM     27  C38 ZIN A   1      18.835  -1.329   7.582  0.00  0.00     0.074 A 
ATOM     28  C37 ZIN A   1      19.382  -1.843   6.423  0.00  0.00     0.019 A 
ATOM     29  C36 ZIN A   1      19.704  -3.186   6.344  0.00  0.00     0.017 A 
ATOM     30  C31 ZIN A   1      19.485  -4.016   7.428  0.00  0.00     0.050 A 
ATOM     31  C30 ZIN A   1      18.944  -3.507   8.592  0.00  0.00     0.046 A 
BRANCH  27  32
ATOM     32  C39 ZIN A   1      18.485   0.134   7.665  0.00  0.00     0.419 C 
ATOM     33  F40 ZIN A   1      17.177   0.276   8.139  0.00  0.00    -0.166 F 
ATOM     34  F41 ZIN A   1      19.369   0.776   8.539  0.00  0.00    -0.166 F 
ATOM     35  F42 ZIN A   1      18.587   0.711   6.395  0.00  0.00    -0.166 F 
ENDBRANCH  27  32
BRANCH  30  36
ATOM     36  C32 ZIN A   1      19.837  -5.478   7.339  0.00  0.00     0.417 C 
ATOM     37  F33 ZIN A   1      21.226  -5.621   7.263  0.00  0.00    -0.166 F 
ATOM     38  F34 ZIN A   1      19.362  -6.142   8.477  0.00  0.00    -0.166 F 
ATOM     39  F35 ZIN A   1      19.248  -6.031   6.197  0.00  0.00    -0.166 F 
ENDBRANCH  30  36
ENDBRANCH  24  26
ENDBRANCH  20  22
TORSDOF 4
ENDMDL
MODEL 3
REMARK VINA RESULT:     -10.7      2.575      4.238
REMARK  4 active torsions:
REMARK  status: ('A' for Active; 'I' for Inactive)
REMARK    1  A    between atoms: C24_20  and  C26_21 
REMARK       I    between atoms: C26_21  and  N28_23 
REMARK    2  A    between atoms: N28_23  and  C29_24 
REMARK    3  A    between atoms: C31_26  and  C32_27 
REMARK    4  A    between atoms: C38_33  and  C39_34 
ROOT
ATOM      1  C1  ZIN A   1      17.722   0.630  12.072  0.00  0.00     0.016 C 
ATOM      2  C2  ZIN A   1      19.223   0.334  12.091  0.00  0.00    -0.028 C 
ATOM      3  C3  ZIN A   1      19.937   1.241  11.107  0.00  0.00     0.011 C 
ATOM      4  C4  ZIN A   1      19.267   1.048   9.737  0.00  0.00     0.007 C 
ATOM      5  C5  ZIN A   1      19.315  -0.411   9.297  0.00  0.00     0.004 C 
ATOM      6  C7  ZIN A   1      18.683  -1.337  10.350  0.00  0.00    -0.004 C 
ATOM      7  C9  ZIN A   1      18.779  -2.789   9.880  0.00  0.00     0.007 C 
ATOM      8  C10 ZIN A   1      18.046  -2.951   8.543  0.00  0.00     0.026 C 
ATOM      9  C11 ZIN A   1      18.685  -2.027   7.509  0.00  0.00     0.097 C 
ATOM     10  N13 ZIN A   1      18.030  -2.159   6.209  0.00  0.00    -0.352 N 
ATOM     11  C14 ZIN A   1      18.121  -1.150   5.315  0.00  0.00     0.241 C 
ATOM     12  O15 ZIN A   1      17.554  -1.229   4.242  0.00  0.00    -0.269 OA
ATOM     13  C16 ZIN A   1      18.913   0.047   5.652  0.00  0.00     0.071 C 
ATOM     14  C17 ZIN A   1      19.136   0.337   6.935  0.00  0.00    -0.009 C 
ATOM     15  C18 ZIN A   1      18.555  -0.591   7.984  0.00  0.00    -0.002 C 
ATOM     16  C19 ZIN A   1      17.086  -0.235   8.219  0.00  0.00     0.022 C 
ATOM     17  C20 ZIN A   1      19.475  -1.131  11.641  0.00  0.00    -0.001 C 
ATOM     18  C22 ZIN A   1      18.992  -1.928  12.858  0.00  0.00     0.007 C 
ATOM     19  C23 ZIN A   1      19.543  -1.104  14.054  0.00  0.00     0.015 C 
ATOM     20  C24 ZIN A   1      19.734   0.352  13.527  0.00  0.00     0.086 C 
ATOM     21  H54 ZIN A   1      17.535  -2.965   5.990  0.00  0.00     0.163 HD
ENDROOT
BRANCH  20  22
ATOM     22  C26 ZIN A   1      18.937   1.318  14.365  0.00  0.00     0.227 C 
ATOM     23  O27 ZIN A   1      17.958   0.934  14.969  0.00  0.00    -0.273 OA
ATOM     24  N28 ZIN A   1      19.313   2.611  14.444  0.00  0.00    -0.326 N 
ATOM     25  H64 ZIN A   1      20.047   2.937  13.900  0.00  0.00     0.169 HD
BRANCH  24  26
ATOM     26  C29 ZIN A   1      18.644   3.482  15.311  0.00  0.00     0.050 A 
ATOM     27  C38 ZIN A   1      17.970   4.586  14.804  0.00  0.00     0.074 A 
ATOM     28  C37 ZIN A   1      17.305   5.440  15.661  0.00  0.00     0.019 A 
ATOM     29  C36 ZIN A   1      17.321   5.205  17.025  0.00  0.00     0.017 A 
ATOM     30  C31 ZIN A   1      17.996   4.110  17.532  0.00  0.00     0.050 A 
ATOM     31  C30 ZIN A   1      18.657   3.248  16.679  0.00  0.00     0.046 A 
BRANCH  27  32
ATOM     32  C39 ZIN A   1      17.952   4.843  13.320  0.00  0.00     0.419 C 
ATOM     33  F40 ZIN A   1      17.320   3.779  12.669  0.00  0.00    -0.166 F 
ATOM     34  F41 ZIN A   1      17.255   6.028  13.060  0.00  0.00    -0.166 F 
ATOM     35  F42 ZIN A   1      19.265   4.963  12.851  0.00  0.00    -0.166 F 
ENDBRANCH  27  32
BRANCH  30  36
ATOM     36  C32 ZIN A   1      18.010   3.857  19.017  0.00  0.00     0.417 C 
ATOM     37  F33 ZIN A   1      17.902   5.074  19.699  0.00  0.00    -0.166 F 
ATOM     38  F34 ZIN A   1      16.932   3.034  19.360  0.00  0.00    -0.166 F 
ATOM     39  F35 ZIN A   1      19.209   3.228  19.372  0.00  0.00    -0.166 F 
ENDBRANCH  30  36
ENDBRANCH  24  26
ENDBRANCH  20  22
TORSDOF 4
ENDMDL
MODEL 4
REMARK VINA RESULT:     -10.4      4.332      9.378
REMARK  4 active torsions:
REMARK  status: ('A' for Active; 'I' for Inactive)
REMARK    1  A    between atoms: C24_20  and  C26_21 
REMARK       I    between atoms: C26_21  and  N28_23 
REMARK    2  A    between atoms: N28_23  and  C29_24 
REMARK    3  A    between atoms: C31_26  and  C32_27 
REMARK    4  A    between atoms: C38_33  and  C39_34 
ROOT
ATOM      1  C1  ZIN A   1      17.808  -0.538  11.068  0.00  0.00     0.016 C 
ATOM      2  C2  ZIN A   1      19.304  -0.219  11.047  0.00  0.00    -0.028 C 
ATOM      3  C3  ZIN A   1      20.035  -1.119  12.024  0.00  0.00     0.011 C 
ATOM      4  C4  ZIN A   1      19.365  -0.942  13.397  0.00  0.00     0.007 C 
ATOM      5  C5  ZIN A   1      19.392   0.516  13.844  0.00  0.00     0.004 C 
ATOM      6  C7  ZIN A   1      18.744   1.437  12.796  0.00  0.00    -0.004 C 
ATOM      7  C9  ZIN A   1      18.818   2.887  13.272  0.00  0.00     0.007 C 
ATOM      8  C10 ZIN A   1      18.087   3.033  14.612  0.00  0.00     0.026 C 
ATOM      9  C11 ZIN A   1      18.743   2.114  15.640  0.00  0.00     0.097 C 
ATOM     10  N13 ZIN A   1      18.090   2.231  16.942  0.00  0.00    -0.352 N 
ATOM     11  C14 ZIN A   1      18.199   1.219  17.832  0.00  0.00     0.241 C 
ATOM     12  O15 ZIN A   1      17.633   1.285  18.906  0.00  0.00    -0.269 OA
ATOM     13  C16 ZIN A   1      19.008   0.036  17.488  0.00  0.00     0.071 C 
ATOM     14  C17 ZIN A   1      19.232  -0.246  16.202  0.00  0.00    -0.009 C 
ATOM     15  C18 ZIN A   1      18.634   0.678  15.159  0.00  0.00    -0.002 C 
ATOM     16  C19 ZIN A   1      17.169   0.300  14.926  0.00  0.00     0.022 C 
ATOM     17  C20 ZIN A   1      19.535   1.248  11.502  0.00  0.00    -0.001 C 
ATOM     18  C22 ZIN A   1      19.036   2.043  10.290  0.00  0.00     0.007 C 
ATOM     19  C23 ZIN A   1      19.597   1.232   9.089  0.00  0.00     0.015 C 
ATOM     20  C24 ZIN A   1      19.811  -0.223   9.608  0.00  0.00     0.086 C 
ATOM     21  H54 ZIN A   1      17.583   3.028  17.166  0.00  0.00     0.163 HD
ENDROOT
BRANCH  20  22
ATOM     22  C26 ZIN A   1      19.027  -1.198   8.769  0.00  0.00     0.227 C 
ATOM     23  O27 ZIN A   1      18.022  -0.834   8.194  0.00  0.00    -0.273 OA
ATOM     24  N28 ZIN A   1      19.441  -2.476   8.656  0.00  0.00    -0.326 N 
ATOM     25  H64 ZIN A   1      20.197  -2.789   9.177  0.00  0.00     0.169 HD
BRANCH  24  26
ATOM     26  C29 ZIN A   1      18.781  -3.351   7.786  0.00  0.00     0.050 A 
ATOM     27  C38 ZIN A   1      18.147  -4.482   8.286  0.00  0.00     0.074 A 
ATOM     28  C37 ZIN A   1      17.491  -5.340   7.426  0.00  0.00     0.019 A 
ATOM     29  C36 ZIN A   1      17.475  -5.082   6.067  0.00  0.00     0.017 A 
ATOM     30  C31 ZIN A   1      18.109  -3.960   5.567  0.00  0.00     0.050 A 
ATOM     31  C30 ZIN A   1      18.763  -3.094   6.422  0.00  0.00     0.046 A 
BRANCH  27  32
ATOM     32  C39 ZIN A   1      18.164  -4.764   9.766  0.00  0.00     0.419 C 
ATOM     33  F40 ZIN A   1      19.484  -4.772  10.225  0.00  0.00    -0.166 F 
ATOM     34  F41 ZIN A   1      17.442  -3.771  10.438  0.00  0.00    -0.166 F 
ATOM     35  F42 ZIN A   1      17.577  -6.011  10.009  0.00  0.00    -0.166 F 
ENDBRANCH  27  32
BRANCH  30  36
ATOM     36  C32 ZIN A   1      18.090  -3.682   4.086  0.00  0.00     0.417 C 
ATOM     37  F33 ZIN A   1      19.209  -2.917   3.739  0.00  0.00    -0.166 F 
ATOM     38  F34 ZIN A   1      18.118  -4.893   3.384  0.00  0.00    -0.166 F 
ATOM     39  F35 ZIN A   1      16.925  -2.980   3.758  0.00  0.00    -0.166 F 
ENDBRANCH  30  36
ENDBRANCH  24  26
ENDBRANCH  20  22
TORSDOF 4
ENDMDL
MODEL 5
REMARK VINA RESULT:     -10.1      2.247      3.676
REMARK  4 active torsions:
REMARK  status: ('A' for Active; 'I' for Inactive)
REMARK    1  A    between atoms: C24_20  and  C26_21 
REMARK       I    between atoms: C26_21  and  N28_23 
REMARK    2  A    between atoms: N28_23  and  C29_24 
REMARK    3  A    between atoms: C31_26  and  C32_27 
REMARK    4  A    between atoms: C38_33  and  C39_34 
ROOT
ATOM      1  C1  ZIN A   1      17.903  -0.188  11.663  0.00  0.00     0.016 C 
ATOM      2  C2  ZIN A   1      19.389  -0.430  11.936  0.00  0.00    -0.028 C 
ATOM      3  C3  ZIN A   1      20.197  -0.113  10.693  0.00  0.00     0.011 C 
ATOM      4  C4  ZIN A   1      19.615  -0.953   9.543  0.00  0.00     0.007 C 
ATOM      5  C5  ZIN A   1      19.646  -2.441   9.873  0.00  0.00     0.004 C 
ATOM      6  C7  ZIN A   1      18.915  -2.740  11.193  0.00  0.00    -0.004 C 
ATOM      7  C9  ZIN A   1      18.995  -4.236  11.496  0.00  0.00     0.007 C 
ATOM      8  C10 ZIN A   1      18.350  -5.033  10.357  0.00  0.00     0.026 C 
ATOM      9  C11 ZIN A   1      19.088  -4.727   9.056  0.00  0.00     0.097 C 
ATOM     10  N13 ZIN A   1      18.519  -5.479   7.939  0.00  0.00    -0.352 N 
ATOM     11  C14 ZIN A   1      18.703  -5.033   6.677  0.00  0.00     0.241 C 
ATOM     12  O15 ZIN A   1      18.208  -5.628   5.739  0.00  0.00    -0.269 OA
ATOM     13  C16 ZIN A   1      19.508  -3.820   6.447  0.00  0.00     0.071 C 
ATOM     14  C17 ZIN A   1      19.653  -2.940   7.440  0.00  0.00    -0.009 C 
ATOM     15  C18 ZIN A   1      18.972  -3.242   8.761  0.00  0.00    -0.002 C 
ATOM     16  C19 ZIN A   1      17.503  -2.823   8.682  0.00  0.00     0.022 C 
ATOM     17  C20 ZIN A   1      19.624  -1.927  12.276  0.00  0.00    -0.001 C 
ATOM     18  C22 ZIN A   1      19.033  -2.032  13.687  0.00  0.00     0.007 C 
ATOM     19  C23 ZIN A   1      19.528  -0.726  14.369  0.00  0.00     0.015 C 
ATOM     20  C24 ZIN A   1      19.802   0.289  13.216  0.00  0.00     0.086 C 
ATOM     21  H54 ZIN A   1      18.014  -6.292   8.103  0.00  0.00     0.163 HD
ENDROOT
BRANCH  20  22
ATOM     22  C26 ZIN A   1      18.981   1.537  13.416  0.00  0.00     0.227 C 
ATOM     23  O27 ZIN A   1      17.935   1.485  14.027  0.00  0.00    -0.273 OA
ATOM     24  N28 ZIN A   1      19.410   2.713  12.915  0.00  0.00    -0.326 N 
ATOM     25  H64 ZIN A   1      20.204   2.742  12.359  0.00  0.00     0.169 HD
BRANCH  24  26
ATOM     26  C29 ZIN A   1      18.710   3.891  13.198  0.00  0.00     0.050 A 
ATOM     27  C38 ZIN A   1      17.902   4.470  12.227  0.00  0.00     0.074 A 
ATOM     28  C37 ZIN A   1      17.207   5.629  12.511  0.00  0.00     0.019 A 
ATOM     29  C36 ZIN A   1      17.325   6.221  13.756  0.00  0.00     0.017 A 
ATOM     30  C31 ZIN A   1      18.133   5.649  14.722  0.00  0.00     0.050 A 
ATOM     31  C30 ZIN A   1      18.826   4.487  14.446  0.00  0.00     0.046 A 
BRANCH  27  32
ATOM     32  C39 ZIN A   1      17.773   3.826  10.871  0.00  0.00     0.419 C 
ATOM     33  F40 ZIN A   1      17.156   4.718   9.988  0.00  0.00    -0.166 F 
ATOM     34  F41 ZIN A   1      19.044   3.497  10.388  0.00  0.00    -0.166 F 
ATOM     35  F42 ZIN A   1      17.000   2.665  10.978  0.00  0.00    -0.166 F 
ENDBRANCH  27  32
BRANCH  30  36
ATOM     36  C32 ZIN A   1      18.258   6.296  16.077  0.00  0.00     0.417 C 
ATOM     37  F33 ZIN A   1      18.001   7.667  15.965  0.00  0.00    -0.166 F 
ATOM     38  F34 ZIN A   1      17.335   5.719  16.957  0.00  0.00    -0.166 F 
ATOM     39  F35 ZIN A   1      19.554   6.103  16.568  0.00  0.00    -0.166 F 
ENDBRANCH  30  36
ENDBRANCH  24  26
ENDBRANCH  20  22
TORSDOF 4
ENDMDL
MODEL 6
REMARK VINA RESULT:     -10.0      5.001      9.833
REMARK  4 active torsions:
REMARK  status: ('A' for Active; 'I' for Inactive)
REMARK    1  A    between atoms: C24_20  and  C26_21 
REMARK       I    between atoms: C26_21  and  N28_23 
REMARK    2  A    between atoms: N28_23  and  C29_24 
REMARK    3  A    between atoms: C31_26  and  C32_27 
REMARK    4  A    between atoms: C38_33  and  C39_34 
ROOT
ATOM      1  C1  ZIN A   1      17.755  -0.367  10.316  0.00  0.00     0.016 C 
ATOM      2  C2  ZIN A   1      19.259  -0.083  10.311  0.00  0.00    -0.028 C 
ATOM      3  C3  ZIN A   1      19.971  -1.073  11.213  0.00  0.00     0.011 C 
ATOM      4  C4  ZIN A   1      19.311  -0.984  12.600  0.00  0.00     0.007 C 
ATOM      5  C5  ZIN A   1      19.375   0.435  13.155  0.00  0.00     0.004 C 
ATOM      6  C7  ZIN A   1      18.746   1.448  12.184  0.00  0.00    -0.004 C 
ATOM      7  C9  ZIN A   1      18.858   2.856  12.768  0.00  0.00     0.007 C 
ATOM      8  C10 ZIN A   1      18.135   2.917  14.118  0.00  0.00     0.026 C 
ATOM      9  C11 ZIN A   1      18.772   1.908  15.070  0.00  0.00     0.097 C 
ATOM     10  N13 ZIN A   1      18.127   1.941  16.381  0.00  0.00    -0.352 N 
ATOM     11  C14 ZIN A   1      18.214   0.863  17.191  0.00  0.00     0.241 C 
ATOM     12  O15 ZIN A   1      17.654   0.861  18.271  0.00  0.00    -0.269 OA
ATOM     13  C16 ZIN A   1      18.992  -0.310  16.754  0.00  0.00     0.071 C 
ATOM     14  C17 ZIN A   1      19.205  -0.499  15.450  0.00  0.00    -0.009 C 
ATOM     15  C18 ZIN A   1      18.626   0.516  14.483  0.00  0.00    -0.002 C 
ATOM     16  C19 ZIN A   1      17.152   0.192  14.230  0.00  0.00     0.022 C 
ATOM     17  C20 ZIN A   1      19.527   1.339  10.874  0.00  0.00    -0.001 C 
ATOM     18  C22 ZIN A   1      19.044   2.235   9.729  0.00  0.00     0.007 C 
ATOM     19  C23 ZIN A   1      19.580   1.504   8.467  0.00  0.00     0.015 C 
ATOM     20  C24 ZIN A   1      19.761   0.009   8.874  0.00  0.00     0.086 C 
ATOM     21  H54 ZIN A   1      17.641   2.731  16.667  0.00  0.00     0.163 HD
ENDROOT
BRANCH  20  22
ATOM     22  C26 ZIN A   1      18.950  -0.880   7.967  0.00  0.00     0.227 C 
ATOM     23  O27 ZIN A   1      17.768  -1.050   8.181  0.00  0.00    -0.273 OA
ATOM     24  N28 ZIN A   1      19.538  -1.488   6.917  0.00  0.00    -0.326 N 
ATOM     25  H64 ZIN A   1      20.497  -1.418   6.791  0.00  0.00     0.169 HD
BRANCH  24  26
ATOM     26  C29 ZIN A   1      18.764  -2.220   6.009  0.00  0.00     0.050 A 
ATOM     27  C38 ZIN A   1      18.239  -1.597   4.884  0.00  0.00     0.074 A 
ATOM     28  C37 ZIN A   1      17.481  -2.322   3.986  0.00  0.00     0.019 A 
ATOM     29  C36 ZIN A   1      17.234  -3.665   4.212  0.00  0.00     0.017 A 
ATOM     30  C31 ZIN A   1      17.752  -4.285   5.334  0.00  0.00     0.050 A 
ATOM     31  C30 ZIN A   1      18.516  -3.567   6.233  0.00  0.00     0.046 A 
BRANCH  27  32
ATOM     32  C39 ZIN A   1      18.506  -0.135   4.636  0.00  0.00     0.419 C 
ATOM     33  F40 ZIN A   1      17.771   0.635   5.543  0.00  0.00    -0.166 F 
ATOM     34  F41 ZIN A   1      19.871   0.124   4.804  0.00  0.00    -0.166 F 
ATOM     35  F42 ZIN A   1      18.127   0.193   3.330  0.00  0.00    -0.166 F 
ENDBRANCH  27  32
BRANCH  30  36
ATOM     36  C32 ZIN A   1      17.481  -5.748   5.577  0.00  0.00     0.417 C 
ATOM     37  F33 ZIN A   1      16.563  -5.885   6.623  0.00  0.00    -0.166 F 
ATOM     38  F34 ZIN A   1      16.954  -6.323   4.415  0.00  0.00    -0.166 F 
ATOM     39  F35 ZIN A   1      18.675  -6.393   5.917  0.00  0.00    -0.166 F 
ENDBRANCH  30  36
ENDBRANCH  24  26
ENDBRANCH  20  22
TORSDOF 4
ENDMDL
MODEL 7
REMARK VINA RESULT:     -10.0      5.032     10.087
REMARK  4 active torsions:
REMARK  status: ('A' for Active; 'I' for Inactive)
REMARK    1  A    between atoms: C24_20  and  C26_21 
REMARK       I    between atoms: C26_21  and  N28_23 
REMARK    2  A    between atoms: N28_23  and  C29_24 
REMARK    3  A    between atoms: C31_26  and  C32_27 
REMARK    4  A    between atoms: C38_33  and  C39_34 
ROOT
ATOM      1  C1  ZIN A   1      17.558  -0.540   8.426  0.00  0.00     0.016 C 
ATOM      2  C2  ZIN A   1      19.002  -0.131   8.129  0.00  0.00    -0.028 C 
ATOM      3  C3  ZIN A   1      19.936  -0.783   9.131  0.00  0.00     0.011 C 
ATOM      4  C4  ZIN A   1      19.440  -0.398  10.535  0.00  0.00     0.007 C 
ATOM      5  C5  ZIN A   1      19.391   1.116  10.710  0.00  0.00     0.004 C 
ATOM      6  C7  ZIN A   1      18.528   1.780   9.625  0.00  0.00    -0.004 C 
ATOM      7  C9  ZIN A   1      18.530   3.296   9.823  0.00  0.00     0.007 C 
ATOM      8  C10 ZIN A   1      17.972   3.639  11.209  0.00  0.00     0.026 C 
ATOM      9  C11 ZIN A   1      18.841   2.975  12.274  0.00  0.00     0.097 C 
ATOM     10  N13 ZIN A   1      18.358   3.289  13.617  0.00  0.00    -0.352 N 
ATOM     11  C14 ZIN A   1      18.677   2.470  14.645  0.00  0.00     0.241 C 
ATOM     12  O15 ZIN A   1      18.255   2.697  15.762  0.00  0.00    -0.269 OA
ATOM     13  C16 ZIN A   1      19.539   1.300  14.398  0.00  0.00     0.071 C 
ATOM     14  C17 ZIN A   1      19.616   0.799  13.163  0.00  0.00    -0.009 C 
ATOM     15  C18 ZIN A   1      18.802   1.471  12.074  0.00  0.00    -0.002 C 
ATOM     16  C19 ZIN A   1      17.361   0.959  12.129  0.00  0.00     0.022 C 
ATOM     17  C20 ZIN A   1      19.154   1.407   8.281  0.00  0.00    -0.001 C 
ATOM     18  C22 ZIN A   1      18.428   1.926   7.036  0.00  0.00     0.007 C 
ATOM     19  C23 ZIN A   1      18.897   0.945   5.926  0.00  0.00     0.015 C 
ATOM     20  C24 ZIN A   1      19.312  -0.370   6.655  0.00  0.00     0.086 C 
ATOM     21  H54 ZIN A   1      17.814   4.078  13.770  0.00  0.00     0.163 HD
ENDROOT
BRANCH  20  22
ATOM     22  C26 ZIN A   1      18.517  -1.534   6.124  0.00  0.00     0.227 C 
ATOM     23  O27 ZIN A   1      17.459  -1.342   5.562  0.00  0.00    -0.273 OA
ATOM     24  N28 ZIN A   1      18.981  -2.792   6.273  0.00  0.00    -0.326 N 
ATOM     25  H64 ZIN A   1      19.785  -2.953   6.791  0.00  0.00     0.169 HD
BRANCH  24  26
ATOM     26  C29 ZIN A   1      18.303  -3.863   5.680  0.00  0.00     0.050 A 
ATOM     27  C38 ZIN A   1      17.818  -4.899   6.467  0.00  0.00     0.074 A 
ATOM     28  C37 ZIN A   1      17.143  -5.951   5.880  0.00  0.00     0.019 A 
ATOM     29  C36 ZIN A   1      16.962  -5.980   4.509  0.00  0.00     0.017 A 
ATOM     30  C31 ZIN A   1      17.449  -4.952   3.723  0.00  0.00     0.050 A 
ATOM     31  C30 ZIN A   1      18.119  -3.894   4.305  0.00  0.00     0.046 A 
BRANCH  27  32
ATOM     32  C39 ZIN A   1      18.015  -4.869   7.960  0.00  0.00     0.419 C 
ATOM     33  F40 ZIN A   1      19.379  -4.770   8.250  0.00  0.00    -0.166 F 
ATOM     34  F41 ZIN A   1      17.343  -3.766   8.497  0.00  0.00    -0.166 F 
ATOM     35  F42 ZIN A   1      17.502  -6.044   8.522  0.00  0.00    -0.166 F 
ENDBRANCH  27  32
BRANCH  30  36
ATOM     36  C32 ZIN A   1      17.249  -4.987   2.230  0.00  0.00     0.417 C 
ATOM     37  F33 ZIN A   1      16.565  -6.155   1.877  0.00  0.00    -0.166 F 
ATOM     38  F34 ZIN A   1      16.501  -3.871   1.834  0.00  0.00    -0.166 F 
ATOM     39  F35 ZIN A   1      18.494  -4.964   1.592  0.00  0.00    -0.166 F 
ENDBRANCH  30  36
ENDBRANCH  24  26
ENDBRANCH  20  22
TORSDOF 4
ENDMDL
MODEL 8
REMARK VINA RESULT:     -10.0      3.856      9.424
REMARK  4 active torsions:
REMARK  status: ('A' for Active; 'I' for Inactive)
REMARK    1  A    between atoms: C24_20  and  C26_21 
REMARK       I    between atoms: C26_21  and  N28_23 
REMARK    2  A    between atoms: N28_23  and  C29_24 
REMARK    3  A    between atoms: C31_26  and  C32_27 
REMARK    4  A    between atoms: C38_33  and  C39_34 
ROOT
ATOM      1  C1  ZIN A   1      17.845   0.101  10.934  0.00  0.00     0.016 C 
ATOM      2  C2  ZIN A   1      19.283   0.518  10.620  0.00  0.00    -0.028 C 
ATOM      3  C3  ZIN A   1      20.189   0.146  11.778  0.00  0.00     0.011 C 
ATOM      4  C4  ZIN A   1      19.601   0.791  13.044  0.00  0.00     0.007 C 
ATOM      5  C5  ZIN A   1      19.474   2.302  12.889  0.00  0.00     0.004 C 
ATOM      6  C7  ZIN A   1      18.642   2.673  11.650  0.00  0.00    -0.004 C 
ATOM      7  C9  ZIN A   1      18.565   4.194  11.519  0.00  0.00     0.007 C 
ATOM      8  C10 ZIN A   1      17.917   4.791  12.774  0.00  0.00     0.026 C 
ATOM      9  C11 ZIN A   1      18.756   4.416  13.993  0.00  0.00     0.097 C 
ATOM     10  N13 ZIN A   1      18.187   4.979  15.216  0.00  0.00    -0.352 N 
ATOM     11  C14 ZIN A   1      18.486   4.416  16.408  0.00  0.00     0.241 C 
ATOM     12  O15 ZIN A   1      17.994   4.850  17.431  0.00  0.00    -0.269 OA
ATOM     13  C16 ZIN A   1      19.412   3.270  16.455  0.00  0.00     0.071 C 
ATOM     14  C17 ZIN A   1      19.579   2.524  15.360  0.00  0.00    -0.009 C 
ATOM     15  C18 ZIN A   1      18.796   2.903  14.118  0.00  0.00    -0.002 C 
ATOM     16  C19 ZIN A   1      17.379   2.335  14.218  0.00  0.00     0.022 C 
ATOM     17  C20 ZIN A   1      19.357   2.059  10.446  0.00  0.00    -0.001 C 
ATOM     18  C22 ZIN A   1      18.677   2.262   9.088  0.00  0.00     0.007 C 
ATOM     19  C23 ZIN A   1      19.250   1.096   8.235  0.00  0.00     0.015 C 
ATOM     20  C24 ZIN A   1      19.684  -0.010   9.246  0.00  0.00     0.086 C 
ATOM     21  H54 ZIN A   1      17.600   5.751  15.173  0.00  0.00     0.163 HD
ENDROOT
BRANCH  20  22
ATOM     22  C26 ZIN A   1      18.972  -1.302   8.942  0.00  0.00     0.227 C 
ATOM     23  O27 ZIN A   1      17.956  -1.295   8.279  0.00  0.00    -0.273 OA
ATOM     24  N28 ZIN A   1      19.465  -2.468   9.407  0.00  0.00    -0.326 N 
ATOM     25  H64 ZIN A   1      20.230  -2.468  10.002  0.00  0.00     0.169 HD
BRANCH  24  26
ATOM     26  C29 ZIN A   1      18.872  -3.679   9.029  0.00  0.00     0.050 A 
ATOM     27  C38 ZIN A   1      18.471  -4.588   9.999  0.00  0.00     0.074 A 
ATOM     28  C37 ZIN A   1      17.879  -5.778   9.624  0.00  0.00     0.019 A 
ATOM     29  C36 ZIN A   1      17.698  -6.071   8.284  0.00  0.00     0.017 A 
ATOM     30  C31 ZIN A   1      18.102  -5.169   7.317  0.00  0.00     0.050 A 
ATOM     31  C30 ZIN A   1      18.688  -3.974   7.686  0.00  0.00     0.046 A 
BRANCH  27  32
ATOM     32  C39 ZIN A   1      18.667  -4.271  11.459  0.00  0.00     0.419 C 
ATOM     33  F40 ZIN A   1      18.021  -3.069  11.767  0.00  0.00    -0.166 F 
ATOM     34  F41 ZIN A   1      18.128  -5.302  12.236  0.00  0.00    -0.166 F 
ATOM     35  F42 ZIN A   1      20.034  -4.149  11.730  0.00  0.00    -0.166 F 
ENDBRANCH  27  32
BRANCH  30  36
ATOM     36  C32 ZIN A   1      17.903  -5.491   5.858  0.00  0.00     0.417 C 
ATOM     37  F33 ZIN A   1      18.469  -6.738   5.574  0.00  0.00    -0.166 F 
ATOM     38  F34 ZIN A   1      16.533  -5.524   5.571  0.00  0.00    -0.166 F 
ATOM     39  F35 ZIN A   1      18.519  -4.509   5.076  0.00  0.00    -0.166 F 
ENDBRANCH  30  36
ENDBRANCH  24  26
ENDBRANCH  20  22
TORSDOF 4
ENDMDL
MODEL 9
REMARK VINA RESULT:      -9.9      2.696      4.049
REMARK  4 active torsions:
REMARK  status: ('A' for Active; 'I' for Inactive)
REMARK    1  A    between atoms: C24_20  and  C26_21 
REMARK       I    between atoms: C26_21  and  N28_23 
REMARK    2  A    between atoms: N28_23  and  C29_24 
REMARK    3  A    between atoms: C31_26  and  C32_27 
REMARK    4  A    between atoms: C38_33  and  C39_34 
ROOT
ATOM      1  C1  ZIN A   1      17.515   0.991  11.731  0.00  0.00     0.016 C 
ATOM      2  C2  ZIN A   1      19.040   0.867  11.778  0.00  0.00    -0.028 C 
ATOM      3  C3  ZIN A   1      19.661   1.787  10.745  0.00  0.00     0.011 C 
ATOM      4  C4  ZIN A   1      19.035   1.437   9.385  0.00  0.00     0.007 C 
ATOM      5  C5  ZIN A   1      19.251  -0.032   9.036  0.00  0.00     0.004 C 
ATOM      6  C7  ZIN A   1      18.713  -0.957  10.140  0.00  0.00    -0.004 C 
ATOM      7  C9  ZIN A   1      18.975  -2.415   9.761  0.00  0.00     0.007 C 
ATOM      8  C10 ZIN A   1      18.283  -2.739   8.433  0.00  0.00     0.026 C 
ATOM      9  C11 ZIN A   1      18.830  -1.814   7.348  0.00  0.00     0.097 C 
ATOM     10  N13 ZIN A   1      18.212  -2.097   6.054  0.00  0.00    -0.352 N 
ATOM     11  C14 ZIN A   1      18.201  -1.140   5.100  0.00  0.00     0.241 C 
ATOM     12  O15 ZIN A   1      17.661  -1.347   4.031  0.00  0.00    -0.269 OA
ATOM     13  C16 ZIN A   1      18.850   0.156   5.367  0.00  0.00     0.071 C 
ATOM     14  C17 ZIN A   1      19.023   0.547   6.632  0.00  0.00    -0.009 C 
ATOM     15  C18 ZIN A   1      18.534  -0.375   7.732  0.00  0.00    -0.002 C 
ATOM     16  C19 ZIN A   1      17.031  -0.172   7.935  0.00  0.00     0.022 C 
ATOM     17  C20 ZIN A   1      19.459  -0.586  11.422  0.00  0.00    -0.001 C 
ATOM     18  C22 ZIN A   1      19.051  -1.356  12.682  0.00  0.00     0.007 C 
ATOM     19  C23 ZIN A   1      19.491  -0.404  13.829  0.00  0.00     0.015 C 
ATOM     20  C24 ZIN A   1      19.526   1.029  13.214  0.00  0.00     0.086 C 
ATOM     21  H54 ZIN A   1      17.812  -2.965   5.882  0.00  0.00     0.163 HD
ENDROOT
BRANCH  20  22
ATOM     22  C26 ZIN A   1      18.615   1.949  13.985  0.00  0.00     0.227 C 
ATOM     23  O27 ZIN A   1      17.552   1.541  14.404  0.00  0.00    -0.273 OA
ATOM     24  N28 ZIN A   1      18.981   3.228  14.210  0.00  0.00    -0.326 N 
ATOM     25  H64 ZIN A   1      19.792   3.577  13.809  0.00  0.00     0.169 HD
BRANCH  24  26
ATOM     26  C29 ZIN A   1      18.192   4.049  15.023  0.00  0.00     0.050 A 
ATOM     27  C38 ZIN A   1      18.480   4.170  16.376  0.00  0.00     0.074 A 
ATOM     28  C37 ZIN A   1      17.703   4.986  17.175  0.00  0.00     0.019 A 
ATOM     29  C36 ZIN A   1      16.632   5.672  16.631  0.00  0.00     0.017 A 
ATOM     30  C31 ZIN A   1      16.341   5.549  15.285  0.00  0.00     0.050 A 
ATOM     31  C30 ZIN A   1      17.117   4.739  14.480  0.00  0.00     0.046 A 
BRANCH  27  32
ATOM     32  C39 ZIN A   1      19.646   3.423  16.970  0.00  0.00     0.419 C 
ATOM     33  F40 ZIN A   1      19.574   3.478  18.365  0.00  0.00    -0.166 F 
ATOM     34  F41 ZIN A   1      19.606   2.088  16.553  0.00  0.00    -0.166 F 
ATOM     35  F42 ZIN A   1      20.842   4.009  16.541  0.00  0.00    -0.166 F 
ENDBRANCH  27  32
BRANCH  30  36
ATOM     36  C32 ZIN A   1      15.174   6.298  14.696  0.00  0.00     0.417 C 
ATOM     37  F33 ZIN A   1      14.019   6.018  15.434  0.00  0.00    -0.166 F 
ATOM     38  F34 ZIN A   1      15.432   7.673  14.741  0.00  0.00    -0.166 F 
ATOM     39  F35 ZIN A   1      14.987   5.902  13.368  0.00  0.00    -0.166 F 
ENDBRANCH  30  36
ENDBRANCH  24  26
ENDBRANCH  20  22
TORSDOF 4
ENDMDL
