MODEL 1
REMARK VINA RESULT:      -9.8      0.000      0.000
REMARK  4 active torsions:
REMARK  status: ('A' for Active; 'I' for Inactive)
REMARK       I    between atoms: N8_8  and  C9_9 
REMARK    1  A    between atoms: C9_9  and  C11_11 
REMARK    2  A    between atoms: C14_14  and  N15_15 
REMARK       I    between atoms: N15_15  and  C16_16 
REMARK    3  A    between atoms: C16_16  and  C18_18 
REMARK    4  A    between atoms: C23_23  and  C24_24 
ROOT
ATOM      1  C11 ZIN A   1      18.449  -2.252   7.833  0.00  0.00     0.032 A 
ATOM      2  C12 ZIN A   1      19.380  -1.241   8.088  0.00  0.00     0.019 A 
ATOM      3  C13 ZIN A   1      19.632  -0.852   9.385  0.00  0.00     0.030 A 
ATOM      4  C14 ZIN A   1      18.962  -1.464  10.439  0.00  0.00     0.035 A 
ATOM      5  C30 ZIN A   1      18.034  -2.470  10.188  0.00  0.00     0.030 A 
ATOM      6  C31 ZIN A   1      17.773  -2.860   8.894  0.00  0.00     0.019 A 
ENDROOT
BRANCH   1   7
ATOM      7  C9  ZIN A   1      18.175  -2.672   6.445  0.00  0.00     0.258 C 
ATOM      8  N8  ZIN A   1      18.463  -3.929   6.053  0.00  0.00    -0.313 N 
ATOM      9  C7  ZIN A   1      18.075  -4.351   4.703  0.00  0.00     0.138 C 
ATOM     10  C32 ZIN A   1      19.116  -4.777   6.944  0.00  0.00     0.050 A 
ATOM     11  C6  ZIN A   1      17.454  -5.753   4.752  0.00  0.00     0.080 C 
ATOM     12  C5  ZIN A   1      16.518  -5.860   5.924  0.00  0.00     0.042 A 
ATOM     13  C4  ZIN A   1      16.930  -5.884   7.227  0.00  0.00     0.093 A 
ATOM     14  N38 ZIN A   1      15.164  -5.961   5.941  0.00  0.00    -0.346 N 
ATOM     15  N3  ZIN A   1      15.845  -6.010   8.000  0.00  0.00    -0.233 NA
ATOM     16  C37 ZIN A   1      18.360  -5.766   7.598  0.00  0.00     0.022 A 
ATOM     17  C2  ZIN A   1      14.784  -6.052   7.238  0.00  0.00     0.101 A 
ATOM     18  C1  ZIN A   1      13.364  -6.187   7.725  0.00  0.00     0.091 C 
ATOM     19  C36 ZIN A   1      18.957  -6.600   8.527  0.00  0.00     0.016 A 
ATOM     20  C35 ZIN A   1      20.308  -6.465   8.795  0.00  0.00     0.001 A 
ATOM     21  C34 ZIN A   1      21.058  -5.508   8.134  0.00  0.00     0.002 A 
ATOM     22  C33 ZIN A   1      20.467  -4.665   7.210  0.00  0.00     0.031 A 
ATOM     23  H64 ZIN A   1      14.577  -5.962   5.169  0.00  0.00     0.167 HD
ATOM     24  O10 ZIN A   1      17.691  -1.884   5.656  0.00  0.00    -0.267 OA
ENDBRANCH   1   7
BRANCH   4  25
ATOM     25  N15 ZIN A   1      19.220  -1.066  11.750  0.00  0.00    -0.323 N 
ATOM     26  C16 ZIN A   1      18.230  -0.549  12.504  0.00  0.00     0.257 C 
ATOM     27  O17 ZIN A   1      17.137  -0.341  12.013  0.00  0.00    -0.267 OA
ATOM     28  H48 ZIN A   1      20.112  -1.162  12.120  0.00  0.00     0.169 HD
BRANCH  26  29
ATOM     29  C18 ZIN A   1      18.471  -0.235  13.926  0.00  0.00     0.043 A 
ATOM     30  C23 ZIN A   1      18.698   1.093  14.329  0.00  0.00    -0.010 A 
ATOM     31  C22 ZIN A   1      18.917   1.375  15.675  0.00  0.00     0.013 A 
ATOM     32  C21 ZIN A   1      18.923   0.352  16.602  0.00  0.00     0.001 A 
ATOM     33  C20 ZIN A   1      18.707  -0.957  16.205  0.00  0.00     0.001 A 
ATOM     34  C19 ZIN A   1      18.482  -1.256  14.877  0.00  0.00     0.018 A 
BRANCH  30  35
ATOM     35  C24 ZIN A   1      18.689   2.187  13.330  0.00  0.00    -0.025 A 
ATOM     36  C29 ZIN A   1      19.710   2.279  12.384  0.00  0.00     0.012 A 
ATOM     37  C28 ZIN A   1      19.693   3.297  11.453  0.00  0.00     0.001 A 
ATOM     38  C27 ZIN A   1      18.674   4.232  11.465  0.00  0.00     0.000 A 
ATOM     39  C26 ZIN A   1      17.662   4.150  12.404  0.00  0.00     0.001 A 
ATOM     40  C25 ZIN A   1      17.665   3.132  13.337  0.00  0.00     0.012 A 
ENDBRANCH  30  35
ENDBRANCH  26  29
ENDBRANCH   4  25
TORSDOF 4
ENDMDL
MODEL 2
REMARK VINA RESULT:      -9.8      3.864     10.954
REMARK  4 active torsions:
REMARK  status: ('A' for Active; 'I' for Inactive)
REMARK       I    between atoms: N8_8  and  C9_9 
REMARK    1  A    between atoms: C9_9  and  C11_11 
REMARK    2  A    between atoms: C14_14  and  N15_15 
REMARK       I    between atoms: N15_15  and  C16_16 
REMARK    3  A    between atoms: C16_16  and  C18_18 
REMARK    4  A    between atoms: C23_23  and  C24_24 
ROOT
ATOM      1  C11 ZIN A   1      18.491   2.342  15.441  0.00  0.00     0.032 A 
ATOM      2  C12 ZIN A   1      19.362   1.279  15.187  0.00  0.00     0.019 A 
ATOM      3  C13 ZIN A   1      19.641   0.916  13.888  0.00  0.00     0.030 A 
ATOM      4  C14 ZIN A   1      19.059   1.607  12.830  0.00  0.00     0.035 A 
ATOM      5  C30 ZIN A   1      18.191   2.666  13.081  0.00  0.00     0.030 A 
ATOM      6  C31 ZIN A   1      17.904   3.030  14.376  0.00  0.00     0.019 A 
ENDROOT
BRANCH   1   7
ATOM      7  C9  ZIN A   1      18.189   2.735  16.831  0.00  0.00     0.258 C 
ATOM      8  N8  ZIN A   1      18.468   3.983  17.255  0.00  0.00    -0.313 N 
ATOM      9  C7  ZIN A   1      18.052   4.378  18.605  0.00  0.00     0.138 C 
ATOM     10  C32 ZIN A   1      19.137   4.849  16.394  0.00  0.00     0.050 A 
ATOM     11  C6  ZIN A   1      17.431   5.780  18.570  0.00  0.00     0.080 C 
ATOM     12  C5  ZIN A   1      16.519   5.910  17.382  0.00  0.00     0.042 A 
ATOM     13  C4  ZIN A   1      16.957   5.961  16.089  0.00  0.00     0.093 A 
ATOM     14  N38 ZIN A   1      15.165   6.011  17.340  0.00  0.00    -0.346 N 
ATOM     15  N3  ZIN A   1      15.888   6.101  15.297  0.00  0.00    -0.233 NA
ATOM     16  C37 ZIN A   1      18.394   5.851  15.745  0.00  0.00     0.022 A 
ATOM     17  C2  ZIN A   1      14.811   6.127  16.038  0.00  0.00     0.101 A 
ATOM     18  C1  ZIN A   1      13.401   6.271  15.524  0.00  0.00     0.091 C 
ATOM     19  C36 ZIN A   1      19.009   6.704  14.845  0.00  0.00     0.016 A 
ATOM     20  C35 ZIN A   1      20.366   6.575  14.601  0.00  0.00     0.001 A 
ATOM     21  C34 ZIN A   1      21.103   5.606  15.258  0.00  0.00     0.002 A 
ATOM     22  C33 ZIN A   1      20.495   4.744  16.154  0.00  0.00     0.031 A 
ATOM     23  H64 ZIN A   1      14.563   5.995  18.100  0.00  0.00     0.167 HD
ATOM     24  O10 ZIN A   1      17.690   1.930  17.595  0.00  0.00    -0.267 OA
ENDBRANCH   1   7
BRANCH   4  25
ATOM     25  N15 ZIN A   1      19.343   1.236  11.517  0.00  0.00    -0.323 N 
ATOM     26  C16 ZIN A   1      18.394   0.650  10.762  0.00  0.00     0.257 C 
ATOM     27  O17 ZIN A   1      17.320   0.359  11.254  0.00  0.00    -0.267 OA
ATOM     28  H48 ZIN A   1      20.225   1.400  11.147  0.00  0.00     0.169 HD
BRANCH  26  29
ATOM     29  C18 ZIN A   1      18.656   0.362   9.339  0.00  0.00     0.043 A 
ATOM     30  C23 ZIN A   1      18.852  -0.962   8.909  0.00  0.00    -0.010 A 
ATOM     31  C22 ZIN A   1      19.091  -1.220   7.562  0.00  0.00     0.013 A 
ATOM     32  C21 ZIN A   1      19.147  -0.177   6.659  0.00  0.00     0.001 A 
ATOM     33  C20 ZIN A   1      18.960   1.128   7.082  0.00  0.00     0.001 A 
ATOM     34  C19 ZIN A   1      18.716   1.403   8.412  0.00  0.00     0.018 A 
BRANCH  30  35
ATOM     35  C24 ZIN A   1      18.791  -2.079   9.881  0.00  0.00    -0.025 A 
ATOM     36  C29 ZIN A   1      19.830  -2.272  10.791  0.00  0.00     0.012 A 
ATOM     37  C28 ZIN A   1      19.765  -3.310  11.698  0.00  0.00     0.001 A 
ATOM     38  C27 ZIN A   1      18.677  -4.165  11.698  0.00  0.00     0.000 A 
ATOM     39  C26 ZIN A   1      17.646  -3.982  10.794  0.00  0.00     0.001 A 
ATOM     40  C25 ZIN A   1      17.697  -2.943   9.886  0.00  0.00     0.012 A 
ENDBRANCH  30  35
ENDBRANCH  26  29
ENDBRANCH   4  25
TORSDOF 4
ENDMDL
MODEL 3
REMARK VINA RESULT:      -9.7      2.666      4.972
REMARK  4 active torsions:
REMARK  status: ('A' for Active; 'I' for Inactive)
REMARK       I    between atoms: N8_8  and  C9_9 
REMARK    1  A    between atoms: C9_9  and  C11_11 
REMARK    2  A    between atoms: C14_14  and  N15_15 
REMARK       I    between atoms: N15_15  and  C16_16 
REMARK    3  A    between atoms: C16_16  and  C18_18 
REMARK    4  A    between atoms: C23_23  and  C24_24 
ROOT
ATOM      1  C11 ZIN A   1      17.157  -6.822   7.584  0.00  0.00     0.032 A 
ATOM      2  C12 ZIN A   1      17.109  -7.142   8.943  0.00  0.00     0.019 A 
ATOM      3  C13 ZIN A   1      17.175  -6.141   9.886  0.00  0.00     0.030 A 
ATOM      4  C14 ZIN A   1      17.287  -4.813   9.487  0.00  0.00     0.035 A 
ATOM      5  C30 ZIN A   1      17.335  -4.491   8.134  0.00  0.00     0.030 A 
ATOM      6  C31 ZIN A   1      17.276  -5.488   7.186  0.00  0.00     0.019 A 
ENDROOT
BRANCH   1   7
ATOM      7  C9  ZIN A   1      17.087  -7.892   6.569  0.00  0.00     0.258 C 
ATOM      8  N8  ZIN A   1      15.898  -8.245   6.043  0.00  0.00    -0.313 N 
ATOM      9  C7  ZIN A   1      15.873  -9.230   4.957  0.00  0.00     0.138 C 
ATOM     10  C32 ZIN A   1      14.740  -7.660   6.551  0.00  0.00     0.050 A 
ATOM     11  C6  ZIN A   1      14.909  -8.769   3.856  0.00  0.00     0.080 C 
ATOM     12  C5  ZIN A   1      15.086  -7.298   3.599  0.00  0.00     0.042 A 
ATOM     13  C4  ZIN A   1      14.711  -6.322   4.479  0.00  0.00     0.093 A 
ATOM     14  N38 ZIN A   1      15.605  -6.668   2.515  0.00  0.00    -0.346 N 
ATOM     15  N3  ZIN A   1      14.990  -5.137   3.924  0.00  0.00    -0.233 NA
ATOM     16  C37 ZIN A   1      14.123  -6.643   5.801  0.00  0.00     0.022 A 
ATOM     17  C2  ZIN A   1      15.530  -5.336   2.749  0.00  0.00     0.101 A 
ATOM     18  C1  ZIN A   1      15.988  -4.254   1.805  0.00  0.00     0.091 C 
ATOM     19  C36 ZIN A   1      12.998  -6.002   6.288  0.00  0.00     0.016 A 
ATOM     20  C35 ZIN A   1      12.474  -6.381   7.512  0.00  0.00     0.001 A 
ATOM     21  C34 ZIN A   1      13.065  -7.398   8.239  0.00  0.00     0.002 A 
ATOM     22  C33 ZIN A   1      14.194  -8.040   7.762  0.00  0.00     0.031 A 
ATOM     23  H64 ZIN A   1      15.968  -7.092   1.721  0.00  0.00     0.167 HD
ATOM     24  O10 ZIN A   1      18.103  -8.455   6.209  0.00  0.00    -0.267 OA
ENDBRANCH   1   7
BRANCH   4  25
ATOM     25  N15 ZIN A   1      17.354  -3.802  10.444  0.00  0.00    -0.323 N 
ATOM     26  C16 ZIN A   1      18.550  -3.320  10.832  0.00  0.00     0.257 C 
ATOM     27  O17 ZIN A   1      19.575  -3.829  10.418  0.00  0.00    -0.267 OA
ATOM     28  H48 ZIN A   1      16.539  -3.446  10.832  0.00  0.00     0.169 HD
BRANCH  26  29
ATOM     29  C18 ZIN A   1      18.620  -2.173  11.759  0.00  0.00     0.043 A 
ATOM     30  C23 ZIN A   1      18.578  -0.858  11.263  0.00  0.00    -0.010 A 
ATOM     31  C22 ZIN A   1      18.637   0.213  12.150  0.00  0.00     0.013 A 
ATOM     32  C21 ZIN A   1      18.751  -0.018  13.506  0.00  0.00     0.001 A 
ATOM     33  C20 ZIN A   1      18.799  -1.313  13.995  0.00  0.00     0.001 A 
ATOM     34  C19 ZIN A   1      18.735  -2.389  13.133  0.00  0.00     0.018 A 
BRANCH  30  35
ATOM     35  C24 ZIN A   1      18.456  -0.614   9.807  0.00  0.00    -0.025 A 
ATOM     36  C29 ZIN A   1      19.592  -0.627   8.998  0.00  0.00     0.012 A 
ATOM     37  C28 ZIN A   1      19.471  -0.404   7.641  0.00  0.00     0.001 A 
ATOM     38  C27 ZIN A   1      18.228  -0.157   7.086  0.00  0.00     0.000 A 
ATOM     39  C26 ZIN A   1      17.099  -0.137   7.884  0.00  0.00     0.001 A 
ATOM     40  C25 ZIN A   1      17.207  -0.365   9.241  0.00  0.00     0.012 A 
ENDBRANCH  30  35
ENDBRANCH  26  29
ENDBRANCH   4  25
TORSDOF 4
ENDMDL
MODEL 4
REMARK VINA RESULT:      -9.5      1.754      3.437
REMARK  4 active torsions:
REMARK  status: ('A' for Active; 'I' for Inactive)
REMARK       I    between atoms: N8_8  and  C9_9 
REMARK    1  A    between atoms: C9_9  and  C11_11 
REMARK    2  A    between atoms: C14_14  and  N15_15 
REMARK       I    between atoms: N15_15  and  C16_16 
REMARK    3  A    between atoms: C16_16  and  C18_18 
REMARK    4  A    between atoms: C23_23  and  C24_24 
ROOT
ATOM      1  C11 ZIN A   1      18.296  -3.055   5.912  0.00  0.00     0.032 A 
ATOM      2  C12 ZIN A   1      19.006  -1.960   5.410  0.00  0.00     0.019 A 
ATOM      3  C13 ZIN A   1      19.274  -0.883   6.226  0.00  0.00     0.030 A 
ATOM      4  C14 ZIN A   1      18.841  -0.885   7.548  0.00  0.00     0.035 A 
ATOM      5  C30 ZIN A   1      18.133  -1.974   8.050  0.00  0.00     0.030 A 
ATOM      6  C31 ZIN A   1      17.857  -3.051   7.239  0.00  0.00     0.019 A 
ENDROOT
BRANCH   1   7
ATOM      7  C9  ZIN A   1      18.007  -4.211   5.041  0.00  0.00     0.258 C 
ATOM      8  N8  ZIN A   1      18.249  -5.462   5.479  0.00  0.00    -0.313 N 
ATOM      9  C7  ZIN A   1      17.846  -6.593   4.638  0.00  0.00     0.138 C 
ATOM     10  C32 ZIN A   1      18.872  -5.631   6.714  0.00  0.00     0.050 A 
ATOM     11  C6  ZIN A   1      17.175  -7.671   5.499  0.00  0.00     0.080 C 
ATOM     12  C5  ZIN A   1      16.237  -7.032   6.485  0.00  0.00     0.042 A 
ATOM     13  C4  ZIN A   1      16.649  -6.289   7.555  0.00  0.00     0.093 A 
ATOM     14  N38 ZIN A   1      14.880  -7.064   6.531  0.00  0.00    -0.346 N 
ATOM     15  N3  ZIN A   1      15.561  -5.898   8.228  0.00  0.00    -0.233 NA
ATOM     16  C37 ZIN A   1      18.082  -6.014   7.812  0.00  0.00     0.022 A 
ATOM     17  C2  ZIN A   1      14.498  -6.354   7.620  0.00  0.00     0.101 A 
ATOM     18  C1  ZIN A   1      13.075  -6.131   8.062  0.00  0.00     0.091 C 
ATOM     19  C36 ZIN A   1      18.651  -6.148   9.067  0.00  0.00     0.016 A 
ATOM     20  C35 ZIN A   1      20.006  -5.919   9.230  0.00  0.00     0.001 A 
ATOM     21  C34 ZIN A   1      20.789  -5.566   8.145  0.00  0.00     0.002 A 
ATOM     22  C33 ZIN A   1      20.227  -5.423   6.888  0.00  0.00     0.031 A 
ATOM     23  H64 ZIN A   1      14.293  -7.507   5.899  0.00  0.00     0.167 HD
ATOM     24  O10 ZIN A   1      17.550  -4.033   3.928  0.00  0.00    -0.267 OA
ENDBRANCH   1   7
BRANCH   4  25
ATOM     25  N15 ZIN A   1      19.113   0.206   8.370  0.00  0.00    -0.323 N 
ATOM     26  C16 ZIN A   1      18.135   0.739   9.128  0.00  0.00     0.257 C 
ATOM     27  O17 ZIN A   1      16.994   0.330   9.025  0.00  0.00    -0.267 OA
ATOM     28  H48 ZIN A   1      20.007   0.583   8.397  0.00  0.00     0.169 HD
BRANCH  26  29
ATOM     29  C18 ZIN A   1      18.447   1.820  10.084  0.00  0.00     0.043 A 
ATOM     30  C23 ZIN A   1      18.863   1.512  11.391  0.00  0.00    -0.010 A 
ATOM     31  C22 ZIN A   1      19.160   2.541  12.279  0.00  0.00     0.013 A 
ATOM     32  C21 ZIN A   1      19.033   3.856  11.879  0.00  0.00     0.001 A 
ATOM     33  C20 ZIN A   1      18.616   4.162  10.594  0.00  0.00     0.001 A 
ATOM     34  C19 ZIN A   1      18.323   3.155   9.697  0.00  0.00     0.018 A 
BRANCH  30  35
ATOM     35  C24 ZIN A   1      18.998   0.098  11.816  0.00  0.00    -0.025 A 
ATOM     36  C29 ZIN A   1      18.053  -0.469  12.670  0.00  0.00     0.012 A 
ATOM     37  C28 ZIN A   1      18.182  -1.787  13.058  0.00  0.00     0.001 A 
ATOM     38  C27 ZIN A   1      19.252  -2.541  12.611  0.00  0.00     0.000 A 
ATOM     39  C26 ZIN A   1      20.196  -1.983  11.768  0.00  0.00     0.001 A 
ATOM     40  C25 ZIN A   1      20.074  -0.667  11.369  0.00  0.00     0.012 A 
ENDBRANCH  30  35
ENDBRANCH  26  29
ENDBRANCH   4  25
TORSDOF 4
ENDMDL
MODEL 5
REMARK VINA RESULT:      -9.5      1.809      3.465
REMARK  4 active torsions:
REMARK  status: ('A' for Active; 'I' for Inactive)
REMARK       I    between atoms: N8_8  and  C9_9 
REMARK    1  A    between atoms: C9_9  and  C11_11 
REMARK    2  A    between atoms: C14_14  and  N15_15 
REMARK       I    between atoms: N15_15  and  C16_16 
REMARK    3  A    between atoms: C16_16  and  C18_18 
REMARK    4  A    between atoms: C23_23  and  C24_24 
ROOT
ATOM      1  C11 ZIN A   1      18.441  -2.501   8.055  0.00  0.00     0.032 A 
ATOM      2  C12 ZIN A   1      19.175  -2.220   9.210  0.00  0.00     0.019 A 
ATOM      3  C13 ZIN A   1      18.855  -1.121   9.977  0.00  0.00     0.030 A 
ATOM      4  C14 ZIN A   1      17.801  -0.294   9.603  0.00  0.00     0.035 A 
ATOM      5  C30 ZIN A   1      17.068  -0.572   8.453  0.00  0.00     0.030 A 
ATOM      6  C31 ZIN A   1      17.387  -1.665   7.680  0.00  0.00     0.019 A 
ENDROOT
BRANCH   1   7
ATOM      7  C9  ZIN A   1      18.781  -3.677   7.231  0.00  0.00     0.258 C 
ATOM      8  N8  ZIN A   1      18.849  -4.899   7.795  0.00  0.00    -0.313 N 
ATOM      9  C7  ZIN A   1      19.077  -6.062   6.931  0.00  0.00     0.138 C 
ATOM     10  C32 ZIN A   1      18.701  -5.009   9.176  0.00  0.00     0.050 A 
ATOM     11  C6  ZIN A   1      18.139  -7.206   7.339  0.00  0.00     0.080 C 
ATOM     12  C5  ZIN A   1      16.762  -6.670   7.613  0.00  0.00     0.042 A 
ATOM     13  C4  ZIN A   1      16.449  -5.892   8.692  0.00  0.00     0.093 A 
ATOM     14  N38 ZIN A   1      15.613  -6.839   6.908  0.00  0.00    -0.346 N 
ATOM     15  N3  ZIN A   1      15.141  -5.616   8.637  0.00  0.00    -0.233 NA
ATOM     16  C37 ZIN A   1      17.473  -5.475   9.679  0.00  0.00     0.022 A 
ATOM     17  C2  ZIN A   1      14.634  -6.176   7.570  0.00  0.00     0.101 A 
ATOM     18  C1  ZIN A   1      13.190  -6.100   7.146  0.00  0.00     0.091 C 
ATOM     19  C36 ZIN A   1      17.265  -5.556  11.045  0.00  0.00     0.016 A 
ATOM     20  C35 ZIN A   1      18.279  -5.191  11.912  0.00  0.00     0.001 A 
ATOM     21  C34 ZIN A   1      19.496  -4.756  11.418  0.00  0.00     0.002 A 
ATOM     22  C33 ZIN A   1      19.711  -4.665  10.054  0.00  0.00     0.031 A 
ATOM     23  H64 ZIN A   1      15.513  -7.337   6.082  0.00  0.00     0.167 HD
ATOM     24  O10 ZIN A   1      19.000  -3.543   6.042  0.00  0.00    -0.267 OA
ENDBRANCH   1   7
BRANCH   4  25
ATOM     25  N15 ZIN A   1      17.480   0.817  10.381  0.00  0.00    -0.323 N 
ATOM     26  C16 ZIN A   1      18.228   1.935  10.300  0.00  0.00     0.257 C 
ATOM     27  O17 ZIN A   1      19.237   1.943   9.621  0.00  0.00    -0.267 OA
ATOM     28  H48 ZIN A   1      16.718   0.785  10.981  0.00  0.00     0.169 HD
BRANCH  26  29
ATOM     29  C18 ZIN A   1      17.824   3.149  11.035  0.00  0.00     0.043 A 
ATOM     30  C23 ZIN A   1      17.843   3.166  12.441  0.00  0.00    -0.010 A 
ATOM     31  C22 ZIN A   1      17.465   4.321  13.120  0.00  0.00     0.013 A 
ATOM     32  C21 ZIN A   1      17.063   5.437  12.414  0.00  0.00     0.001 A 
ATOM     33  C20 ZIN A   1      17.037   5.419  11.030  0.00  0.00     0.001 A 
ATOM     34  C19 ZIN A   1      17.414   4.287  10.338  0.00  0.00     0.018 A 
BRANCH  30  35
ATOM     35  C24 ZIN A   1      18.275   1.966  13.195  0.00  0.00    -0.025 A 
ATOM     36  C29 ZIN A   1      17.359   1.262  13.976  0.00  0.00     0.012 A 
ATOM     37  C28 ZIN A   1      17.767   0.142  14.671  0.00  0.00     0.001 A 
ATOM     38  C27 ZIN A   1      19.084  -0.276  14.604  0.00  0.00     0.000 A 
ATOM     39  C26 ZIN A   1      19.999   0.421  13.835  0.00  0.00     0.001 A 
ATOM     40  C25 ZIN A   1      19.601   1.539  13.130  0.00  0.00     0.012 A 
ENDBRANCH  30  35
ENDBRANCH  26  29
ENDBRANCH   4  25
TORSDOF 4
ENDMDL
MODEL 6
REMARK VINA RESULT:      -9.2      5.824     12.628
REMARK  4 active torsions:
REMARK  status: ('A' for Active; 'I' for Inactive)
REMARK       I    between atoms: N8_8  and  C9_9 
REMARK    1  A    between atoms: C9_9  and  C11_11 
REMARK    2  A    between atoms: C14_14  and  N15_15 
REMARK       I    between atoms: N15_15  and  C16_16 
REMARK    3  A    between atoms: C16_16  and  C18_18 
REMARK    4  A    between atoms: C23_23  and  C24_24 
ROOT
ATOM      1  C11 ZIN A   1      17.134   7.041  15.605  0.00  0.00     0.032 A 
ATOM      2  C12 ZIN A   1      17.002   7.470  14.281  0.00  0.00     0.019 A 
ATOM      3  C13 ZIN A   1      17.039   6.551  13.255  0.00  0.00     0.030 A 
ATOM      4  C14 ZIN A   1      17.206   5.199  13.536  0.00  0.00     0.035 A 
ATOM      5  C30 ZIN A   1      17.337   4.770  14.854  0.00  0.00     0.030 A 
ATOM      6  C31 ZIN A   1      17.307   5.683  15.883  0.00  0.00     0.019 A 
ENDROOT
BRANCH   1   7
ATOM      7  C9  ZIN A   1      17.095   8.022  16.707  0.00  0.00     0.258 C 
ATOM      8  N8  ZIN A   1      15.916   8.364  17.263  0.00  0.00    -0.313 N 
ATOM      9  C7  ZIN A   1      15.920   9.253  18.430  0.00  0.00     0.138 C 
ATOM     10  C32 ZIN A   1      14.742   7.859  16.710  0.00  0.00     0.050 A 
ATOM     11  C6  ZIN A   1      14.942   8.728  19.489  0.00  0.00     0.080 C 
ATOM     12  C5  ZIN A   1      15.075   7.236  19.619  0.00  0.00     0.042 A 
ATOM     13  C4  ZIN A   1      14.673   6.351  18.660  0.00  0.00     0.093 A 
ATOM     14  N38 ZIN A   1      15.575   6.501  20.645  0.00  0.00    -0.346 N 
ATOM     15  N3  ZIN A   1      14.917   5.115  19.112  0.00  0.00    -0.233 NA
ATOM     16  C37 ZIN A   1      14.095   6.800  17.372  0.00  0.00     0.022 A 
ATOM     17  C2  ZIN A   1      15.461   5.196  20.298  0.00  0.00     0.101 A 
ATOM     18  C1  ZIN A   1      15.887   4.025  21.146  0.00  0.00     0.091 C 
ATOM     19  C36 ZIN A   1      12.952   6.236  16.834  0.00  0.00     0.016 A 
ATOM     20  C35 ZIN A   1      12.439   6.733  15.648  0.00  0.00     0.001 A 
ATOM     21  C34 ZIN A   1      13.061   7.792  15.009  0.00  0.00     0.002 A 
ATOM     22  C33 ZIN A   1      14.209   8.357  15.536  0.00  0.00     0.031 A 
ATOM     23  H64 ZIN A   1      15.951   6.845  21.471  0.00  0.00     0.167 HD
ATOM     24  O10 ZIN A   1      18.127   8.523  17.111  0.00  0.00    -0.267 OA
ENDBRANCH   1   7
BRANCH   4  25
ATOM     25  N15 ZIN A   1      17.243   4.272  12.496  0.00  0.00    -0.323 N 
ATOM     26  C16 ZIN A   1      18.427   3.881  11.985  0.00  0.00     0.257 C 
ATOM     27  O17 ZIN A   1      19.457   4.405  12.366  0.00  0.00    -0.267 OA
ATOM     28  H48 ZIN A   1      16.417   3.909  12.139  0.00  0.00     0.169 HD
BRANCH  26  29
ATOM     29  C18 ZIN A   1      18.475   2.817  10.964  0.00  0.00     0.043 A 
ATOM     30  C23 ZIN A   1      18.501   1.465  11.350  0.00  0.00    -0.010 A 
ATOM     31  C22 ZIN A   1      18.539   0.472  10.375  0.00  0.00     0.013 A 
ATOM     32  C21 ZIN A   1      18.565   0.817   9.039  0.00  0.00     0.001 A 
ATOM     33  C20 ZIN A   1      18.547   2.148   8.657  0.00  0.00     0.001 A 
ATOM     34  C19 ZIN A   1      18.502   3.147   9.608  0.00  0.00     0.018 A 
BRANCH  30  35
ATOM     35  C24 ZIN A   1      18.472   1.099  12.786  0.00  0.00    -0.025 A 
ATOM     36  C29 ZIN A   1      19.660   1.021  13.511  0.00  0.00     0.012 A 
ATOM     37  C28 ZIN A   1      19.627   0.685  14.850  0.00  0.00     0.001 A 
ATOM     38  C27 ZIN A   1      18.419   0.415  15.468  0.00  0.00     0.000 A 
ATOM     39  C26 ZIN A   1      17.237   0.485  14.752  0.00  0.00     0.001 A 
ATOM     40  C25 ZIN A   1      17.258   0.826  13.414  0.00  0.00     0.012 A 
ENDBRANCH  30  35
ENDBRANCH  26  29
ENDBRANCH   4  25
TORSDOF 4
ENDMDL
MODEL 7
REMARK VINA RESULT:      -9.0      3.333      9.777
REMARK  4 active torsions:
REMARK  status: ('A' for Active; 'I' for Inactive)
REMARK       I    between atoms: N8_8  and  C9_9 
REMARK    1  A    between atoms: C9_9  and  C11_11 
REMARK    2  A    between atoms: C14_14  and  N15_15 
REMARK       I    between atoms: N15_15  and  C16_16 
REMARK    3  A    between atoms: C16_16  and  C18_18 
REMARK    4  A    between atoms: C23_23  and  C24_24 
ROOT
ATOM      1  C11 ZIN A   1      18.543   2.304  14.711  0.00  0.00     0.032 A 
ATOM      2  C12 ZIN A   1      19.317   1.149  14.852  0.00  0.00     0.019 A 
ATOM      3  C13 ZIN A   1      18.939  -0.012  14.214  0.00  0.00     0.030 A 
ATOM      4  C14 ZIN A   1      17.791  -0.034  13.429  0.00  0.00     0.035 A 
ATOM      5  C30 ZIN A   1      17.018   1.115  13.288  0.00  0.00     0.030 A 
ATOM      6  C31 ZIN A   1      17.387   2.277  13.927  0.00  0.00     0.019 A 
ENDROOT
BRANCH   1   7
ATOM      7  C9  ZIN A   1      18.944   3.550  15.394  0.00  0.00     0.258 C 
ATOM      8  N8  ZIN A   1      19.071   4.693  14.691  0.00  0.00    -0.313 N 
ATOM      9  C7  ZIN A   1      19.358   5.936  15.413  0.00  0.00     0.138 C 
ATOM     10  C32 ZIN A   1      18.922   4.648  13.306  0.00  0.00     0.050 A 
ATOM     11  C6  ZIN A   1      18.477   7.069  14.874  0.00  0.00     0.080 C 
ATOM     12  C5  ZIN A   1      17.073   6.574  14.661  0.00  0.00     0.042 A 
ATOM     13  C4  ZIN A   1      16.719   5.692  13.679  0.00  0.00     0.093 A 
ATOM     14  N38 ZIN A   1      15.938   6.881  15.339  0.00  0.00    -0.346 N 
ATOM     15  N3  ZIN A   1      15.399   5.490  13.764  0.00  0.00    -0.233 NA
ATOM     16  C37 ZIN A   1      17.717   5.112  12.750  0.00  0.00     0.022 A 
ATOM     17  C2  ZIN A   1      14.924   6.194  14.758  0.00  0.00     0.101 A 
ATOM     18  C1  ZIN A   1      13.480   6.240  15.184  0.00  0.00     0.091 C 
ATOM     19  C36 ZIN A   1      17.508   5.044  11.384  0.00  0.00     0.016 A 
ATOM     20  C35 ZIN A   1      18.500   4.530  10.567  0.00  0.00     0.001 A 
ATOM     21  C34 ZIN A   1      19.696   4.096  11.111  0.00  0.00     0.002 A 
ATOM     22  C33 ZIN A   1      19.911   4.155  12.476  0.00  0.00     0.031 A 
ATOM     23  H64 ZIN A   1      15.865   7.476  16.101  0.00  0.00     0.167 HD
ATOM     24  O10 ZIN A   1      19.161   3.544  16.590  0.00  0.00    -0.267 OA
ENDBRANCH   1   7
BRANCH   4  25
ATOM     25  N15 ZIN A   1      17.411  -1.210  12.785  0.00  0.00    -0.323 N 
ATOM     26  C16 ZIN A   1      18.280  -1.844  11.973  0.00  0.00     0.257 C 
ATOM     27  O17 ZIN A   1      19.360  -1.342  11.728  0.00  0.00    -0.267 OA
ATOM     28  H48 ZIN A   1      16.521  -1.572  12.921  0.00  0.00     0.169 HD
BRANCH  26  29
ATOM     29  C18 ZIN A   1      17.922  -3.148  11.382  0.00  0.00     0.043 A 
ATOM     30  C23 ZIN A   1      17.784  -3.280   9.989  0.00  0.00    -0.010 A 
ATOM     31  C22 ZIN A   1      17.453  -4.518   9.445  0.00  0.00     0.013 A 
ATOM     32  C21 ZIN A   1      17.248  -5.604  10.272  0.00  0.00     0.001 A 
ATOM     33  C20 ZIN A   1      17.377  -5.473  11.645  0.00  0.00     0.001 A 
ATOM     34  C19 ZIN A   1      17.711  -4.256  12.203  0.00  0.00     0.018 A 
BRANCH  30  35
ATOM     35  C24 ZIN A   1      18.005  -2.112   9.104  0.00  0.00    -0.025 A 
ATOM     36  C29 ZIN A   1      19.055  -2.118   8.186  0.00  0.00     0.012 A 
ATOM     37  C28 ZIN A   1      19.252  -1.029   7.361  0.00  0.00     0.001 A 
ATOM     38  C27 ZIN A   1      18.417   0.071   7.451  0.00  0.00     0.000 A 
ATOM     39  C26 ZIN A   1      17.377   0.084   8.363  0.00  0.00     0.001 A 
ATOM     40  C25 ZIN A   1      17.167  -1.001   9.190  0.00  0.00     0.012 A 
ENDBRANCH  30  35
ENDBRANCH  26  29
ENDBRANCH   4  25
TORSDOF 4
ENDMDL
MODEL 8
REMARK VINA RESULT:      -8.9      3.008      6.080
REMARK  4 active torsions:
REMARK  status: ('A' for Active; 'I' for Inactive)
REMARK       I    between atoms: N8_8  and  C9_9 
REMARK    1  A    between atoms: C9_9  and  C11_11 
REMARK    2  A    between atoms: C14_14  and  N15_15 
REMARK       I    between atoms: N15_15  and  C16_16 
REMARK    3  A    between atoms: C16_16  and  C18_18 
REMARK    4  A    between atoms: C23_23  and  C24_24 
ROOT
ATOM      1  C11 ZIN A   1      17.416  -7.013   7.361  0.00  0.00     0.032 A 
ATOM      2  C12 ZIN A   1      17.408  -6.499   8.660  0.00  0.00     0.019 A 
ATOM      3  C13 ZIN A   1      17.520  -5.141   8.862  0.00  0.00     0.030 A 
ATOM      4  C14 ZIN A   1      17.639  -4.282   7.774  0.00  0.00     0.035 A 
ATOM      5  C30 ZIN A   1      17.648  -4.791   6.479  0.00  0.00     0.030 A 
ATOM      6  C31 ZIN A   1      17.542  -6.148   6.270  0.00  0.00     0.019 A 
ENDROOT
BRANCH   1   7
ATOM      7  C9  ZIN A   1      17.296  -8.467   7.140  0.00  0.00     0.258 C 
ATOM      8  N8  ZIN A   1      16.125  -8.992   6.729  0.00  0.00    -0.313 N 
ATOM      9  C7  ZIN A   1      16.069 -10.422   6.409  0.00  0.00     0.138 C 
ATOM     10  C32 ZIN A   1      15.016  -8.156   6.623  0.00  0.00     0.050 A 
ATOM     11  C6  ZIN A   1      15.286 -10.635   5.107  0.00  0.00     0.080 C 
ATOM     12  C5  ZIN A   1      15.688  -9.603   4.090  0.00  0.00     0.042 A 
ATOM     13  C4  ZIN A   1      15.369  -8.277   4.186  0.00  0.00     0.093 A 
ATOM     14  N38 ZIN A   1      16.390  -9.753   2.938  0.00  0.00    -0.346 N 
ATOM     15  N3  ZIN A   1      15.860  -7.657   3.107  0.00  0.00    -0.233 NA
ATOM     16  C37 ZIN A   1      14.619  -7.734   5.342  0.00  0.00     0.022 A 
ATOM     17  C2  ZIN A   1      16.477  -8.532   2.357  0.00  0.00     0.101 A 
ATOM     18  C1  ZIN A   1      17.168  -8.232   1.051  0.00  0.00     0.091 C 
ATOM     19  C36 ZIN A   1      13.552  -6.866   5.194  0.00  0.00     0.016 A 
ATOM     20  C35 ZIN A   1      12.866  -6.430   6.314  0.00  0.00     0.001 A 
ATOM     21  C34 ZIN A   1      13.240  -6.865   7.573  0.00  0.00     0.002 A 
ATOM     22  C33 ZIN A   1      14.311  -7.727   7.732  0.00  0.00     0.031 A 
ATOM     23  H64 ZIN A   1      16.765 -10.580   2.596  0.00  0.00     0.167 HD
ATOM     24  O10 ZIN A   1      18.255  -9.191   7.330  0.00  0.00    -0.267 OA
ENDBRANCH   1   7
BRANCH   4  25
ATOM     25  N15 ZIN A   1      17.753  -2.909   7.982  0.00  0.00    -0.323 N 
ATOM     26  C16 ZIN A   1      18.917  -2.282   7.722  0.00  0.00     0.257 C 
ATOM     27  O17 ZIN A   1      19.896  -2.928   7.397  0.00  0.00    -0.267 OA
ATOM     28  H48 ZIN A   1      16.994  -2.404   8.314  0.00  0.00     0.169 HD
BRANCH  26  29
ATOM     29  C18 ZIN A   1      19.007  -0.813   7.832  0.00  0.00     0.043 A 
ATOM     30  C23 ZIN A   1      18.940  -0.191   9.091  0.00  0.00    -0.010 A 
ATOM     31  C22 ZIN A   1      19.033   1.195   9.179  0.00  0.00     0.013 A 
ATOM     32  C21 ZIN A   1      19.176   1.952   8.033  0.00  0.00     0.001 A 
ATOM     33  C20 ZIN A   1      19.235   1.341   6.792  0.00  0.00     0.001 A 
ATOM     34  C19 ZIN A   1      19.151  -0.032   6.684  0.00  0.00     0.018 A 
BRANCH  30  35
ATOM     35  C24 ZIN A   1      18.787  -1.007  10.318  0.00  0.00    -0.025 A 
ATOM     36  C29 ZIN A   1      17.559  -1.055  10.978  0.00  0.00     0.012 A 
ATOM     37  C28 ZIN A   1      17.421  -1.822  12.117  0.00  0.00     0.001 A 
ATOM     38  C27 ZIN A   1      18.501  -2.531  12.612  0.00  0.00     0.000 A 
ATOM     39  C26 ZIN A   1      19.723  -2.483  11.965  0.00  0.00     0.001 A 
ATOM     40  C25 ZIN A   1      19.871  -1.725  10.821  0.00  0.00     0.012 A 
ENDBRANCH  30  35
ENDBRANCH  26  29
ENDBRANCH   4  25
TORSDOF 4
ENDMDL
MODEL 9
REMARK VINA RESULT:      -8.9      3.070      6.080
REMARK  4 active torsions:
REMARK  status: ('A' for Active; 'I' for Inactive)
REMARK       I    between atoms: N8_8  and  C9_9 
REMARK    1  A    between atoms: C9_9  and  C11_11 
REMARK    2  A    between atoms: C14_14  and  N15_15 
REMARK       I    between atoms: N15_15  and  C16_16 
REMARK    3  A    between atoms: C16_16  and  C18_18 
REMARK    4  A    between atoms: C23_23  and  C24_24 
ROOT
ATOM      1  C11 ZIN A   1      17.412  -6.838   7.522  0.00  0.00     0.032 A 
ATOM      2  C12 ZIN A   1      17.255  -6.507   8.871  0.00  0.00     0.019 A 
ATOM      3  C13 ZIN A   1      17.356  -5.193   9.271  0.00  0.00     0.030 A 
ATOM      4  C14 ZIN A   1      17.612  -4.196   8.334  0.00  0.00     0.035 A 
ATOM      5  C30 ZIN A   1      17.768  -4.523   6.991  0.00  0.00     0.030 A 
ATOM      6  C31 ZIN A   1      17.674  -5.835   6.585  0.00  0.00     0.019 A 
ENDROOT
BRANCH   1   7
ATOM      7  C9  ZIN A   1      17.304  -8.245   7.089  0.00  0.00     0.258 C 
ATOM      8  N8  ZIN A   1      16.142  -8.709   6.590  0.00  0.00    -0.313 N 
ATOM      9  C7  ZIN A   1      16.099 -10.077   6.062  0.00  0.00     0.138 C 
ATOM     10  C32 ZIN A   1      15.029  -7.872   6.593  0.00  0.00     0.050 A 
ATOM     11  C6  ZIN A   1      15.335 -10.100   4.733  0.00  0.00     0.080 C 
ATOM     12  C5  ZIN A   1      15.742  -8.928   3.884  0.00  0.00     0.042 A 
ATOM     13  C4  ZIN A   1      15.414  -7.633   4.169  0.00  0.00     0.093 A 
ATOM     14  N38 ZIN A   1      16.460  -8.904   2.732  0.00  0.00    -0.346 N 
ATOM     15  N3  ZIN A   1      15.914  -6.858   3.200  0.00  0.00    -0.233 NA
ATOM     16  C37 ZIN A   1      14.646  -7.268   5.383  0.00  0.00     0.022 A 
ATOM     17  C2  ZIN A   1      16.546  -7.611   2.337  0.00  0.00     0.101 A 
ATOM     18  C1  ZIN A   1      17.251  -7.119   1.100  0.00  0.00     0.091 C 
ATOM     19  C36 ZIN A   1      13.574  -6.393   5.348  0.00  0.00     0.016 A 
ATOM     20  C35 ZIN A   1      12.872  -6.129   6.512  0.00  0.00     0.001 A 
ATOM     21  C34 ZIN A   1      13.232  -6.743   7.698  0.00  0.00     0.002 A 
ATOM     22  C33 ZIN A   1      14.307  -7.614   7.743  0.00  0.00     0.031 A 
ATOM     23  H64 ZIN A   1      16.844  -9.670   2.278  0.00  0.00     0.167 HD
ATOM     24  O10 ZIN A   1      18.265  -8.984   7.184  0.00  0.00    -0.267 OA
ENDBRANCH   1   7
BRANCH   4  25
ATOM     25  N15 ZIN A   1      17.714  -2.868   8.743  0.00  0.00    -0.323 N 
ATOM     26  C16 ZIN A   1      18.901  -2.234   8.684  0.00  0.00     0.257 C 
ATOM     27  O17 ZIN A   1      19.903  -2.847   8.365  0.00  0.00    -0.267 OA
ATOM     28  H48 ZIN A   1      16.930  -2.399   9.071  0.00  0.00     0.169 HD
BRANCH  26  29
ATOM     29  C18 ZIN A   1      18.989  -0.797   9.007  0.00  0.00     0.043 A 
ATOM     30  C23 ZIN A   1      18.798   0.168   8.003  0.00  0.00    -0.010 A 
ATOM     31  C22 ZIN A   1      18.877   1.520   8.324  0.00  0.00     0.013 A 
ATOM     32  C21 ZIN A   1      19.154   1.907   9.620  0.00  0.00     0.001 A 
ATOM     33  C20 ZIN A   1      19.349   0.958  10.609  0.00  0.00     0.001 A 
ATOM     34  C19 ZIN A   1      19.268  -0.387  10.312  0.00  0.00     0.018 A 
BRANCH  30  35
ATOM     35  C24 ZIN A   1      18.502  -0.252   6.613  0.00  0.00    -0.025 A 
ATOM     36  C29 ZIN A   1      19.535  -0.386   5.686  0.00  0.00     0.012 A 
ATOM     37  C28 ZIN A   1      19.253  -0.783   4.395  0.00  0.00     0.001 A 
ATOM     38  C27 ZIN A   1      17.946  -1.036   4.016  0.00  0.00     0.000 A 
ATOM     39  C26 ZIN A   1      16.916  -0.899   4.929  0.00  0.00     0.001 A 
ATOM     40  C25 ZIN A   1      17.187  -0.509   6.225  0.00  0.00     0.012 A 
ENDBRANCH  30  35
ENDBRANCH  26  29
ENDBRANCH   4  25
TORSDOF 4
ENDMDL
