MODEL 1
REMARK VINA RESULT:      -5.2      0.000      0.000
REMARK  10 active torsions:
REMARK  status: ('A' for Active; 'I' for Inactive)
REMARK    1  A    between atoms: N2_2  and  C3_3 
REMARK    2  A    between atoms: C3_3  and  N8_8 
REMARK    3  A    between atoms: C4_4  and  N5_5 
REMARK    4  A    between atoms: N8_8  and  C9_9 
REMARK    5  A    between atoms: C9_9  and  C10_10 
REMARK    6  A    between atoms: C10_10  and  S11_11 
REMARK    7  A    between atoms: S11_11  and  C12_12 
REMARK    8  A    between atoms: C12_12  and  C13_13 
REMARK    9  A    between atoms: C16_16  and  C17_17 
REMARK   10  A    between atoms: C17_17  and  N18_18 
ROOT
ATOM      1  C10 ZIN A   1      18.722  -0.780  12.984  0.00  0.00     0.093 C 
ENDROOT
BRANCH   1   2
ATOM      2  C9  ZIN A   1      19.427   0.236  13.885  0.00  0.00     0.131 C 
BRANCH   2   3
ATOM      3  N8  ZIN A   1      18.438   1.161  14.445  0.00  0.00    -0.374 N 
ATOM      4  H27 ZIN A   1      17.830   1.634  13.857  0.00  0.00     0.161 HD
BRANCH   3   5
ATOM      5  C3  ZIN A   1      18.373   1.359  15.819  0.00  0.00     0.118 C 
ATOM      6  C4  ZIN A   1      19.329   2.046  16.438  0.00  0.00     0.215 C 
BRANCH   5   7
ATOM      7  N2  ZIN A   1      17.308   0.840  16.546  0.00  0.00    -0.380 N 
ATOM      8  C1  ZIN A   1      17.175  -0.609  16.716  0.00  0.00     0.147 C 
ATOM      9  H25 ZIN A   1      16.653   1.437  16.940  0.00  0.00     0.160 HD
ENDBRANCH   5   7
BRANCH   6  10
ATOM     10  N5  ZIN A   1      19.331   2.147  17.916  0.00  0.00    -0.124 N 
ATOM     11  O6  ZIN A   1      18.847   3.124  18.459  0.00  0.00    -0.532 OA
ATOM     12  O7  ZIN A   1      19.816   1.255  18.587  0.00  0.00    -0.532 OA
ENDBRANCH   6  10
ENDBRANCH   3   5
ENDBRANCH   2   3
ENDBRANCH   1   2
BRANCH   1  13
ATOM     13  S11 ZIN A   1      17.273  -0.003  12.217  0.00  0.00    -0.161 SA
BRANCH  13  14
ATOM     14  C12 ZIN A   1      17.983   0.880  10.802  0.00  0.00     0.133 C 
BRANCH  14  15
ATOM     15  C13 ZIN A   1      17.781   2.362  10.981  0.00  0.00     0.051 A 
ATOM     16  N21 ZIN A   1      17.430   2.900  12.132  0.00  0.00    -0.247 NA
ATOM     17  C16 ZIN A   1      17.291   4.182  12.165  0.00  0.00     0.103 A 
ATOM     18  S15 ZIN A   1      17.608   4.849  10.622  0.00  0.00    -0.083 SA
ATOM     19  C14 ZIN A   1      17.938   3.239   9.985  0.00  0.00     0.079 A 
BRANCH  17  20
ATOM     20  C17 ZIN A   1      16.901   4.977  13.384  0.00  0.00     0.338 C 
BRANCH  20  21
ATOM     21  N18 ZIN A   1      17.870   4.733  14.460  0.00  0.00     0.086 N 
ATOM     22  C19 ZIN A   1      19.183   5.302  14.125  0.00  0.00     0.309 C 
ATOM     23  C20 ZIN A   1      17.380   5.258  15.741  0.00  0.00     0.309 C 
ENDBRANCH  20  21
ENDBRANCH  17  20
ENDBRANCH  14  15
ENDBRANCH  13  14
ENDBRANCH   1  13
TORSDOF 10
ENDMDL
MODEL 2
REMARK VINA RESULT:      -5.1      1.602      2.233
REMARK  10 active torsions:
REMARK  status: ('A' for Active; 'I' for Inactive)
REMARK    1  A    between atoms: N2_2  and  C3_3 
REMARK    2  A    between atoms: C3_3  and  N8_8 
REMARK    3  A    between atoms: C4_4  and  N5_5 
REMARK    4  A    between atoms: N8_8  and  C9_9 
REMARK    5  A    between atoms: C9_9  and  C10_10 
REMARK    6  A    between atoms: C10_10  and  S11_11 
REMARK    7  A    between atoms: S11_11  and  C12_12 
REMARK    8  A    between atoms: C12_12  and  C13_13 
REMARK    9  A    between atoms: C16_16  and  C17_17 
REMARK   10  A    between atoms: C17_17  and  N18_18 
ROOT
ATOM      1  C10 ZIN A   1      19.190  -1.047  13.213  0.00  0.00     0.093 C 
ENDROOT
BRANCH   1   2
ATOM      2  C9  ZIN A   1      19.752   0.273  13.743  0.00  0.00     0.131 C 
BRANCH   2   3
ATOM      3  N8  ZIN A   1      18.651   1.117  14.216  0.00  0.00    -0.374 N 
ATOM      4  H27 ZIN A   1      18.088   1.581  13.579  0.00  0.00     0.161 HD
BRANCH   3   5
ATOM      5  C3  ZIN A   1      18.415   1.251  15.580  0.00  0.00     0.118 C 
ATOM      6  C4  ZIN A   1      19.263   1.943  16.336  0.00  0.00     0.215 C 
BRANCH   5   7
ATOM      7  N2  ZIN A   1      17.295   0.662  16.152  0.00  0.00    -0.380 N 
ATOM      8  C1  ZIN A   1      17.319  -0.757  16.518  0.00  0.00     0.147 C 
ATOM      9  H25 ZIN A   1      16.496   1.188  16.309  0.00  0.00     0.160 HD
ENDBRANCH   5   7
BRANCH   6  10
ATOM     10  N5  ZIN A   1      19.085   1.977  17.806  0.00  0.00    -0.124 N 
ATOM     11  O6  ZIN A   1      19.854   1.365  18.526  0.00  0.00    -0.532 OA
ATOM     12  O7  ZIN A   1      18.171   2.616  18.295  0.00  0.00    -0.532 OA
ENDBRANCH   6  10
ENDBRANCH   3   5
ENDBRANCH   2   3
ENDBRANCH   1   2
BRANCH   1  13
ATOM     13  S11 ZIN A   1      17.517  -0.776  12.566  0.00  0.00    -0.161 SA
BRANCH  13  14
ATOM     14  C12 ZIN A   1      17.701  -1.129  10.797  0.00  0.00     0.133 C 
BRANCH  14  15
ATOM     15  C13 ZIN A   1      18.142   0.120  10.078  0.00  0.00     0.051 A 
ATOM     16  N21 ZIN A   1      17.924   1.330  10.551  0.00  0.00    -0.247 NA
ATOM     17  C16 ZIN A   1      18.353   2.323   9.849  0.00  0.00     0.103 A 
ATOM     18  S15 ZIN A   1      19.109   1.755   8.424  0.00  0.00    -0.083 SA
ATOM     19  C14 ZIN A   1      18.782   0.091   8.905  0.00  0.00     0.079 A 
BRANCH  17  20
ATOM     20  C17 ZIN A   1      18.204   3.776  10.225  0.00  0.00     0.338 C 
BRANCH  20  21
ATOM     21  N18 ZIN A   1      17.974   3.886  11.672  0.00  0.00     0.086 N 
ATOM     22  C19 ZIN A   1      19.190   4.328  12.366  0.00  0.00     0.309 C 
ATOM     23  C20 ZIN A   1      16.847   4.783  11.960  0.00  0.00     0.309 C 
ENDBRANCH  20  21
ENDBRANCH  17  20
ENDBRANCH  14  15
ENDBRANCH  13  14
ENDBRANCH   1  13
TORSDOF 10
ENDMDL
MODEL 3
REMARK VINA RESULT:      -5.0      6.162      7.634
REMARK  10 active torsions:
REMARK  status: ('A' for Active; 'I' for Inactive)
REMARK    1  A    between atoms: N2_2  and  C3_3 
REMARK    2  A    between atoms: C3_3  and  N8_8 
REMARK    3  A    between atoms: C4_4  and  N5_5 
REMARK    4  A    between atoms: N8_8  and  C9_9 
REMARK    5  A    between atoms: C9_9  and  C10_10 
REMARK    6  A    between atoms: C10_10  and  S11_11 
REMARK    7  A    between atoms: S11_11  and  C12_12 
REMARK    8  A    between atoms: C12_12  and  C13_13 
REMARK    9  A    between atoms: C16_16  and  C17_17 
REMARK   10  A    between atoms: C17_17  and  N18_18 
ROOT
ATOM      1  C10 ZIN A   1      18.025  -3.306  10.769  0.00  0.00     0.093 C 
ENDROOT
BRANCH   1   2
ATOM      2  C9  ZIN A   1      17.924  -2.905   9.296  0.00  0.00     0.131 C 
BRANCH   2   3
ATOM      3  N8  ZIN A   1      19.269  -2.712   8.750  0.00  0.00    -0.374 N 
ATOM      4  H27 ZIN A   1      20.011  -2.518   9.344  0.00  0.00     0.161 HD
BRANCH   3   5
ATOM      5  C3  ZIN A   1      19.483  -2.807   7.380  0.00  0.00     0.118 C 
ATOM      6  C4  ZIN A   1      18.898  -1.945   6.553  0.00  0.00     0.215 C 
BRANCH   5   7
ATOM      7  N2  ZIN A   1      20.308  -3.804   6.873  0.00  0.00    -0.380 N 
ATOM      8  C1  ZIN A   1      19.880  -5.205   6.923  0.00  0.00     0.147 C 
ATOM      9  H25 ZIN A   1      21.167  -3.574   6.487  0.00  0.00     0.160 HD
ENDBRANCH   5   7
BRANCH   6  10
ATOM     10  N5  ZIN A   1      19.018  -2.124   5.088  0.00  0.00    -0.124 N 
ATOM     11  O6  ZIN A   1      19.887  -1.532   4.473  0.00  0.00    -0.532 OA
ATOM     12  O7  ZIN A   1      18.248  -2.861   4.499  0.00  0.00    -0.532 OA
ENDBRANCH   6  10
ENDBRANCH   3   5
ENDBRANCH   2   3
ENDBRANCH   1   2
BRANCH   1  13
ATOM     13  S11 ZIN A   1      18.728  -1.932  11.723  0.00  0.00    -0.161 SA
BRANCH  13  14
ATOM     14  C12 ZIN A   1      17.365  -0.737  11.784  0.00  0.00     0.133 C 
BRANCH  14  15
ATOM     15  C13 ZIN A   1      17.804   0.558  11.152  0.00  0.00     0.051 A 
ATOM     16  N21 ZIN A   1      17.228   1.713  11.419  0.00  0.00    -0.247 NA
ATOM     17  C16 ZIN A   1      17.693   2.756  10.821  0.00  0.00     0.103 A 
ATOM     18  S15 ZIN A   1      18.984   2.316   9.788  0.00  0.00    -0.083 SA
ATOM     19  C14 ZIN A   1      18.806   0.630  10.270  0.00  0.00     0.079 A 
BRANCH  17  20
ATOM     20  C17 ZIN A   1      17.173   4.159  10.999  0.00  0.00     0.338 C 
BRANCH  20  21
ATOM     21  N18 ZIN A   1      17.293   4.551  12.409  0.00  0.00     0.086 N 
ATOM     22  C19 ZIN A   1      18.701   4.723  12.790  0.00  0.00     0.309 C 
ATOM     23  C20 ZIN A   1      16.520   5.768  12.686  0.00  0.00     0.309 C 
ENDBRANCH  20  21
ENDBRANCH  17  20
ENDBRANCH  14  15
ENDBRANCH  13  14
ENDBRANCH   1  13
TORSDOF 10
ENDMDL
MODEL 4
REMARK VINA RESULT:      -5.0      6.046      8.082
REMARK  10 active torsions:
REMARK  status: ('A' for Active; 'I' for Inactive)
REMARK    1  A    between atoms: N2_2  and  C3_3 
REMARK    2  A    between atoms: C3_3  and  N8_8 
REMARK    3  A    between atoms: C4_4  and  N5_5 
REMARK    4  A    between atoms: N8_8  and  C9_9 
REMARK    5  A    between atoms: C9_9  and  C10_10 
REMARK    6  A    between atoms: C10_10  and  S11_11 
REMARK    7  A    between atoms: S11_11  and  C12_12 
REMARK    8  A    between atoms: C12_12  and  C13_13 
REMARK    9  A    between atoms: C16_16  and  C17_17 
REMARK   10  A    between atoms: C17_17  and  N18_18 
ROOT
ATOM      1  C10 ZIN A   1      18.784  -4.992   9.374  0.00  0.00     0.093 C 
ENDROOT
BRANCH   1   2
ATOM      2  C9  ZIN A   1      19.240  -4.287   8.095  0.00  0.00     0.131 C 
BRANCH   2   3
ATOM      3  N8  ZIN A   1      19.349  -2.848   8.343  0.00  0.00    -0.374 N 
ATOM      4  H27 ZIN A   1      19.593  -2.525   9.224  0.00  0.00     0.161 HD
BRANCH   3   5
ATOM      5  C3  ZIN A   1      19.104  -1.945   7.315  0.00  0.00     0.118 C 
ATOM      6  C4  ZIN A   1      19.193  -2.339   6.048  0.00  0.00     0.215 C 
BRANCH   5   7
ATOM      7  N2  ZIN A   1      18.766  -0.630   7.612  0.00  0.00    -0.380 N 
ATOM      8  C1  ZIN A   1      17.459  -0.325   8.201  0.00  0.00     0.147 C 
ATOM      9  H25 ZIN A   1      19.394   0.085   7.430  0.00  0.00     0.160 HD
ENDBRANCH   5   7
BRANCH   6  10
ATOM     10  N5  ZIN A   1      19.062  -1.351   4.953  0.00  0.00    -0.124 N 
ATOM     11  O6  ZIN A   1      20.039  -0.731   4.572  0.00  0.00    -0.532 OA
ATOM     12  O7  ZIN A   1      17.977  -1.156   4.436  0.00  0.00    -0.532 OA
ENDBRANCH   6  10
ENDBRANCH   3   5
ENDBRANCH   2   3
ENDBRANCH   1   2
BRANCH   1  13
ATOM     13  S11 ZIN A   1      17.915  -3.809  10.439  0.00  0.00    -0.161 SA
BRANCH  13  14
ATOM     14  C12 ZIN A   1      19.040  -3.623  11.848  0.00  0.00     0.133 C 
BRANCH  14  15
ATOM     15  C13 ZIN A   1      19.193  -2.161  12.181  0.00  0.00     0.051 A 
ATOM     16  N21 ZIN A   1      19.289  -1.226  11.257  0.00  0.00    -0.247 NA
ATOM     17  C16 ZIN A   1      19.411  -0.008  11.663  0.00  0.00     0.103 A 
ATOM     18  S15 ZIN A   1      19.427   0.045  13.372  0.00  0.00    -0.083 SA
ATOM     19  C14 ZIN A   1      19.247  -1.707  13.436  0.00  0.00     0.079 A 
BRANCH  17  20
ATOM     20  C17 ZIN A   1      19.530   1.195  10.762  0.00  0.00     0.338 C 
BRANCH  20  21
ATOM     21  N18 ZIN A   1      18.927   2.361  11.421  0.00  0.00     0.086 N 
ATOM     22  C19 ZIN A   1      19.918   3.429  11.613  0.00  0.00     0.309 C 
ATOM     23  C20 ZIN A   1      17.765   2.851  10.667  0.00  0.00     0.309 C 
ENDBRANCH  20  21
ENDBRANCH  17  20
ENDBRANCH  14  15
ENDBRANCH  13  14
ENDBRANCH   1  13
TORSDOF 10
ENDMDL
MODEL 5
REMARK VINA RESULT:      -5.0      5.020      7.792
REMARK  10 active torsions:
REMARK  status: ('A' for Active; 'I' for Inactive)
REMARK    1  A    between atoms: N2_2  and  C3_3 
REMARK    2  A    between atoms: C3_3  and  N8_8 
REMARK    3  A    between atoms: C4_4  and  N5_5 
REMARK    4  A    between atoms: N8_8  and  C9_9 
REMARK    5  A    between atoms: C9_9  and  C10_10 
REMARK    6  A    between atoms: C10_10  and  S11_11 
REMARK    7  A    between atoms: S11_11  and  C12_12 
REMARK    8  A    between atoms: C12_12  and  C13_13 
REMARK    9  A    between atoms: C16_16  and  C17_17 
REMARK   10  A    between atoms: C17_17  and  N18_18 
ROOT
ATOM      1  C10 ZIN A   1      20.387  -0.170  11.602  0.00  0.00     0.093 C 
ENDROOT
BRANCH   1   2
ATOM      2  C9  ZIN A   1      19.855   1.177  12.096  0.00  0.00     0.131 C 
BRANCH   2   3
ATOM      3  N8  ZIN A   1      20.170   2.216  11.112  0.00  0.00    -0.374 N 
ATOM      4  H27 ZIN A   1      21.092   2.389  10.868  0.00  0.00     0.161 HD
BRANCH   3   5
ATOM      5  C3  ZIN A   1      19.146   2.953  10.529  0.00  0.00     0.118 C 
ATOM      6  C4  ZIN A   1      18.558   3.932  11.212  0.00  0.00     0.215 C 
BRANCH   5   7
ATOM      7  N2  ZIN A   1      18.736   2.667   9.232  0.00  0.00    -0.380 N 
ATOM      8  C1  ZIN A   1      19.410   1.615   8.466  0.00  0.00     0.147 C 
ATOM      9  H25 ZIN A   1      18.004   3.163   8.834  0.00  0.00     0.160 HD
ENDBRANCH   5   7
BRANCH   6  10
ATOM     10  N5  ZIN A   1      17.383   4.630  10.643  0.00  0.00    -0.124 N 
ATOM     11  O6  ZIN A   1      16.297   4.534  11.186  0.00  0.00    -0.532 OA
ATOM     12  O7  ZIN A   1      17.501   5.299   9.632  0.00  0.00    -0.532 OA
ENDBRANCH   6  10
ENDBRANCH   3   5
ENDBRANCH   2   3
ENDBRANCH   1   2
BRANCH   1  13
ATOM     13  S11 ZIN A   1      19.134  -1.453  11.875  0.00  0.00    -0.161 SA
BRANCH  13  14
ATOM     14  C12 ZIN A   1      18.041  -1.270  10.440  0.00  0.00     0.133 C 
BRANCH  14  15
ATOM     15  C13 ZIN A   1      18.460  -2.238   9.363  0.00  0.00     0.051 A 
ATOM     16  N21 ZIN A   1      18.551  -1.897   8.093  0.00  0.00    -0.247 NA
ATOM     17  C16 ZIN A   1      18.924  -2.810   7.263  0.00  0.00     0.103 A 
ATOM     18  S15 ZIN A   1      19.195  -4.283   8.091  0.00  0.00    -0.083 SA
ATOM     19  C14 ZIN A   1      18.763  -3.514   9.617  0.00  0.00     0.079 A 
BRANCH  17  20
ATOM     20  C17 ZIN A   1      19.090  -2.613   5.778  0.00  0.00     0.338 C 
BRANCH  20  21
ATOM     21  N18 ZIN A   1      18.423  -1.370   5.372  0.00  0.00     0.086 N 
ATOM     22  C19 ZIN A   1      19.396  -0.388   4.874  0.00  0.00     0.309 C 
ATOM     23  C20 ZIN A   1      17.382  -1.633   4.370  0.00  0.00     0.309 C 
ENDBRANCH  20  21
ENDBRANCH  17  20
ENDBRANCH  14  15
ENDBRANCH  13  14
ENDBRANCH   1  13
TORSDOF 10
ENDMDL
MODEL 6
REMARK VINA RESULT:      -4.8      5.535      7.964
REMARK  10 active torsions:
REMARK  status: ('A' for Active; 'I' for Inactive)
REMARK    1  A    between atoms: N2_2  and  C3_3 
REMARK    2  A    between atoms: C3_3  and  N8_8 
REMARK    3  A    between atoms: C4_4  and  N5_5 
REMARK    4  A    between atoms: N8_8  and  C9_9 
REMARK    5  A    between atoms: C9_9  and  C10_10 
REMARK    6  A    between atoms: C10_10  and  S11_11 
REMARK    7  A    between atoms: S11_11  and  C12_12 
REMARK    8  A    between atoms: C12_12  and  C13_13 
REMARK    9  A    between atoms: C16_16  and  C17_17 
REMARK   10  A    between atoms: C17_17  and  N18_18 
ROOT
ATOM      1  C10 ZIN A   1      18.931   2.669   9.494  0.00  0.00     0.093 C 
ENDROOT
BRANCH   1   2
ATOM      2  C9  ZIN A   1      19.246   1.273   8.951  0.00  0.00     0.131 C 
BRANCH   2   3
ATOM      3  N8  ZIN A   1      18.081   0.759   8.226  0.00  0.00    -0.374 N 
ATOM      4  H27 ZIN A   1      17.189   1.037   8.482  0.00  0.00     0.161 HD
BRANCH   3   5
ATOM      5  C3  ZIN A   1      18.257  -0.127   7.169  0.00  0.00     0.118 C 
ATOM      6  C4  ZIN A   1      18.831   0.286   6.043  0.00  0.00     0.215 C 
BRANCH   5   7
ATOM      7  N2  ZIN A   1      17.833  -1.445   7.291  0.00  0.00    -0.380 N 
ATOM      8  C1  ZIN A   1      18.693  -2.433   7.949  0.00  0.00     0.147 C 
ATOM      9  H25 ZIN A   1      16.969  -1.711   6.941  0.00  0.00     0.160 HD
ENDBRANCH   5   7
BRANCH   6  10
ATOM     10  N5  ZIN A   1      18.900  -0.618   4.872  0.00  0.00    -0.124 N 
ATOM     11  O6  ZIN A   1      17.881  -0.926   4.280  0.00  0.00    -0.532 OA
ATOM     12  O7  ZIN A   1      19.975  -1.055   4.502  0.00  0.00    -0.532 OA
ENDBRANCH   6  10
ENDBRANCH   3   5
ENDBRANCH   2   3
ENDBRANCH   1   2
BRANCH   1  13
ATOM     13  S11 ZIN A   1      18.954   2.632  11.307  0.00  0.00    -0.161 SA
BRANCH  13  14
ATOM     14  C12 ZIN A   1      17.531   1.584  11.712  0.00  0.00     0.133 C 
BRANCH  14  15
ATOM     15  C13 ZIN A   1      18.005   0.349  12.434  0.00  0.00     0.051 A 
ATOM     16  N21 ZIN A   1      18.278   0.337  13.724  0.00  0.00    -0.247 NA
ATOM     17  C16 ZIN A   1      18.671  -0.781  14.232  0.00  0.00     0.103 A 
ATOM     18  S15 ZIN A   1      18.743  -1.986  13.020  0.00  0.00    -0.083 SA
ATOM     19  C14 ZIN A   1      18.190  -0.822  11.818  0.00  0.00     0.079 A 
BRANCH  17  20
ATOM     20  C17 ZIN A   1      19.024  -0.994  15.682  0.00  0.00     0.338 C 
BRANCH  20  21
ATOM     21  N18 ZIN A   1      18.334   0.006  16.506  0.00  0.00     0.086 N 
ATOM     22  C19 ZIN A   1      17.043  -0.506  16.985  0.00  0.00     0.309 C 
ATOM     23  C20 ZIN A   1      19.178   0.439  17.627  0.00  0.00     0.309 C 
ENDBRANCH  20  21
ENDBRANCH  17  20
ENDBRANCH  14  15
ENDBRANCH  13  14
ENDBRANCH   1  13
TORSDOF 10
ENDMDL
MODEL 7
REMARK VINA RESULT:      -4.8      6.722      9.620
REMARK  10 active torsions:
REMARK  status: ('A' for Active; 'I' for Inactive)
REMARK    1  A    between atoms: N2_2  and  C3_3 
REMARK    2  A    between atoms: C3_3  and  N8_8 
REMARK    3  A    between atoms: C4_4  and  N5_5 
REMARK    4  A    between atoms: N8_8  and  C9_9 
REMARK    5  A    between atoms: C9_9  and  C10_10 
REMARK    6  A    between atoms: C10_10  and  S11_11 
REMARK    7  A    between atoms: S11_11  and  C12_12 
REMARK    8  A    between atoms: C12_12  and  C13_13 
REMARK    9  A    between atoms: C16_16  and  C17_17 
REMARK   10  A    between atoms: C17_17  and  N18_18 
ROOT
ATOM      1  C10 ZIN A   1      17.828   0.506  10.160  0.00  0.00     0.093 C 
ENDROOT
BRANCH   1   2
ATOM      2  C9  ZIN A   1      17.446  -0.262   8.893  0.00  0.00     0.131 C 
BRANCH   2   3
ATOM      3  N8  ZIN A   1      18.457  -1.287   8.621  0.00  0.00    -0.374 N 
ATOM      4  H27 ZIN A   1      18.813  -1.822   9.347  0.00  0.00     0.161 HD
BRANCH   3   5
ATOM      5  C3  ZIN A   1      18.907  -1.491   7.322  0.00  0.00     0.118 C 
ATOM      6  C4  ZIN A   1      18.461  -0.719   6.335  0.00  0.00     0.215 C 
BRANCH   5   7
ATOM      7  N2  ZIN A   1      19.821  -2.503   7.055  0.00  0.00    -0.380 N 
ATOM      8  C1  ZIN A   1      19.361  -3.887   6.908  0.00  0.00     0.147 C 
ATOM      9  H25 ZIN A   1      20.764  -2.294   6.965  0.00  0.00     0.160 HD
ENDBRANCH   5   7
BRANCH   6  10
ATOM     10  N5  ZIN A   1      18.836  -1.017   4.934  0.00  0.00    -0.124 N 
ATOM     11  O6  ZIN A   1      17.987  -1.384   4.141  0.00  0.00    -0.532 OA
ATOM     12  O7  ZIN A   1      19.994  -0.898   4.574  0.00  0.00    -0.532 OA
ENDBRANCH   6  10
ENDBRANCH   3   5
ENDBRANCH   2   3
ENDBRANCH   1   2
BRANCH   1  13
ATOM     13  S11 ZIN A   1      16.737   0.010  11.521  0.00  0.00    -0.161 SA
BRANCH  13  14
ATOM     14  C12 ZIN A   1      17.858  -0.872  12.643  0.00  0.00     0.133 C 
BRANCH  14  15
ATOM     15  C13 ZIN A   1      18.193  -2.220  12.060  0.00  0.00     0.051 A 
ATOM     16  N21 ZIN A   1      17.272  -3.099  11.719  0.00  0.00    -0.247 NA
ATOM     17  C16 ZIN A   1      17.681  -4.218  11.225  0.00  0.00     0.103 A 
ATOM     18  S15 ZIN A   1      19.390  -4.247  11.165  0.00  0.00    -0.083 SA
ATOM     19  C14 ZIN A   1      19.450  -2.626  11.852  0.00  0.00     0.079 A 
BRANCH  17  20
ATOM     20  C17 ZIN A   1      16.784  -5.342  10.773  0.00  0.00     0.338 C 
BRANCH  20  21
ATOM     21  N18 ZIN A   1      16.812  -5.432   9.308  0.00  0.00     0.086 N 
ATOM     22  C19 ZIN A   1      17.677  -6.533   8.864  0.00  0.00     0.309 C 
ATOM     23  C20 ZIN A   1      15.456  -5.575   8.762  0.00  0.00     0.309 C 
ENDBRANCH  20  21
ENDBRANCH  17  20
ENDBRANCH  14  15
ENDBRANCH  13  14
ENDBRANCH   1  13
TORSDOF 10
ENDMDL
MODEL 8
REMARK VINA RESULT:      -4.8      3.500      5.764
REMARK  10 active torsions:
REMARK  status: ('A' for Active; 'I' for Inactive)
REMARK    1  A    between atoms: N2_2  and  C3_3 
REMARK    2  A    between atoms: C3_3  and  N8_8 
REMARK    3  A    between atoms: C4_4  and  N5_5 
REMARK    4  A    between atoms: N8_8  and  C9_9 
REMARK    5  A    between atoms: C9_9  and  C10_10 
REMARK    6  A    between atoms: C10_10  and  S11_11 
REMARK    7  A    between atoms: S11_11  and  C12_12 
REMARK    8  A    between atoms: C12_12  and  C13_13 
REMARK    9  A    between atoms: C16_16  and  C17_17 
REMARK   10  A    between atoms: C17_17  and  N18_18 
ROOT
ATOM      1  C10 ZIN A   1      20.198   0.320  13.133  0.00  0.00     0.093 C 
ENDROOT
BRANCH   1   2
ATOM      2  C9  ZIN A   1      20.210   0.651  11.639  0.00  0.00     0.131 C 
BRANCH   2   3
ATOM      3  N8  ZIN A   1      20.208   2.105  11.463  0.00  0.00    -0.374 N 
ATOM      4  H27 ZIN A   1      20.948   2.635  11.796  0.00  0.00     0.161 HD
BRANCH   3   5
ATOM      5  C3  ZIN A   1      19.145   2.725  10.816  0.00  0.00     0.118 C 
ATOM      6  C4  ZIN A   1      18.765   3.946  11.182  0.00  0.00     0.215 C 
BRANCH   5   7
ATOM      7  N2  ZIN A   1      18.480   2.069   9.788  0.00  0.00    -0.380 N 
ATOM      8  C1  ZIN A   1      19.104   1.954   8.467  0.00  0.00     0.147 C 
ATOM      9  H25 ZIN A   1      17.602   1.686   9.944  0.00  0.00     0.160 HD
ENDBRANCH   5   7
BRANCH   6  10
ATOM     10  N5  ZIN A   1      17.554   4.555  10.586  0.00  0.00    -0.124 N 
ATOM     11  O6  ZIN A   1      16.467   4.382  11.108  0.00  0.00    -0.532 OA
ATOM     12  O7  ZIN A   1      17.644   5.226   9.574  0.00  0.00    -0.532 OA
ENDBRANCH   6  10
ENDBRANCH   3   5
ENDBRANCH   2   3
ENDBRANCH   1   2
BRANCH   1  13
ATOM     13  S11 ZIN A   1      18.499   0.419  13.761  0.00  0.00    -0.161 SA
BRANCH  13  14
ATOM     14  C12 ZIN A   1      18.680  -0.049  15.504  0.00  0.00     0.133 C 
BRANCH  14  15
ATOM     15  C13 ZIN A   1      18.873   1.189  16.340  0.00  0.00     0.051 A 
ATOM     16  N21 ZIN A   1      19.370   2.309  15.853  0.00  0.00    -0.247 NA
ATOM     17  C16 ZIN A   1      19.483   3.305  16.664  0.00  0.00     0.103 A 
ATOM     18  S15 ZIN A   1      18.939   2.860  18.223  0.00  0.00    -0.083 SA
ATOM     19  C14 ZIN A   1      18.559   1.242  17.638  0.00  0.00     0.079 A 
BRANCH  17  20
ATOM     20  C17 ZIN A   1      20.023   4.663  16.294  0.00  0.00     0.338 C 
BRANCH  20  21
ATOM     21  N18 ZIN A   1      19.191   5.248  15.235  0.00  0.00     0.086 N 
ATOM     22  C19 ZIN A   1      18.074   6.014  15.805  0.00  0.00     0.309 C 
ATOM     23  C20 ZIN A   1      19.995   6.084  14.334  0.00  0.00     0.309 C 
ENDBRANCH  20  21
ENDBRANCH  17  20
ENDBRANCH  14  15
ENDBRANCH  13  14
ENDBRANCH   1  13
TORSDOF 10
ENDMDL
MODEL 9
REMARK VINA RESULT:      -4.8      3.697      5.871
REMARK  10 active torsions:
REMARK  status: ('A' for Active; 'I' for Inactive)
REMARK    1  A    between atoms: N2_2  and  C3_3 
REMARK    2  A    between atoms: C3_3  and  N8_8 
REMARK    3  A    between atoms: C4_4  and  N5_5 
REMARK    4  A    between atoms: N8_8  and  C9_9 
REMARK    5  A    between atoms: C9_9  and  C10_10 
REMARK    6  A    between atoms: C10_10  and  S11_11 
REMARK    7  A    between atoms: S11_11  and  C12_12 
REMARK    8  A    between atoms: C12_12  and  C13_13 
REMARK    9  A    between atoms: C16_16  and  C17_17 
REMARK   10  A    between atoms: C17_17  and  N18_18 
ROOT
ATOM      1  C10 ZIN A   1      19.629   2.964  11.668  0.00  0.00     0.093 C 
ENDROOT
BRANCH   1   2
ATOM      2  C9  ZIN A   1      20.197   1.561  11.894  0.00  0.00     0.131 C 
BRANCH   2   3
ATOM      3  N8  ZIN A   1      20.103   0.792  10.651  0.00  0.00    -0.374 N 
ATOM      4  H27 ZIN A   1      20.410   1.178   9.817  0.00  0.00     0.161 HD
BRANCH   3   5
ATOM      5  C3  ZIN A   1      19.574  -0.494  10.668  0.00  0.00     0.118 C 
ATOM      6  C4  ZIN A   1      18.737  -0.856  11.637  0.00  0.00     0.215 C 
BRANCH   5   7
ATOM      7  N2  ZIN A   1      19.920  -1.400   9.674  0.00  0.00    -0.380 N 
ATOM      8  C1  ZIN A   1      19.295  -1.311   8.351  0.00  0.00     0.147 C 
ATOM      9  H25 ZIN A   1      20.576  -2.092   9.854  0.00  0.00     0.160 HD
ENDBRANCH   5   7
BRANCH   6  10
ATOM     10  N5  ZIN A   1      18.277  -2.260  11.731  0.00  0.00    -0.124 N 
ATOM     11  O6  ZIN A   1      19.075  -3.147  11.976  0.00  0.00    -0.532 OA
ATOM     12  O7  ZIN A   1      17.101  -2.528  11.562  0.00  0.00    -0.532 OA
ENDBRANCH   6  10
ENDBRANCH   3   5
ENDBRANCH   2   3
ENDBRANCH   1   2
BRANCH   1  13
ATOM     13  S11 ZIN A   1      17.829   2.931  11.888  0.00  0.00    -0.161 SA
BRANCH  13  14
ATOM     14  C12 ZIN A   1      17.553   4.163  13.189  0.00  0.00     0.133 C 
BRANCH  14  15
ATOM     15  C13 ZIN A   1      18.268   3.737  14.445  0.00  0.00     0.051 A 
ATOM     16  N21 ZIN A   1      18.240   2.499  14.896  0.00  0.00    -0.247 NA
ATOM     17  C16 ZIN A   1      18.895   2.252  15.980  0.00  0.00     0.103 A 
ATOM     18  S15 ZIN A   1      19.640   3.680  16.556  0.00  0.00    -0.083 SA
ATOM     19  C14 ZIN A   1      18.979   4.584  15.196  0.00  0.00     0.079 A 
BRANCH  17  20
ATOM     20  C17 ZIN A   1      18.986   0.903  16.646  0.00  0.00     0.338 C 
BRANCH  20  21
ATOM     21  N18 ZIN A   1      18.168  -0.065  15.904  0.00  0.00     0.086 N 
ATOM     22  C19 ZIN A   1      19.002  -1.133  15.336  0.00  0.00     0.309 C 
ATOM     23  C20 ZIN A   1      17.108  -0.622  16.755  0.00  0.00     0.309 C 
ENDBRANCH  20  21
ENDBRANCH  17  20
ENDBRANCH  14  15
ENDBRANCH  13  14
ENDBRANCH   1  13
TORSDOF 10
ENDMDL
