MODEL 1
REMARK VINA RESULT:      -9.8      0.000      0.000
REMARK  6 active torsions:
REMARK  status: ('A' for Active; 'I' for Inactive)
REMARK    1  A    between atoms: C5_5  and  C6_6 
REMARK       I    between atoms: C6_6  and  N8_8 
REMARK    2  A    between atoms: N8_8  and  C9_9 
REMARK    3  A    between atoms: C9_9  and  C12_12 
REMARK    4  A    between atoms: C14_14  and  C15_15 
REMARK    5  A    between atoms: N17_17  and  C18_18 
REMARK    6  A    between atoms: C18_18  and  C19_19 
ROOT
ATOM      1  C12 ZIN A   1      18.442   0.882  15.671  0.00  0.00     0.137 A 
ATOM      2  N13 ZIN A   1      18.221   1.373  14.484  0.00  0.00    -0.225 NA
ATOM      3  C14 ZIN A   1      18.553   2.640  14.175  0.00  0.00     0.156 A 
ATOM      4  C26 ZIN A   1      19.142   3.446  15.135  0.00  0.00     0.208 A 
ATOM      5  O27 ZIN A   1      19.486   4.728  14.852  0.00  0.00    -0.183 OA
ATOM      6  C28 ZIN A   1      19.377   2.897  16.423  0.00  0.00     0.287 A 
ATOM      7  O29 ZIN A   1      19.892   3.567  17.301  0.00  0.00    -0.265 OA
ATOM      8  N30 ZIN A   1      19.010   1.618  16.655  0.00  0.00    -0.302 N 
ATOM      9  C31 ZIN A   1      19.238   1.022  17.974  0.00  0.00     0.161 C 
ENDROOT
BRANCH   1  10
ATOM     10  C9  ZIN A   1      18.049  -0.544  15.956  0.00  0.00     0.086 C 
ATOM     11  C10 ZIN A   1      16.804  -0.563  16.844  0.00  0.00     0.046 C 
ATOM     12  C11 ZIN A   1      19.198  -1.257  16.672  0.00  0.00     0.046 C 
BRANCH  10  13
ATOM     13  N8  ZIN A   1      17.759  -1.232  14.695  0.00  0.00    -0.338 N 
ATOM     14  C6  ZIN A   1      18.770  -1.672  13.920  0.00  0.00     0.297 C 
ATOM     15  O7  ZIN A   1      19.923  -1.499  14.266  0.00  0.00    -0.264 OA
ATOM     16  H36 ZIN A   1      16.840  -1.371  14.418  0.00  0.00     0.164 HD
BRANCH  14  17
ATOM     17  C5  ZIN A   1      18.478  -2.365  12.652  0.00  0.00     0.261 A 
ATOM     18  N4  ZIN A   1      17.381  -2.257  11.939  0.00  0.00    -0.116 NA
ATOM     19  N3  ZIN A   1      17.478  -3.005  10.897  0.00  0.00    -0.127 NA
ATOM     20  C2  ZIN A   1      18.635  -3.616  10.905  0.00  0.00     0.166 A 
ATOM     21  C1  ZIN A   1      19.138  -4.581   9.862  0.00  0.00     0.102 C 
ATOM     22  O32 ZIN A   1      19.289  -3.233  12.009  0.00  0.00    -0.270 OA
ENDBRANCH  14  17
ENDBRANCH  10  13
ENDBRANCH   1  10
BRANCH   3  23
ATOM     23  C15 ZIN A   1      18.288   3.169  12.818  0.00  0.00     0.228 C 
ATOM     24  O16 ZIN A   1      17.277   4.045  12.619  0.00  0.00    -0.168 OA
ATOM     25  N17 ZIN A   1      19.027   2.791  11.818  0.00  0.00    -0.258 NA
BRANCH  25  26
ATOM     26  C18 ZIN A   1      18.763   3.313  10.474  0.00  0.00     0.190 C 
BRANCH  26  27
ATOM     27  C19 ZIN A   1      18.519   2.165   9.528  0.00  0.00    -0.038 A 
ATOM     28  C25 ZIN A   1      19.137   2.145   8.292  0.00  0.00     0.012 A 
ATOM     29  C24 ZIN A   1      18.918   1.091   7.425  0.00  0.00     0.043 A 
ATOM     30  C22 ZIN A   1      18.072   0.058   7.793  0.00  0.00     0.116 A 
ATOM     31  C21 ZIN A   1      17.450   0.081   9.030  0.00  0.00     0.043 A 
ATOM     32  F23 ZIN A   1      17.854  -0.971   6.946  0.00  0.00    -0.206 F 
ATOM     33  C20 ZIN A   1      17.674   1.135   9.896  0.00  0.00     0.012 A 
ENDBRANCH  26  27
ENDBRANCH  25  26
ENDBRANCH   3  23
TORSDOF 6
ENDMDL
MODEL 2
REMARK VINA RESULT:      -9.3      2.343      6.707
REMARK  6 active torsions:
REMARK  status: ('A' for Active; 'I' for Inactive)
REMARK    1  A    between atoms: C5_5  and  C6_6 
REMARK       I    between atoms: C6_6  and  N8_8 
REMARK    2  A    between atoms: N8_8  and  C9_9 
REMARK    3  A    between atoms: C9_9  and  C12_12 
REMARK    4  A    between atoms: C14_14  and  C15_15 
REMARK    5  A    between atoms: N17_17  and  C18_18 
REMARK    6  A    between atoms: C18_18  and  C19_19 
ROOT
ATOM      1  C12 ZIN A   1      18.983   2.678  11.593  0.00  0.00     0.137 A 
ATOM      2  N13 ZIN A   1      19.443   1.478  11.807  0.00  0.00    -0.225 NA
ATOM      3  C14 ZIN A   1      19.649   0.612  10.797  0.00  0.00     0.156 A 
ATOM      4  C26 ZIN A   1      19.366   1.000   9.498  0.00  0.00     0.208 A 
ATOM      5  O27 ZIN A   1      19.563   0.148   8.459  0.00  0.00    -0.183 OA
ATOM      6  C28 ZIN A   1      18.867   2.311   9.279  0.00  0.00     0.287 A 
ATOM      7  O29 ZIN A   1      18.603   2.697   8.154  0.00  0.00    -0.265 OA
ATOM      8  N30 ZIN A   1      18.683   3.117  10.347  0.00  0.00    -0.302 N 
ATOM      9  C31 ZIN A   1      18.168   4.475  10.155  0.00  0.00     0.161 C 
ENDROOT
BRANCH   1  10
ATOM     10  C9  ZIN A   1      18.775   3.601  12.765  0.00  0.00     0.086 C 
ATOM     11  C10 ZIN A   1      17.349   4.155  12.733  0.00  0.00     0.046 C 
ATOM     12  C11 ZIN A   1      19.773   4.758  12.687  0.00  0.00     0.046 C 
BRANCH  10  13
ATOM     13  N8  ZIN A   1      18.983   2.860  14.012  0.00  0.00    -0.338 N 
ATOM     14  C6  ZIN A   1      18.905   3.499  15.196  0.00  0.00     0.297 C 
ATOM     15  O7  ZIN A   1      18.662   4.690  15.230  0.00  0.00    -0.264 OA
ATOM     16  H36 ZIN A   1      19.177   1.910  13.985  0.00  0.00     0.164 HD
BRANCH  14  17
ATOM     17  C5  ZIN A   1      19.114   2.754  16.451  0.00  0.00     0.261 A 
ATOM     18  N4  ZIN A   1      19.641   3.223  17.557  0.00  0.00    -0.116 NA
ATOM     19  N3  ZIN A   1      19.665   2.291  18.444  0.00  0.00    -0.127 NA
ATOM     20  C2  ZIN A   1      19.156   1.196  17.938  0.00  0.00     0.166 A 
ATOM     21  C1  ZIN A   1      19.001  -0.124  18.649  0.00  0.00     0.102 C 
ATOM     22  O32 ZIN A   1      18.802   1.459  16.674  0.00  0.00    -0.270 OA
ENDBRANCH  14  17
ENDBRANCH  10  13
ENDBRANCH   1  10
BRANCH   3  23
ATOM     23  C15 ZIN A   1      20.171  -0.745  11.074  0.00  0.00     0.228 C 
ATOM     24  O16 ZIN A   1      21.470  -1.033  10.832  0.00  0.00    -0.168 OA
ATOM     25  N17 ZIN A   1      19.379  -1.660  11.550  0.00  0.00    -0.258 NA
BRANCH  25  26
ATOM     26  C18 ZIN A   1      19.895  -3.004  11.823  0.00  0.00     0.190 C 
BRANCH  26  27
ATOM     27  C19 ZIN A   1      18.998  -4.027  11.174  0.00  0.00    -0.038 A 
ATOM     28  C25 ZIN A   1      19.461  -4.773  10.106  0.00  0.00     0.012 A 
ATOM     29  C24 ZIN A   1      18.641  -5.714   9.513  0.00  0.00     0.043 A 
ATOM     30  C22 ZIN A   1      17.352  -5.904   9.983  0.00  0.00     0.116 A 
ATOM     31  C21 ZIN A   1      16.889  -5.153  11.050  0.00  0.00     0.043 A 
ATOM     32  F23 ZIN A   1      16.549  -6.821   9.402  0.00  0.00    -0.206 F 
ATOM     33  C20 ZIN A   1      17.713  -4.215  11.644  0.00  0.00     0.012 A 
ENDBRANCH  26  27
ENDBRANCH  25  26
ENDBRANCH   3  23
TORSDOF 6
ENDMDL
MODEL 3
REMARK VINA RESULT:      -9.3      2.862      6.813
REMARK  6 active torsions:
REMARK  status: ('A' for Active; 'I' for Inactive)
REMARK    1  A    between atoms: C5_5  and  C6_6 
REMARK       I    between atoms: C6_6  and  N8_8 
REMARK    2  A    between atoms: N8_8  and  C9_9 
REMARK    3  A    between atoms: C9_9  and  C12_12 
REMARK    4  A    between atoms: C14_14  and  C15_15 
REMARK    5  A    between atoms: N17_17  and  C18_18 
REMARK    6  A    between atoms: C18_18  and  C19_19 
ROOT
ATOM      1  C12 ZIN A   1      18.445  -3.488   9.538  0.00  0.00     0.137 A 
ATOM      2  N13 ZIN A   1      18.274  -2.215   9.318  0.00  0.00    -0.225 NA
ATOM      3  C14 ZIN A   1      18.667  -1.641   8.166  0.00  0.00     0.156 A 
ATOM      4  C26 ZIN A   1      19.271  -2.414   7.188  0.00  0.00     0.208 A 
ATOM      5  O27 ZIN A   1      19.679  -1.862   6.017  0.00  0.00    -0.183 OA
ATOM      6  C28 ZIN A   1      19.451  -3.799   7.442  0.00  0.00     0.287 A 
ATOM      7  O29 ZIN A   1      19.977  -4.521   6.612  0.00  0.00    -0.265 OA
ATOM      8  N30 ZIN A   1      19.033  -4.298   8.625  0.00  0.00    -0.302 N 
ATOM      9  C31 ZIN A   1      19.205  -5.723   8.918  0.00  0.00     0.161 C 
ENDROOT
BRANCH   1  10
ATOM     10  C9  ZIN A   1      17.982  -4.072  10.847  0.00  0.00     0.086 C 
ATOM     11  C10 ZIN A   1      19.110  -4.902  11.464  0.00  0.00     0.046 C 
ATOM     12  C11 ZIN A   1      16.764  -4.966  10.604  0.00  0.00     0.046 C 
BRANCH  10  13
ATOM     13  N8  ZIN A   1      17.617  -2.988  11.763  0.00  0.00    -0.338 N 
ATOM     14  C6  ZIN A   1      18.568  -2.373  12.492  0.00  0.00     0.297 C 
ATOM     15  O7  ZIN A   1      19.730  -2.716  12.391  0.00  0.00    -0.264 OA
ATOM     16  H36 ZIN A   1      16.690  -2.714  11.844  0.00  0.00     0.164 HD
BRANCH  14  17
ATOM     17  C5  ZIN A   1      18.200  -1.282  13.413  0.00  0.00     0.261 A 
ATOM     18  N4  ZIN A   1      17.778  -0.086  13.075  0.00  0.00    -0.116 NA
ATOM     19  N3  ZIN A   1      17.552   0.601  14.140  0.00  0.00    -0.127 NA
ATOM     20  C2  ZIN A   1      17.821  -0.129  15.192  0.00  0.00     0.166 A 
ATOM     21  C1  ZIN A   1      17.690   0.304  16.631  0.00  0.00     0.102 C 
ATOM     22  O32 ZIN A   1      18.238  -1.326  14.762  0.00  0.00    -0.270 OA
ENDBRANCH  14  17
ENDBRANCH  10  13
ENDBRANCH   1  10
BRANCH   3  23
ATOM     23  C15 ZIN A   1      18.459  -0.191   7.947  0.00  0.00     0.228 C 
ATOM     24  O16 ZIN A   1      17.437   0.236   7.172  0.00  0.00    -0.168 OA
ATOM     25  N17 ZIN A   1      19.260   0.670   8.500  0.00  0.00    -0.258 NA
BRANCH  25  26
ATOM     26  C18 ZIN A   1      19.055   2.105   8.282  0.00  0.00     0.190 C 
BRANCH  26  27
ATOM     27  C19 ZIN A   1      18.874   2.793   9.612  0.00  0.00    -0.038 A 
ATOM     28  C25 ZIN A   1      19.528   2.315  10.731  0.00  0.00     0.012 A 
ATOM     29  C24 ZIN A   1      19.367   2.947  11.950  0.00  0.00     0.043 A 
ATOM     30  C22 ZIN A   1      18.541   4.055  12.050  0.00  0.00     0.116 A 
ATOM     31  C21 ZIN A   1      17.883   4.529  10.928  0.00  0.00     0.043 A 
ATOM     32  F23 ZIN A   1      18.379   4.671  13.241  0.00  0.00    -0.206 F 
ATOM     33  C20 ZIN A   1      18.050   3.897   9.710  0.00  0.00     0.012 A 
ENDBRANCH  26  27
ENDBRANCH  25  26
ENDBRANCH   3  23
TORSDOF 6
ENDMDL
MODEL 4
REMARK VINA RESULT:      -9.1      3.093      8.346
REMARK  6 active torsions:
REMARK  status: ('A' for Active; 'I' for Inactive)
REMARK    1  A    between atoms: C5_5  and  C6_6 
REMARK       I    between atoms: C6_6  and  N8_8 
REMARK    2  A    between atoms: N8_8  and  C9_9 
REMARK    3  A    between atoms: C9_9  and  C12_12 
REMARK    4  A    between atoms: C14_14  and  C15_15 
REMARK    5  A    between atoms: N17_17  and  C18_18 
REMARK    6  A    between atoms: C18_18  and  C19_19 
ROOT
ATOM      1  C12 ZIN A   1      18.529  -1.117   7.467  0.00  0.00     0.137 A 
ATOM      2  N13 ZIN A   1      18.384  -1.449   8.719  0.00  0.00    -0.225 NA
ATOM      3  C14 ZIN A   1      18.782  -2.649   9.180  0.00  0.00     0.156 A 
ATOM      4  C26 ZIN A   1      19.358  -3.558   8.308  0.00  0.00     0.208 A 
ATOM      5  O27 ZIN A   1      19.768  -4.777   8.745  0.00  0.00    -0.183 OA
ATOM      6  C28 ZIN A   1      19.510  -3.183   6.948  0.00  0.00     0.287 A 
ATOM      7  O29 ZIN A   1      20.012  -3.949   6.143  0.00  0.00    -0.265 OA
ATOM      8  N30 ZIN A   1      19.080  -1.962   6.563  0.00  0.00    -0.302 N 
ATOM      9  C31 ZIN A   1      19.222  -1.546   5.166  0.00  0.00     0.161 C 
ENDROOT
BRANCH   1  10
ATOM     10  C9  ZIN A   1      18.064   0.241   7.012  0.00  0.00     0.086 C 
ATOM     11  C10 ZIN A   1      16.806   0.091   6.155  0.00  0.00     0.046 C 
ATOM     12  C11 ZIN A   1      19.167   0.908   6.186  0.00  0.00     0.046 C 
BRANCH  10  13
ATOM     13  N8  ZIN A   1      17.762   1.071   8.182  0.00  0.00    -0.338 N 
ATOM     14  C6  ZIN A   1      18.762   1.659   8.867  0.00  0.00     0.297 C 
ATOM     15  O7  ZIN A   1      19.916   1.501   8.516  0.00  0.00    -0.264 OA
ATOM     16  H36 ZIN A   1      16.842   1.197   8.462  0.00  0.00     0.164 HD
BRANCH  14  17
ATOM     17  C5  ZIN A   1      18.458   2.494  10.043  0.00  0.00     0.261 A 
ATOM     18  N4  ZIN A   1      17.273   2.690  10.574  0.00  0.00    -0.116 NA
ATOM     19  N3  ZIN A   1      17.388   3.474  11.587  0.00  0.00    -0.127 NA
ATOM     20  C2  ZIN A   1      18.644   3.806  11.741  0.00  0.00     0.166 A 
ATOM     21  C1  ZIN A   1      19.201   4.710  12.811  0.00  0.00     0.102 C 
ATOM     22  O32 ZIN A   1      19.345   3.203  10.773  0.00  0.00    -0.270 OA
ENDBRANCH  14  17
ENDBRANCH  10  13
ENDBRANCH   1  10
BRANCH   3  23
ATOM     23  C15 ZIN A   1      18.601  -2.995  10.608  0.00  0.00     0.228 C 
ATOM     24  O16 ZIN A   1      17.787  -4.016  10.959  0.00  0.00    -0.168 OA
ATOM     25  N17 ZIN A   1      19.226  -2.317  11.524  0.00  0.00    -0.258 NA
BRANCH  25  26
ATOM     26  C18 ZIN A   1      19.047  -2.659  12.937  0.00  0.00     0.190 C 
BRANCH  26  27
ATOM     27  C19 ZIN A   1      19.086  -1.400  13.767  0.00  0.00    -0.038 A 
ATOM     28  C25 ZIN A   1      19.423  -0.196  13.178  0.00  0.00     0.012 A 
ATOM     29  C24 ZIN A   1      19.455   0.959  13.937  0.00  0.00     0.043 A 
ATOM     30  C22 ZIN A   1      19.158   0.908  15.288  0.00  0.00     0.116 A 
ATOM     31  C21 ZIN A   1      18.825  -0.300  15.877  0.00  0.00     0.043 A 
ATOM     32  F23 ZIN A   1      19.192   2.036  16.031  0.00  0.00    -0.206 F 
ATOM     33  C20 ZIN A   1      18.789  -1.453  15.115  0.00  0.00     0.012 A 
ENDBRANCH  26  27
ENDBRANCH  25  26
ENDBRANCH   3  23
TORSDOF 6
ENDMDL
MODEL 5
REMARK VINA RESULT:      -8.8      4.337      7.680
REMARK  6 active torsions:
REMARK  status: ('A' for Active; 'I' for Inactive)
REMARK    1  A    between atoms: C5_5  and  C6_6 
REMARK       I    between atoms: C6_6  and  N8_8 
REMARK    2  A    between atoms: N8_8  and  C9_9 
REMARK    3  A    between atoms: C9_9  and  C12_12 
REMARK    4  A    between atoms: C14_14  and  C15_15 
REMARK    5  A    between atoms: N17_17  and  C18_18 
REMARK    6  A    between atoms: C18_18  and  C19_19 
ROOT
ATOM      1  C12 ZIN A   1      18.433  -2.966   8.936  0.00  0.00     0.137 A 
ATOM      2  N13 ZIN A   1      18.560  -2.171   9.961  0.00  0.00    -0.225 NA
ATOM      3  C14 ZIN A   1      18.982  -0.900   9.817  0.00  0.00     0.156 A 
ATOM      4  C26 ZIN A   1      19.290  -0.422   8.555  0.00  0.00     0.208 A 
ATOM      5  O27 ZIN A   1      19.719   0.855   8.380  0.00  0.00    -0.183 OA
ATOM      6  C28 ZIN A   1      19.146  -1.299   7.448  0.00  0.00     0.287 A 
ATOM      7  O29 ZIN A   1      19.405  -0.923   6.318  0.00  0.00    -0.265 OA
ATOM      8  N30 ZIN A   1      18.722  -2.561   7.676  0.00  0.00    -0.302 N 
ATOM      9  C31 ZIN A   1      18.564  -3.491   6.556  0.00  0.00     0.161 C 
ENDROOT
BRANCH   1  10
ATOM     10  C9  ZIN A   1      17.956  -4.377   9.161  0.00  0.00     0.086 C 
ATOM     11  C10 ZIN A   1      17.459  -4.526  10.600  0.00  0.00     0.046 C 
ATOM     12  C11 ZIN A   1      19.110  -5.351   8.916  0.00  0.00     0.046 C 
BRANCH  10  13
ATOM     13  N8  ZIN A   1      16.861  -4.675   8.233  0.00  0.00    -0.338 N 
ATOM     14  C6  ZIN A   1      16.191  -5.840   8.334  0.00  0.00     0.297 C 
ATOM     15  O7  ZIN A   1      16.494  -6.644   9.195  0.00  0.00    -0.264 OA
ATOM     16  H36 ZIN A   1      16.619  -4.034   7.547  0.00  0.00     0.164 HD
BRANCH  14  17
ATOM     17  C5  ZIN A   1      15.090  -6.140   7.402  0.00  0.00     0.261 A 
ATOM     18  N4  ZIN A   1      13.861  -6.467   7.726  0.00  0.00    -0.116 NA
ATOM     19  N3  ZIN A   1      13.175  -6.656   6.654  0.00  0.00    -0.127 NA
ATOM     20  C2  ZIN A   1      13.938  -6.458   5.609  0.00  0.00     0.166 A 
ATOM     21  C1  ZIN A   1      13.519  -6.578   4.166  0.00  0.00     0.102 C 
ATOM     22  O32 ZIN A   1      15.159  -6.134   6.053  0.00  0.00    -0.270 OA
ENDBRANCH  14  17
ENDBRANCH  10  13
ENDBRANCH   1  10
BRANCH   3  23
ATOM     23  C15 ZIN A   1      19.118  -0.023  11.002  0.00  0.00     0.228 C 
ATOM     24  O16 ZIN A   1      18.323   1.064  11.133  0.00  0.00    -0.168 OA
ATOM     25  N17 ZIN A   1      20.001  -0.297  11.915  0.00  0.00    -0.258 NA
BRANCH  25  26
ATOM     26  C18 ZIN A   1      20.136   0.572  13.087  0.00  0.00     0.190 C 
BRANCH  26  27
ATOM     27  C19 ZIN A   1      19.245   0.067  14.192  0.00  0.00    -0.038 A 
ATOM     28  C25 ZIN A   1      18.245   0.877  14.698  0.00  0.00     0.012 A 
ATOM     29  C24 ZIN A   1      17.424   0.413  15.709  0.00  0.00     0.043 A 
ATOM     30  C22 ZIN A   1      17.609  -0.860  16.221  0.00  0.00     0.116 A 
ATOM     31  C21 ZIN A   1      18.614  -1.669  15.716  0.00  0.00     0.043 A 
ATOM     32  F23 ZIN A   1      16.810  -1.313  17.211  0.00  0.00    -0.206 F 
ATOM     33  C20 ZIN A   1      19.431  -1.204  14.702  0.00  0.00     0.012 A 
ENDBRANCH  26  27
ENDBRANCH  25  26
ENDBRANCH   3  23
TORSDOF 6
ENDMDL
MODEL 6
REMARK VINA RESULT:      -8.7      3.228      6.550
REMARK  6 active torsions:
REMARK  status: ('A' for Active; 'I' for Inactive)
REMARK    1  A    between atoms: C5_5  and  C6_6 
REMARK       I    between atoms: C6_6  and  N8_8 
REMARK    2  A    between atoms: N8_8  and  C9_9 
REMARK    3  A    between atoms: C9_9  and  C12_12 
REMARK    4  A    between atoms: C14_14  and  C15_15 
REMARK    5  A    between atoms: N17_17  and  C18_18 
REMARK    6  A    between atoms: C18_18  and  C19_19 
ROOT
ATOM      1  C12 ZIN A   1      18.261   2.377  13.116  0.00  0.00     0.137 A 
ATOM      2  N13 ZIN A   1      18.091   1.464  12.201  0.00  0.00    -0.225 NA
ATOM      3  C14 ZIN A   1      18.311   0.161  12.458  0.00  0.00     0.156 A 
ATOM      4  C26 ZIN A   1      18.729  -0.225  13.721  0.00  0.00     0.208 A 
ATOM      5  O27 ZIN A   1      18.960  -1.531  14.008  0.00  0.00    -0.183 OA
ATOM      6  C28 ZIN A   1      18.910   0.780  14.706  0.00  0.00     0.287 A 
ATOM      7  O29 ZIN A   1      19.277   0.490  15.832  0.00  0.00    -0.265 OA
ATOM      8  N30 ZIN A   1      18.674   2.066  14.368  0.00  0.00    -0.302 N 
ATOM      9  C31 ZIN A   1      18.852   3.127  15.363  0.00  0.00     0.161 C 
ENDROOT
BRANCH   1  10
ATOM     10  C9  ZIN A   1      17.998   3.819  12.767  0.00  0.00     0.086 C 
ATOM     11  C10 ZIN A   1      17.467   3.910  11.336  0.00  0.00     0.046 C 
ATOM     12  C11 ZIN A   1      19.299   4.617  12.881  0.00  0.00     0.046 C 
BRANCH  10  13
ATOM     13  N8  ZIN A   1      17.005   4.371  13.693  0.00  0.00    -0.338 N 
ATOM     14  C6  ZIN A   1      16.414   5.551  13.422  0.00  0.00     0.297 C 
ATOM     15  O7  ZIN A   1      16.705   6.159  12.409  0.00  0.00    -0.264 OA
ATOM     16  H36 ZIN A   1      16.773   3.887  14.501  0.00  0.00     0.164 HD
BRANCH  14  17
ATOM     17  C5  ZIN A   1      15.415   6.106  14.353  0.00  0.00     0.261 A 
ATOM     18  N4  ZIN A   1      15.627   7.024  15.267  0.00  0.00    -0.116 NA
ATOM     19  N3  ZIN A   1      14.528   7.262  15.891  0.00  0.00    -0.127 NA
ATOM     20  C2  ZIN A   1      13.577   6.508  15.401  0.00  0.00     0.166 A 
ATOM     21  C1  ZIN A   1      12.139   6.482  15.854  0.00  0.00     0.102 C 
ATOM     22  O32 ZIN A   1      14.112   5.762  14.426  0.00  0.00    -0.270 OA
ENDBRANCH  14  17
ENDBRANCH  10  13
ENDBRANCH   1  10
BRANCH   3  23
ATOM     23  C15 ZIN A   1      18.109  -0.851  11.397  0.00  0.00     0.228 C 
ATOM     24  O16 ZIN A   1      17.066  -1.709  11.470  0.00  0.00    -0.168 OA
ATOM     25  N17 ZIN A   1      18.935  -0.915  10.396  0.00  0.00    -0.258 NA
BRANCH  25  26
ATOM     26  C18 ZIN A   1      18.736  -1.918   9.346  0.00  0.00     0.190 C 
BRANCH  26  27
ATOM     27  C19 ZIN A   1      18.882  -1.265   7.994  0.00  0.00    -0.038 A 
ATOM     28  C25 ZIN A   1      19.164  -2.036   6.882  0.00  0.00     0.012 A 
ATOM     29  C24 ZIN A   1      19.293  -1.439   5.642  0.00  0.00     0.043 A 
ATOM     30  C22 ZIN A   1      19.149  -0.068   5.516  0.00  0.00     0.116 A 
ATOM     31  C21 ZIN A   1      18.872   0.703   6.632  0.00  0.00     0.043 A 
ATOM     32  F23 ZIN A   1      19.279   0.517   4.305  0.00  0.00    -0.206 F 
ATOM     33  C20 ZIN A   1      18.739   0.104   7.870  0.00  0.00     0.012 A 
ENDBRANCH  26  27
ENDBRANCH  25  26
ENDBRANCH   3  23
TORSDOF 6
ENDMDL
MODEL 7
REMARK VINA RESULT:      -8.7      3.868      7.079
REMARK  6 active torsions:
REMARK  status: ('A' for Active; 'I' for Inactive)
REMARK    1  A    between atoms: C5_5  and  C6_6 
REMARK       I    between atoms: C6_6  and  N8_8 
REMARK    2  A    between atoms: N8_8  and  C9_9 
REMARK    3  A    between atoms: C9_9  and  C12_12 
REMARK    4  A    between atoms: C14_14  and  C15_15 
REMARK    5  A    between atoms: N17_17  and  C18_18 
REMARK    6  A    between atoms: C18_18  and  C19_19 
ROOT
ATOM      1  C12 ZIN A   1      18.363  -1.868   9.814  0.00  0.00     0.137 A 
ATOM      2  N13 ZIN A   1      18.208  -1.001  10.774  0.00  0.00    -0.225 NA
ATOM      3  C14 ZIN A   1      18.390   0.317  10.568  0.00  0.00     0.156 A 
ATOM      4  C26 ZIN A   1      18.753   0.768   9.310  0.00  0.00     0.208 A 
ATOM      5  O27 ZIN A   1      18.946   2.091   9.073  0.00  0.00    -0.183 OA
ATOM      6  C28 ZIN A   1      18.918  -0.189   8.274  0.00  0.00     0.287 A 
ATOM      7  O29 ZIN A   1      19.238   0.160   7.150  0.00  0.00    -0.265 OA
ATOM      8  N30 ZIN A   1      18.722  -1.493   8.562  0.00  0.00    -0.302 N 
ATOM      9  C31 ZIN A   1      18.885  -2.505   7.515  0.00  0.00     0.161 C 
ENDROOT
BRANCH   1  10
ATOM     10  C9  ZIN A   1      18.143  -3.329  10.106  0.00  0.00     0.086 C 
ATOM     11  C10 ZIN A   1      17.501  -3.484  11.486  0.00  0.00     0.046 C 
ATOM     12  C11 ZIN A   1      19.487  -4.062  10.083  0.00  0.00     0.046 C 
BRANCH  10  13
ATOM     13  N8  ZIN A   1      17.258  -3.903   9.089  0.00  0.00    -0.338 N 
ATOM     14  C6  ZIN A   1      16.875  -5.192   9.178  0.00  0.00     0.297 C 
ATOM     15  O7  ZIN A   1      17.264  -5.880  10.102  0.00  0.00    -0.264 OA
ATOM     16  H36 ZIN A   1      16.947  -3.354   8.352  0.00  0.00     0.164 HD
BRANCH  14  17
ATOM     17  C5  ZIN A   1      15.984  -5.768   8.155  0.00  0.00     0.261 A 
ATOM     18  N4  ZIN A   1      16.310  -6.076   6.921  0.00  0.00    -0.116 NA
ATOM     19  N3  ZIN A   1      15.280  -6.556   6.318  0.00  0.00    -0.127 NA
ATOM     20  C2  ZIN A   1      14.262  -6.572   7.140  0.00  0.00     0.166 A 
ATOM     21  C1  ZIN A   1      12.871  -7.059   6.824  0.00  0.00     0.102 C 
ATOM     22  O32 ZIN A   1      14.678  -6.074   8.312  0.00  0.00    -0.270 OA
ENDBRANCH  14  17
ENDBRANCH  10  13
ENDBRANCH   1  10
BRANCH   3  23
ATOM     23  C15 ZIN A   1      18.207   1.276  11.680  0.00  0.00     0.228 C 
ATOM     24  O16 ZIN A   1      17.173   2.148  11.659  0.00  0.00    -0.168 OA
ATOM     25  N17 ZIN A   1      19.041   1.281  12.677  0.00  0.00    -0.258 NA
BRANCH  25  26
ATOM     26  C18 ZIN A   1      18.860   2.232  13.778  0.00  0.00     0.190 C 
BRANCH  26  27
ATOM     27  C19 ZIN A   1      18.936   1.498  15.092  0.00  0.00    -0.038 A 
ATOM     28  C25 ZIN A   1      18.762   0.127  15.129  0.00  0.00     0.012 A 
ATOM     29  C24 ZIN A   1      18.835  -0.547  16.333  0.00  0.00     0.043 A 
ATOM     30  C22 ZIN A   1      19.075   0.152  17.504  0.00  0.00     0.116 A 
ATOM     31  C21 ZIN A   1      19.245   1.525  17.466  0.00  0.00     0.043 A 
ATOM     32  F23 ZIN A   1      19.143  -0.506  18.682  0.00  0.00    -0.206 F 
ATOM     33  C20 ZIN A   1      19.175   2.197  16.260  0.00  0.00     0.012 A 
ENDBRANCH  26  27
ENDBRANCH  25  26
ENDBRANCH   3  23
TORSDOF 6
ENDMDL
MODEL 8
REMARK VINA RESULT:      -8.6      2.030      4.863
REMARK  6 active torsions:
REMARK  status: ('A' for Active; 'I' for Inactive)
REMARK    1  A    between atoms: C5_5  and  C6_6 
REMARK       I    between atoms: C6_6  and  N8_8 
REMARK    2  A    between atoms: N8_8  and  C9_9 
REMARK    3  A    between atoms: C9_9  and  C12_12 
REMARK    4  A    between atoms: C14_14  and  C15_15 
REMARK    5  A    between atoms: N17_17  and  C18_18 
REMARK    6  A    between atoms: C18_18  and  C19_19 
ROOT
ATOM      1  C12 ZIN A   1      18.683   3.397  14.280  0.00  0.00     0.137 A 
ATOM      2  N13 ZIN A   1      18.532   2.111  14.140  0.00  0.00    -0.225 NA
ATOM      3  C14 ZIN A   1      18.761   1.260  15.158  0.00  0.00     0.156 A 
ATOM      4  C26 ZIN A   1      19.167   1.758  16.385  0.00  0.00     0.208 A 
ATOM      5  O27 ZIN A   1      19.407   0.924  17.430  0.00  0.00    -0.183 OA
ATOM      6  C28 ZIN A   1      19.328   3.161  16.523  0.00  0.00     0.287 A 
ATOM      7  O29 ZIN A   1      19.684   3.646  17.583  0.00  0.00    -0.265 OA
ATOM      8  N30 ZIN A   1      19.084   3.947  15.452  0.00  0.00    -0.302 N 
ATOM      9  C31 ZIN A   1      19.241   5.399  15.562  0.00  0.00     0.161 C 
ENDROOT
BRANCH   1  10
ATOM     10  C9  ZIN A   1      18.412   4.298  13.104  0.00  0.00     0.086 C 
ATOM     11  C10 ZIN A   1      19.652   5.143  12.809  0.00  0.00     0.046 C 
ATOM     12  C11 ZIN A   1      17.232   5.218  13.427  0.00  0.00     0.046 C 
BRANCH  10  13
ATOM     13  N8  ZIN A   1      18.086   3.482  11.930  0.00  0.00    -0.338 N 
ATOM     14  C6  ZIN A   1      19.072   3.029  11.131  0.00  0.00     0.297 C 
ATOM     15  O7  ZIN A   1      20.231   3.297  11.382  0.00  0.00    -0.264 OA
ATOM     16  H36 ZIN A   1      17.162   3.269  11.729  0.00  0.00     0.164 HD
BRANCH  14  17
ATOM     17  C5  ZIN A   1      18.744   2.208   9.951  0.00  0.00     0.261 A 
ATOM     18  N4  ZIN A   1      17.825   1.274   9.882  0.00  0.00    -0.116 NA
ATOM     19  N3  ZIN A   1      17.820   0.770   8.699  0.00  0.00    -0.127 NA
ATOM     20  C2  ZIN A   1      18.733   1.361   7.971  0.00  0.00     0.166 A 
ATOM     21  C1  ZIN A   1      19.050   1.063   6.527  0.00  0.00     0.102 C 
ATOM     22  O32 ZIN A   1      19.338   2.275   8.740  0.00  0.00    -0.270 OA
ENDBRANCH  14  17
ENDBRANCH  10  13
ENDBRANCH   1  10
BRANCH   3  23
ATOM     23  C15 ZIN A   1      18.581  -0.196  14.966  0.00  0.00     0.228 C 
ATOM     24  O16 ZIN A   1      17.612  -0.854  15.642  0.00  0.00    -0.168 OA
ATOM     25  N17 ZIN A   1      19.356  -0.843  14.147  0.00  0.00    -0.258 NA
BRANCH  25  26
ATOM     26  C18 ZIN A   1      19.179  -2.286  13.958  0.00  0.00     0.190 C 
BRANCH  26  27
ATOM     27  C19 ZIN A   1      18.894  -2.570  12.505  0.00  0.00    -0.038 A 
ATOM     28  C25 ZIN A   1      17.795  -1.998  11.892  0.00  0.00     0.012 A 
ATOM     29  C24 ZIN A   1      17.535  -2.254  10.559  0.00  0.00     0.043 A 
ATOM     30  C22 ZIN A   1      18.371  -3.092   9.840  0.00  0.00     0.116 A 
ATOM     31  C21 ZIN A   1      19.469  -3.668  10.457  0.00  0.00     0.043 A 
ATOM     32  F23 ZIN A   1      18.116  -3.346   8.538  0.00  0.00    -0.206 F 
ATOM     33  C20 ZIN A   1      19.729  -3.407  11.789  0.00  0.00     0.012 A 
ENDBRANCH  26  27
ENDBRANCH  25  26
ENDBRANCH   3  23
TORSDOF 6
ENDMDL
MODEL 9
REMARK VINA RESULT:      -8.4      3.874      7.713
REMARK  6 active torsions:
REMARK  status: ('A' for Active; 'I' for Inactive)
REMARK    1  A    between atoms: C5_5  and  C6_6 
REMARK       I    between atoms: C6_6  and  N8_8 
REMARK    2  A    between atoms: N8_8  and  C9_9 
REMARK    3  A    between atoms: C9_9  and  C12_12 
REMARK    4  A    between atoms: C14_14  and  C15_15 
REMARK    5  A    between atoms: N17_17  and  C18_18 
REMARK    6  A    between atoms: C18_18  and  C19_19 
ROOT
ATOM      1  C12 ZIN A   1      18.434  -0.563   7.758  0.00  0.00     0.137 A 
ATOM      2  N13 ZIN A   1      18.303  -1.135   8.921  0.00  0.00    -0.225 NA
ATOM      3  C14 ZIN A   1      18.382  -0.430  10.065  0.00  0.00     0.156 A 
ATOM      4  C26 ZIN A   1      18.609   0.935  10.011  0.00  0.00     0.208 A 
ATOM      5  O27 ZIN A   1      18.694   1.672  11.148  0.00  0.00    -0.183 OA
ATOM      6  C28 ZIN A   1      18.749   1.544   8.737  0.00  0.00     0.287 A 
ATOM      7  O29 ZIN A   1      18.950   2.743   8.638  0.00  0.00    -0.265 OA
ATOM      8  N30 ZIN A   1      18.662   0.767   7.636  0.00  0.00    -0.302 N 
ATOM      9  C31 ZIN A   1      18.803   1.365   6.307  0.00  0.00     0.161 C 
ENDROOT
BRANCH   1  10
ATOM     10  C9  ZIN A   1      18.335  -1.406   6.513  0.00  0.00     0.086 C 
ATOM     11  C10 ZIN A   1      19.629  -1.282   5.707  0.00  0.00     0.046 C 
ATOM     12  C11 ZIN A   1      17.156  -0.926   5.664  0.00  0.00     0.046 C 
BRANCH  10  13
ATOM     13  N8  ZIN A   1      18.126  -2.807   6.888  0.00  0.00    -0.338 N 
ATOM     14  C6  ZIN A   1      18.331  -3.785   5.984  0.00  0.00     0.297 C 
ATOM     15  O7  ZIN A   1      18.688  -3.505   4.855  0.00  0.00    -0.264 OA
ATOM     16  H36 ZIN A   1      17.841  -3.031   7.788  0.00  0.00     0.164 HD
BRANCH  14  17
ATOM     17  C5  ZIN A   1      18.121  -5.194   6.362  0.00  0.00     0.261 A 
ATOM     18  N4  ZIN A   1      19.056  -6.093   6.566  0.00  0.00    -0.116 NA
ATOM     19  N3  ZIN A   1      18.505  -7.213   6.880  0.00  0.00    -0.127 NA
ATOM     20  C2  ZIN A   1      17.204  -7.071   6.886  0.00  0.00     0.166 A 
ATOM     21  C1  ZIN A   1      16.194  -8.144   7.203  0.00  0.00     0.102 C 
ATOM     22  O32 ZIN A   1      16.932  -5.802   6.557  0.00  0.00    -0.270 OA
ENDBRANCH  14  17
ENDBRANCH  10  13
ENDBRANCH   1  10
BRANCH   3  23
ATOM     23  C15 ZIN A   1      18.230  -1.111  11.371  0.00  0.00     0.228 C 
ATOM     24  O16 ZIN A   1      17.005  -1.497  11.794  0.00  0.00    -0.168 OA
ATOM     25  N17 ZIN A   1      19.275  -1.335  12.111  0.00  0.00    -0.258 NA
BRANCH  25  26
ATOM     26  C18 ZIN A   1      19.125  -2.007  13.404  0.00  0.00     0.190 C 
BRANCH  26  27
ATOM     27  C19 ZIN A   1      18.982  -0.974  14.493  0.00  0.00    -0.038 A 
ATOM     28  C25 ZIN A   1      18.439  -1.328  15.714  0.00  0.00     0.012 A 
ATOM     29  C24 ZIN A   1      18.311  -0.383  16.714  0.00  0.00     0.043 A 
ATOM     30  C22 ZIN A   1      18.718   0.921  16.489  0.00  0.00     0.116 A 
ATOM     31  C21 ZIN A   1      19.257   1.275  15.264  0.00  0.00     0.043 A 
ATOM     32  F23 ZIN A   1      18.591   1.847  17.465  0.00  0.00    -0.206 F 
ATOM     33  C20 ZIN A   1      19.388   0.327  14.267  0.00  0.00     0.012 A 
ENDBRANCH  26  27
ENDBRANCH  25  26
ENDBRANCH   3  23
TORSDOF 6
ENDMDL
