MODEL 1
REMARK VINA RESULT:      -7.3      0.000      0.000
REMARK  8 active torsions:
REMARK  status: ('A' for Active; 'I' for Inactive)
REMARK    1  A    between atoms: O2_2  and  C3_3 
REMARK    2  A    between atoms: C3_3  and  C5_5 
REMARK    3  A    between atoms: C11_11  and  C12_12 
REMARK    4  A    between atoms: C12_12  and  O14_14 
REMARK    5  A    between atoms: O14_14  and  C15_15 
REMARK    6  A    between atoms: C15_15  and  C16_16 
REMARK    7  A    between atoms: C19_19  and  C21_20 
REMARK    8  A    between atoms: C26_25  and  N27_26 
ROOT
ATOM      1  C5  <0> d   1      18.297   1.275  14.695  0.00  0.00     0.052 C 
ATOM      2  C6  <0> d   1      18.913   2.287  15.330  0.00  0.00     0.018 C 
ATOM      3  C7  <0> d   1      19.268   2.143  16.788  0.00  0.00     0.069 C 
ATOM      4  N8  <0> d   1      19.223   3.444  14.670  0.00  0.00    -0.362 N 
ATOM      5  C9  <0> d   1      18.610   3.747  13.485  0.00  0.00     0.018 C 
ATOM      6  C10 <0> d   1      18.643   5.164  12.971  0.00  0.00     0.069 C 
ATOM      7  C11 <0> d   1      17.982   2.796  12.772  0.00  0.00     0.052 C 
ATOM      8  C19 <0> d   1      17.938   1.368  13.239  0.00  0.00     0.103 C 
ATOM      9  H36 <0> d   1      19.878   4.053  15.045  0.00  0.00     0.165 HD
ENDROOT
BRANCH   8  10
ATOM     10  C21 <0> d   1      18.908   0.549  12.426  0.00  0.00    -0.012 A 
ATOM     11  C26 <0> d   1      18.478  -0.599  11.787  0.00  0.00     0.110 A 
ATOM     12  C25 <0> d   1      19.367  -1.347  11.038  0.00  0.00     0.037 A 
ATOM     13  C24 <0> d   1      20.688  -0.952  10.936  0.00  0.00     0.002 A 
ATOM     14  C23 <0> d   1      21.118   0.193  11.579  0.00  0.00     0.001 A 
ATOM     15  C22 <0> d   1      20.228   0.945  12.324  0.00  0.00     0.011 A 
BRANCH  11  16
ATOM     16  N27 <0> d   1      17.063  -1.022  11.898  0.00  0.00    -0.115 N 
ATOM     17  O28 <0> d   1      16.794  -2.183  12.148  0.00  0.00    -0.532 OA
ATOM     18  O29 <0> d   1      16.170  -0.209  11.740  0.00  0.00    -0.532 OA
ENDBRANCH  11  16
ENDBRANCH   8  10
BRANCH   1  19
ATOM     19  C3  <0> d   1      17.985   0.095  15.410  0.00  0.00     0.291 C 
ATOM     20  O4  <0> d   1      16.943   0.019  16.034  0.00  0.00    -0.260 OA
BRANCH  19  21
ATOM     21  O2  <0> d   1      18.844  -0.946  15.400  0.00  0.00    -0.323 OA
ATOM     22  C1  <0> d   1      19.149  -1.546  16.661  0.00  0.00     0.213 C 
ENDBRANCH  19  21
ENDBRANCH   1  19
BRANCH   7  23
ATOM     23  C12 <0> d   1      17.354   3.148  11.553  0.00  0.00     0.292 C 
ATOM     24  O13 <0> d   1      16.677   4.157  11.486  0.00  0.00    -0.259 OA
BRANCH  23  25
ATOM     25  O14 <0> d   1      17.506   2.362  10.466  0.00  0.00    -0.317 OA
BRANCH  25  26
ATOM     26  C15 <0> d   1      18.562   2.700   9.564  0.00  0.00     0.183 C 
BRANCH  26  27
ATOM     27  C16 <0> d   1      18.895   1.488   8.692  0.00  0.00     0.002 C 
ATOM     28  C17 <0> d   1      17.672   0.572   8.605  0.00  0.00     0.011 C 
ATOM     29  C18 <0> d   1      19.279   1.960   7.289  0.00  0.00     0.011 C 
ENDBRANCH  26  27
ENDBRANCH  25  26
ENDBRANCH  23  25
ENDBRANCH   7  23
TORSDOF 8
ENDMDL
MODEL 2
REMARK VINA RESULT:      -6.9      2.595      6.483
REMARK  8 active torsions:
REMARK  status: ('A' for Active; 'I' for Inactive)
REMARK    1  A    between atoms: O2_2  and  C3_3 
REMARK    2  A    between atoms: C3_3  and  C5_5 
REMARK    3  A    between atoms: C11_11  and  C12_12 
REMARK    4  A    between atoms: C12_12  and  O14_14 
REMARK    5  A    between atoms: O14_14  and  C15_15 
REMARK    6  A    between atoms: C15_15  and  C16_16 
REMARK    7  A    between atoms: C19_19  and  C21_20 
REMARK    8  A    between atoms: C26_25  and  N27_26 
ROOT
ATOM      1  C5  <0> d   1      16.970   4.763  13.043  0.00  0.00     0.052 C 
ATOM      2  C6  <0> d   1      17.027   4.471  11.733  0.00  0.00     0.018 C 
ATOM      3  C7  <0> d   1      16.288   5.337  10.744  0.00  0.00     0.069 C 
ATOM      4  N8  <0> d   1      17.749   3.399  11.284  0.00  0.00    -0.362 N 
ATOM      5  C9  <0> d   1      18.121   2.408  12.151  0.00  0.00     0.018 C 
ATOM      6  C10 <0> d   1      18.551   1.068  11.608  0.00  0.00     0.069 C 
ATOM      7  C11 <0> d   1      18.109   2.613  13.479  0.00  0.00     0.052 C 
ATOM      8  C19 <0> d   1      17.702   3.938  14.063  0.00  0.00     0.103 C 
ATOM      9  H36 <0> d   1      17.998   3.341  10.349  0.00  0.00     0.165 HD
ENDROOT
BRANCH   8  10
ATOM     10  C21 <0> d   1      18.932   4.677  14.522  0.00  0.00    -0.012 A 
ATOM     11  C26 <0> d   1      19.160   4.869  15.872  0.00  0.00     0.110 A 
ATOM     12  C25 <0> d   1      20.291   5.543  16.293  0.00  0.00     0.037 A 
ATOM     13  C24 <0> d   1      21.189   6.034  15.364  0.00  0.00     0.002 A 
ATOM     14  C23 <0> d   1      20.959   5.846  14.014  0.00  0.00     0.001 A 
ATOM     15  C22 <0> d   1      19.830   5.167  13.593  0.00  0.00     0.011 A 
BRANCH  11  16
ATOM     16  N27 <0> d   1      18.197   4.344  16.866  0.00  0.00    -0.115 N 
ATOM     17  O28 <0> d   1      17.251   5.026  17.215  0.00  0.00    -0.532 OA
ATOM     18  O29 <0> d   1      18.352   3.231  17.336  0.00  0.00    -0.532 OA
ENDBRANCH  11  16
ENDBRANCH   8  10
BRANCH   1  19
ATOM     19  C3  <0> d   1      16.208   5.875  13.472  0.00  0.00     0.291 C 
ATOM     20  O4  <0> d   1      16.713   6.982  13.507  0.00  0.00    -0.260 OA
BRANCH  19  21
ATOM     21  O2  <0> d   1      14.921   5.708  13.842  0.00  0.00    -0.323 OA
ATOM     22  C1  <0> d   1      14.521   6.299  15.081  0.00  0.00     0.213 C 
ENDBRANCH  19  21
ENDBRANCH   1  19
BRANCH   7  23
ATOM     23  C12 <0> d   1      18.493   1.562  14.345  0.00  0.00     0.292 C 
ATOM     24  O13 <0> d   1      19.652   1.461  14.702  0.00  0.00    -0.259 OA
BRANCH  23  25
ATOM     25  O14 <0> d   1      17.574   0.672  14.774  0.00  0.00    -0.317 OA
BRANCH  25  26
ATOM     26  C15 <0> d   1      17.973  -0.699  14.823  0.00  0.00     0.183 C 
BRANCH  26  27
ATOM     27  C16 <0> d   1      17.819  -1.224  16.252  0.00  0.00     0.002 C 
ATOM     28  C17 <0> d   1      19.195  -1.302  16.917  0.00  0.00     0.011 C 
ATOM     29  C18 <0> d   1      16.920  -0.277  17.049  0.00  0.00     0.011 C 
ENDBRANCH  26  27
ENDBRANCH  25  26
ENDBRANCH  23  25
ENDBRANCH   7  23
TORSDOF 8
ENDMDL
MODEL 3
REMARK VINA RESULT:      -6.8      3.950      7.021
REMARK  8 active torsions:
REMARK  status: ('A' for Active; 'I' for Inactive)
REMARK    1  A    between atoms: O2_2  and  C3_3 
REMARK    2  A    between atoms: C3_3  and  C5_5 
REMARK    3  A    between atoms: C11_11  and  C12_12 
REMARK    4  A    between atoms: C12_12  and  O14_14 
REMARK    5  A    between atoms: O14_14  and  C15_15 
REMARK    6  A    between atoms: C15_15  and  C16_16 
REMARK    7  A    between atoms: C19_19  and  C21_20 
REMARK    8  A    between atoms: C26_25  and  N27_26 
ROOT
ATOM      1  C5  <0> d   1      19.257  -3.575   7.437  0.00  0.00     0.052 C 
ATOM      2  C6  <0> d   1      18.601  -3.171   6.335  0.00  0.00     0.018 C 
ATOM      3  C7  <0> d   1      18.837  -3.881   5.027  0.00  0.00     0.069 C 
ATOM      4  N8  <0> d   1      17.721  -2.125   6.387  0.00  0.00    -0.362 N 
ATOM      5  C9  <0> d   1      17.753  -1.249   7.438  0.00  0.00     0.018 C 
ATOM      6  C10 <0> d   1      17.082   0.095   7.307  0.00  0.00     0.069 C 
ATOM      7  C11 <0> d   1      18.373  -1.572   8.586  0.00  0.00     0.052 C 
ATOM      8  C19 <0> d   1      19.042  -2.907   8.765  0.00  0.00     0.103 C 
ATOM      9  H36 <0> d   1      17.073  -2.003   5.676  0.00  0.00     0.165 HD
ENDROOT
BRANCH   8  10
ATOM     10  C21 <0> d   1      18.178  -3.782   9.636  0.00  0.00    -0.012 A 
ATOM     11  C26 <0> d   1      18.520  -3.994  10.960  0.00  0.00     0.110 A 
ATOM     12  C25 <0> d   1      17.725  -4.793  11.760  0.00  0.00     0.037 A 
ATOM     13  C24 <0> d   1      16.593  -5.388  11.234  0.00  0.00     0.002 A 
ATOM     14  C23 <0> d   1      16.254  -5.180   9.912  0.00  0.00     0.001 A 
ATOM     15  C22 <0> d   1      17.046  -4.376   9.112  0.00  0.00     0.011 A 
BRANCH  11  16
ATOM     16  N27 <0> d   1      19.733  -3.357  11.521  0.00  0.00    -0.115 N 
ATOM     17  O28 <0> d   1      19.636  -2.333  12.173  0.00  0.00    -0.532 OA
ATOM     18  O29 <0> d   1      20.827  -3.856  11.330  0.00  0.00    -0.532 OA
ENDBRANCH  11  16
ENDBRANCH   8  10
BRANCH   1  19
ATOM     19  C3  <0> d   1      20.165  -4.656   7.345  0.00  0.00     0.291 C 
ATOM     20  O4  <0> d   1      21.305  -4.462   6.966  0.00  0.00    -0.260 OA
BRANCH  19  21
ATOM     21  O2  <0> d   1      19.766  -5.901   7.679  0.00  0.00    -0.323 OA
ATOM     22  C1  <0> d   1      20.269  -6.437   8.905  0.00  0.00     0.213 C 
ENDBRANCH  19  21
ENDBRANCH   1  19
BRANCH   7  23
ATOM     23  C12 <0> d   1      18.391  -0.639   9.649  0.00  0.00     0.292 C 
ATOM     24  O13 <0> d   1      17.475  -0.610  10.449  0.00  0.00    -0.259 OA
BRANCH  23  25
ATOM     25  O14 <0> d   1      19.424   0.220   9.774  0.00  0.00    -0.317 OA
BRANCH  25  26
ATOM     26  C15 <0> d   1      19.361   1.158  10.851  0.00  0.00     0.183 C 
BRANCH  26  27
ATOM     27  C16 <0> d   1      19.070   2.553  10.295  0.00  0.00     0.002 C 
ATOM     28  C17 <0> d   1      19.169   2.525   8.768  0.00  0.00     0.011 C 
ATOM     29  C18 <0> d   1      17.660   2.981  10.706  0.00  0.00     0.011 C 
ENDBRANCH  26  27
ENDBRANCH  25  26
ENDBRANCH  23  25
ENDBRANCH   7  23
TORSDOF 8
ENDMDL
MODEL 4
REMARK VINA RESULT:      -6.8      1.601      3.329
REMARK  8 active torsions:
REMARK  status: ('A' for Active; 'I' for Inactive)
REMARK    1  A    between atoms: O2_2  and  C3_3 
REMARK    2  A    between atoms: C3_3  and  C5_5 
REMARK    3  A    between atoms: C11_11  and  C12_12 
REMARK    4  A    between atoms: C12_12  and  O14_14 
REMARK    5  A    between atoms: O14_14  and  C15_15 
REMARK    6  A    between atoms: C15_15  and  C16_16 
REMARK    7  A    between atoms: C19_19  and  C21_20 
REMARK    8  A    between atoms: C26_25  and  N27_26 
ROOT
ATOM      1  C5  <0> d   1      18.374   1.334  15.208  0.00  0.00     0.052 C 
ATOM      2  C6  <0> d   1      19.106   1.992  16.123  0.00  0.00     0.018 C 
ATOM      3  C7  <0> d   1      19.282   1.404  17.500  0.00  0.00     0.069 C 
ATOM      4  N8  <0> d   1      19.696   3.189  15.819  0.00  0.00    -0.362 N 
ATOM      5  C9  <0> d   1      19.272   3.911  14.736  0.00  0.00     0.018 C 
ATOM      6  C10 <0> d   1      19.626   5.372  14.632  0.00  0.00     0.069 C 
ATOM      7  C11 <0> d   1      18.547   3.332  13.764  0.00  0.00     0.052 C 
ATOM      8  C19 <0> d   1      18.185   1.873  13.819  0.00  0.00     0.103 C 
ATOM      9  H36 <0> d   1      20.415   3.528  16.374  0.00  0.00     0.165 HD
ENDROOT
BRANCH   8  10
ATOM     10  C21 <0> d   1      19.056   1.108  12.857  0.00  0.00    -0.012 A 
ATOM     11  C26 <0> d   1      18.524   0.630  11.673  0.00  0.00     0.110 A 
ATOM     12  C25 <0> d   1      19.324  -0.068  10.789  0.00  0.00     0.037 A 
ATOM     13  C24 <0> d   1      20.654  -0.296  11.091  0.00  0.00     0.002 A 
ATOM     14  C23 <0> d   1      21.184   0.178  12.276  0.00  0.00     0.001 A 
ATOM     15  C22 <0> d   1      20.385   0.881  13.159  0.00  0.00     0.011 A 
BRANCH  11  16
ATOM     16  N27 <0> d   1      17.100   0.873  11.351  0.00  0.00    -0.115 N 
ATOM     17  O28 <0> d   1      16.239   0.144  11.810  0.00  0.00    -0.532 OA
ATOM     18  O29 <0> d   1      16.789   1.802  10.627  0.00  0.00    -0.532 OA
ENDBRANCH  11  16
ENDBRANCH   8  10
BRANCH   1  19
ATOM     19  C3  <0> d   1      17.773   0.102  15.559  0.00  0.00     0.291 C 
ATOM     20  O4  <0> d   1      16.716   0.090  16.162  0.00  0.00    -0.260 OA
BRANCH  19  21
ATOM     21  O2  <0> d   1      18.373  -1.060  15.224  0.00  0.00    -0.323 OA
ATOM     22  C1  <0> d   1      18.869  -1.866  16.296  0.00  0.00     0.213 C 
ENDBRANCH  19  21
ENDBRANCH   1  19
BRANCH   7  23
ATOM     23  C12 <0> d   1      18.122   4.111  12.662  0.00  0.00     0.292 C 
ATOM     24  O13 <0> d   1      18.910   4.404  11.783  0.00  0.00    -0.259 OA
BRANCH  23  25
ATOM     25  O14 <0> d   1      16.840   4.529  12.586  0.00  0.00    -0.317 OA
BRANCH  25  26
ATOM     26  C15 <0> d   1      16.601   5.924  12.781  0.00  0.00     0.183 C 
BRANCH  26  27
ATOM     27  C16 <0> d   1      16.253   6.182  14.248  0.00  0.00     0.002 C 
ATOM     28  C17 <0> d   1      16.673   7.603  14.629  0.00  0.00     0.011 C 
ATOM     29  C18 <0> d   1      14.744   6.026  14.449  0.00  0.00     0.011 C 
ENDBRANCH  26  27
ENDBRANCH  25  26
ENDBRANCH  23  25
ENDBRANCH   7  23
TORSDOF 8
ENDMDL
MODEL 5
REMARK VINA RESULT:      -6.8      3.468      7.141
REMARK  8 active torsions:
REMARK  status: ('A' for Active; 'I' for Inactive)
REMARK    1  A    between atoms: O2_2  and  C3_3 
REMARK    2  A    between atoms: C3_3  and  C5_5 
REMARK    3  A    between atoms: C11_11  and  C12_12 
REMARK    4  A    between atoms: C12_12  and  O14_14 
REMARK    5  A    between atoms: O14_14  and  C15_15 
REMARK    6  A    between atoms: C15_15  and  C16_16 
REMARK    7  A    between atoms: C19_19  and  C21_20 
REMARK    8  A    between atoms: C26_25  and  N27_26 
ROOT
ATOM      1  C5  <0> d   1      18.407  -1.363   7.955  0.00  0.00     0.052 C 
ATOM      2  C6  <0> d   1      19.180  -1.886   6.989  0.00  0.00     0.018 C 
ATOM      3  C7  <0> d   1      19.256  -1.206   5.646  0.00  0.00     0.069 C 
ATOM      4  N8  <0> d   1      19.902  -3.028   7.210  0.00  0.00    -0.362 N 
ATOM      5  C9  <0> d   1      19.586  -3.851   8.256  0.00  0.00     0.018 C 
ATOM      6  C10 <0> d   1      20.096  -5.270   8.267  0.00  0.00     0.069 C 
ATOM      7  C11 <0> d   1      18.829  -3.410   9.276  0.00  0.00     0.052 C 
ATOM      8  C19 <0> d   1      18.312  -1.998   9.313  0.00  0.00     0.103 C 
ATOM      9  H36 <0> d   1      20.638  -3.255   6.622  0.00  0.00     0.165 HD
ENDROOT
BRANCH   8  10
ATOM     10  C21 <0> d   1      19.122  -1.200  10.302  0.00  0.00    -0.012 A 
ATOM     11  C26 <0> d   1      18.520  -0.694  11.440  0.00  0.00     0.110 A 
ATOM     12  C25 <0> d   1      19.264   0.035  12.349  0.00  0.00     0.037 A 
ATOM     13  C24 <0> d   1      20.607   0.266  12.116  0.00  0.00     0.002 A 
ATOM     14  C23 <0> d   1      21.206  -0.235  10.977  0.00  0.00     0.001 A 
ATOM     15  C22 <0> d   1      20.464  -0.969  10.069  0.00  0.00     0.011 A 
BRANCH  11  16
ATOM     16  N27 <0> d   1      17.082  -0.942  11.689  0.00  0.00    -0.115 N 
ATOM     17  O28 <0> d   1      16.262  -0.082  11.421  0.00  0.00    -0.532 OA
ATOM     18  O29 <0> d   1      16.719  -2.004  12.161  0.00  0.00    -0.532 OA
ENDBRANCH  11  16
ENDBRANCH   8  10
BRANCH   1  19
ATOM     19  C3  <0> d   1      17.669  -0.185   7.690  0.00  0.00     0.291 C 
ATOM     20  O4  <0> d   1      16.759  -0.206   6.883  0.00  0.00    -0.260 OA
BRANCH  19  21
ATOM     21  O2  <0> d   1      17.975   0.961   8.334  0.00  0.00    -0.323 OA
ATOM     22  C1  <0> d   1      19.136   1.666   7.886  0.00  0.00     0.213 C 
ENDBRANCH  19  21
ENDBRANCH   1  19
BRANCH   7  23
ATOM     23  C12 <0> d   1      18.517  -4.292  10.338  0.00  0.00     0.292 C 
ATOM     24  O13 <0> d   1      19.119  -4.211  11.392  0.00  0.00    -0.259 OA
BRANCH  23  25
ATOM     25  O14 <0> d   1      17.553  -5.223  10.180  0.00  0.00    -0.317 OA
BRANCH  25  26
ATOM     26  C15 <0> d   1      16.413  -4.851   9.404  0.00  0.00     0.183 C 
BRANCH  26  27
ATOM     27  C16 <0> d   1      16.009  -6.016   8.500  0.00  0.00     0.002 C 
ATOM     28  C17 <0> d   1      14.488  -6.026   8.329  0.00  0.00     0.011 C 
ATOM     29  C18 <0> d   1      16.674  -5.854   7.132  0.00  0.00     0.011 C 
ENDBRANCH  26  27
ENDBRANCH  25  26
ENDBRANCH  23  25
ENDBRANCH   7  23
TORSDOF 8
ENDMDL
MODEL 6
REMARK VINA RESULT:      -6.7      5.938      9.199
REMARK  8 active torsions:
REMARK  status: ('A' for Active; 'I' for Inactive)
REMARK    1  A    between atoms: O2_2  and  C3_3 
REMARK    2  A    between atoms: C3_3  and  C5_5 
REMARK    3  A    between atoms: C11_11  and  C12_12 
REMARK    4  A    between atoms: C12_12  and  O14_14 
REMARK    5  A    between atoms: O14_14  and  C15_15 
REMARK    6  A    between atoms: C15_15  and  C16_16 
REMARK    7  A    between atoms: C19_19  and  C21_20 
REMARK    8  A    between atoms: C26_25  and  N27_26 
ROOT
ATOM      1  C5  <0> d   1      18.457  -2.204   6.258  0.00  0.00     0.052 C 
ATOM      2  C6  <0> d   1      18.960  -1.855   5.062  0.00  0.00     0.018 C 
ATOM      3  C7  <0> d   1      19.515  -0.467   4.864  0.00  0.00     0.069 C 
ATOM      4  N8  <0> d   1      18.975  -2.743   4.021  0.00  0.00    -0.362 N 
ATOM      5  C9  <0> d   1      18.175  -3.852   4.051  0.00  0.00     0.018 C 
ATOM      6  C10 <0> d   1      17.891  -4.600   2.772  0.00  0.00     0.069 C 
ATOM      7  C11 <0> d   1      17.639  -4.285   5.205  0.00  0.00     0.052 C 
ATOM      8  C19 <0> d   1      17.907  -3.579   6.506  0.00  0.00     0.103 C 
ATOM      9  H36 <0> d   1      19.555  -2.585   3.260  0.00  0.00     0.165 HD
ENDROOT
BRANCH   8  10
ATOM     10  C21 <0> d   1      18.897  -4.382   7.311  0.00  0.00    -0.012 A 
ATOM     11  C26 <0> d   1      18.600  -4.739   8.614  0.00  0.00     0.110 A 
ATOM     12  C25 <0> d   1      19.505  -5.478   9.351  0.00  0.00     0.037 A 
ATOM     13  C24 <0> d   1      20.712  -5.853   8.789  0.00  0.00     0.002 A 
ATOM     14  C23 <0> d   1      21.010  -5.493   7.489  0.00  0.00     0.001 A 
ATOM     15  C22 <0> d   1      20.102  -4.757   6.749  0.00  0.00     0.011 A 
BRANCH  11  16
ATOM     16  N27 <0> d   1      17.308  -4.336   9.215  0.00  0.00    -0.115 N 
ATOM     17  O28 <0> d   1      17.251  -3.349   9.927  0.00  0.00    -0.532 OA
ATOM     18  O29 <0> d   1      16.305  -4.991   8.999  0.00  0.00    -0.532 OA
ENDBRANCH  11  16
ENDBRANCH   8  10
BRANCH   1  19
ATOM     19  C3  <0> d   1      18.451  -1.258   7.310  0.00  0.00     0.291 C 
ATOM     20  O4  <0> d   1      17.462  -0.578   7.512  0.00  0.00    -0.260 OA
BRANCH  19  21
ATOM     21  O2  <0> d   1      19.543  -1.109   8.089  0.00  0.00    -0.323 OA
ATOM     22  C1  <0> d   1      19.593   0.053   8.921  0.00  0.00     0.213 C 
ENDBRANCH  19  21
ENDBRANCH   1  19
BRANCH   7  23
ATOM     23  C12 <0> d   1      16.811  -5.432   5.196  0.00  0.00     0.292 C 
ATOM     24  O13 <0> d   1      15.616  -5.319   4.998  0.00  0.00    -0.259 OA
BRANCH  23  25
ATOM     25  O14 <0> d   1      17.348  -6.653   5.408  0.00  0.00    -0.317 OA
BRANCH  25  26
ATOM     26  C15 <0> d   1      16.469  -7.775   5.306  0.00  0.00     0.183 C 
BRANCH  26  27
ATOM     27  C16 <0> d   1      16.312  -8.426   6.681  0.00  0.00     0.002 C 
ATOM     28  C17 <0> d   1      17.511  -8.060   7.558  0.00  0.00     0.011 C 
ATOM     29  C18 <0> d   1      15.027  -7.922   7.340  0.00  0.00     0.011 C 
ENDBRANCH  26  27
ENDBRANCH  25  26
ENDBRANCH  23  25
ENDBRANCH   7  23
TORSDOF 8
ENDMDL
MODEL 7
REMARK VINA RESULT:      -6.6      2.585      5.144
REMARK  8 active torsions:
REMARK  status: ('A' for Active; 'I' for Inactive)
REMARK    1  A    between atoms: O2_2  and  C3_3 
REMARK    2  A    between atoms: C3_3  and  C5_5 
REMARK    3  A    between atoms: C11_11  and  C12_12 
REMARK    4  A    between atoms: C12_12  and  O14_14 
REMARK    5  A    between atoms: O14_14  and  C15_15 
REMARK    6  A    between atoms: C15_15  and  C16_16 
REMARK    7  A    between atoms: C19_19  and  C21_20 
REMARK    8  A    between atoms: C26_25  and  N27_26 
ROOT
ATOM      1  C5  <0> d   1      19.283   3.446  15.762  0.00  0.00     0.052 C 
ATOM      2  C6  <0> d   1      18.657   2.899  16.819  0.00  0.00     0.018 C 
ATOM      3  C7  <0> d   1      18.874   3.478  18.194  0.00  0.00     0.069 C 
ATOM      4  N8  <0> d   1      17.825   1.825  16.661  0.00  0.00    -0.362 N 
ATOM      5  C9  <0> d   1      17.885   1.067  15.524  0.00  0.00     0.018 C 
ATOM      6  C10 <0> d   1      17.277  -0.313  15.516  0.00  0.00     0.069 C 
ATOM      7  C11 <0> d   1      18.479   1.537  14.413  0.00  0.00     0.052 C 
ATOM      8  C19 <0> d   1      19.085   2.913  14.372  0.00  0.00     0.103 C 
ATOM      9  H36 <0> d   1      17.190   1.599  17.359  0.00  0.00     0.165 HD
ENDROOT
BRANCH   8  10
ATOM     10  C21 <0> d   1      18.173   3.834  13.603  0.00  0.00    -0.012 A 
ATOM     11  C26 <0> d   1      18.460   4.150  12.287  0.00  0.00     0.110 A 
ATOM     12  C25 <0> d   1      17.622   4.991  11.580  0.00  0.00     0.037 A 
ATOM     13  C24 <0> d   1      16.502   5.524  12.191  0.00  0.00     0.002 A 
ATOM     14  C23 <0> d   1      16.218   5.212  13.506  0.00  0.00     0.001 A 
ATOM     15  C22 <0> d   1      17.054   4.366  14.213  0.00  0.00     0.011 A 
BRANCH  11  16
ATOM     16  N27 <0> d   1      19.660   3.579  11.634  0.00  0.00    -0.115 N 
ATOM     17  O28 <0> d   1      20.770   3.960  11.963  0.00  0.00    -0.532 OA
ATOM     18  O29 <0> d   1      19.538   2.731  10.769  0.00  0.00    -0.532 OA
ENDBRANCH  11  16
ENDBRANCH   8  10
BRANCH   1  19
ATOM     19  C3  <0> d   1      20.142   4.552  15.963  0.00  0.00     0.291 C 
ATOM     20  O4  <0> d   1      21.291   4.373  16.319  0.00  0.00    -0.260 OA
BRANCH  19  21
ATOM     21  O2  <0> d   1      19.685   5.806  15.758  0.00  0.00    -0.323 OA
ATOM     22  C1  <0> d   1      20.227   6.520  14.645  0.00  0.00     0.213 C 
ENDBRANCH  19  21
ENDBRANCH   1  19
BRANCH   7  23
ATOM     23  C12 <0> d   1      18.528   0.722  13.258  0.00  0.00     0.292 C 
ATOM     24  O13 <0> d   1      17.607   0.737  12.463  0.00  0.00    -0.259 OA
BRANCH  23  25
ATOM     25  O14 <0> d   1      19.597  -0.072  13.038  0.00  0.00    -0.317 OA
BRANCH  25  26
ATOM     26  C15 <0> d   1      19.539  -0.940  11.904  0.00  0.00     0.183 C 
BRANCH  26  27
ATOM     27  C16 <0> d   1      19.158  -2.349  12.360  0.00  0.00     0.002 C 
ATOM     28  C17 <0> d   1      17.742  -2.674  11.880  0.00  0.00     0.011 C 
ATOM     29  C18 <0> d   1      20.141  -3.360  11.768  0.00  0.00     0.011 C 
ENDBRANCH  26  27
ENDBRANCH  25  26
ENDBRANCH  23  25
ENDBRANCH   7  23
TORSDOF 8
ENDMDL
MODEL 8
REMARK VINA RESULT:      -6.4      3.518      6.442
REMARK  8 active torsions:
REMARK  status: ('A' for Active; 'I' for Inactive)
REMARK    1  A    between atoms: O2_2  and  C3_3 
REMARK    2  A    between atoms: C3_3  and  C5_5 
REMARK    3  A    between atoms: C11_11  and  C12_12 
REMARK    4  A    between atoms: C12_12  and  O14_14 
REMARK    5  A    between atoms: O14_14  and  C15_15 
REMARK    6  A    between atoms: C15_15  and  C16_16 
REMARK    7  A    between atoms: C19_19  and  C21_20 
REMARK    8  A    between atoms: C26_25  and  N27_26 
ROOT
ATOM      1  C5  <0> d   1      18.482   2.470  16.794  0.00  0.00     0.052 C 
ATOM      2  C6  <0> d   1      18.943   2.133  18.010  0.00  0.00     0.018 C 
ATOM      3  C7  <0> d   1      19.501   0.751  18.238  0.00  0.00     0.069 C 
ATOM      4  N8  <0> d   1      18.916   3.029  19.043  0.00  0.00    -0.362 N 
ATOM      5  C9  <0> d   1      18.109   4.132  18.977  0.00  0.00     0.018 C 
ATOM      6  C10 <0> d   1      17.775   4.887  20.239  0.00  0.00     0.069 C 
ATOM      7  C11 <0> d   1      17.612   4.553  17.801  0.00  0.00     0.052 C 
ATOM      8  C19 <0> d   1      17.931   3.840  16.516  0.00  0.00     0.103 C 
ATOM      9  H36 <0> d   1      19.468   2.881  19.826  0.00  0.00     0.165 HD
ENDROOT
BRANCH   8  10
ATOM     10  C21 <0> d   1      18.944   4.643  15.741  0.00  0.00    -0.012 A 
ATOM     11  C26 <0> d   1      18.711   4.952  14.413  0.00  0.00     0.110 A 
ATOM     12  C25 <0> d   1      19.637   5.692  13.703  0.00  0.00     0.037 A 
ATOM     13  C24 <0> d   1      20.800   6.116  14.318  0.00  0.00     0.002 A 
ATOM     14  C23 <0> d   1      21.035   5.804  15.643  0.00  0.00     0.001 A 
ATOM     15  C22 <0> d   1      20.106   5.067  16.355  0.00  0.00     0.011 A 
BRANCH  11  16
ATOM     16  N27 <0> d   1      17.465   4.496  13.755  0.00  0.00    -0.115 N 
ATOM     17  O28 <0> d   1      16.441   5.143  13.878  0.00  0.00    -0.532 OA
ATOM     18  O29 <0> d   1      17.465   3.474  13.092  0.00  0.00    -0.532 OA
ENDBRANCH  11  16
ENDBRANCH   8  10
BRANCH   1  19
ATOM     19  C3  <0> d   1      18.519   1.516  15.750  0.00  0.00     0.291 C 
ATOM     20  O4  <0> d   1      17.575   0.770  15.573  0.00  0.00    -0.260 OA
BRANCH  19  21
ATOM     21  O2  <0> d   1      19.604   1.434  14.950  0.00  0.00    -0.323 OA
ATOM     22  C1  <0> d   1      19.605   0.400  13.963  0.00  0.00     0.213 C 
ENDBRANCH  19  21
ENDBRANCH   1  19
BRANCH   7  23
ATOM     23  C12 <0> d   1      16.777   5.695  17.772  0.00  0.00     0.292 C 
ATOM     24  O13 <0> d   1      15.572   5.571  17.893  0.00  0.00    -0.259 OA
BRANCH  23  25
ATOM     25  O14 <0> d   1      17.316   6.921  17.609  0.00  0.00    -0.317 OA
BRANCH  25  26
ATOM     26  C15 <0> d   1      16.417   8.031  17.608  0.00  0.00     0.183 C 
BRANCH  26  27
ATOM     27  C16 <0> d   1      16.387   8.662  16.215  0.00  0.00     0.002 C 
ATOM     28  C17 <0> d   1      17.665   8.291  15.460  0.00  0.00     0.011 C 
ATOM     29  C18 <0> d   1      15.171   8.142  15.446  0.00  0.00     0.011 C 
ENDBRANCH  26  27
ENDBRANCH  25  26
ENDBRANCH  23  25
ENDBRANCH   7  23
TORSDOF 8
ENDMDL
MODEL 9
REMARK VINA RESULT:      -6.1      2.404      5.745
REMARK  8 active torsions:
REMARK  status: ('A' for Active; 'I' for Inactive)
REMARK    1  A    between atoms: O2_2  and  C3_3 
REMARK    2  A    between atoms: C3_3  and  C5_5 
REMARK    3  A    between atoms: C11_11  and  C12_12 
REMARK    4  A    between atoms: C12_12  and  O14_14 
REMARK    5  A    between atoms: O14_14  and  C15_15 
REMARK    6  A    between atoms: C15_15  and  C16_16 
REMARK    7  A    between atoms: C19_19  and  C21_20 
REMARK    8  A    between atoms: C26_25  and  N27_26 
ROOT
ATOM      1  C5  <0> d   1      18.080   3.542  12.859  0.00  0.00     0.052 C 
ATOM      2  C6  <0> d   1      17.131   4.437  13.184  0.00  0.00     0.018 C 
ATOM      3  C7  <0> d   1      16.252   5.015  12.104  0.00  0.00     0.069 C 
ATOM      4  N8  <0> d   1      16.952   4.828  14.483  0.00  0.00    -0.362 N 
ATOM      5  C9  <0> d   1      17.936   4.613  15.409  0.00  0.00     0.018 C 
ATOM      6  C10 <0> d   1      17.916   5.379  16.708  0.00  0.00     0.069 C 
ATOM      7  C11 <0> d   1      18.918   3.725  15.178  0.00  0.00     0.052 C 
ATOM      8  C19 <0> d   1      18.968   2.928  13.903  0.00  0.00     0.103 C 
ATOM      9  H36 <0> d   1      16.126   5.262  14.747  0.00  0.00     0.165 HD
ENDROOT
BRANCH   8  10
ATOM     10  C21 <0> d   1      18.519   1.516  14.183  0.00  0.00    -0.012 A 
ATOM     11  C26 <0> d   1      19.208   0.450  13.634  0.00  0.00     0.110 A 
ATOM     12  C25 <0> d   1      18.799  -0.844  13.893  0.00  0.00     0.037 A 
ATOM     13  C24 <0> d   1      17.695  -1.072  14.694  0.00  0.00     0.002 A 
ATOM     14  C23 <0> d   1      17.004  -0.007  15.239  0.00  0.00     0.001 A 
ATOM     15  C22 <0> d   1      17.417   1.288  14.983  0.00  0.00     0.011 A 
BRANCH  11  16
ATOM     16  N27 <0> d   1      20.389   0.696  12.776  0.00  0.00    -0.115 N 
ATOM     17  O28 <0> d   1      21.494   0.801  13.277  0.00  0.00    -0.532 OA
ATOM     18  O29 <0> d   1      20.256   0.793  11.569  0.00  0.00    -0.532 OA
ENDBRANCH  11  16
ENDBRANCH   8  10
BRANCH   1  19
ATOM     19  C3  <0> d   1      18.242   3.164  11.506  0.00  0.00     0.291 C 
ATOM     20  O4  <0> d   1      19.157   3.626  10.850  0.00  0.00    -0.260 OA
BRANCH  19  21
ATOM     21  O2  <0> d   1      17.380   2.292  10.941  0.00  0.00    -0.323 OA
ATOM     22  C1  <0> d   1      17.800   1.656   9.732  0.00  0.00     0.213 C 
ENDBRANCH  19  21
ENDBRANCH   1  19
BRANCH   7  23
ATOM     23  C12 <0> d   1      19.921   3.533  16.156  0.00  0.00     0.292 C 
ATOM     24  O13 <0> d   1      20.841   4.324  16.249  0.00  0.00    -0.259 OA
BRANCH  23  25
ATOM     25  O14 <0> d   1      19.859   2.470  16.987  0.00  0.00    -0.317 OA
BRANCH  25  26
ATOM     26  C15 <0> d   1      19.252   2.679  18.263  0.00  0.00     0.183 C 
BRANCH  26  27
ATOM     27  C16 <0> d   1      18.678   1.358  18.778  0.00  0.00     0.002 C 
ATOM     28  C17 <0> d   1      17.158   1.363  18.608  0.00  0.00     0.011 C 
ATOM     29  C18 <0> d   1      19.276   0.198  17.981  0.00  0.00     0.011 C 
ENDBRANCH  26  27
ENDBRANCH  25  26
ENDBRANCH  23  25
ENDBRANCH   7  23
TORSDOF 8
ENDMDL
