MODEL 1
REMARK VINA RESULT:      -9.3      0.000      0.000
REMARK  7 active torsions:
REMARK  status: ('A' for Active; 'I' for Inactive)
REMARK    1  A    between atoms: C5_5  and  C6_6 
REMARK    2  A    between atoms: C9_9  and  C10_10 
REMARK    3  A    between atoms: C13_13  and  N14_14 
REMARK    4  A    between atoms: C16_16  and  C18_17 
REMARK    5  A    between atoms: C18_17  and  O19_18 
REMARK    6  A    between atoms: O19_18  and  P20_19 
REMARK    7  A    between atoms: P20_19  and  O23_22 
ROOT
ATOM      1  C10 ZIN A   1      18.881  -2.062  12.573  0.00  0.00     0.014 A 
ATOM      2  C11 ZIN A   1      19.926  -2.954  12.343  0.00  0.00     0.017 A 
ATOM      3  C12 ZIN A   1      19.904  -3.771  11.232  0.00  0.00     0.031 A 
ATOM      4  C13 ZIN A   1      18.840  -3.706  10.341  0.00  0.00     0.042 A 
ATOM      5  C27 ZIN A   1      17.796  -2.817  10.566  0.00  0.00     0.073 A 
ATOM      6  C28 ZIN A   1      17.810  -2.001  11.679  0.00  0.00     0.129 A 
ATOM      7  F29 ZIN A   1      16.794  -1.137  11.898  0.00  0.00    -0.205 F 
ENDROOT
BRANCH   4   8
ATOM      8  N14 ZIN A   1      18.821  -4.534   9.215  0.00  0.00    -0.291 N 
ATOM      9  C25 ZIN A   1      18.257  -5.748   9.149  0.00  0.00     0.368 A 
ATOM     10  O24 ZIN A   1      18.374  -6.335   7.953  0.00  0.00    -0.294 OA
ATOM     11  O26 ZIN A   1      17.685  -6.265  10.089  0.00  0.00    -0.238 OA
ATOM     12  C16 ZIN A   1      19.111  -5.459   7.052  0.00  0.00     0.176 A 
ATOM     13  C15 ZIN A   1      19.422  -4.218   7.911  0.00  0.00     0.169 A 
BRANCH  12  14
ATOM     14  C18 ZIN A   1      18.248  -5.076   5.848  0.00  0.00     0.215 C 
BRANCH  14  15
ATOM     15  O19 ZIN A   1      18.164  -3.652   5.755  0.00  0.00    -0.287 OA
BRANCH  15  16
ATOM     16  P20 ZIN A   1      18.419  -2.846   4.385  0.00  0.00     0.406 P 
ATOM     17  O21 ZIN A   1      19.693  -1.983   4.525  0.00  0.00    -0.624 OA
ATOM     18  O22 ZIN A   1      17.207  -1.933   4.092  0.00  0.00    -0.624 OA
BRANCH  16  19
ATOM     19  O23 ZIN A   1      18.609  -3.891   3.175  0.00  0.00    -0.300 OA
ATOM     20  H44 ZIN A   1      19.467  -3.830   2.733  0.00  0.00     0.223 HD
ENDBRANCH  16  19
ENDBRANCH  15  16
ENDBRANCH  14  15
ENDBRANCH  12  14
ENDBRANCH   4   8
BRANCH   1  21
ATOM     21  C9  ZIN A   1      18.902  -1.184  13.767  0.00  0.00    -0.005 A 
ATOM     22  C8  ZIN A   1      18.508  -1.675  15.016  0.00  0.00     0.016 A 
ATOM     23  C7  ZIN A   1      18.545  -0.819  16.100  0.00  0.00     0.037 A 
ATOM     24  C6  ZIN A   1      18.970   0.495  15.916  0.00  0.00     0.107 A 
ATOM     25  N31 ZIN A   1      19.333   0.930  14.716  0.00  0.00    -0.256 NA
ATOM     26  C30 ZIN A   1      19.317   0.144  13.660  0.00  0.00     0.129 A 
BRANCH  24  27
ATOM     27  C5  ZIN A   1      19.013   1.421  17.074  0.00  0.00     0.222 A 
ATOM     28  N4  ZIN A   1      19.790   1.309  18.160  0.00  0.00    -0.106 NA
ATOM     29  N3  ZIN A   1      19.524   2.312  18.926  0.00  0.00    -0.046 NA
ATOM     30  N2  ZIN A   1      18.621   3.039  18.366  0.00  0.00    -0.172 N 
ATOM     31  C1  ZIN A   1      18.054   4.267  18.926  0.00  0.00     0.206 C 
ATOM     32  N32 ZIN A   1      18.291   2.513  17.237  0.00  0.00    -0.130 NA
ENDBRANCH  24  27
ENDBRANCH   1  21
TORSDOF 7
ENDMDL
MODEL 2
REMARK VINA RESULT:      -9.1      7.104     11.444
REMARK  7 active torsions:
REMARK  status: ('A' for Active; 'I' for Inactive)
REMARK    1  A    between atoms: C5_5  and  C6_6 
REMARK    2  A    between atoms: C9_9  and  C10_10 
REMARK    3  A    between atoms: C13_13  and  N14_14 
REMARK    4  A    between atoms: C16_16  and  C18_17 
REMARK    5  A    between atoms: C18_17  and  O19_18 
REMARK    6  A    between atoms: O19_18  and  P20_19 
REMARK    7  A    between atoms: P20_19  and  O23_22 
ROOT
ATOM      1  C10 ZIN A   1      18.798   2.340  10.079  0.00  0.00     0.014 A 
ATOM      2  C11 ZIN A   1      18.113   3.548   9.962  0.00  0.00     0.017 A 
ATOM      3  C12 ZIN A   1      18.072   4.423  11.027  0.00  0.00     0.031 A 
ATOM      4  C13 ZIN A   1      18.711   4.101  12.219  0.00  0.00     0.042 A 
ATOM      5  C27 ZIN A   1      19.395   2.898  12.339  0.00  0.00     0.073 A 
ATOM      6  C28 ZIN A   1      19.436   2.016  11.278  0.00  0.00     0.129 A 
ATOM      7  F29 ZIN A   1      20.101   0.845  11.396  0.00  0.00    -0.205 F 
ENDROOT
BRANCH   4   8
ATOM      8  N14 ZIN A   1      18.667   4.991  13.296  0.00  0.00    -0.291 N 
ATOM      9  C25 ZIN A   1      17.554   5.441  13.891  0.00  0.00     0.368 A 
ATOM     10  O24 ZIN A   1      17.785   6.282  14.905  0.00  0.00    -0.294 OA
ATOM     11  O26 ZIN A   1      16.437   5.108  13.546  0.00  0.00    -0.238 OA
ATOM     12  C16 ZIN A   1      19.221   6.474  15.060  0.00  0.00     0.176 A 
ATOM     13  C15 ZIN A   1      19.836   5.590  13.958  0.00  0.00     0.169 A 
BRANCH  12  14
ATOM     14  C18 ZIN A   1      19.681   6.007  16.442  0.00  0.00     0.215 C 
BRANCH  14  15
ATOM     15  O19 ZIN A   1      20.094   4.640  16.371  0.00  0.00    -0.287 OA
BRANCH  15  16
ATOM     16  P20 ZIN A   1      19.159   3.415  16.835  0.00  0.00     0.406 P 
ATOM     17  O21 ZIN A   1      19.647   2.884  18.202  0.00  0.00    -0.624 OA
ATOM     18  O22 ZIN A   1      19.235   2.284  15.786  0.00  0.00    -0.624 OA
BRANCH  16  19
ATOM     19  O23 ZIN A   1      17.637   3.923  16.968  0.00  0.00    -0.300 OA
ATOM     20  H44 ZIN A   1      17.545   4.784  17.400  0.00  0.00     0.223 HD
ENDBRANCH  16  19
ENDBRANCH  15  16
ENDBRANCH  14  15
ENDBRANCH  12  14
ENDBRANCH   4   8
BRANCH   1  21
ATOM     21  C9  ZIN A   1      18.844   1.398   8.935  0.00  0.00    -0.005 A 
ATOM     22  C8  ZIN A   1      19.211   1.846   7.662  0.00  0.00     0.016 A 
ATOM     23  C7  ZIN A   1      19.239   0.931   6.626  0.00  0.00     0.037 A 
ATOM     24  C6  ZIN A   1      18.903  -0.397   6.882  0.00  0.00     0.107 A 
ATOM     25  N31 ZIN A   1      18.553  -0.787   8.101  0.00  0.00    -0.256 NA
ATOM     26  C30 ZIN A   1      18.520   0.053   9.114  0.00  0.00     0.129 A 
BRANCH  24  27
ATOM     27  C5  ZIN A   1      18.929  -1.386   5.776  0.00  0.00     0.222 A 
ATOM     28  N4  ZIN A   1      19.679  -1.325   4.667  0.00  0.00    -0.106 NA
ATOM     29  N3  ZIN A   1      19.408  -2.373   3.965  0.00  0.00    -0.046 NA
ATOM     30  N2  ZIN A   1      18.528  -3.078   4.587  0.00  0.00    -0.172 N 
ATOM     31  C1  ZIN A   1      17.964  -4.342   4.110  0.00  0.00     0.206 C 
ATOM     32  N32 ZIN A   1      18.219  -2.493   5.693  0.00  0.00    -0.130 NA
ENDBRANCH  24  27
ENDBRANCH   1  21
TORSDOF 7
ENDMDL
MODEL 3
REMARK VINA RESULT:      -9.0      7.350     11.696
REMARK  7 active torsions:
REMARK  status: ('A' for Active; 'I' for Inactive)
REMARK    1  A    between atoms: C5_5  and  C6_6 
REMARK    2  A    between atoms: C9_9  and  C10_10 
REMARK    3  A    between atoms: C13_13  and  N14_14 
REMARK    4  A    between atoms: C16_16  and  C18_17 
REMARK    5  A    between atoms: C18_17  and  O19_18 
REMARK    6  A    between atoms: O19_18  and  P20_19 
REMARK    7  A    between atoms: P20_19  and  O23_22 
ROOT
ATOM      1  C10 ZIN A   1      18.109   2.472  10.630  0.00  0.00     0.014 A 
ATOM      2  C11 ZIN A   1      17.715   3.801  10.482  0.00  0.00     0.017 A 
ATOM      3  C12 ZIN A   1      17.512   4.588  11.596  0.00  0.00     0.031 A 
ATOM      4  C13 ZIN A   1      17.698   4.058  12.867  0.00  0.00     0.042 A 
ATOM      5  C27 ZIN A   1      18.090   2.733  13.019  0.00  0.00     0.073 A 
ATOM      6  C28 ZIN A   1      18.290   1.940  11.908  0.00  0.00     0.129 A 
ATOM      7  F29 ZIN A   1      18.671   0.651  12.056  0.00  0.00    -0.205 F 
ENDROOT
BRANCH   4   8
ATOM      8  N14 ZIN A   1      17.492   4.859  13.994  0.00  0.00    -0.291 N 
ATOM      9  C25 ZIN A   1      16.364   5.523  14.283  0.00  0.00     0.368 A 
ATOM     10  O24 ZIN A   1      16.421   6.215  15.426  0.00  0.00    -0.294 OA
ATOM     11  O26 ZIN A   1      15.376   5.492  13.575  0.00  0.00    -0.238 OA
ATOM     12  C16 ZIN A   1      17.736   6.046  16.031  0.00  0.00     0.176 A 
ATOM     13  C15 ZIN A   1      18.479   5.114  15.054  0.00  0.00     0.169 A 
BRANCH  12  14
ATOM     14  C18 ZIN A   1      17.615   5.392  17.409  0.00  0.00     0.215 C 
BRANCH  14  15
ATOM     15  O19 ZIN A   1      18.094   4.047  17.342  0.00  0.00    -0.287 OA
BRANCH  15  16
ATOM     16  P20 ZIN A   1      18.393   3.156  18.650  0.00  0.00     0.406 P 
ATOM     17  O21 ZIN A   1      19.720   2.390  18.458  0.00  0.00    -0.624 OA
ATOM     18  O22 ZIN A   1      17.241   2.148  18.858  0.00  0.00    -0.624 OA
BRANCH  16  19
ATOM     19  O23 ZIN A   1      18.506   4.115  19.937  0.00  0.00    -0.300 OA
ATOM     20  H44 ZIN A   1      17.804   4.779  19.997  0.00  0.00     0.223 HD
ENDBRANCH  16  19
ENDBRANCH  15  16
ENDBRANCH  14  15
ENDBRANCH  12  14
ENDBRANCH   4   8
BRANCH   1  21
ATOM     21  C9  ZIN A   1      18.327   1.625   9.433  0.00  0.00    -0.005 A 
ATOM     22  C8  ZIN A   1      19.270   1.991   8.467  0.00  0.00     0.016 A 
ATOM     23  C7  ZIN A   1      19.439   1.169   7.370  0.00  0.00     0.037 A 
ATOM     24  C6  ZIN A   1      18.670   0.012   7.261  0.00  0.00     0.107 A 
ATOM     25  N31 ZIN A   1      17.780  -0.303   8.193  0.00  0.00    -0.256 NA
ATOM     26  C30 ZIN A   1      17.595   0.451   9.256  0.00  0.00     0.129 A 
BRANCH  24  27
ATOM     27  C5  ZIN A   1      18.845  -0.875   6.085  0.00  0.00     0.222 A 
ATOM     28  N4  ZIN A   1      19.682  -0.686   5.056  0.00  0.00    -0.106 NA
ATOM     29  N3  ZIN A   1      19.528  -1.680   4.249  0.00  0.00    -0.046 NA
ATOM     30  N2  ZIN A   1      18.638  -2.476   4.730  0.00  0.00    -0.172 N 
ATOM     31  C1  ZIN A   1      18.185  -3.719   4.103  0.00  0.00     0.206 C 
ATOM     32  N32 ZIN A   1      18.204  -2.003   5.848  0.00  0.00    -0.130 NA
ENDBRANCH  24  27
ENDBRANCH   1  21
TORSDOF 7
ENDMDL
MODEL 4
REMARK VINA RESULT:      -8.5      4.161      4.887
REMARK  7 active torsions:
REMARK  status: ('A' for Active; 'I' for Inactive)
REMARK    1  A    between atoms: C5_5  and  C6_6 
REMARK    2  A    between atoms: C9_9  and  C10_10 
REMARK    3  A    between atoms: C13_13  and  N14_14 
REMARK    4  A    between atoms: C16_16  and  C18_17 
REMARK    5  A    between atoms: C18_17  and  O19_18 
REMARK    6  A    between atoms: O19_18  and  P20_19 
REMARK    7  A    between atoms: P20_19  and  O23_22 
ROOT
ATOM      1  C10 ZIN A   1      18.534   1.676   9.182  0.00  0.00     0.014 A 
ATOM      2  C11 ZIN A   1      19.260   1.891   8.012  0.00  0.00     0.017 A 
ATOM      3  C12 ZIN A   1      19.199   0.973   6.985  0.00  0.00     0.031 A 
ATOM      4  C13 ZIN A   1      18.416  -0.168   7.114  0.00  0.00     0.042 A 
ATOM      5  C27 ZIN A   1      17.690  -0.386   8.279  0.00  0.00     0.073 A 
ATOM      6  C28 ZIN A   1      17.751   0.527   9.313  0.00  0.00     0.129 A 
ATOM      7  F29 ZIN A   1      17.045   0.314  10.446  0.00  0.00    -0.205 F 
ENDROOT
BRANCH   4   8
ATOM      8  N14 ZIN A   1      18.356  -1.095   6.071  0.00  0.00    -0.291 N 
ATOM      9  C25 ZIN A   1      19.145  -2.170   5.936  0.00  0.00     0.368 A 
ATOM     10  O24 ZIN A   1      18.882  -2.903   4.849  0.00  0.00    -0.294 OA
ATOM     11  O26 ZIN A   1      20.016  -2.457   6.734  0.00  0.00    -0.238 OA
ATOM     12  C16 ZIN A   1      17.789  -2.291   4.105  0.00  0.00     0.176 A 
ATOM     13  C15 ZIN A   1      17.420  -1.048   4.937  0.00  0.00     0.169 A 
BRANCH  12  14
ATOM     14  C18 ZIN A   1      16.598  -3.248   4.013  0.00  0.00     0.215 C 
BRANCH  14  15
ATOM     15  O19 ZIN A   1      17.072  -4.593   3.916  0.00  0.00    -0.287 OA
BRANCH  15  16
ATOM     16  P20 ZIN A   1      16.900  -5.671   5.098  0.00  0.00     0.406 P 
ATOM     17  O21 ZIN A   1      17.912  -6.821   4.897  0.00  0.00    -0.624 OA
ATOM     18  O22 ZIN A   1      15.463  -6.238   5.071  0.00  0.00    -0.624 OA
BRANCH  16  19
ATOM     19  O23 ZIN A   1      17.169  -4.960   6.516  0.00  0.00    -0.300 OA
ATOM     20  H44 ZIN A   1      18.089  -5.011   6.814  0.00  0.00     0.223 HD
ENDBRANCH  16  19
ENDBRANCH  15  16
ENDBRANCH  14  15
ENDBRANCH  12  14
ENDBRANCH   4   8
BRANCH   1  21
ATOM     21  C9  ZIN A   1      18.598   2.661  10.288  0.00  0.00    -0.005 A 
ATOM     22  C8  ZIN A   1      17.684   3.718  10.350  0.00  0.00     0.016 A 
ATOM     23  C7  ZIN A   1      17.783   4.611  11.400  0.00  0.00     0.037 A 
ATOM     24  C6  ZIN A   1      18.782   4.432  12.354  0.00  0.00     0.107 A 
ATOM     25  N31 ZIN A   1      19.636   3.421  12.262  0.00  0.00    -0.256 NA
ATOM     26  C30 ZIN A   1      19.571   2.546  11.281  0.00  0.00     0.129 A 
BRANCH  24  27
ATOM     27  C5  ZIN A   1      18.896   5.387  13.484  0.00  0.00     0.222 A 
ATOM     28  N4  ZIN A   1      20.027   5.795  14.075  0.00  0.00    -0.106 NA
ATOM     29  N3  ZIN A   1      19.695   6.620  15.009  0.00  0.00    -0.046 NA
ATOM     30  N2  ZIN A   1      18.413   6.742  15.023  0.00  0.00    -0.172 N 
ATOM     31  C1  ZIN A   1      17.652   7.591  15.943  0.00  0.00     0.206 C 
ATOM     32  N32 ZIN A   1      17.904   5.996  14.104  0.00  0.00    -0.130 NA
ENDBRANCH  24  27
ENDBRANCH   1  21
TORSDOF 7
ENDMDL
MODEL 5
REMARK VINA RESULT:      -8.5      3.897      5.051
REMARK  7 active torsions:
REMARK  status: ('A' for Active; 'I' for Inactive)
REMARK    1  A    between atoms: C5_5  and  C6_6 
REMARK    2  A    between atoms: C9_9  and  C10_10 
REMARK    3  A    between atoms: C13_13  and  N14_14 
REMARK    4  A    between atoms: C16_16  and  C18_17 
REMARK    5  A    between atoms: C18_17  and  O19_18 
REMARK    6  A    between atoms: O19_18  and  P20_19 
REMARK    7  A    between atoms: P20_19  and  O23_22 
ROOT
ATOM      1  C10 ZIN A   1      18.360   2.115   9.840  0.00  0.00     0.014 A 
ATOM      2  C11 ZIN A   1      19.161   2.407   8.738  0.00  0.00     0.017 A 
ATOM      3  C12 ZIN A   1      19.194   1.546   7.662  0.00  0.00     0.031 A 
ATOM      4  C13 ZIN A   1      18.430   0.385   7.675  0.00  0.00     0.042 A 
ATOM      5  C27 ZIN A   1      17.630   0.090   8.772  0.00  0.00     0.073 A 
ATOM      6  C28 ZIN A   1      17.597   0.946   9.854  0.00  0.00     0.129 A 
ATOM      7  F29 ZIN A   1      16.818   0.658  10.921  0.00  0.00    -0.205 F 
ENDROOT
BRANCH   4   8
ATOM      8  N14 ZIN A   1      18.466  -0.486   6.582  0.00  0.00    -0.291 N 
ATOM      9  C25 ZIN A   1      18.988  -0.207   5.379  0.00  0.00     0.368 A 
ATOM     10  O24 ZIN A   1      18.901  -1.215   4.504  0.00  0.00    -0.294 OA
ATOM     11  O26 ZIN A   1      19.500   0.862   5.110  0.00  0.00    -0.238 OA
ATOM     12  C16 ZIN A   1      18.236  -2.348   5.134  0.00  0.00     0.176 A 
ATOM     13  C15 ZIN A   1      17.934  -1.857   6.563  0.00  0.00     0.169 A 
BRANCH  12  14
ATOM     14  C18 ZIN A   1      19.163  -3.565   5.170  0.00  0.00     0.215 C 
BRANCH  14  15
ATOM     15  O19 ZIN A   1      19.896  -3.570   6.397  0.00  0.00    -0.287 OA
BRANCH  15  16
ATOM     16  P20 ZIN A   1      20.163  -4.907   7.253  0.00  0.00     0.406 P 
ATOM     17  O21 ZIN A   1      19.451  -6.101   6.579  0.00  0.00    -0.624 OA
ATOM     18  O22 ZIN A   1      19.611  -4.719   8.685  0.00  0.00    -0.624 OA
BRANCH  16  19
ATOM     19  O23 ZIN A   1      21.745  -5.193   7.322  0.00  0.00    -0.300 OA
ATOM     20  H44 ZIN A   1      22.205  -4.703   8.018  0.00  0.00     0.223 HD
ENDBRANCH  16  19
ENDBRANCH  15  16
ENDBRANCH  14  15
ENDBRANCH  12  14
ENDBRANCH   4   8
BRANCH   1  21
ATOM     21  C9  ZIN A   1      18.323   3.040  10.998  0.00  0.00    -0.005 A 
ATOM     22  C8  ZIN A   1      17.452   4.134  11.005  0.00  0.00     0.016 A 
ATOM     23  C7  ZIN A   1      17.453   4.968  12.106  0.00  0.00     0.037 A 
ATOM     24  C6  ZIN A   1      18.315   4.695  13.166  0.00  0.00     0.107 A 
ATOM     25  N31 ZIN A   1      19.133   3.651  13.125  0.00  0.00    -0.256 NA
ATOM     26  C30 ZIN A   1      19.157   2.830  12.096  0.00  0.00     0.129 A 
BRANCH  24  27
ATOM     27  C5  ZIN A   1      18.324   5.586  14.352  0.00  0.00     0.222 A 
ATOM     28  N4  ZIN A   1      19.273   6.473  14.680  0.00  0.00    -0.106 NA
ATOM     29  N3  ZIN A   1      18.903   7.041  15.777  0.00  0.00    -0.046 NA
ATOM     30  N2  ZIN A   1      17.771   6.549  16.143  0.00  0.00    -0.172 N 
ATOM     31  C1  ZIN A   1      17.026   6.937  17.342  0.00  0.00     0.206 C 
ATOM     32  N32 ZIN A   1      17.400   5.656  15.291  0.00  0.00    -0.130 NA
ENDBRANCH  24  27
ENDBRANCH   1  21
TORSDOF 7
ENDMDL
MODEL 6
REMARK VINA RESULT:      -8.4      1.528      1.754
REMARK  7 active torsions:
REMARK  status: ('A' for Active; 'I' for Inactive)
REMARK    1  A    between atoms: C5_5  and  C6_6 
REMARK    2  A    between atoms: C9_9  and  C10_10 
REMARK    3  A    between atoms: C13_13  and  N14_14 
REMARK    4  A    between atoms: C16_16  and  C18_17 
REMARK    5  A    between atoms: C18_17  and  O19_18 
REMARK    6  A    between atoms: O19_18  and  P20_19 
REMARK    7  A    between atoms: P20_19  and  O23_22 
ROOT
ATOM      1  C10 ZIN A   1      18.825  -2.034  12.456  0.00  0.00     0.014 A 
ATOM      2  C11 ZIN A   1      19.847  -2.951  12.218  0.00  0.00     0.017 A 
ATOM      3  C12 ZIN A   1      19.812  -3.745  11.091  0.00  0.00     0.031 A 
ATOM      4  C13 ZIN A   1      18.757  -3.633  10.192  0.00  0.00     0.042 A 
ATOM      5  C27 ZIN A   1      17.737  -2.719  10.426  0.00  0.00     0.073 A 
ATOM      6  C28 ZIN A   1      17.764  -1.926  11.555  0.00  0.00     0.129 A 
ATOM      7  F29 ZIN A   1      16.770  -1.038  11.782  0.00  0.00    -0.205 F 
ENDROOT
BRANCH   4   8
ATOM      8  N14 ZIN A   1      18.726  -4.438   9.050  0.00  0.00    -0.291 N 
ATOM      9  C25 ZIN A   1      18.215  -5.676   8.983  0.00  0.00     0.368 A 
ATOM     10  O24 ZIN A   1      18.304  -6.233   7.770  0.00  0.00    -0.294 OA
ATOM     11  O26 ZIN A   1      17.710  -6.237   9.935  0.00  0.00    -0.238 OA
ATOM     12  C16 ZIN A   1      18.959  -5.305   6.857  0.00  0.00     0.176 A 
ATOM     13  C15 ZIN A   1      19.252  -4.068   7.728  0.00  0.00     0.169 A 
BRANCH  12  14
ATOM     14  C18 ZIN A   1      18.026  -4.939   5.701  0.00  0.00     0.215 C 
BRANCH  14  15
ATOM     15  O19 ZIN A   1      17.196  -6.058   5.383  0.00  0.00    -0.287 OA
BRANCH  15  16
ATOM     16  P20 ZIN A   1      15.703  -5.907   4.801  0.00  0.00     0.406 P 
ATOM     17  O21 ZIN A   1      15.562  -4.538   4.098  0.00  0.00    -0.624 OA
ATOM     18  O22 ZIN A   1      14.687  -5.998   5.962  0.00  0.00    -0.624 OA
BRANCH  16  19
ATOM     19  O23 ZIN A   1      15.418  -7.086   3.744  0.00  0.00    -0.300 OA
ATOM     20  H44 ZIN A   1      15.020  -6.784   2.915  0.00  0.00     0.223 HD
ENDBRANCH  16  19
ENDBRANCH  15  16
ENDBRANCH  14  15
ENDBRANCH  12  14
ENDBRANCH   4   8
BRANCH   1  21
ATOM     21  C9  ZIN A   1      18.860  -1.180  13.668  0.00  0.00    -0.005 A 
ATOM     22  C8  ZIN A   1      18.449  -1.686  14.905  0.00  0.00     0.016 A 
ATOM     23  C7  ZIN A   1      18.500  -0.853  16.006  0.00  0.00     0.037 A 
ATOM     24  C6  ZIN A   1      18.955   0.455  15.849  0.00  0.00     0.107 A 
ATOM     25  N31 ZIN A   1      19.333   0.905  14.659  0.00  0.00    -0.256 NA
ATOM     26  C30 ZIN A   1      19.305   0.140  13.588  0.00  0.00     0.129 A 
BRANCH  24  27
ATOM     27  C5  ZIN A   1      19.013   1.357  17.025  0.00  0.00     0.222 A 
ATOM     28  N4  ZIN A   1      19.770   1.197  18.120  0.00  0.00    -0.106 NA
ATOM     29  N3  ZIN A   1      19.528   2.194  18.901  0.00  0.00    -0.046 NA
ATOM     30  N2  ZIN A   1      18.659   2.963  18.342  0.00  0.00    -0.172 N 
ATOM     31  C1  ZIN A   1      18.127   4.199  18.918  0.00  0.00     0.206 C 
ATOM     32  N32 ZIN A   1      18.328   2.470  17.199  0.00  0.00    -0.130 NA
ENDBRANCH  24  27
ENDBRANCH   1  21
TORSDOF 7
ENDMDL
MODEL 7
REMARK VINA RESULT:      -8.3      7.933     12.039
REMARK  7 active torsions:
REMARK  status: ('A' for Active; 'I' for Inactive)
REMARK    1  A    between atoms: C5_5  and  C6_6 
REMARK    2  A    between atoms: C9_9  and  C10_10 
REMARK    3  A    between atoms: C13_13  and  N14_14 
REMARK    4  A    between atoms: C16_16  and  C18_17 
REMARK    5  A    between atoms: C18_17  and  O19_18 
REMARK    6  A    between atoms: O19_18  and  P20_19 
REMARK    7  A    between atoms: P20_19  and  O23_22 
ROOT
ATOM      1  C10 ZIN A   1      17.982   2.744  10.901  0.00  0.00     0.014 A 
ATOM      2  C11 ZIN A   1      17.374   3.988  10.746  0.00  0.00     0.017 A 
ATOM      3  C12 ZIN A   1      17.182   4.803  11.842  0.00  0.00     0.031 A 
ATOM      4  C13 ZIN A   1      17.593   4.384  13.102  0.00  0.00     0.042 A 
ATOM      5  C27 ZIN A   1      18.200   3.144  13.261  0.00  0.00     0.073 A 
ATOM      6  C28 ZIN A   1      18.390   2.322  12.168  0.00  0.00     0.129 A 
ATOM      7  F29 ZIN A   1      18.980   1.116  12.323  0.00  0.00    -0.205 F 
ENDROOT
BRANCH   4   8
ATOM      8  N14 ZIN A   1      17.397   5.213  14.210  0.00  0.00    -0.291 N 
ATOM      9  C25 ZIN A   1      16.210   5.633  14.671  0.00  0.00     0.368 A 
ATOM     10  O24 ZIN A   1      16.295   6.417  15.752  0.00  0.00    -0.294 OA
ATOM     11  O26 ZIN A   1      15.153   5.324  14.157  0.00  0.00    -0.238 OA
ATOM     12  C16 ZIN A   1      17.695   6.595  16.113  0.00  0.00     0.176 A 
ATOM     13  C15 ZIN A   1      18.461   5.771  15.060  0.00  0.00     0.169 A 
BRANCH  12  14
ATOM     14  C18 ZIN A   1      17.963   6.051  17.518  0.00  0.00     0.215 C 
BRANCH  14  15
ATOM     15  O19 ZIN A   1      16.837   5.287  17.956  0.00  0.00    -0.287 OA
BRANCH  15  16
ATOM     16  P20 ZIN A   1      16.665   4.766  19.470  0.00  0.00     0.406 P 
ATOM     17  O21 ZIN A   1      15.201   4.333  19.702  0.00  0.00    -0.624 OA
ATOM     18  O22 ZIN A   1      17.028   5.905  20.449  0.00  0.00    -0.624 OA
BRANCH  16  19
ATOM     19  O23 ZIN A   1      17.643   3.513  19.719  0.00  0.00    -0.300 OA
ATOM     20  H44 ZIN A   1      17.189   2.713  20.021  0.00  0.00     0.223 HD
ENDBRANCH  16  19
ENDBRANCH  15  16
ENDBRANCH  14  15
ENDBRANCH  12  14
ENDBRANCH   4   8
BRANCH   1  21
ATOM     21  C9  ZIN A   1      18.189   1.866   9.724  0.00  0.00    -0.005 A 
ATOM     22  C8  ZIN A   1      17.397   0.728   9.540  0.00  0.00     0.016 A 
ATOM     23  C7  ZIN A   1      17.627  -0.059   8.428  0.00  0.00     0.037 A 
ATOM     24  C6  ZIN A   1      18.632   0.303   7.534  0.00  0.00     0.107 A 
ATOM     25  N31 ZIN A   1      19.368   1.388   7.741  0.00  0.00    -0.256 NA
ATOM     26  C30 ZIN A   1      19.176   2.166   8.785  0.00  0.00     0.129 A 
BRANCH  24  27
ATOM     27  C5  ZIN A   1      18.886  -0.537   6.337  0.00  0.00     0.222 A 
ATOM     28  N4  ZIN A   1      19.654  -0.219   5.285  0.00  0.00    -0.106 NA
ATOM     29  N3  ZIN A   1      19.611  -1.215   4.466  0.00  0.00    -0.046 NA
ATOM     30  N2  ZIN A   1      18.855  -2.132   4.961  0.00  0.00    -0.172 N 
ATOM     31  C1  ZIN A   1      18.555  -3.417   4.327  0.00  0.00     0.206 C 
ATOM     32  N32 ZIN A   1      18.398  -1.739   6.100  0.00  0.00    -0.130 NA
ENDBRANCH  24  27
ENDBRANCH   1  21
TORSDOF 7
ENDMDL
MODEL 8
REMARK VINA RESULT:      -8.0      2.084      2.600
REMARK  7 active torsions:
REMARK  status: ('A' for Active; 'I' for Inactive)
REMARK    1  A    between atoms: C5_5  and  C6_6 
REMARK    2  A    between atoms: C9_9  and  C10_10 
REMARK    3  A    between atoms: C13_13  and  N14_14 
REMARK    4  A    between atoms: C16_16  and  C18_17 
REMARK    5  A    between atoms: C18_17  and  O19_18 
REMARK    6  A    between atoms: O19_18  and  P20_19 
REMARK    7  A    between atoms: P20_19  and  O23_22 
ROOT
ATOM      1  C10 ZIN A   1      17.794  -2.946  11.386  0.00  0.00     0.014 A 
ATOM      2  C11 ZIN A   1      17.259  -4.167  11.792  0.00  0.00     0.017 A 
ATOM      3  C12 ZIN A   1      16.943  -5.128  10.855  0.00  0.00     0.031 A 
ATOM      4  C13 ZIN A   1      17.158  -4.881   9.504  0.00  0.00     0.042 A 
ATOM      5  C27 ZIN A   1      17.691  -3.664   9.094  0.00  0.00     0.073 A 
ATOM      6  C28 ZIN A   1      18.003  -2.697  10.028  0.00  0.00     0.129 A 
ATOM      7  F29 ZIN A   1      18.522  -1.514   9.629  0.00  0.00    -0.205 F 
ENDROOT
BRANCH   4   8
ATOM      8  N14 ZIN A   1      16.838  -5.857   8.557  0.00  0.00    -0.291 N 
ATOM      9  C25 ZIN A   1      15.607  -6.128   8.100  0.00  0.00     0.368 A 
ATOM     10  O24 ZIN A   1      15.570  -7.108   7.191  0.00  0.00    -0.294 OA
ATOM     11  O26 ZIN A   1      14.616  -5.530   8.472  0.00  0.00    -0.238 OA
ATOM     12  C16 ZIN A   1      16.917  -7.614   6.968  0.00  0.00     0.176 A 
ATOM     13  C15 ZIN A   1      17.797  -6.760   7.902  0.00  0.00     0.169 A 
BRANCH  12  14
ATOM     14  C18 ZIN A   1      17.333  -7.415   5.509  0.00  0.00     0.215 C 
BRANCH  14  15
ATOM     15  O19 ZIN A   1      17.841  -6.090   5.334  0.00  0.00    -0.287 OA
BRANCH  15  16
ATOM     16  P20 ZIN A   1      17.079  -4.966   4.470  0.00  0.00     0.406 P 
ATOM     17  O21 ZIN A   1      17.229  -5.283   2.966  0.00  0.00    -0.624 OA
ATOM     18  O22 ZIN A   1      17.697  -3.581   4.769  0.00  0.00    -0.624 OA
BRANCH  16  19
ATOM     19  O23 ZIN A   1      15.518  -4.953   4.864  0.00  0.00    -0.300 OA
ATOM     20  H44 ZIN A   1      14.922  -4.858   4.107  0.00  0.00     0.223 HD
ENDBRANCH  16  19
ENDBRANCH  15  16
ENDBRANCH  14  15
ENDBRANCH  12  14
ENDBRANCH   4   8
BRANCH   1  21
ATOM     21  C9  ZIN A   1      18.133  -1.911  12.392  0.00  0.00    -0.005 A 
ATOM     22  C8  ZIN A   1      19.227  -2.084  13.246  0.00  0.00     0.016 A 
ATOM     23  C7  ZIN A   1      19.504  -1.092  14.167  0.00  0.00     0.037 A 
ATOM     24  C6  ZIN A   1      18.691   0.038  14.216  0.00  0.00     0.107 A 
ATOM     25  N31 ZIN A   1      17.657   0.167  13.394  0.00  0.00    -0.256 NA
ATOM     26  C30 ZIN A   1      17.364  -0.752  12.499  0.00  0.00     0.129 A 
BRANCH  24  27
ATOM     27  C5  ZIN A   1      18.981   1.107  15.203  0.00  0.00     0.222 A 
ATOM     28  N4  ZIN A   1      19.189   0.948  16.517  0.00  0.00    -0.106 NA
ATOM     29  N3  ZIN A   1      19.406   2.118  17.015  0.00  0.00    -0.046 NA
ATOM     30  N2  ZIN A   1      19.342   2.992  16.071  0.00  0.00    -0.172 N 
ATOM     31  C1  ZIN A   1      19.531   4.435  16.239  0.00  0.00     0.206 C 
ATOM     32  N32 ZIN A   1      19.080   2.399  14.958  0.00  0.00    -0.130 NA
ENDBRANCH  24  27
ENDBRANCH   1  21
TORSDOF 7
ENDMDL
MODEL 9
REMARK VINA RESULT:      -7.9      6.800     11.109
REMARK  7 active torsions:
REMARK  status: ('A' for Active; 'I' for Inactive)
REMARK    1  A    between atoms: C5_5  and  C6_6 
REMARK    2  A    between atoms: C9_9  and  C10_10 
REMARK    3  A    between atoms: C13_13  and  N14_14 
REMARK    4  A    between atoms: C16_16  and  C18_17 
REMARK    5  A    between atoms: C18_17  and  O19_18 
REMARK    6  A    between atoms: O19_18  and  P20_19 
REMARK    7  A    between atoms: P20_19  and  O23_22 
ROOT
ATOM      1  C10 ZIN A   1      18.754  -0.498  11.903  0.00  0.00     0.014 A 
ATOM      2  C11 ZIN A   1      17.675  -0.901  12.688  0.00  0.00     0.017 A 
ATOM      3  C12 ZIN A   1      17.639  -0.579  14.028  0.00  0.00     0.031 A 
ATOM      4  C13 ZIN A   1      18.678   0.147  14.599  0.00  0.00     0.042 A 
ATOM      5  C27 ZIN A   1      19.756   0.550  13.820  0.00  0.00     0.073 A 
ATOM      6  C28 ZIN A   1      19.800   0.226  12.479  0.00  0.00     0.129 A 
ATOM      7  F29 ZIN A   1      20.849   0.619  11.722  0.00  0.00    -0.205 F 
ENDROOT
BRANCH   4   8
ATOM      8  N14 ZIN A   1      18.637   0.472  15.958  0.00  0.00    -0.291 N 
ATOM      9  C25 ZIN A   1      19.074  -0.305  16.959  0.00  0.00     0.368 A 
ATOM     10  O24 ZIN A   1      18.925   0.241  18.171  0.00  0.00    -0.294 OA
ATOM     11  O26 ZIN A   1      19.566  -1.402  16.781  0.00  0.00    -0.238 OA
ATOM     12  C16 ZIN A   1      18.305   1.552  18.041  0.00  0.00     0.176 A 
ATOM     13  C15 ZIN A   1      18.104   1.721  16.522  0.00  0.00     0.169 A 
BRANCH  12  14
ATOM     14  C18 ZIN A   1      19.232   2.643  18.583  0.00  0.00     0.215 C 
BRANCH  14  15
ATOM     15  O19 ZIN A   1      18.503   3.486  19.478  0.00  0.00    -0.287 OA
BRANCH  15  16
ATOM     16  P20 ZIN A   1      17.428   4.575  18.978  0.00  0.00     0.406 P 
ATOM     17  O21 ZIN A   1      17.786   5.031  17.546  0.00  0.00    -0.624 OA
ATOM     18  O22 ZIN A   1      17.450   5.793  19.928  0.00  0.00    -0.624 OA
BRANCH  16  19
ATOM     19  O23 ZIN A   1      15.959   3.918  18.981  0.00  0.00    -0.300 OA
ATOM     20  H44 ZIN A   1      15.823   3.253  18.291  0.00  0.00     0.223 HD
ENDBRANCH  16  19
ENDBRANCH  15  16
ENDBRANCH  14  15
ENDBRANCH  12  14
ENDBRANCH   4   8
BRANCH   1  21
ATOM     21  C9  ZIN A   1      18.795  -0.844  10.462  0.00  0.00    -0.005 A 
ATOM     22  C8  ZIN A   1      18.578   0.139   9.491  0.00  0.00     0.016 A 
ATOM     23  C7  ZIN A   1      18.626  -0.231   8.160  0.00  0.00     0.037 A 
ATOM     24  C6  ZIN A   1      18.887  -1.560   7.832  0.00  0.00     0.107 A 
ATOM     25  N31 ZIN A   1      19.083  -2.468   8.780  0.00  0.00    -0.256 NA
ATOM     26  C30 ZIN A   1      19.051  -2.154  10.057  0.00  0.00     0.129 A 
BRANCH  24  27
ATOM     27  C5  ZIN A   1      18.940  -1.966   6.406  0.00  0.00     0.222 A 
ATOM     28  N4  ZIN A   1      19.631  -1.365   5.428  0.00  0.00    -0.106 NA
ATOM     29  N3  ZIN A   1      19.411  -2.024   4.342  0.00  0.00    -0.046 NA
ATOM     30  N2  ZIN A   1      18.617  -3.004   4.602  0.00  0.00    -0.172 N 
ATOM     31  C1  ZIN A   1      18.131  -3.982   3.626  0.00  0.00     0.206 C 
ATOM     32  N32 ZIN A   1      18.314  -2.986   5.854  0.00  0.00    -0.130 NA
ENDBRANCH  24  27
ENDBRANCH   1  21
TORSDOF 7
ENDMDL
