MODEL 1
REMARK VINA RESULT:       6.2      0.000      0.000
REMARK  5 active torsions:
REMARK  status: ('A' for Active; 'I' for Inactive)
REMARK    1  A    between atoms: O2_2  and  C3_3 
REMARK    2  A    between atoms: C31_29  and  O33_30 
REMARK    3  A    between atoms: C37_33  and  O39_34 
REMARK    4  A    between atoms: C43_37  and  O45_38 
REMARK    5  A    between atoms: O45_38  and  C46_39 
ROOT
ATOM      1  C3  ZIN A   1      17.690   0.338   8.994  0.00  0.00     0.151 C 
ATOM      2  C5  ZIN A   1      17.753   1.786   9.392  0.00  0.00     0.029 C 
ATOM      3  C6  ZIN A   1      18.538   2.625   8.745  0.00  0.00     0.137 C 
ATOM      4  O7  ZIN A   1      18.652   3.909   9.203  0.00  0.00    -0.319 OA
ATOM      5  C8  ZIN A   1      19.233   3.993  10.490  0.00  0.00     0.237 C 
ATOM      6  C9  ZIN A   1      20.139   2.778  10.762  0.00  0.00     0.089 C 
ATOM      7  O10 ZIN A   1      20.028   5.167  10.774  0.00  0.00    -0.305 OA
ATOM      8  C11 ZIN A   1      19.990   5.237  12.146  0.00  0.00     0.097 C 
ATOM      9  C12 ZIN A   1      20.971   5.615  13.059  0.00  0.00     0.010 C 
ATOM     10  C13 ZIN A   1      22.281   6.144  12.533  0.00  0.00     0.054 C 
ATOM     11  C14 ZIN A   1      20.794   5.525  14.426  0.00  0.00     0.130 C 
ATOM     12  O15 ZIN A   1      21.833   5.789  15.255  0.00  0.00    -0.190 OA
ATOM     13  C16 ZIN A   1      19.543   5.163  14.968  0.00  0.00     0.054 C 
ATOM     14  C17 ZIN A   1      19.369   4.891  16.345  0.00  0.00     0.150 C 
ATOM     15  O18 ZIN A   1      20.443   4.603  17.128  0.00  0.00    -0.189 OA
ATOM     16  C19 ZIN A   1      18.080   4.922  16.897  0.00  0.00     0.102 C 
ATOM     17  N20 ZIN A   1      17.830   4.486  18.193  0.00  0.00    -0.319 N 
ATOM     18  C21 ZIN A   1      18.366   3.327  18.596  0.00  0.00     0.251 C 
ATOM     19  O22 ZIN A   1      19.579   3.242  18.630  0.00  0.00    -0.268 OA
ATOM     20  C23 ZIN A   1      17.594   2.169  18.995  0.00  0.00     0.006 C 
ATOM     21  C24 ZIN A   1      16.195   2.354  19.533  0.00  0.00     0.054 C 
ATOM     22  C25 ZIN A   1      18.073   0.916  18.827  0.00  0.00     0.012 C 
ATOM     23  C26 ZIN A   1      19.410   0.676  18.295  0.00  0.00    -0.003 C 
ATOM     24  C27 ZIN A   1      19.680  -0.343  17.492  0.00  0.00    -0.020 C 
ATOM     25  C28 ZIN A   1      18.617  -1.313  17.047  0.00  0.00     0.033 C 
ATOM     26  C30 ZIN A   1      18.347  -2.325  18.161  0.00  0.00     0.017 C 
ATOM     27  C31 ZIN A   1      19.105  -2.046  15.793  0.00  0.00     0.131 C 
ATOM     28  C34 ZIN A   1      18.275  -1.627  14.583  0.00  0.00     0.040 C 
ATOM     29  C36 ZIN A   1      17.758  -0.202  14.794  0.00  0.00     0.015 C 
ATOM     30  C37 ZIN A   1      19.121  -1.669  13.315  0.00  0.00     0.130 C 
ATOM     31  C40 ZIN A   1      18.257  -1.901  12.079  0.00  0.00     0.041 C 
ATOM     32  C42 ZIN A   1      16.788  -1.682  12.447  0.00  0.00     0.015 C 
ATOM     33  C43 ZIN A   1      18.639  -0.942  10.953  0.00  0.00     0.144 C 
ATOM     34  C49 ZIN A   1      17.366  -0.522  10.210  0.00  0.00     0.044 C 
ATOM     35  C51 ZIN A   1      16.619  -1.776   9.750  0.00  0.00     0.015 C 
ATOM     36  C52 ZIN A   1      17.008   5.269  16.028  0.00  0.00     0.100 A 
ATOM     37  C53 ZIN A   1      17.171   5.215  14.628  0.00  0.00     0.101 A 
ATOM     38  N54 ZIN A   1      15.961   5.493  14.100  0.00  0.00    -0.228 NA
ATOM     39  C55 ZIN A   1      15.119   5.857  15.055  0.00  0.00     0.135 A 
ATOM     40  C56 ZIN A   1      13.799   6.351  15.002  0.00  0.00     0.057 A 
ATOM     41  C57 ZIN A   1      13.156   6.667  16.158  0.00  0.00    -0.057 A 
ATOM     42  C58 ZIN A   1      11.752   7.214  16.116  0.00  0.00     0.048 C 
ATOM     43  C59 ZIN A   1      13.803   6.482  17.389  0.00  0.00     0.024 A 
ATOM     44  C60 ZIN A   1      15.070   6.014  17.431  0.00  0.00     0.099 A 
ATOM     45  N61 ZIN A   1      15.729   5.711  16.273  0.00  0.00    -0.302 N 
ATOM     46  C62 ZIN A   1      18.448   5.043  14.057  0.00  0.00     0.028 C 
ATOM     47  C63 ZIN A   1      18.754   4.769  12.651  0.00  0.00     0.063 C 
ATOM     48  C64 ZIN A   1      18.144   4.031  11.584  0.00  0.00     0.225 C 
ATOM     49  O65 ZIN A   1      17.029   3.550  11.548  0.00  0.00    -0.286 OA
ATOM     50  H77 ZIN A   1      17.278   5.011  18.793  0.00  0.00     0.169 HD
ENDROOT
BRANCH  33  51
ATOM     51  O45 ZIN A   1      19.288   0.231  11.511  0.00  0.00    -0.315 OA
BRANCH  51  52
ATOM     52  C46 ZIN A   1      20.613   0.158  11.710  0.00  0.00     0.255 C 
ATOM     53  C47 ZIN A   1      21.484  -0.582  10.727  0.00  0.00     0.126 C 
ATOM     54  O48 ZIN A   1      21.109   0.686  12.677  0.00  0.00    -0.266 OA
ENDBRANCH  51  52
ENDBRANCH  33  51
BRANCH  30  55
ATOM     55  O39 ZIN A   1      20.073  -2.729  13.423  0.00  0.00    -0.395 OA
ATOM     56  H91 ZIN A   1      20.703  -2.620  14.148  0.00  0.00     0.210 HD
ENDBRANCH  30  55
BRANCH   1  57
ATOM     57  O2  ZIN A   1      16.674   0.161   8.004  0.00  0.00    -0.386 OA
ATOM     58  C1  ZIN A   1      17.180  -0.101   6.694  0.00  0.00     0.202 C 
ENDBRANCH   1  57
BRANCH  27  59
ATOM     59  O33 ZIN A   1      20.477  -1.721  15.558  0.00  0.00    -0.394 OA
ATOM     60  H87 ZIN A   1      21.071  -2.484  15.585  0.00  0.00     0.210 HD
ENDBRANCH  27  59
TORSDOF 5
ENDMDL
