MODEL 1
REMARK VINA RESULT:      -7.7      0.000      0.000
REMARK  11 active torsions:
REMARK  status: ('A' for Active; 'I' for Inactive)
REMARK    1  A    between atoms: C2_2  and  N3_3 
REMARK    2  A    between atoms: N3_3  and  C4_4 
REMARK    3  A    between atoms: N3_3  and  C6_6 
REMARK    4  A    between atoms: C6_6  and  C7_7 
REMARK    5  A    between atoms: C8_8  and  C9_9 
REMARK    6  A    between atoms: C9_9  and  O10_10 
REMARK    7  A    between atoms: O10_10  and  C11_11 
REMARK    8  A    between atoms: C11_11  and  C13_13 
REMARK    9  A    between atoms: C13_13  and  O14_14 
REMARK   10  A    between atoms: C13_13  and  C15_15 
REMARK   11  A    between atoms: C13_13  and  C21_21 
ROOT
ATOM      1  C13 ZIN A   1      18.143   0.925  10.028  0.00  0.00     0.176 C 
ENDROOT
BRANCH   1   2
ATOM      2  C11 ZIN A   1      19.019  -0.129  10.655  0.00  0.00     0.299 C 
ATOM      3  O12 ZIN A   1      20.171  -0.242  10.308  0.00  0.00    -0.261 OA
BRANCH   2   4
ATOM      4  O10 ZIN A   1      18.520  -0.942  11.600  0.00  0.00    -0.307 OA
BRANCH   4   5
ATOM      5  C9  ZIN A   1      19.472  -1.726  12.366  0.00  0.00     0.272 C 
BRANCH   5   6
ATOM      6  C8  ZIN A   1      19.240  -1.511  13.803  0.00  0.00    -0.078 C 
ATOM      7  C7  ZIN A   1      19.054  -1.340  14.950  0.00  0.00    -0.074 C 
BRANCH   7   8
ATOM      8  C6  ZIN A   1      18.821  -1.126  16.388  0.00  0.00     0.365 C 
BRANCH   8   9
ATOM      9  N3  ZIN A   1      19.163   0.258  16.739  0.00  0.00     0.098 N 
BRANCH   9  10
ATOM     10  C2  ZIN A   1      18.213   1.204  16.138  0.00  0.00     0.269 C 
ATOM     11  C1  ZIN A   1      18.985   2.302  15.402  0.00  0.00     0.037 C 
ENDBRANCH   9  10
BRANCH   9  12
ATOM     12  C4  ZIN A   1      19.228   0.432  18.196  0.00  0.00     0.269 C 
ATOM     13  C5  ZIN A   1      17.902   1.003  18.702  0.00  0.00     0.037 C 
ENDBRANCH   9  12
ENDBRANCH   8   9
ENDBRANCH   7   8
ENDBRANCH   5   6
ENDBRANCH   4   5
ENDBRANCH   2   4
ENDBRANCH   1   2
BRANCH   1  14
ATOM     14  O14 ZIN A   1      16.812   0.799  10.531  0.00  0.00    -0.374 OA
ATOM     15  H41 ZIN A   1      16.633   1.341  11.310  0.00  0.00     0.211 HD
ENDBRANCH   1  14
BRANCH   1  16
ATOM     16  C15 ZIN A   1      18.135   0.744   8.532  0.00  0.00    -0.014 A 
ATOM     17  C20 ZIN A   1      19.007   1.471   7.743  0.00  0.00     0.011 A 
ATOM     18  C19 ZIN A   1      19.003   1.303   6.371  0.00  0.00     0.001 A 
ATOM     19  C18 ZIN A   1      18.120   0.413   5.787  0.00  0.00     0.000 A 
ATOM     20  C17 ZIN A   1      17.244  -0.310   6.576  0.00  0.00     0.001 A 
ATOM     21  C16 ZIN A   1      17.252  -0.145   7.948  0.00  0.00     0.011 A 
ENDBRANCH   1  16
BRANCH   1  22
ATOM     22  C21 ZIN A   1      18.689   2.312  10.371  0.00  0.00     0.035 C 
ATOM     23  C26 ZIN A   1      19.502   2.235  11.666  0.00  0.00     0.008 C 
ATOM     24  C25 ZIN A   1      20.048   3.622  12.009  0.00  0.00     0.001 C 
ATOM     25  C24 ZIN A   1      18.885   4.597  12.195  0.00  0.00     0.000 C 
ATOM     26  C23 ZIN A   1      18.072   4.675  10.900  0.00  0.00     0.001 C 
ATOM     27  C22 ZIN A   1      17.526   3.287  10.557  0.00  0.00     0.008 C 
ENDBRANCH   1  22
TORSDOF 11
ENDMDL
MODEL 2
REMARK VINA RESULT:      -7.5      2.587      6.968
REMARK  11 active torsions:
REMARK  status: ('A' for Active; 'I' for Inactive)
REMARK    1  A    between atoms: C2_2  and  N3_3 
REMARK    2  A    between atoms: N3_3  and  C4_4 
REMARK    3  A    between atoms: N3_3  and  C6_6 
REMARK    4  A    between atoms: C6_6  and  C7_7 
REMARK    5  A    between atoms: C8_8  and  C9_9 
REMARK    6  A    between atoms: C9_9  and  O10_10 
REMARK    7  A    between atoms: O10_10  and  C11_11 
REMARK    8  A    between atoms: C11_11  and  C13_13 
REMARK    9  A    between atoms: C13_13  and  O14_14 
REMARK   10  A    between atoms: C13_13  and  C15_15 
REMARK   11  A    between atoms: C13_13  and  C21_21 
ROOT
ATOM      1  C13 ZIN A   1      19.473  -0.004  13.037  0.00  0.00     0.176 C 
ENDROOT
BRANCH   1   2
ATOM      2  C11 ZIN A   1      19.143   1.262  12.290  0.00  0.00     0.299 C 
ATOM      3  O12 ZIN A   1      20.022   2.037  11.996  0.00  0.00    -0.261 OA
BRANCH   2   4
ATOM      4  O10 ZIN A   1      17.871   1.529  11.951  0.00  0.00    -0.307 OA
BRANCH   4   5
ATOM      5  C9  ZIN A   1      17.643   2.074  10.625  0.00  0.00     0.272 C 
BRANCH   5   6
ATOM      6  C8  ZIN A   1      17.720   0.991   9.630  0.00  0.00    -0.078 C 
ATOM      7  C7  ZIN A   1      17.782   0.127   8.838  0.00  0.00    -0.074 C 
BRANCH   7   8
ATOM      8  C6  ZIN A   1      17.859  -0.956   7.843  0.00  0.00     0.365 C 
BRANCH   8   9
ATOM      9  N3  ZIN A   1      19.046  -0.762   7.000  0.00  0.00     0.098 N 
BRANCH   9  10
ATOM     10  C2  ZIN A   1      19.314  -1.955   6.185  0.00  0.00     0.269 C 
ATOM     11  C1  ZIN A   1      19.048  -3.211   7.018  0.00  0.00     0.037 C 
ENDBRANCH   9  10
BRANCH   9  12
ATOM     12  C4  ZIN A   1      18.903   0.431   6.154  0.00  0.00     0.269 C 
ATOM     13  C5  ZIN A   1      19.123   0.049   4.690  0.00  0.00     0.037 C 
ENDBRANCH   9  12
ENDBRANCH   8   9
ENDBRANCH   7   8
ENDBRANCH   5   6
ENDBRANCH   4   5
ENDBRANCH   2   4
ENDBRANCH   1   2
BRANCH   1  14
ATOM     14  O14 ZIN A   1      20.879  -0.059  13.284  0.00  0.00    -0.374 OA
ATOM     15  H41 ZIN A   1      21.200   0.627  13.883  0.00  0.00     0.211 HD
ENDBRANCH   1  14
BRANCH   1  16
ATOM     16  C15 ZIN A   1      19.060  -1.195  12.211  0.00  0.00    -0.014 A 
ATOM     17  C20 ZIN A   1      19.992  -1.850  11.429  0.00  0.00     0.011 A 
ATOM     18  C19 ZIN A   1      19.615  -2.946  10.675  0.00  0.00     0.001 A 
ATOM     19  C18 ZIN A   1      18.303  -3.381  10.698  0.00  0.00     0.000 A 
ATOM     20  C17 ZIN A   1      17.369  -2.723  11.477  0.00  0.00     0.001 A 
ATOM     21  C16 ZIN A   1      17.748  -1.631  12.234  0.00  0.00     0.011 A 
ENDBRANCH   1  16
BRANCH   1  22
ATOM     22  C21 ZIN A   1      18.720  -0.021  14.369  0.00  0.00     0.035 C 
ATOM     23  C26 ZIN A   1      19.141   1.187  15.209  0.00  0.00     0.008 C 
ATOM     24  C25 ZIN A   1      18.388   1.170  16.540  0.00  0.00     0.001 C 
ATOM     25  C24 ZIN A   1      18.720  -0.117  17.297  0.00  0.00     0.000 C 
ATOM     26  C23 ZIN A   1      18.298  -1.326  16.458  0.00  0.00     0.001 C 
ATOM     27  C22 ZIN A   1      19.051  -1.308  15.126  0.00  0.00     0.008 C 
ENDBRANCH   1  22
TORSDOF 11
ENDMDL
MODEL 3
REMARK VINA RESULT:      -7.4      2.582      7.080
REMARK  11 active torsions:
REMARK  status: ('A' for Active; 'I' for Inactive)
REMARK    1  A    between atoms: C2_2  and  N3_3 
REMARK    2  A    between atoms: N3_3  and  C4_4 
REMARK    3  A    between atoms: N3_3  and  C6_6 
REMARK    4  A    between atoms: C6_6  and  C7_7 
REMARK    5  A    between atoms: C8_8  and  C9_9 
REMARK    6  A    between atoms: C9_9  and  O10_10 
REMARK    7  A    between atoms: O10_10  and  C11_11 
REMARK    8  A    between atoms: C11_11  and  C13_13 
REMARK    9  A    between atoms: C13_13  and  O14_14 
REMARK   10  A    between atoms: C13_13  and  C15_15 
REMARK   11  A    between atoms: C13_13  and  C21_21 
ROOT
ATOM      1  C13 ZIN A   1      19.319  -0.114  13.035  0.00  0.00     0.176 C 
ENDROOT
BRANCH   1   2
ATOM      2  C11 ZIN A   1      18.872   1.055  12.196  0.00  0.00     0.299 C 
ATOM      3  O12 ZIN A   1      17.734   1.452  12.270  0.00  0.00    -0.261 OA
BRANCH   2   4
ATOM      4  O10 ZIN A   1      19.740   1.656  11.365  0.00  0.00    -0.307 OA
BRANCH   4   5
ATOM      5  C9  ZIN A   1      19.193   2.612  10.419  0.00  0.00     0.272 C 
BRANCH   5   6
ATOM      6  C8  ZIN A   1      19.111   1.990   9.087  0.00  0.00    -0.078 C 
ATOM      7  C7  ZIN A   1      19.045   1.495   8.025  0.00  0.00    -0.074 C 
BRANCH   7   8
ATOM      8  C6  ZIN A   1      18.963   0.874   6.692  0.00  0.00     0.365 C 
BRANCH   8   9
ATOM      9  N3  ZIN A   1      18.428  -0.488   6.818  0.00  0.00     0.098 N 
BRANCH   9  10
ATOM     10  C2  ZIN A   1      18.311  -1.132   5.504  0.00  0.00     0.269 C 
ATOM     11  C1  ZIN A   1      18.726  -0.143   4.412  0.00  0.00     0.037 C 
ENDBRANCH   9  10
BRANCH   9  12
ATOM     12  C4  ZIN A   1      19.251  -1.295   7.729  0.00  0.00     0.269 C 
ATOM     13  C5  ZIN A   1      19.005  -2.780   7.459  0.00  0.00     0.037 C 
ENDBRANCH   9  12
ENDBRANCH   8   9
ENDBRANCH   7   8
ENDBRANCH   5   6
ENDBRANCH   4   5
ENDBRANCH   2   4
ENDBRANCH   1   2
BRANCH   1  14
ATOM     14  O14 ZIN A   1      20.726  -0.027  13.263  0.00  0.00    -0.374 OA
ATOM     15  H41 ZIN A   1      21.258  -0.543  12.642  0.00  0.00     0.211 HD
ENDBRANCH   1  14
BRANCH   1  16
ATOM     16  C15 ZIN A   1      19.005  -1.399  12.312  0.00  0.00    -0.014 A 
ATOM     17  C20 ZIN A   1      17.692  -1.732  12.034  0.00  0.00     0.011 A 
ATOM     18  C19 ZIN A   1      17.404  -2.908  11.367  0.00  0.00     0.001 A 
ATOM     19  C18 ZIN A   1      18.428  -3.754  10.985  0.00  0.00     0.000 A 
ATOM     20  C17 ZIN A   1      19.741  -3.423  11.267  0.00  0.00     0.001 A 
ATOM     21  C16 ZIN A   1      20.029  -2.245  11.930  0.00  0.00     0.011 A 
ENDBRANCH   1  16
BRANCH   1  22
ATOM     22  C21 ZIN A   1      18.582  -0.090  14.375  0.00  0.00     0.035 C 
ATOM     23  C26 ZIN A   1      19.106   1.070  15.225  0.00  0.00     0.008 C 
ATOM     24  C25 ZIN A   1      18.369   1.094  16.566  0.00  0.00     0.001 C 
ATOM     25  C24 ZIN A   1      18.608  -0.225  17.302  0.00  0.00     0.000 C 
ATOM     26  C23 ZIN A   1      18.084  -1.386  16.454  0.00  0.00     0.001 C 
ATOM     27  C22 ZIN A   1      18.821  -1.409  15.112  0.00  0.00     0.008 C 
ENDBRANCH   1  22
TORSDOF 11
ENDMDL
MODEL 4
REMARK VINA RESULT:      -7.4      1.211      3.996
REMARK  11 active torsions:
REMARK  status: ('A' for Active; 'I' for Inactive)
REMARK    1  A    between atoms: C2_2  and  N3_3 
REMARK    2  A    between atoms: N3_3  and  C4_4 
REMARK    3  A    between atoms: N3_3  and  C6_6 
REMARK    4  A    between atoms: C6_6  and  C7_7 
REMARK    5  A    between atoms: C8_8  and  C9_9 
REMARK    6  A    between atoms: C9_9  and  O10_10 
REMARK    7  A    between atoms: O10_10  and  C11_11 
REMARK    8  A    between atoms: C11_11  and  C13_13 
REMARK    9  A    between atoms: C13_13  and  O14_14 
REMARK   10  A    between atoms: C13_13  and  C15_15 
REMARK   11  A    between atoms: C13_13  and  C21_21 
ROOT
ATOM      1  C13 ZIN A   1      19.359   0.036   9.956  0.00  0.00     0.176 C 
ENDROOT
BRANCH   1   2
ATOM      2  C11 ZIN A   1      18.726  -1.054  10.781  0.00  0.00     0.299 C 
ATOM      3  O12 ZIN A   1      17.565  -1.344  10.612  0.00  0.00    -0.261 OA
BRANCH   2   4
ATOM      4  O10 ZIN A   1      19.453  -1.705  11.704  0.00  0.00    -0.307 OA
BRANCH   4   5
ATOM      5  C9  ZIN A   1      18.825  -1.938  12.992  0.00  0.00     0.272 C 
BRANCH   5   6
ATOM      6  C8  ZIN A   1      18.591  -0.649  13.665  0.00  0.00    -0.078 C 
ATOM      7  C7  ZIN A   1      18.405   0.378  14.201  0.00  0.00    -0.074 C 
BRANCH   7   8
ATOM      8  C6  ZIN A   1      18.171   1.667  14.873  0.00  0.00     0.365 C 
BRANCH   8   9
ATOM      9  N3  ZIN A   1      19.052   1.777  16.042  0.00  0.00     0.098 N 
BRANCH   9  10
ATOM     10  C2  ZIN A   1      19.486   3.165  16.247  0.00  0.00     0.269 C 
ATOM     11  C1  ZIN A   1      18.454   4.117  15.637  0.00  0.00     0.037 C 
ENDBRANCH   9  10
BRANCH   9  12
ATOM     12  C4  ZIN A   1      18.397   1.247  17.246  0.00  0.00     0.269 C 
ATOM     13  C5  ZIN A   1      19.292   0.186  17.889  0.00  0.00     0.037 C 
ENDBRANCH   9  12
ENDBRANCH   8   9
ENDBRANCH   7   8
ENDBRANCH   5   6
ENDBRANCH   4   5
ENDBRANCH   2   4
ENDBRANCH   1   2
BRANCH   1  14
ATOM     14  O14 ZIN A   1      20.772  -0.166   9.902  0.00  0.00    -0.374 OA
ATOM     15  H41 ZIN A   1      21.224  -0.010  10.741  0.00  0.00     0.211 HD
ENDBRANCH   1  14
BRANCH   1  16
ATOM     16  C15 ZIN A   1      19.066   1.374  10.584  0.00  0.00    -0.014 A 
ATOM     17  C20 ZIN A   1      20.048   2.030  11.303  0.00  0.00     0.011 A 
ATOM     18  C19 ZIN A   1      19.781   3.259  11.876  0.00  0.00     0.001 A 
ATOM     19  C18 ZIN A   1      18.529   3.829  11.736  0.00  0.00     0.000 A 
ATOM     20  C17 ZIN A   1      17.546   3.172  11.020  0.00  0.00     0.001 A 
ATOM     21  C16 ZIN A   1      17.814   1.944  10.444  0.00  0.00     0.011 A 
ENDBRANCH   1  16
BRANCH   1  22
ATOM     22  C21 ZIN A   1      18.784   0.002   8.538  0.00  0.00     0.035 C 
ATOM     23  C26 ZIN A   1      19.242  -1.277   7.833  0.00  0.00     0.008 C 
ATOM     24  C25 ZIN A   1      18.668  -1.311   6.415  0.00  0.00     0.001 C 
ATOM     25  C24 ZIN A   1      19.163  -0.093   5.634  0.00  0.00     0.000 C 
ATOM     26  C23 ZIN A   1      18.704   1.186   6.339  0.00  0.00     0.001 C 
ATOM     27  C22 ZIN A   1      19.279   1.220   7.758  0.00  0.00     0.008 C 
ENDBRANCH   1  22
TORSDOF 11
ENDMDL
MODEL 5
REMARK VINA RESULT:      -7.2      2.615      7.289
REMARK  11 active torsions:
REMARK  status: ('A' for Active; 'I' for Inactive)
REMARK    1  A    between atoms: C2_2  and  N3_3 
REMARK    2  A    between atoms: N3_3  and  C4_4 
REMARK    3  A    between atoms: N3_3  and  C6_6 
REMARK    4  A    between atoms: C6_6  and  C7_7 
REMARK    5  A    between atoms: C8_8  and  C9_9 
REMARK    6  A    between atoms: C9_9  and  O10_10 
REMARK    7  A    between atoms: O10_10  and  C11_11 
REMARK    8  A    between atoms: C11_11  and  C13_13 
REMARK    9  A    between atoms: C13_13  and  O14_14 
REMARK   10  A    between atoms: C13_13  and  C15_15 
REMARK   11  A    between atoms: C13_13  and  C21_21 
ROOT
ATOM      1  C13 ZIN A   1      18.929  -0.474  12.712  0.00  0.00     0.176 C 
ENDROOT
BRANCH   1   2
ATOM      2  C11 ZIN A   1      18.143  -1.515  11.958  0.00  0.00     0.299 C 
ATOM      3  O12 ZIN A   1      16.940  -1.548  12.051  0.00  0.00    -0.261 OA
BRANCH   2   4
ATOM      4  O10 ZIN A   1      18.782  -2.405  11.181  0.00  0.00    -0.307 OA
BRANCH   4   5
ATOM      5  C9  ZIN A   1      17.958  -3.260  10.344  0.00  0.00     0.272 C 
BRANCH   5   6
ATOM      6  C8  ZIN A   1      18.129  -2.876   8.933  0.00  0.00    -0.078 C 
ATOM      7  C7  ZIN A   1      18.266  -2.570   7.808  0.00  0.00    -0.074 C 
BRANCH   7   8
ATOM      8  C6  ZIN A   1      18.438  -2.186   6.397  0.00  0.00     0.365 C 
BRANCH   8   9
ATOM      9  N3  ZIN A   1      19.327  -1.021   6.312  0.00  0.00     0.098 N 
BRANCH   9  10
ATOM     10  C2  ZIN A   1      19.241  -0.388   4.989  0.00  0.00     0.269 C 
ATOM     11  C1  ZIN A   1      18.130  -1.055   4.176  0.00  0.00     0.037 C 
ENDBRANCH   9  10
BRANCH   9  12
ATOM     12  C4  ZIN A   1      19.032  -0.053   7.377  0.00  0.00     0.269 C 
ATOM     13  C5  ZIN A   1      18.986   1.357   6.788  0.00  0.00     0.037 C 
ENDBRANCH   9  12
ENDBRANCH   8   9
ENDBRANCH   7   8
ENDBRANCH   5   6
ENDBRANCH   4   5
ENDBRANCH   2   4
ENDBRANCH   1   2
BRANCH   1  14
ATOM     14  O14 ZIN A   1      20.327  -0.714  12.540  0.00  0.00    -0.374 OA
ATOM     15  H41 ZIN A   1      20.887   0.041  12.765  0.00  0.00     0.211 HD
ENDBRANCH   1  14
BRANCH   1  16
ATOM     16  C15 ZIN A   1      18.583  -0.549  14.177  0.00  0.00    -0.014 A 
ATOM     17  C20 ZIN A   1      17.657   0.326  14.714  0.00  0.00     0.011 A 
ATOM     18  C19 ZIN A   1      17.335   0.255  16.056  0.00  0.00     0.001 A 
ATOM     19  C18 ZIN A   1      17.947  -0.687  16.864  0.00  0.00     0.000 A 
ATOM     20  C17 ZIN A   1      18.877  -1.558  16.328  0.00  0.00     0.001 A 
ATOM     21  C16 ZIN A   1      19.195  -1.489  14.985  0.00  0.00     0.011 A 
ENDBRANCH   1  16
BRANCH   1  22
ATOM     22  C21 ZIN A   1      18.581   0.916  12.176  0.00  0.00     0.035 C 
ATOM     23  C26 ZIN A   1      18.000   0.788  10.766  0.00  0.00     0.008 C 
ATOM     24  C25 ZIN A   1      17.651   2.178  10.230  0.00  0.00     0.001 C 
ATOM     25  C24 ZIN A   1      18.914   3.039  10.185  0.00  0.00     0.000 C 
ATOM     26  C23 ZIN A   1      19.495   3.168  11.595  0.00  0.00     0.001 C 
ATOM     27  C22 ZIN A   1      19.843   1.777  12.132  0.00  0.00     0.008 C 
ENDBRANCH   1  22
TORSDOF 11
ENDMDL
MODEL 6
REMARK VINA RESULT:      -7.1      2.309      5.366
REMARK  11 active torsions:
REMARK  status: ('A' for Active; 'I' for Inactive)
REMARK    1  A    between atoms: C2_2  and  N3_3 
REMARK    2  A    between atoms: N3_3  and  C4_4 
REMARK    3  A    between atoms: N3_3  and  C6_6 
REMARK    4  A    between atoms: C6_6  and  C7_7 
REMARK    5  A    between atoms: C8_8  and  C9_9 
REMARK    6  A    between atoms: C9_9  and  O10_10 
REMARK    7  A    between atoms: O10_10  and  C11_11 
REMARK    8  A    between atoms: C11_11  and  C13_13 
REMARK    9  A    between atoms: C13_13  and  O14_14 
REMARK   10  A    between atoms: C13_13  and  C15_15 
REMARK   11  A    between atoms: C13_13  and  C21_21 
ROOT
ATOM      1  C13 ZIN A   1      19.132  -0.853  12.247  0.00  0.00     0.176 C 
ENDROOT
BRANCH   1   2
ATOM      2  C11 ZIN A   1      18.615   0.066  11.172  0.00  0.00     0.299 C 
ATOM      3  O12 ZIN A   1      17.427   0.147  10.965  0.00  0.00    -0.261 OA
BRANCH   2   4
ATOM      4  O10 ZIN A   1      19.474   0.797  10.443  0.00  0.00    -0.307 OA
BRANCH   4   5
ATOM      5  C9  ZIN A   1      19.016   2.100   9.995  0.00  0.00     0.272 C 
BRANCH   5   6
ATOM      6  C8  ZIN A   1      19.288   3.101  11.040  0.00  0.00    -0.078 C 
ATOM      7  C7  ZIN A   1      19.505   3.899  11.873  0.00  0.00    -0.074 C 
BRANCH   7   8
ATOM      8  C6  ZIN A   1      19.776   4.899  12.919  0.00  0.00     0.365 C 
BRANCH   8   9
ATOM      9  N3  ZIN A   1      18.877   4.673  14.057  0.00  0.00     0.098 N 
BRANCH   9  10
ATOM     10  C2  ZIN A   1      19.044   5.718  15.077  0.00  0.00     0.269 C 
ATOM     11  C1  ZIN A   1      20.441   5.610  15.692  0.00  0.00     0.037 C 
ENDBRANCH   9  10
BRANCH   9  12
ATOM     12  C4  ZIN A   1      17.478   4.588  13.616  0.00  0.00     0.269 C 
ATOM     13  C5  ZIN A   1      16.880   5.994  13.541  0.00  0.00     0.037 C 
ENDBRANCH   9  12
ENDBRANCH   8   9
ENDBRANCH   7   8
ENDBRANCH   5   6
ENDBRANCH   4   5
ENDBRANCH   2   4
ENDBRANCH   1   2
BRANCH   1  14
ATOM     14  O14 ZIN A   1      20.534  -0.644  12.420  0.00  0.00    -0.374 OA
ATOM     15  H41 ZIN A   1      20.761  -0.119  13.199  0.00  0.00     0.211 HD
ENDBRANCH   1  14
BRANCH   1  16
ATOM     16  C15 ZIN A   1      18.883  -2.284  11.845  0.00  0.00    -0.014 A 
ATOM     17  C20 ZIN A   1      19.950  -3.120  11.569  0.00  0.00     0.011 A 
ATOM     18  C19 ZIN A   1      19.722  -4.434  11.205  0.00  0.00     0.001 A 
ATOM     19  C18 ZIN A   1      18.428  -4.910  11.109  0.00  0.00     0.000 A 
ATOM     20  C17 ZIN A   1      17.361  -4.073  11.380  0.00  0.00     0.001 A 
ATOM     21  C16 ZIN A   1      17.589  -2.760  11.748  0.00  0.00     0.011 A 
ENDBRANCH   1  16
BRANCH   1  22
ATOM     22  C21 ZIN A   1      18.406  -0.560  13.562  0.00  0.00     0.035 C 
ATOM     23  C26 ZIN A   1      18.630   0.903  13.952  0.00  0.00     0.008 C 
ATOM     24  C25 ZIN A   1      17.904   1.196  15.267  0.00  0.00     0.001 C 
ATOM     25  C24 ZIN A   1      18.452   0.286  16.366  0.00  0.00     0.000 C 
ATOM     26  C23 ZIN A   1      18.229  -1.177  15.977  0.00  0.00     0.001 C 
ATOM     27  C22 ZIN A   1      18.955  -1.470  14.661  0.00  0.00     0.008 C 
ENDBRANCH   1  22
TORSDOF 11
ENDMDL
MODEL 7
REMARK VINA RESULT:      -7.1      2.876      4.944
REMARK  11 active torsions:
REMARK  status: ('A' for Active; 'I' for Inactive)
REMARK    1  A    between atoms: C2_2  and  N3_3 
REMARK    2  A    between atoms: N3_3  and  C4_4 
REMARK    3  A    between atoms: N3_3  and  C6_6 
REMARK    4  A    between atoms: C6_6  and  C7_7 
REMARK    5  A    between atoms: C8_8  and  C9_9 
REMARK    6  A    between atoms: C9_9  and  O10_10 
REMARK    7  A    between atoms: O10_10  and  C11_11 
REMARK    8  A    between atoms: C11_11  and  C13_13 
REMARK    9  A    between atoms: C13_13  and  O14_14 
REMARK   10  A    between atoms: C13_13  and  C15_15 
REMARK   11  A    between atoms: C13_13  and  C21_21 
ROOT
ATOM      1  C13 ZIN A   1      17.966   1.032  10.971  0.00  0.00     0.176 C 
ENDROOT
BRANCH   1   2
ATOM      2  C11 ZIN A   1      18.874   0.059  11.676  0.00  0.00     0.299 C 
ATOM      3  O12 ZIN A   1      20.063   0.270  11.727  0.00  0.00    -0.261 OA
BRANCH   2   4
ATOM      4  O10 ZIN A   1      18.363  -1.043  12.248  0.00  0.00    -0.307 OA
BRANCH   4   5
ATOM      5  C9  ZIN A   1      19.308  -2.013  12.773  0.00  0.00     0.272 C 
BRANCH   5   6
ATOM      6  C8  ZIN A   1      19.508  -3.086  11.785  0.00  0.00    -0.078 C 
ATOM      7  C7  ZIN A   1      19.667  -3.942  10.998  0.00  0.00    -0.074 C 
BRANCH   7   8
ATOM      8  C6  ZIN A   1      19.867  -5.017  10.011  0.00  0.00     0.365 C 
BRANCH   8   9
ATOM      9  N3  ZIN A   1      18.619  -5.238   9.269  0.00  0.00     0.098 N 
BRANCH   9  10
ATOM     10  C2  ZIN A   1      17.649  -5.985  10.080  0.00  0.00     0.269 C 
ATOM     11  C1  ZIN A   1      16.311  -5.242  10.087  0.00  0.00     0.037 C 
ENDBRANCH   9  10
BRANCH   9  12
ATOM     12  C4  ZIN A   1      18.049  -3.966   8.805  0.00  0.00     0.269 C 
ATOM     13  C5  ZIN A   1      18.425  -3.742   7.340  0.00  0.00     0.037 C 
ENDBRANCH   9  12
ENDBRANCH   8   9
ENDBRANCH   7   8
ENDBRANCH   5   6
ENDBRANCH   4   5
ENDBRANCH   2   4
ENDBRANCH   1   2
BRANCH   1  14
ATOM     14  O14 ZIN A   1      16.613   0.791  11.363  0.00  0.00    -0.374 OA
ATOM     15  H41 ZIN A   1      15.966   0.951  10.663  0.00  0.00     0.211 HD
ENDBRANCH   1  14
BRANCH   1  16
ATOM     16  C15 ZIN A   1      18.097   0.851   9.481  0.00  0.00    -0.014 A 
ATOM     17  C20 ZIN A   1      19.046   1.570   8.778  0.00  0.00     0.011 A 
ATOM     18  C19 ZIN A   1      19.170   1.400   7.411  0.00  0.00     0.001 A 
ATOM     19  C18 ZIN A   1      18.339   0.518   6.747  0.00  0.00     0.000 A 
ATOM     20  C17 ZIN A   1      17.386  -0.197   7.449  0.00  0.00     0.001 A 
ATOM     21  C16 ZIN A   1      17.266  -0.031   8.815  0.00  0.00     0.011 A 
ENDBRANCH   1  16
BRANCH   1  22
ATOM     22  C21 ZIN A   1      18.359   2.462  11.347  0.00  0.00     0.035 C 
ATOM     23  C26 ZIN A   1      18.263   2.635  12.865  0.00  0.00     0.008 C 
ATOM     24  C25 ZIN A   1      18.657   4.064  13.241  0.00  0.00     0.001 C 
ATOM     25  C24 ZIN A   1      17.711   5.051  12.555  0.00  0.00     0.000 C 
ATOM     26  C23 ZIN A   1      17.807   4.879  11.038  0.00  0.00     0.001 C 
ATOM     27  C22 ZIN A   1      17.413   3.449  10.661  0.00  0.00     0.008 C 
ENDBRANCH   1  22
TORSDOF 11
ENDMDL
MODEL 8
REMARK VINA RESULT:      -7.1      2.567      6.701
REMARK  11 active torsions:
REMARK  status: ('A' for Active; 'I' for Inactive)
REMARK    1  A    between atoms: C2_2  and  N3_3 
REMARK    2  A    between atoms: N3_3  and  C4_4 
REMARK    3  A    between atoms: N3_3  and  C6_6 
REMARK    4  A    between atoms: C6_6  and  C7_7 
REMARK    5  A    between atoms: C8_8  and  C9_9 
REMARK    6  A    between atoms: C9_9  and  O10_10 
REMARK    7  A    between atoms: O10_10  and  C11_11 
REMARK    8  A    between atoms: C11_11  and  C13_13 
REMARK    9  A    between atoms: C13_13  and  O14_14 
REMARK   10  A    between atoms: C13_13  and  C15_15 
REMARK   11  A    between atoms: C13_13  and  C21_21 
ROOT
ATOM      1  C13 ZIN A   1      18.116  -0.135  12.529  0.00  0.00     0.176 C 
ENDROOT
BRANCH   1   2
ATOM      2  C11 ZIN A   1      18.921  -1.170  11.786  0.00  0.00     0.299 C 
ATOM      3  O12 ZIN A   1      20.121  -1.057  11.703  0.00  0.00    -0.261 OA
BRANCH   2   4
ATOM      4  O10 ZIN A   1      18.304  -2.217  11.215  0.00  0.00    -0.307 OA
BRANCH   4   5
ATOM      5  C9  ZIN A   1      19.104  -3.058  10.343  0.00  0.00     0.272 C 
BRANCH   5   6
ATOM      6  C8  ZIN A   1      18.954  -2.603   8.951  0.00  0.00    -0.078 C 
ATOM      7  C7  ZIN A   1      18.835  -2.240   7.841  0.00  0.00    -0.074 C 
BRANCH   7   8
ATOM      8  C6  ZIN A   1      18.686  -1.783   6.449  0.00  0.00     0.365 C 
BRANCH   8   9
ATOM      9  N3  ZIN A   1      19.203  -0.415   6.324  0.00  0.00     0.098 N 
BRANCH   9  10
ATOM     10  C2  ZIN A   1      19.265  -0.002   4.916  0.00  0.00     0.269 C 
ATOM     11  C1  ZIN A   1      18.197  -0.751   4.117  0.00  0.00     0.037 C 
ENDBRANCH   9  10
BRANCH   9  12
ATOM     12  C4  ZIN A   1      18.397   0.527   7.114  0.00  0.00     0.269 C 
ATOM     13  C5  ZIN A   1      19.322   1.497   7.850  0.00  0.00     0.037 C 
ENDBRANCH   9  12
ENDBRANCH   8   9
ENDBRANCH   7   8
ENDBRANCH   5   6
ENDBRANCH   4   5
ENDBRANCH   2   4
ENDBRANCH   1   2
BRANCH   1  14
ATOM     14  O14 ZIN A   1      16.727  -0.451  12.431  0.00  0.00    -0.374 OA
ATOM     15  H41 ZIN A   1      16.219   0.171  11.894  0.00  0.00     0.211 HD
ENDBRANCH   1  14
BRANCH   1  16
ATOM     16  C15 ZIN A   1      18.367   1.223  11.927  0.00  0.00    -0.014 A 
ATOM     17  C20 ZIN A   1      19.554   1.884  12.182  0.00  0.00     0.011 A 
ATOM     18  C19 ZIN A   1      19.787   3.128  11.625  0.00  0.00     0.001 A 
ATOM     19  C18 ZIN A   1      18.828   3.714  10.820  0.00  0.00     0.000 A 
ATOM     20  C17 ZIN A   1      17.638   3.056  10.569  0.00  0.00     0.001 A 
ATOM     21  C16 ZIN A   1      17.409   1.810  11.122  0.00  0.00     0.011 A 
ENDBRANCH   1  16
BRANCH   1  22
ATOM     22  C21 ZIN A   1      18.535  -0.125  14.001  0.00  0.00     0.035 C 
ATOM     23  C26 ZIN A   1      18.586  -1.561  14.527  0.00  0.00     0.008 C 
ATOM     24  C25 ZIN A   1      19.005  -1.551  15.999  0.00  0.00     0.001 C 
ATOM     25  C24 ZIN A   1      17.990  -0.747  16.812  0.00  0.00     0.000 C 
ATOM     26  C23 ZIN A   1      17.938   0.690  16.287  0.00  0.00     0.001 C 
ATOM     27  C22 ZIN A   1      17.520   0.680  14.814  0.00  0.00     0.008 C 
ENDBRANCH   1  22
TORSDOF 11
ENDMDL
MODEL 9
REMARK VINA RESULT:      -7.0      3.247      6.730
REMARK  11 active torsions:
REMARK  status: ('A' for Active; 'I' for Inactive)
REMARK    1  A    between atoms: C2_2  and  N3_3 
REMARK    2  A    between atoms: N3_3  and  C4_4 
REMARK    3  A    between atoms: N3_3  and  C6_6 
REMARK    4  A    between atoms: C6_6  and  C7_7 
REMARK    5  A    between atoms: C8_8  and  C9_9 
REMARK    6  A    between atoms: C9_9  and  O10_10 
REMARK    7  A    between atoms: O10_10  and  C11_11 
REMARK    8  A    between atoms: C11_11  and  C13_13 
REMARK    9  A    between atoms: C13_13  and  O14_14 
REMARK   10  A    between atoms: C13_13  and  C15_15 
REMARK   11  A    between atoms: C13_13  and  C21_21 
ROOT
ATOM      1  C13 ZIN A   1      18.686   1.116  10.379  0.00  0.00     0.176 C 
ENDROOT
BRANCH   1   2
ATOM      2  C11 ZIN A   1      17.805   0.194  11.181  0.00  0.00     0.299 C 
ATOM      3  O12 ZIN A   1      16.613   0.385  11.229  0.00  0.00    -0.261 OA
BRANCH   2   4
ATOM      4  O10 ZIN A   1      18.345  -0.842  11.843  0.00  0.00    -0.307 OA
BRANCH   4   5
ATOM      5  C9  ZIN A   1      17.553  -2.057  11.926  0.00  0.00     0.272 C 
BRANCH   5   6
ATOM      6  C8  ZIN A   1      17.706  -2.827  10.681  0.00  0.00    -0.078 C 
ATOM      7  C7  ZIN A   1      17.829  -3.442   9.688  0.00  0.00    -0.074 C 
BRANCH   7   8
ATOM      8  C6  ZIN A   1      17.983  -4.213   8.443  0.00  0.00     0.365 C 
BRANCH   8   9
ATOM      9  N3  ZIN A   1      19.257  -4.942   8.473  0.00  0.00     0.098 N 
BRANCH   9  10
ATOM     10  C2  ZIN A   1      19.044  -6.362   8.785  0.00  0.00     0.269 C 
ATOM     11  C1  ZIN A   1      17.570  -6.714   8.575  0.00  0.00     0.037 C 
ENDBRANCH   9  10
BRANCH   9  12
ATOM     12  C4  ZIN A   1      19.984  -4.784   7.207  0.00  0.00     0.269 C 
ATOM     13  C5  ZIN A   1      19.606  -3.449   6.563  0.00  0.00     0.037 C 
ENDBRANCH   9  12
ENDBRANCH   8   9
ENDBRANCH   7   8
ENDBRANCH   5   6
ENDBRANCH   4   5
ENDBRANCH   2   4
ENDBRANCH   1   2
BRANCH   1  14
ATOM     14  O14 ZIN A   1      20.033   0.643  10.418  0.00  0.00    -0.374 OA
ATOM     15  H41 ZIN A   1      20.662   1.207   9.950  0.00  0.00     0.211 HD
ENDBRANCH   1  14
BRANCH   1  16
ATOM     16  C15 ZIN A   1      18.623   2.504  10.965  0.00  0.00    -0.014 A 
ATOM     17  C20 ZIN A   1      19.433   2.840  12.034  0.00  0.00     0.011 A 
ATOM     18  C19 ZIN A   1      19.379   4.114  12.568  0.00  0.00     0.001 A 
ATOM     19  C18 ZIN A   1      18.509   5.049  12.038  0.00  0.00     0.000 A 
ATOM     20  C17 ZIN A   1      17.696   4.711  10.972  0.00  0.00     0.001 A 
ATOM     21  C16 ZIN A   1      17.753   3.439  10.435  0.00  0.00     0.011 A 
ENDBRANCH   1  16
BRANCH   1  22
ATOM     22  C21 ZIN A   1      18.199   1.153   8.929  0.00  0.00     0.035 C 
ATOM     23  C26 ZIN A   1      17.602  -0.207   8.557  0.00  0.00     0.008 C 
ATOM     24  C25 ZIN A   1      17.116  -0.170   7.107  0.00  0.00     0.001 C 
ATOM     25  C24 ZIN A   1      18.293   0.140   6.181  0.00  0.00     0.000 C 
ATOM     26  C23 ZIN A   1      18.890   1.499   6.552  0.00  0.00     0.001 C 
ATOM     27  C22 ZIN A   1      19.377   1.463   8.004  0.00  0.00     0.008 C 
ENDBRANCH   1  22
TORSDOF 11
ENDMDL
