MODEL 1
REMARK VINA RESULT:      -5.2      0.000      0.000
REMARK  11 active torsions:
REMARK  status: ('A' for Active; 'I' for Inactive)
REMARK    1  A    between atoms: N2_2  and  C5_5 
REMARK    2  A    between atoms: C5_5  and  C6_6 
REMARK    3  A    between atoms: C6_6  and  O7_7 
REMARK    4  A    between atoms: O7_7  and  C8_8 
REMARK    5  A    between atoms: C8_8  and  C10_10 
REMARK    6  A    between atoms: C10_10  and  C11_11 
REMARK    7  A    between atoms: C11_11  and  C12_12 
REMARK    8  A    between atoms: C12_12  and  O14_14 
REMARK    9  A    between atoms: O14_14  and  C15_15 
REMARK   10  A    between atoms: C15_15  and  C16_16 
REMARK   11  A    between atoms: C16_16  and  N17_17 
ROOT
ATOM      1  C10 ZIN A   1      17.761  -1.142   5.259  0.00  0.00     0.121 C 
ENDROOT
BRANCH   1   2
ATOM      2  C8  ZIN A   1      19.195  -1.532   5.009  0.00  0.00     0.259 C 
ATOM      3  O9  ZIN A   1      19.972  -0.723   4.563  0.00  0.00    -0.265 OA
BRANCH   2   4
ATOM      4  O7  ZIN A   1      19.609  -2.780   5.284  0.00  0.00    -0.320 OA
BRANCH   4   5
ATOM      5  C6  ZIN A   1      19.661  -3.164   6.683  0.00  0.00     0.206 C 
BRANCH   5   6
ATOM      6  C5  ZIN A   1      19.735  -4.689   6.791  0.00  0.00     0.262 C 
BRANCH   6   7
ATOM      7  N2  ZIN A   1      18.954  -5.136   7.952  0.00  0.00    -0.077 N 
ATOM      8  C1  ZIN A   1      19.854  -5.355   9.093  0.00  0.00     0.271 C 
ATOM      9  C3  ZIN A   1      18.263  -6.390   7.625  0.00  0.00     0.271 C 
ATOM     10  C4  ZIN A   1      17.964  -4.108   8.301  0.00  0.00     0.271 C 
ENDBRANCH   6   7
ENDBRANCH   5   6
ENDBRANCH   4   5
ENDBRANCH   2   4
ENDBRANCH   1   2
BRANCH   1  11
ATOM     11  C11 ZIN A   1      17.712   0.260   5.867  0.00  0.00     0.121 C 
BRANCH  11  12
ATOM     12  C12 ZIN A   1      17.966   0.175   7.349  0.00  0.00     0.259 C 
ATOM     13  O13 ZIN A   1      17.152  -0.348   8.073  0.00  0.00    -0.265 OA
BRANCH  12  14
ATOM     14  O14 ZIN A   1      19.098   0.680   7.866  0.00  0.00    -0.320 OA
BRANCH  14  15
ATOM     15  C15 ZIN A   1      19.154   0.830   9.310  0.00  0.00     0.206 C 
BRANCH  15  16
ATOM     16  C16 ZIN A   1      19.182   2.317   9.667  0.00  0.00     0.262 C 
BRANCH  16  17
ATOM     17  N17 ZIN A   1      18.400   2.542  10.890  0.00  0.00    -0.077 N 
ATOM     18  C18 ZIN A   1      19.311   2.818  12.009  0.00  0.00     0.271 C 
ATOM     19  C19 ZIN A   1      17.504   3.689  10.694  0.00  0.00     0.271 C 
ATOM     20  C20 ZIN A   1      17.605   1.344  11.190  0.00  0.00     0.271 C 
ENDBRANCH  16  17
ENDBRANCH  15  16
ENDBRANCH  14  15
ENDBRANCH  12  14
ENDBRANCH  11  12
ENDBRANCH   1  11
TORSDOF 11
ENDMDL
MODEL 2
REMARK VINA RESULT:      -5.1      2.837      4.969
REMARK  11 active torsions:
REMARK  status: ('A' for Active; 'I' for Inactive)
REMARK    1  A    between atoms: N2_2  and  C5_5 
REMARK    2  A    between atoms: C5_5  and  C6_6 
REMARK    3  A    between atoms: C6_6  and  O7_7 
REMARK    4  A    between atoms: O7_7  and  C8_8 
REMARK    5  A    between atoms: C8_8  and  C10_10 
REMARK    6  A    between atoms: C10_10  and  C11_11 
REMARK    7  A    between atoms: C11_11  and  C12_12 
REMARK    8  A    between atoms: C12_12  and  O14_14 
REMARK    9  A    between atoms: O14_14  and  C15_15 
REMARK   10  A    between atoms: C15_15  and  C16_16 
REMARK   11  A    between atoms: C16_16  and  N17_17 
ROOT
ATOM      1  C10 ZIN A   1      18.243   0.377  12.015  0.00  0.00     0.121 C 
ENDROOT
BRANCH   1   2
ATOM      2  C8  ZIN A   1      16.973  -0.387  11.748  0.00  0.00     0.259 C 
ATOM      3  O9  ZIN A   1      15.970   0.202  11.422  0.00  0.00    -0.265 OA
BRANCH   2   4
ATOM      4  O7  ZIN A   1      16.955  -1.724  11.873  0.00  0.00    -0.320 OA
BRANCH   4   5
ATOM      5  C6  ZIN A   1      18.187  -2.430  11.568  0.00  0.00     0.206 C 
BRANCH   5   6
ATOM      6  C5  ZIN A   1      18.077  -3.073  10.184  0.00  0.00     0.262 C 
BRANCH   6   7
ATOM      7  N2  ZIN A   1      18.758  -4.375  10.193  0.00  0.00    -0.077 N 
ATOM      8  C1  ZIN A   1      19.268  -4.671   8.847  0.00  0.00     0.271 C 
ATOM      9  C3  ZIN A   1      17.810  -5.421  10.598  0.00  0.00     0.271 C 
ATOM     10  C4  ZIN A   1      19.878  -4.334  11.143  0.00  0.00     0.271 C 
ENDBRANCH   6   7
ENDBRANCH   5   6
ENDBRANCH   4   5
ENDBRANCH   2   4
ENDBRANCH   1   2
BRANCH   1  11
ATOM     11  C11 ZIN A   1      17.954   1.879  11.972  0.00  0.00     0.121 C 
BRANCH  11  12
ATOM     12  C12 ZIN A   1      18.731   2.509  10.845  0.00  0.00     0.259 C 
ATOM     13  O13 ZIN A   1      19.710   3.174  11.084  0.00  0.00    -0.265 OA
BRANCH  12  14
ATOM     14  O14 ZIN A   1      18.334   2.330   9.575  0.00  0.00    -0.320 OA
BRANCH  14  15
ATOM     15  C15 ZIN A   1      19.342   1.892   8.625  0.00  0.00     0.206 C 
BRANCH  15  16
ATOM     16  C16 ZIN A   1      19.375   0.363   8.586  0.00  0.00     0.262 C 
BRANCH  16  17
ATOM     17  N17 ZIN A   1      18.633  -0.113   7.411  0.00  0.00    -0.077 N 
ATOM     18  C18 ZIN A   1      17.220  -0.296   7.765  0.00  0.00     0.271 C 
ATOM     19  C19 ZIN A   1      18.744   0.874   6.329  0.00  0.00     0.271 C 
ATOM     20  C20 ZIN A   1      19.196  -1.395   6.964  0.00  0.00     0.271 C 
ENDBRANCH  16  17
ENDBRANCH  15  16
ENDBRANCH  14  15
ENDBRANCH  12  14
ENDBRANCH  11  12
ENDBRANCH   1  11
TORSDOF 11
ENDMDL
MODEL 3
REMARK VINA RESULT:      -5.1      1.459      6.114
REMARK  11 active torsions:
REMARK  status: ('A' for Active; 'I' for Inactive)
REMARK    1  A    between atoms: N2_2  and  C5_5 
REMARK    2  A    between atoms: C5_5  and  C6_6 
REMARK    3  A    between atoms: C6_6  and  O7_7 
REMARK    4  A    between atoms: O7_7  and  C8_8 
REMARK    5  A    between atoms: C8_8  and  C10_10 
REMARK    6  A    between atoms: C10_10  and  C11_11 
REMARK    7  A    between atoms: C11_11  and  C12_12 
REMARK    8  A    between atoms: C12_12  and  O14_14 
REMARK    9  A    between atoms: O14_14  and  C15_15 
REMARK   10  A    between atoms: C15_15  and  C16_16 
REMARK   11  A    between atoms: C16_16  and  N17_17 
ROOT
ATOM      1  C10 ZIN A   1      18.941   0.988   6.621  0.00  0.00     0.121 C 
ENDROOT
BRANCH   1   2
ATOM      2  C8  ZIN A   1      19.257   1.122   8.088  0.00  0.00     0.259 C 
ATOM      3  O9  ZIN A   1      19.022   2.158   8.664  0.00  0.00    -0.265 OA
BRANCH   2   4
ATOM      4  O7  ZIN A   1      19.799   0.090   8.755  0.00  0.00    -0.320 OA
BRANCH   4   5
ATOM      5  C6  ZIN A   1      19.171  -0.287  10.008  0.00  0.00     0.206 C 
BRANCH   5   6
ATOM      6  C5  ZIN A   1      20.158  -0.072  11.158  0.00  0.00     0.262 C 
BRANCH   6   7
ATOM      7  N2  ZIN A   1      19.506   0.703  12.223  0.00  0.00    -0.077 N 
ATOM      8  C1  ZIN A   1      19.790   2.132  12.033  0.00  0.00     0.271 C 
ATOM      9  C3  ZIN A   1      20.021   0.270  13.528  0.00  0.00     0.271 C 
ATOM     10  C4  ZIN A   1      18.055   0.481  12.171  0.00  0.00     0.271 C 
ENDBRANCH   6   7
ENDBRANCH   5   6
ENDBRANCH   4   5
ENDBRANCH   2   4
ENDBRANCH   1   2
BRANCH   1  11
ATOM     11  C11 ZIN A   1      18.374  -0.406   6.346  0.00  0.00     0.121 C 
BRANCH  11  12
ATOM     12  C12 ZIN A   1      19.370  -1.205   5.547  0.00  0.00     0.259 C 
ATOM     13  O13 ZIN A   1      19.895  -0.718   4.574  0.00  0.00    -0.265 OA
BRANCH  12  14
ATOM     14  O14 ZIN A   1      19.675  -2.460   5.917  0.00  0.00    -0.320 OA
BRANCH  14  15
ATOM     15  C15 ZIN A   1      18.909  -3.028   7.013  0.00  0.00     0.206 C 
BRANCH  15  16
ATOM     16  C16 ZIN A   1      19.566  -4.332   7.471  0.00  0.00     0.262 C 
BRANCH  16  17
ATOM     17  N17 ZIN A   1      18.835  -4.870   8.626  0.00  0.00    -0.077 N 
ATOM     18  C18 ZIN A   1      18.435  -6.256   8.348  0.00  0.00     0.271 C 
ATOM     19  C19 ZIN A   1      19.700  -4.837   9.812  0.00  0.00     0.271 C 
ATOM     20  C20 ZIN A   1      17.638  -4.054   8.870  0.00  0.00     0.271 C 
ENDBRANCH  16  17
ENDBRANCH  15  16
ENDBRANCH  14  15
ENDBRANCH  12  14
ENDBRANCH  11  12
ENDBRANCH   1  11
TORSDOF 11
ENDMDL
MODEL 4
REMARK VINA RESULT:      -5.1      1.773      2.343
REMARK  11 active torsions:
REMARK  status: ('A' for Active; 'I' for Inactive)
REMARK    1  A    between atoms: N2_2  and  C5_5 
REMARK    2  A    between atoms: C5_5  and  C6_6 
REMARK    3  A    between atoms: C6_6  and  O7_7 
REMARK    4  A    between atoms: O7_7  and  C8_8 
REMARK    5  A    between atoms: C8_8  and  C10_10 
REMARK    6  A    between atoms: C10_10  and  C11_11 
REMARK    7  A    between atoms: C11_11  and  C12_12 
REMARK    8  A    between atoms: C12_12  and  O14_14 
REMARK    9  A    between atoms: O14_14  and  C15_15 
REMARK   10  A    between atoms: C15_15  and  C16_16 
REMARK   11  A    between atoms: C16_16  and  N17_17 
ROOT
ATOM      1  C10 ZIN A   1      18.153  -0.240   5.874  0.00  0.00     0.121 C 
ENDROOT
BRANCH   1   2
ATOM      2  C8  ZIN A   1      19.110  -1.241   5.281  0.00  0.00     0.259 C 
ATOM      3  O9  ZIN A   1      20.011  -0.867   4.570  0.00  0.00    -0.265 OA
BRANCH   2   4
ATOM      4  O7  ZIN A   1      18.960  -2.550   5.544  0.00  0.00    -0.320 OA
BRANCH   4   5
ATOM      5  C6  ZIN A   1      19.614  -3.061   6.736  0.00  0.00     0.206 C 
BRANCH   5   6
ATOM      6  C5  ZIN A   1      18.623  -3.909   7.536  0.00  0.00     0.262 C 
BRANCH   6   7
ATOM      7  N2  ZIN A   1      19.271  -5.162   7.945  0.00  0.00    -0.077 N 
ATOM      8  C1  ZIN A   1      19.528  -5.131   9.391  0.00  0.00     0.271 C 
ATOM      9  C3  ZIN A   1      20.541  -5.315   7.224  0.00  0.00     0.271 C 
ATOM     10  C4  ZIN A   1      18.389  -6.294   7.629  0.00  0.00     0.271 C 
ENDBRANCH   6   7
ENDBRANCH   5   6
ENDBRANCH   4   5
ENDBRANCH   2   4
ENDBRANCH   1   2
BRANCH   1  11
ATOM     11  C11 ZIN A   1      18.928   0.995   6.338  0.00  0.00     0.121 C 
BRANCH  11  12
ATOM     12  C12 ZIN A   1      19.092   0.952   7.835  0.00  0.00     0.259 C 
ATOM     13  O13 ZIN A   1      19.489   1.927   8.427  0.00  0.00    -0.265 OA
BRANCH  12  14
ATOM     14  O14 ZIN A   1      18.797  -0.171   8.511  0.00  0.00    -0.320 OA
BRANCH  14  15
ATOM     15  C15 ZIN A   1      19.685  -0.536   9.601  0.00  0.00     0.206 C 
BRANCH  15  16
ATOM     16  C16 ZIN A   1      19.007  -1.589  10.479  0.00  0.00     0.262 C 
BRANCH  16  17
ATOM     17  N17 ZIN A   1      18.780  -1.037  11.821  0.00  0.00    -0.077 N 
ATOM     18  C18 ZIN A   1      19.570   0.190  11.985  0.00  0.00     0.271 C 
ATOM     19  C19 ZIN A   1      17.354  -0.727  11.988  0.00  0.00     0.271 C 
ATOM     20  C20 ZIN A   1      19.189  -2.022  12.831  0.00  0.00     0.271 C 
ENDBRANCH  16  17
ENDBRANCH  15  16
ENDBRANCH  14  15
ENDBRANCH  12  14
ENDBRANCH  11  12
ENDBRANCH   1  11
TORSDOF 11
ENDMDL
MODEL 5
REMARK VINA RESULT:      -5.1      1.463      1.998
REMARK  11 active torsions:
REMARK  status: ('A' for Active; 'I' for Inactive)
REMARK    1  A    between atoms: N2_2  and  C5_5 
REMARK    2  A    between atoms: C5_5  and  C6_6 
REMARK    3  A    between atoms: C6_6  and  O7_7 
REMARK    4  A    between atoms: O7_7  and  C8_8 
REMARK    5  A    between atoms: C8_8  and  C10_10 
REMARK    6  A    between atoms: C10_10  and  C11_11 
REMARK    7  A    between atoms: C11_11  and  C12_12 
REMARK    8  A    between atoms: C12_12  and  O14_14 
REMARK    9  A    between atoms: O14_14  and  C15_15 
REMARK   10  A    between atoms: C15_15  and  C16_16 
REMARK   11  A    between atoms: C16_16  and  N17_17 
ROOT
ATOM      1  C10 ZIN A   1      18.171  -0.544   6.065  0.00  0.00     0.121 C 
ENDROOT
BRANCH   1   2
ATOM      2  C8  ZIN A   1      19.305  -1.260   5.380  0.00  0.00     0.259 C 
ATOM      3  O9  ZIN A   1      19.985  -0.679   4.569  0.00  0.00    -0.265 OA
BRANCH   2   4
ATOM      4  O7  ZIN A   1      19.561  -2.546   5.673  0.00  0.00    -0.320 OA
BRANCH   4   5
ATOM      5  C6  ZIN A   1      19.538  -2.919   7.076  0.00  0.00     0.206 C 
BRANCH   5   6
ATOM      6  C5  ZIN A   1      18.623  -4.132   7.265  0.00  0.00     0.262 C 
BRANCH   6   7
ATOM      7  N2  ZIN A   1      18.186  -4.200   8.666  0.00  0.00    -0.077 N 
ATOM      8  C1  ZIN A   1      19.218  -4.869   9.470  0.00  0.00     0.271 C 
ATOM      9  C3  ZIN A   1      16.930  -4.958   8.751  0.00  0.00     0.271 C 
ATOM     10  C4  ZIN A   1      17.972  -2.840   9.178  0.00  0.00     0.271 C 
ENDBRANCH   6   7
ENDBRANCH   5   6
ENDBRANCH   4   5
ENDBRANCH   2   4
ENDBRANCH   1   2
BRANCH   1  11
ATOM     11  C11 ZIN A   1      18.684   0.763   6.673  0.00  0.00     0.121 C 
BRANCH  11  12
ATOM     12  C12 ZIN A   1      18.748   0.629   8.172  0.00  0.00     0.259 C 
ATOM     13  O13 ZIN A   1      19.801   0.389   8.713  0.00  0.00    -0.265 OA
BRANCH  12  14
ATOM     14  O14 ZIN A   1      17.633   0.776   8.907  0.00  0.00    -0.320 OA
BRANCH  14  15
ATOM     15  C15 ZIN A   1      17.781   1.397  10.211  0.00  0.00     0.206 C 
BRANCH  15  16
ATOM     16  C16 ZIN A   1      17.357   0.408  11.298  0.00  0.00     0.262 C 
BRANCH  16  17
ATOM     17  N17 ZIN A   1      18.397   0.342  12.334  0.00  0.00    -0.077 N 
ATOM     18  C18 ZIN A   1      19.071  -0.961  12.269  0.00  0.00     0.271 C 
ATOM     19  C19 ZIN A   1      19.377   1.414  12.112  0.00  0.00     0.271 C 
ATOM     20  C20 ZIN A   1      17.780   0.509  13.657  0.00  0.00     0.271 C 
ENDBRANCH  16  17
ENDBRANCH  15  16
ENDBRANCH  14  15
ENDBRANCH  12  14
ENDBRANCH  11  12
ENDBRANCH   1  11
TORSDOF 11
ENDMDL
MODEL 6
REMARK VINA RESULT:      -5.0      2.920      6.129
REMARK  11 active torsions:
REMARK  status: ('A' for Active; 'I' for Inactive)
REMARK    1  A    between atoms: N2_2  and  C5_5 
REMARK    2  A    between atoms: C5_5  and  C6_6 
REMARK    3  A    between atoms: C6_6  and  O7_7 
REMARK    4  A    between atoms: O7_7  and  C8_8 
REMARK    5  A    between atoms: C8_8  and  C10_10 
REMARK    6  A    between atoms: C10_10  and  C11_11 
REMARK    7  A    between atoms: C11_11  and  C12_12 
REMARK    8  A    between atoms: C12_12  and  O14_14 
REMARK    9  A    between atoms: O14_14  and  C15_15 
REMARK   10  A    between atoms: C15_15  and  C16_16 
REMARK   11  A    between atoms: C16_16  and  N17_17 
ROOT
ATOM      1  C10 ZIN A   1      18.797   1.147  11.294  0.00  0.00     0.121 C 
ENDROOT
BRANCH   1   2
ATOM      2  C8  ZIN A   1      18.348   2.194  10.308  0.00  0.00     0.259 C 
ATOM      3  O9  ZIN A   1      17.365   2.857  10.537  0.00  0.00    -0.265 OA
BRANCH   2   4
ATOM      4  O7  ZIN A   1      19.042   2.391   9.175  0.00  0.00    -0.320 OA
BRANCH   4   5
ATOM      5  C6  ZIN A   1      19.422   1.208   8.422  0.00  0.00     0.206 C 
BRANCH   5   6
ATOM      6  C5  ZIN A   1      18.921   1.339   6.982  0.00  0.00     0.262 C 
BRANCH   6   7
ATOM      7  N2  ZIN A   1      18.650   0.002   6.436  0.00  0.00    -0.077 N 
ATOM      8  C1  ZIN A   1      19.129  -1.019   7.378  0.00  0.00     0.271 C 
ATOM      9  C3  ZIN A   1      19.344  -0.153   5.151  0.00  0.00     0.271 C 
ATOM     10  C4  ZIN A   1      17.204  -0.160   6.234  0.00  0.00     0.271 C 
ENDBRANCH   6   7
ENDBRANCH   5   6
ENDBRANCH   4   5
ENDBRANCH   2   4
ENDBRANCH   1   2
BRANCH   1  11
ATOM     11  C11 ZIN A   1      17.727   0.968  12.372  0.00  0.00     0.121 C 
BRANCH  11  12
ATOM     12  C12 ZIN A   1      16.793  -0.144  11.974  0.00  0.00     0.259 C 
ATOM     13  O13 ZIN A   1      15.743   0.112  11.433  0.00  0.00    -0.265 OA
BRANCH  12  14
ATOM     14  O14 ZIN A   1      17.128  -1.422  12.218  0.00  0.00    -0.320 OA
BRANCH  14  15
ATOM     15  C15 ZIN A   1      17.541  -2.224  11.080  0.00  0.00     0.206 C 
BRANCH  15  16
ATOM     16  C16 ZIN A   1      18.148  -3.538  11.577  0.00  0.00     0.262 C 
BRANCH  16  17
ATOM     17  N17 ZIN A   1      18.175  -4.512  10.478  0.00  0.00    -0.077 N 
ATOM     18  C18 ZIN A   1      17.419  -5.709  10.867  0.00  0.00     0.271 C 
ATOM     19  C19 ZIN A   1      17.567  -3.916   9.281  0.00  0.00     0.271 C 
ATOM     20  C20 ZIN A   1      19.566  -4.884  10.187  0.00  0.00     0.271 C 
ENDBRANCH  16  17
ENDBRANCH  15  16
ENDBRANCH  14  15
ENDBRANCH  12  14
ENDBRANCH  11  12
ENDBRANCH   1  11
TORSDOF 11
ENDMDL
MODEL 7
REMARK VINA RESULT:      -5.0      2.370      6.458
REMARK  11 active torsions:
REMARK  status: ('A' for Active; 'I' for Inactive)
REMARK    1  A    between atoms: N2_2  and  C5_5 
REMARK    2  A    between atoms: C5_5  and  C6_6 
REMARK    3  A    between atoms: C6_6  and  O7_7 
REMARK    4  A    between atoms: O7_7  and  C8_8 
REMARK    5  A    between atoms: C8_8  and  C10_10 
REMARK    6  A    between atoms: C10_10  and  C11_11 
REMARK    7  A    between atoms: C11_11  and  C12_12 
REMARK    8  A    between atoms: C12_12  and  O14_14 
REMARK    9  A    between atoms: O14_14  and  C15_15 
REMARK   10  A    between atoms: C15_15  and  C16_16 
REMARK   11  A    between atoms: C16_16  and  N17_17 
ROOT
ATOM      1  C10 ZIN A   1      19.062   2.168   9.993  0.00  0.00     0.121 C 
ENDROOT
BRANCH   1   2
ATOM      2  C8  ZIN A   1      17.702   2.095  10.638  0.00  0.00     0.259 C 
ATOM      3  O9  ZIN A   1      17.187   3.095  11.077  0.00  0.00    -0.265 OA
BRANCH   2   4
ATOM      4  O7  ZIN A   1      17.063   0.917  10.724  0.00  0.00    -0.320 OA
BRANCH   4   5
ATOM      5  C6  ZIN A   1      16.932   0.334  12.048  0.00  0.00     0.206 C 
BRANCH   5   6
ATOM      6  C5  ZIN A   1      18.113  -0.602  12.311  0.00  0.00     0.262 C 
BRANCH   6   7
ATOM      7  N2  ZIN A   1      18.842  -0.146  13.502  0.00  0.00    -0.077 N 
ATOM      8  C1  ZIN A   1      18.051   0.878  14.199  0.00  0.00     0.271 C 
ATOM      9  C3  ZIN A   1      20.134   0.424  13.097  0.00  0.00     0.271 C 
ATOM     10  C4  ZIN A   1      19.070  -1.284  14.403  0.00  0.00     0.271 C 
ENDBRANCH   6   7
ENDBRANCH   5   6
ENDBRANCH   4   5
ENDBRANCH   2   4
ENDBRANCH   1   2
BRANCH   1  11
ATOM     11  C11 ZIN A   1      18.992   1.572   8.586  0.00  0.00     0.121 C 
BRANCH  11  12
ATOM     12  C12 ZIN A   1      19.432   0.132   8.627  0.00  0.00     0.259 C 
ATOM     13  O13 ZIN A   1      20.310  -0.210   9.384  0.00  0.00    -0.265 OA
BRANCH  12  14
ATOM     14  O14 ZIN A   1      18.848  -0.771   7.823  0.00  0.00    -0.320 OA
BRANCH  14  15
ATOM     15  C15 ZIN A   1      18.168  -1.882   8.466  0.00  0.00     0.206 C 
BRANCH  15  16
ATOM     16  C16 ZIN A   1      18.798  -3.199   8.008  0.00  0.00     0.262 C 
BRANCH  16  17
ATOM     17  N17 ZIN A   1      18.703  -4.190   9.088  0.00  0.00    -0.077 N 
ATOM     18  C18 ZIN A   1      19.171  -3.590  10.344  0.00  0.00     0.271 C 
ATOM     19  C19 ZIN A   1      17.306  -4.617   9.239  0.00  0.00     0.271 C 
ATOM     20  C20 ZIN A   1      19.539  -5.353   8.759  0.00  0.00     0.271 C 
ENDBRANCH  16  17
ENDBRANCH  15  16
ENDBRANCH  14  15
ENDBRANCH  12  14
ENDBRANCH  11  12
ENDBRANCH   1  11
TORSDOF 11
ENDMDL
MODEL 8
REMARK VINA RESULT:      -5.0      3.717      6.110
REMARK  11 active torsions:
REMARK  status: ('A' for Active; 'I' for Inactive)
REMARK    1  A    between atoms: N2_2  and  C5_5 
REMARK    2  A    between atoms: C5_5  and  C6_6 
REMARK    3  A    between atoms: C6_6  and  O7_7 
REMARK    4  A    between atoms: O7_7  and  C8_8 
REMARK    5  A    between atoms: C8_8  and  C10_10 
REMARK    6  A    between atoms: C10_10  and  C11_11 
REMARK    7  A    between atoms: C11_11  and  C12_12 
REMARK    8  A    between atoms: C12_12  and  O14_14 
REMARK    9  A    between atoms: O14_14  and  C15_15 
REMARK   10  A    between atoms: C15_15  and  C16_16 
REMARK   11  A    between atoms: C16_16  and  N17_17 
ROOT
ATOM      1  C10 ZIN A   1      19.552   2.846  11.308  0.00  0.00     0.121 C 
ENDROOT
BRANCH   1   2
ATOM      2  C8  ZIN A   1      18.539   2.582  10.225  0.00  0.00     0.259 C 
ATOM      3  O9  ZIN A   1      17.397   2.317  10.517  0.00  0.00    -0.265 OA
BRANCH   2   4
ATOM      4  O7  ZIN A   1      18.906   2.643   8.934  0.00  0.00    -0.320 OA
BRANCH   4   5
ATOM      5  C6  ZIN A   1      19.332   1.402   8.312  0.00  0.00     0.206 C 
BRANCH   5   6
ATOM      6  C5  ZIN A   1      18.999   1.440   6.819  0.00  0.00     0.262 C 
BRANCH   6   7
ATOM      7  N2  ZIN A   1      18.698   0.081   6.350  0.00  0.00    -0.077 N 
ATOM      8  C1  ZIN A   1      19.156  -0.895   7.349  0.00  0.00     0.271 C 
ATOM      9  C3  ZIN A   1      19.387  -0.162   5.076  0.00  0.00     0.271 C 
ATOM     10  C4  ZIN A   1      17.249  -0.061   6.158  0.00  0.00     0.271 C 
ENDBRANCH   6   7
ENDBRANCH   5   6
ENDBRANCH   4   5
ENDBRANCH   2   4
ENDBRANCH   1   2
BRANCH   1  11
ATOM     11  C11 ZIN A   1      19.231   1.982  12.529  0.00  0.00     0.121 C 
BRANCH  11  12
ATOM     12  C12 ZIN A   1      19.999   0.688  12.445  0.00  0.00     0.259 C 
ATOM     13  O13 ZIN A   1      21.171   0.698  12.152  0.00  0.00    -0.265 OA
BRANCH  12  14
ATOM     14  O14 ZIN A   1      19.380  -0.477  12.698  0.00  0.00    -0.320 OA
BRANCH  14  15
ATOM     15  C15 ZIN A   1      19.469  -0.990  14.054  0.00  0.00     0.206 C 
BRANCH  15  16
ATOM     16  C16 ZIN A   1      18.115  -0.832  14.748  0.00  0.00     0.262 C 
BRANCH  16  17
ATOM     17  N17 ZIN A   1      18.323  -0.408  16.140  0.00  0.00    -0.077 N 
ATOM     18  C18 ZIN A   1      17.025  -0.294  16.816  0.00  0.00     0.271 C 
ATOM     19  C19 ZIN A   1      19.152  -1.402  16.834  0.00  0.00     0.271 C 
ATOM     20  C20 ZIN A   1      19.002   0.894  16.158  0.00  0.00     0.271 C 
ENDBRANCH  16  17
ENDBRANCH  15  16
ENDBRANCH  14  15
ENDBRANCH  12  14
ENDBRANCH  11  12
ENDBRANCH   1  11
TORSDOF 11
ENDMDL
MODEL 9
REMARK VINA RESULT:      -4.9      3.560      7.377
REMARK  11 active torsions:
REMARK  status: ('A' for Active; 'I' for Inactive)
REMARK    1  A    between atoms: N2_2  and  C5_5 
REMARK    2  A    between atoms: C5_5  and  C6_6 
REMARK    3  A    between atoms: C6_6  and  O7_7 
REMARK    4  A    between atoms: O7_7  and  C8_8 
REMARK    5  A    between atoms: C8_8  and  C10_10 
REMARK    6  A    between atoms: C10_10  and  C11_11 
REMARK    7  A    between atoms: C11_11  and  C12_12 
REMARK    8  A    between atoms: C12_12  and  O14_14 
REMARK    9  A    between atoms: O14_14  and  C15_15 
REMARK   10  A    between atoms: C15_15  and  C16_16 
REMARK   11  A    between atoms: C16_16  and  N17_17 
ROOT
ATOM      1  C10 ZIN A   1      18.885   2.182   9.082  0.00  0.00     0.121 C 
ENDROOT
BRANCH   1   2
ATOM      2  C8  ZIN A   1      18.399   2.768  10.382  0.00  0.00     0.259 C 
ATOM      3  O9  ZIN A   1      17.288   2.512  10.782  0.00  0.00    -0.265 OA
BRANCH   2   4
ATOM      4  O7  ZIN A   1      19.201   3.574  11.096  0.00  0.00    -0.320 OA
BRANCH   4   5
ATOM      5  C6  ZIN A   1      18.556   4.524  11.986  0.00  0.00     0.206 C 
BRANCH   5   6
ATOM      6  C5  ZIN A   1      19.371   4.647  13.276  0.00  0.00     0.262 C 
BRANCH   6   7
ATOM      7  N2  ZIN A   1      18.562   4.185  14.411  0.00  0.00    -0.077 N 
ATOM      8  C1  ZIN A   1      18.431   2.722  14.357  0.00  0.00     0.271 C 
ATOM      9  C3  ZIN A   1      17.229   4.799  14.346  0.00  0.00     0.271 C 
ATOM     10  C4  ZIN A   1      19.218   4.571  15.668  0.00  0.00     0.271 C 
ENDBRANCH   6   7
ENDBRANCH   5   6
ENDBRANCH   4   5
ENDBRANCH   2   4
ENDBRANCH   1   2
BRANCH   1  11
ATOM     11  C11 ZIN A   1      18.284   0.787   8.894  0.00  0.00     0.121 C 
BRANCH  11  12
ATOM     12  C12 ZIN A   1      19.391  -0.233   8.831  0.00  0.00     0.259 C 
ATOM     13  O13 ZIN A   1      19.411  -1.049   7.940  0.00  0.00    -0.265 OA
BRANCH  12  14
ATOM     14  O14 ZIN A   1      20.356  -0.234   9.765  0.00  0.00    -0.320 OA
BRANCH  14  15
ATOM     15  C15 ZIN A   1      20.187  -1.142  10.886  0.00  0.00     0.206 C 
BRANCH  15  16
ATOM     16  C16 ZIN A   1      19.730  -0.353  12.115  0.00  0.00     0.262 C 
BRANCH  16  17
ATOM     17  N17 ZIN A   1      18.697  -1.115  12.830  0.00  0.00    -0.077 N 
ATOM     18  C18 ZIN A   1      17.383  -0.510  12.581  0.00  0.00     0.271 C 
ATOM     19  C19 ZIN A   1      18.697  -2.504  12.355  0.00  0.00     0.271 C 
ATOM     20  C20 ZIN A   1      18.982  -1.090  14.271  0.00  0.00     0.271 C 
ENDBRANCH  16  17
ENDBRANCH  15  16
ENDBRANCH  14  15
ENDBRANCH  12  14
ENDBRANCH  11  12
ENDBRANCH   1  11
TORSDOF 11
ENDMDL
