MODEL 1
REMARK VINA RESULT:      -3.8      0.000      0.000
REMARK  4 active torsions:
REMARK  status: ('A' for Active; 'I' for Inactive)
REMARK    1  A    between atoms: C3_3  and  C4_4 
REMARK    2  A    between atoms: C4_4  and  O5_5 
REMARK    3  A    between atoms: C22_20  and  C24_21 
REMARK    4  A    between atoms: C27_24  and  N28_25 
ROOT
ATOM      1  C1  ZIN A   1      17.643   1.221  18.974  0.00  0.00     0.112 C 
ATOM      2  C2  ZIN A   1      18.368   1.922  17.901  0.00  0.00    -0.108 C 
ATOM      3  C3  ZIN A   1      18.946   2.480  17.045  0.00  0.00    -0.068 C 
ENDROOT
BRANCH   3   4
ATOM      4  C4  ZIN A   1      19.671   3.181  15.973  0.00  0.00     0.128 C 
ATOM      5  C34 ZIN A   1      18.707   4.040  15.157  0.00  0.00     0.004 C 
ATOM      6  C8  ZIN A   1      18.735   5.407  15.889  0.00  0.00     0.006 C 
ATOM      7  C33 ZIN A   1      17.282   3.586  15.128  0.00  0.00     0.027 C 
ATOM      8  C35 ZIN A   1      19.229   4.209  13.729  0.00  0.00     0.020 C 
ATOM      9  C7  ZIN A   1      20.236   5.592  16.151  0.00  0.00     0.010 C 
ATOM     10  C10 ZIN A   1      18.116   6.451  14.969  0.00  0.00     0.021 C 
ATOM     11  C6  ZIN A   1      20.695   4.172  16.577  0.00  0.00     0.052 C 
ATOM     12  C21 ZIN A   1      16.725   5.983  14.624  0.00  0.00    -0.060 C 
ATOM     13  C12 ZIN A   1      18.129   7.806  15.656  0.00  0.00     0.014 C 
ATOM     14  C20 ZIN A   1      15.672   6.787  14.626  0.00  0.00    -0.048 C 
ATOM     15  C22 ZIN A   1      16.503   4.542  14.211  0.00  0.00     0.049 C 
ATOM     16  C14 ZIN A   1      15.816   8.208  14.943  0.00  0.00    -0.048 C 
ATOM     17  C19 ZIN A   1      14.297   6.255  14.294  0.00  0.00     0.047 C 
ATOM     18  C13 ZIN A   1      17.202   8.799  14.955  0.00  0.00     0.040 C 
ATOM     19  C15 ZIN A   1      14.724   8.959  15.209  0.00  0.00     0.057 C 
ATOM     20  C16 ZIN A   1      13.450   8.370  15.286  0.00  0.00     0.150 C 
ATOM     21  O17 ZIN A   1      12.469   9.080  15.376  0.00  0.00    -0.293 OA
ATOM     22  C18 ZIN A   1      13.282   6.875  15.257  0.00  0.00     0.087 C 
BRANCH  15  23
ATOM     23  C24 ZIN A   1      16.969   4.355  12.790  0.00  0.00    -0.050 A 
ATOM     24  C32 ZIN A   1      16.983   5.431  11.922  0.00  0.00     0.010 A 
ATOM     25  C31 ZIN A   1      17.414   5.265  10.620  0.00  0.00     0.030 A 
ATOM     26  C27 ZIN A   1      17.824   4.013  10.182  0.00  0.00     0.029 A 
ATOM     27  C26 ZIN A   1      17.803   2.933  11.055  0.00  0.00     0.030 A 
ATOM     28  C25 ZIN A   1      17.375   3.107  12.356  0.00  0.00     0.010 A 
BRANCH  26  29
ATOM     29  N28 ZIN A   1      18.256   3.839   8.864  0.00  0.00    -0.390 N 
ATOM     30  C29 ZIN A   1      18.892   2.584   8.461  0.00  0.00     0.149 C 
ATOM     31  C30 ZIN A   1      18.071   4.915   7.886  0.00  0.00     0.149 C 
ENDBRANCH  26  29
ENDBRANCH  15  23
BRANCH   4  32
ATOM     32  O5  ZIN A   1      20.332   2.239  15.126  0.00  0.00    -0.377 OA
ATOM     33  H39 ZIN A   1      20.065   1.321  15.275  0.00  0.00     0.211 HD
ENDBRANCH   4  32
ENDBRANCH   3   4
TORSDOF 4
ENDMDL
MODEL 2
REMARK VINA RESULT:      -3.2     10.420     14.277
REMARK  4 active torsions:
REMARK  status: ('A' for Active; 'I' for Inactive)
REMARK    1  A    between atoms: C3_3  and  C4_4 
REMARK    2  A    between atoms: C4_4  and  O5_5 
REMARK    3  A    between atoms: C22_20  and  C24_21 
REMARK    4  A    between atoms: C27_24  and  N28_25 
ROOT
ATOM      1  C1  ZIN A   1      11.752  -9.161   9.738  0.00  0.00     0.112 C 
ATOM      2  C2  ZIN A   1      12.804  -9.257   8.712  0.00  0.00    -0.108 C 
ATOM      3  C3  ZIN A   1      13.643  -9.333   7.895  0.00  0.00    -0.068 C 
ENDROOT
BRANCH   3   4
ATOM      4  C4  ZIN A   1      14.694  -9.429   6.869  0.00  0.00     0.128 C 
ATOM      5  C34 ZIN A   1      15.552  -8.166   6.872  0.00  0.00     0.004 C 
ATOM      6  C8  ZIN A   1      16.686  -8.502   7.876  0.00  0.00     0.006 C 
ATOM      7  C33 ZIN A   1      14.887  -6.918   7.360  0.00  0.00     0.027 C 
ATOM      8  C35 ZIN A   1      16.148  -7.929   5.483  0.00  0.00     0.020 C 
ATOM      9  C7  ZIN A   1      17.049  -9.937   7.470  0.00  0.00     0.010 C 
ATOM     10  C10 ZIN A   1      17.803  -7.485   7.690  0.00  0.00     0.021 C 
ATOM     11  C6  ZIN A   1      15.665 -10.588   7.204  0.00  0.00     0.052 C 
ATOM     12  C21 ZIN A   1      17.207  -6.115   7.893  0.00  0.00    -0.060 C 
ATOM     13  C12 ZIN A   1      18.933  -7.786   8.660  0.00  0.00     0.014 C 
ATOM     14  C20 ZIN A   1      17.799  -5.169   8.608  0.00  0.00    -0.048 C 
ATOM     15  C22 ZIN A   1      15.894  -5.765   7.223  0.00  0.00     0.049 C 
ATOM     16  C14 ZIN A   1      19.103  -5.405   9.226  0.00  0.00    -0.048 C 
ATOM     17  C19 ZIN A   1      17.142  -3.822   8.796  0.00  0.00     0.047 C 
ATOM     18  C13 ZIN A   1      19.897  -6.607   8.782  0.00  0.00     0.040 C 
ATOM     19  C15 ZIN A   1      19.574  -4.555  10.167  0.00  0.00     0.057 C 
ATOM     20  C16 ZIN A   1      18.780  -3.495  10.636  0.00  0.00     0.150 C 
ATOM     21  O17 ZIN A   1      19.272  -2.658  11.365  0.00  0.00    -0.293 OA
ATOM     22  C18 ZIN A   1      17.330  -3.379  10.249  0.00  0.00     0.087 C 
BRANCH  15  23
ATOM     23  C24 ZIN A   1      16.139  -5.493   5.761  0.00  0.00    -0.050 A 
ATOM     24  C32 ZIN A   1      17.398  -5.115   5.332  0.00  0.00     0.010 A 
ATOM     25  C31 ZIN A   1      17.628  -4.870   3.992  0.00  0.00     0.030 A 
ATOM     26  C27 ZIN A   1      16.590  -4.994   3.077  0.00  0.00     0.029 A 
ATOM     27  C26 ZIN A   1      15.325  -5.369   3.513  0.00  0.00     0.030 A 
ATOM     28  C25 ZIN A   1      15.103  -5.616   4.853  0.00  0.00     0.010 A 
BRANCH  26  29
ATOM     29  N28 ZIN A   1      16.817  -4.742   1.722  0.00  0.00    -0.390 N 
ATOM     30  C29 ZIN A   1      17.950  -5.369   1.040  0.00  0.00     0.149 C 
ATOM     31  C30 ZIN A   1      15.919  -3.849   0.983  0.00  0.00     0.149 C 
ENDBRANCH  26  29
ENDBRANCH  15  23
BRANCH   4  32
ATOM     32  O5  ZIN A   1      14.111  -9.628   5.580  0.00  0.00    -0.377 OA
ATOM     33  H39 ZIN A   1      13.851 -10.543   5.403  0.00  0.00     0.211 HD
ENDBRANCH   4  32
ENDBRANCH   3   4
TORSDOF 4
ENDMDL
MODEL 3
REMARK VINA RESULT:      -3.1      4.204      8.643
REMARK  4 active torsions:
REMARK  status: ('A' for Active; 'I' for Inactive)
REMARK    1  A    between atoms: C3_3  and  C4_4 
REMARK    2  A    between atoms: C4_4  and  O5_5 
REMARK    3  A    between atoms: C22_20  and  C24_21 
REMARK    4  A    between atoms: C27_24  and  N28_25 
ROOT
ATOM      1  C1  ZIN A   1      15.604   5.282  10.285  0.00  0.00     0.112 C 
ATOM      2  C2  ZIN A   1      16.714   4.824  11.138  0.00  0.00    -0.108 C 
ATOM      3  C3  ZIN A   1      17.598   4.459  11.819  0.00  0.00    -0.068 C 
ENDROOT
BRANCH   3   4
ATOM      4  C4  ZIN A   1      18.706   4.002  12.672  0.00  0.00     0.128 C 
ATOM      5  C34 ZIN A   1      18.722   2.476  12.746  0.00  0.00     0.004 C 
ATOM      6  C8  ZIN A   1      19.639   2.068  11.563  0.00  0.00     0.006 C 
ATOM      7  C33 ZIN A   1      17.407   1.792  12.541  0.00  0.00     0.027 C 
ATOM      8  C35 ZIN A   1      19.347   2.018  14.065  0.00  0.00     0.020 C 
ATOM      9  C7  ZIN A   1      20.792   3.071  11.700  0.00  0.00     0.010 C 
ATOM     10  C10 ZIN A   1      20.037   0.610  11.752  0.00  0.00     0.021 C 
ATOM     11  C6  ZIN A   1      20.064   4.398  12.044  0.00  0.00     0.052 C 
ATOM     12  C21 ZIN A   1      18.767  -0.199  11.836  0.00  0.00    -0.060 C 
ATOM     13  C12 ZIN A   1      20.938   0.176  10.608  0.00  0.00     0.014 C 
ATOM     14  C20 ZIN A   1      18.600  -1.349  11.199  0.00  0.00    -0.048 C 
ATOM     15  C22 ZIN A   1      17.631   0.282  12.716  0.00  0.00     0.049 C 
ATOM     16  C14 ZIN A   1      19.677  -1.916  10.387  0.00  0.00    -0.048 C 
ATOM     17  C19 ZIN A   1      17.296  -2.104  11.302  0.00  0.00     0.047 C 
ATOM     18  C13 ZIN A   1      21.063  -1.345  10.539  0.00  0.00     0.040 C 
ATOM     19  C15 ZIN A   1      19.420  -2.931   9.530  0.00  0.00     0.057 C 
ATOM     20  C16 ZIN A   1      18.105  -3.386   9.333  0.00  0.00     0.150 C 
ATOM     21  O17 ZIN A   1      17.914  -4.391   8.678  0.00  0.00    -0.293 OA
ATOM     22  C18 ZIN A   1      16.931  -2.650   9.919  0.00  0.00     0.087 C 
BRANCH  15  23
ATOM     23  C24 ZIN A   1      17.965  -0.006  14.158  0.00  0.00    -0.050 A 
ATOM     24  C32 ZIN A   1      19.008  -0.859  14.467  0.00  0.00     0.010 A 
ATOM     25  C31 ZIN A   1      19.319  -1.121  15.787  0.00  0.00     0.030 A 
ATOM     26  C27 ZIN A   1      18.577  -0.533  16.803  0.00  0.00     0.029 A 
ATOM     27  C26 ZIN A   1      17.527   0.319  16.488  0.00  0.00     0.030 A 
ATOM     28  C25 ZIN A   1      17.223   0.580  15.167  0.00  0.00     0.010 A 
BRANCH  26  29
ATOM     29  N28 ZIN A   1      18.886  -0.800  18.139  0.00  0.00    -0.390 N 
ATOM     30  C29 ZIN A   1      19.766  -1.919  18.479  0.00  0.00     0.149 C 
ATOM     31  C30 ZIN A   1      18.329   0.043  19.202  0.00  0.00     0.149 C 
ENDBRANCH  26  29
ENDBRANCH  15  23
BRANCH   4  32
ATOM     32  O5  ZIN A   1      18.585   4.559  13.982  0.00  0.00    -0.377 OA
ATOM     33  H39 ZIN A   1      19.234   5.248  14.178  0.00  0.00     0.211 HD
ENDBRANCH   4  32
ENDBRANCH   3   4
TORSDOF 4
ENDMDL
MODEL 4
REMARK VINA RESULT:      -2.7      8.087     11.735
REMARK  4 active torsions:
REMARK  status: ('A' for Active; 'I' for Inactive)
REMARK    1  A    between atoms: C3_3  and  C4_4 
REMARK    2  A    between atoms: C4_4  and  O5_5 
REMARK    3  A    between atoms: C22_20  and  C24_21 
REMARK    4  A    between atoms: C27_24  and  N28_25 
ROOT
ATOM      1  C1  ZIN A   1      23.705  -5.665   7.813  0.00  0.00     0.112 C 
ATOM      2  C2  ZIN A   1      22.361  -5.383   7.282  0.00  0.00    -0.108 C 
ATOM      3  C3  ZIN A   1      21.289  -5.157   6.858  0.00  0.00    -0.068 C 
ENDROOT
BRANCH   3   4
ATOM      4  C4  ZIN A   1      19.946  -4.874   6.327  0.00  0.00     0.128 C 
ATOM      5  C34 ZIN A   1      18.968  -4.617   7.472  0.00  0.00     0.004 C 
ATOM      6  C8  ZIN A   1      19.061  -3.084   7.687  0.00  0.00     0.006 C 
ATOM      7  C33 ZIN A   1      19.297  -5.267   8.779  0.00  0.00     0.027 C 
ATOM      8  C35 ZIN A   1      17.547  -4.993   7.047  0.00  0.00     0.020 C 
ATOM      9  C7  ZIN A   1      19.044  -2.563   6.244  0.00  0.00     0.010 C 
ATOM     10  C10 ZIN A   1      17.872  -2.651   8.535  0.00  0.00     0.021 C 
ATOM     11  C6  ZIN A   1      19.962  -3.567   5.498  0.00  0.00     0.052 C 
ATOM     12  C21 ZIN A   1      17.918  -3.442   9.818  0.00  0.00    -0.060 C 
ATOM     13  C12 ZIN A   1      17.931  -1.150   8.766  0.00  0.00     0.014 C 
ATOM     14  C20 ZIN A   1      17.712  -2.899  11.009  0.00  0.00    -0.048 C 
ATOM     15  C22 ZIN A   1      18.166  -4.936   9.765  0.00  0.00     0.049 C 
ATOM     16  C14 ZIN A   1      17.394  -1.477  11.137  0.00  0.00    -0.048 C 
ATOM     17  C19 ZIN A   1      17.794  -3.739  12.262  0.00  0.00     0.047 C 
ATOM     18  C13 ZIN A   1      16.997  -0.719   9.896  0.00  0.00     0.040 C 
ATOM     19  C15 ZIN A   1      17.453  -0.873  12.345  0.00  0.00     0.057 C 
ATOM     20  C16 ZIN A   1      17.915  -1.573  13.473  0.00  0.00     0.150 C 
ATOM     21  O17 ZIN A   1      17.819  -1.063  14.572  0.00  0.00    -0.293 OA
ATOM     22  C18 ZIN A   1      18.527  -2.942  13.343  0.00  0.00     0.087 C 
BRANCH  15  23
ATOM     23  C24 ZIN A   1      16.905  -5.634   9.325  0.00  0.00    -0.050 A 
ATOM     24  C32 ZIN A   1      15.687  -4.987   9.428  0.00  0.00     0.010 A 
ATOM     25  C31 ZIN A   1      14.530  -5.622   9.021  0.00  0.00     0.030 A 
ATOM     26  C27 ZIN A   1      14.590  -6.915   8.517  0.00  0.00     0.029 A 
ATOM     27  C26 ZIN A   1      15.815  -7.563   8.419  0.00  0.00     0.030 A 
ATOM     28  C25 ZIN A   1      16.968  -6.922   8.824  0.00  0.00     0.010 A 
BRANCH  26  29
ATOM     29  N28 ZIN A   1      13.421  -7.562   8.108  0.00  0.00    -0.390 N 
ATOM     30  C29 ZIN A   1      12.130  -6.880   8.216  0.00  0.00     0.149 C 
ATOM     31  C30 ZIN A   1      13.488  -8.924   7.571  0.00  0.00     0.149 C 
ENDBRANCH  26  29
ENDBRANCH  15  23
BRANCH   4  32
ATOM     32  O5  ZIN A   1      19.492  -5.965   5.525  0.00  0.00    -0.377 OA
ATOM     33  H39 ZIN A   1      20.196  -6.566   5.242  0.00  0.00     0.211 HD
ENDBRANCH   4  32
ENDBRANCH   3   4
TORSDOF 4
ENDMDL
MODEL 5
REMARK VINA RESULT:      -2.5     10.014     13.807
REMARK  4 active torsions:
REMARK  status: ('A' for Active; 'I' for Inactive)
REMARK    1  A    between atoms: C3_3  and  C4_4 
REMARK    2  A    between atoms: C4_4  and  O5_5 
REMARK    3  A    between atoms: C22_20  and  C24_21 
REMARK    4  A    between atoms: C27_24  and  N28_25 
ROOT
ATOM      1  C1  ZIN A   1      22.077  -8.393   9.602  0.00  0.00     0.112 C 
ATOM      2  C2  ZIN A   1      21.120  -7.274   9.582  0.00  0.00    -0.108 C 
ATOM      3  C3  ZIN A   1      20.359  -6.381   9.566  0.00  0.00    -0.068 C 
ENDROOT
BRANCH   3   4
ATOM      4  C4  ZIN A   1      19.403  -5.262   9.546  0.00  0.00     0.128 C 
ATOM      5  C34 ZIN A   1      18.707  -5.185   8.189  0.00  0.00     0.004 C 
ATOM      6  C8  ZIN A   1      17.453  -6.079   8.375  0.00  0.00     0.006 C 
ATOM      7  C33 ZIN A   1      19.470  -5.733   7.024  0.00  0.00     0.027 C 
ATOM      8  C35 ZIN A   1      18.276  -3.746   7.897  0.00  0.00     0.020 C 
ATOM      9  C7  ZIN A   1      16.958  -5.640   9.760  0.00  0.00     0.010 C 
ATOM     10  C10 ZIN A   1      16.489  -5.789   7.232  0.00  0.00     0.021 C 
ATOM     11  C6  ZIN A   1      18.272  -5.505  10.575  0.00  0.00     0.052 C 
ATOM     12  C21 ZIN A   1      17.225  -6.047   5.942  0.00  0.00    -0.060 C 
ATOM     13  C12 ZIN A   1      15.246  -6.649   7.384  0.00  0.00     0.014 C 
ATOM     14  C20 ZIN A   1      16.689  -6.704   4.924  0.00  0.00    -0.048 C 
ATOM     15  C22 ZIN A   1      18.628  -5.502   5.760  0.00  0.00     0.049 C 
ATOM     16  C14 ZIN A   1      15.314  -7.198   4.994  0.00  0.00    -0.048 C 
ATOM     17  C19 ZIN A   1      17.484  -6.952   3.664  0.00  0.00     0.047 C 
ATOM     18  C13 ZIN A   1      14.425  -6.681   6.096  0.00  0.00     0.040 C 
ATOM     19  C15 ZIN A   1      14.864  -8.090   4.083  0.00  0.00     0.057 C 
ATOM     20  C16 ZIN A   1      15.734  -8.631   3.121  0.00  0.00     0.150 C 
ATOM     21  O17 ZIN A   1      15.281  -9.312   2.223  0.00  0.00    -0.293 OA
ATOM     22  C18 ZIN A   1      17.217  -8.382   3.185  0.00  0.00     0.087 C 
BRANCH  15  23
ATOM     23  C24 ZIN A   1      18.553  -4.024   5.477  0.00  0.00    -0.050 A 
ATOM     24  C32 ZIN A   1      17.427  -3.492   4.878  0.00  0.00     0.010 A 
ATOM     25  C31 ZIN A   1      17.353  -2.137   4.622  0.00  0.00     0.030 A 
ATOM     26  C27 ZIN A   1      18.418  -1.311   4.957  0.00  0.00     0.029 A 
ATOM     27  C26 ZIN A   1      19.550  -1.849   5.554  0.00  0.00     0.030 A 
ATOM     28  C25 ZIN A   1      19.616  -3.204   5.811  0.00  0.00     0.010 A 
BRANCH  26  29
ATOM     29  N28 ZIN A   1      18.349   0.060   4.694  0.00  0.00    -0.390 N 
ATOM     30  C29 ZIN A   1      18.460   1.023   5.792  0.00  0.00     0.149 C 
ATOM     31  C30 ZIN A   1      18.167   0.534   3.319  0.00  0.00     0.149 C 
ENDBRANCH  26  29
ENDBRANCH  15  23
BRANCH   4  32
ATOM     32  O5  ZIN A   1      20.074  -4.033   9.828  0.00  0.00    -0.377 OA
ATOM     33  H39 ZIN A   1      19.545  -3.244   9.645  0.00  0.00     0.211 HD
ENDBRANCH   4  32
ENDBRANCH   3   4
TORSDOF 4
ENDMDL
MODEL 6
REMARK VINA RESULT:      -2.1      2.427      3.645
REMARK  4 active torsions:
REMARK  status: ('A' for Active; 'I' for Inactive)
REMARK    1  A    between atoms: C3_3  and  C4_4 
REMARK    2  A    between atoms: C4_4  and  O5_5 
REMARK    3  A    between atoms: C22_20  and  C24_21 
REMARK    4  A    between atoms: C27_24  and  N28_25 
ROOT
ATOM      1  C1  ZIN A   1      15.016  -1.506  17.804  0.00  0.00     0.112 C 
ATOM      2  C2  ZIN A   1      16.238  -1.284  17.014  0.00  0.00    -0.108 C 
ATOM      3  C3  ZIN A   1      17.213  -1.106  16.385  0.00  0.00    -0.068 C 
ENDROOT
BRANCH   3   4
ATOM      4  C4  ZIN A   1      18.435  -0.884  15.595  0.00  0.00     0.128 C 
ATOM      5  C34 ZIN A   1      18.334   0.430  14.824  0.00  0.00     0.004 C 
ATOM      6  C8  ZIN A   1      18.938   1.471  15.804  0.00  0.00     0.006 C 
ATOM      7  C33 ZIN A   1      16.952   0.893  14.486  0.00  0.00     0.027 C 
ATOM      8  C35 ZIN A   1      19.186   0.364  13.554  0.00  0.00     0.020 C 
ATOM      9  C7  ZIN A   1      20.176   0.729  16.325  0.00  0.00     0.010 C 
ATOM     10  C10 ZIN A   1      19.239   2.742  15.021  0.00  0.00     0.021 C 
ATOM     11  C6  ZIN A   1      19.656  -0.719  16.532  0.00  0.00     0.052 C 
ATOM     12  C21 ZIN A   1      17.951   3.195  14.380  0.00  0.00    -0.060 C 
ATOM     13  C12 ZIN A   1      19.833   3.785  15.953  0.00  0.00     0.014 C 
ATOM     14  C20 ZIN A   1      17.553   4.459  14.376  0.00  0.00    -0.048 C 
ATOM     15  C22 ZIN A   1      17.077   2.185  13.664  0.00  0.00     0.049 C 
ATOM     16  C14 ZIN A   1      18.377   5.505  14.982  0.00  0.00    -0.048 C 
ATOM     17  C19 ZIN A   1      16.241   4.850  13.738  0.00  0.00     0.047 C 
ATOM     18  C13 ZIN A   1      19.808   5.177  15.324  0.00  0.00     0.040 C 
ATOM     19  C15 ZIN A   1      17.856   6.729  15.219  0.00  0.00     0.057 C 
ATOM     20  C16 ZIN A   1      16.495   6.987  14.981  0.00  0.00     0.150 C 
ATOM     21  O17 ZIN A   1      16.082   8.127  15.055  0.00  0.00    -0.293 OA
ATOM     22  C18 ZIN A   1      15.542   5.875  14.635  0.00  0.00     0.087 C 
BRANCH  15  23
ATOM     23  C24 ZIN A   1      17.686   1.864  12.324  0.00  0.00    -0.050 A 
ATOM     24  C32 ZIN A   1      18.728   2.631  11.838  0.00  0.00     0.010 A 
ATOM     25  C31 ZIN A   1      19.291   2.336  10.612  0.00  0.00     0.030 A 
ATOM     26  C27 ZIN A   1      18.803   1.273   9.863  0.00  0.00     0.029 A 
ATOM     27  C26 ZIN A   1      17.752   0.508  10.352  0.00  0.00     0.030 A 
ATOM     28  C25 ZIN A   1      17.196   0.805  11.580  0.00  0.00     0.010 A 
BRANCH  26  29
ATOM     29  N28 ZIN A   1      19.367   0.975   8.620  0.00  0.00    -0.390 N 
ATOM     30  C29 ZIN A   1      19.367   1.979   7.555  0.00  0.00     0.149 C 
ATOM     31  C30 ZIN A   1      19.960  -0.345   8.383  0.00  0.00     0.149 C 
ENDBRANCH  26  29
ENDBRANCH  15  23
BRANCH   4  32
ATOM     32  O5  ZIN A   1      18.646  -1.972  14.693  0.00  0.00    -0.377 OA
ATOM     33  H39 ZIN A   1      18.060  -2.726  14.843  0.00  0.00     0.211 HD
ENDBRANCH   4  32
ENDBRANCH   3   4
TORSDOF 4
ENDMDL
MODEL 7
REMARK VINA RESULT:      -2.0      2.958      4.334
REMARK  4 active torsions:
REMARK  status: ('A' for Active; 'I' for Inactive)
REMARK    1  A    between atoms: C3_3  and  C4_4 
REMARK    2  A    between atoms: C4_4  and  O5_5 
REMARK    3  A    between atoms: C22_20  and  C24_21 
REMARK    4  A    between atoms: C27_24  and  N28_25 
ROOT
ATOM      1  C1  ZIN A   1      16.388  -1.754  16.995  0.00  0.00     0.112 C 
ATOM      2  C2  ZIN A   1      17.342  -1.551  15.892  0.00  0.00    -0.108 C 
ATOM      3  C3  ZIN A   1      18.102  -1.390  15.012  0.00  0.00    -0.068 C 
ENDROOT
BRANCH   3   4
ATOM      4  C4  ZIN A   1      19.055  -1.187  13.909  0.00  0.00     0.128 C 
ATOM      5  C34 ZIN A   1      18.727   0.101  13.157  0.00  0.00     0.004 C 
ATOM      6  C8  ZIN A   1      19.563   1.175  13.900  0.00  0.00     0.006 C 
ATOM      7  C33 ZIN A   1      17.299   0.545  13.201  0.00  0.00     0.027 C 
ATOM      8  C35 ZIN A   1      19.195  -0.002  11.704  0.00  0.00     0.020 C 
ATOM      9  C7  ZIN A   1      20.907   0.457  14.081  0.00  0.00     0.010 C 
ATOM     10  C10 ZIN A   1      19.619   2.422  13.027  0.00  0.00     0.021 C 
ATOM     11  C6  ZIN A   1      20.485  -0.986  14.466  0.00  0.00     0.052 C 
ATOM     12  C21 ZIN A   1      18.198   2.848  12.754  0.00  0.00    -0.060 C 
ATOM     13  C12 ZIN A   1      20.433   3.497  13.726  0.00  0.00     0.014 C 
ATOM     14  C20 ZIN A   1      17.797   4.109  12.823  0.00  0.00    -0.048 C 
ATOM     15  C22 ZIN A   1      17.174   1.812  12.339  0.00  0.00     0.049 C 
ATOM     16  C14 ZIN A   1      18.743   5.178  13.146  0.00  0.00    -0.048 C 
ATOM     17  C19 ZIN A   1      16.355   4.473  12.562  0.00  0.00     0.047 C 
ATOM     18  C13 ZIN A   1      20.217   4.869  13.088  0.00  0.00     0.040 C 
ATOM     19  C15 ZIN A   1      18.291   6.407  13.481  0.00  0.00     0.057 C 
ATOM     20  C16 ZIN A   1      16.914   6.650  13.622  0.00  0.00     0.150 C 
ATOM     21  O17 ZIN A   1      16.522   7.790  13.774  0.00  0.00    -0.293 OA
ATOM     22  C18 ZIN A   1      15.917   5.523  13.586  0.00  0.00     0.087 C 
BRANCH  15  23
ATOM     23  C24 ZIN A   1      17.393   1.450  10.892  0.00  0.00    -0.050 A 
ATOM     24  C32 ZIN A   1      18.116   2.295  10.072  0.00  0.00     0.010 A 
ATOM     25  C31 ZIN A   1      18.323   1.964   8.747  0.00  0.00     0.030 A 
ATOM     26  C27 ZIN A   1      17.794   0.785   8.237  0.00  0.00     0.029 A 
ATOM     27  C26 ZIN A   1      17.063  -0.059   9.064  0.00  0.00     0.030 A 
ATOM     28  C25 ZIN A   1      16.864   0.275  10.388  0.00  0.00     0.010 A 
BRANCH  26  29
ATOM     29  N28 ZIN A   1      17.996   0.450   6.896  0.00  0.00    -0.390 N 
ATOM     30  C29 ZIN A   1      19.210   0.889   6.206  0.00  0.00     0.149 C 
ATOM     31  C30 ZIN A   1      16.993  -0.344   6.181  0.00  0.00     0.149 C 
ENDBRANCH  26  29
ENDBRANCH  15  23
BRANCH   4  32
ATOM     32  O5  ZIN A   1      19.023  -2.302  13.017  0.00  0.00    -0.377 OA
ATOM     33  H39 ZIN A   1      18.132  -2.620  12.816  0.00  0.00     0.211 HD
ENDBRANCH   4  32
ENDBRANCH   3   4
TORSDOF 4
ENDMDL
MODEL 8
REMARK VINA RESULT:      -2.0      3.302      6.126
REMARK  4 active torsions:
REMARK  status: ('A' for Active; 'I' for Inactive)
REMARK    1  A    between atoms: C3_3  and  C4_4 
REMARK    2  A    between atoms: C4_4  and  O5_5 
REMARK    3  A    between atoms: C22_20  and  C24_21 
REMARK    4  A    between atoms: C27_24  and  N28_25 
ROOT
ATOM      1  C1  ZIN A   1      21.782   8.482  13.711  0.00  0.00     0.112 C 
ATOM      2  C2  ZIN A   1      20.868   7.327  13.730  0.00  0.00    -0.108 C 
ATOM      3  C3  ZIN A   1      20.140   6.407  13.744  0.00  0.00    -0.068 C 
ENDROOT
BRANCH   3   4
ATOM      4  C4  ZIN A   1      19.227   5.253  13.763  0.00  0.00     0.128 C 
ATOM      5  C34 ZIN A   1      18.561   5.128  15.132  0.00  0.00     0.004 C 
ATOM      6  C8  ZIN A   1      17.272   5.978  14.985  0.00  0.00     0.006 C 
ATOM      7  C33 ZIN A   1      19.326   5.684  16.290  0.00  0.00     0.027 C 
ATOM      8  C35 ZIN A   1      18.188   3.670  15.406  0.00  0.00     0.020 C 
ATOM      9  C7  ZIN A   1      16.766   5.544  13.602  0.00  0.00     0.010 C 
ATOM     10  C10 ZIN A   1      16.341   5.633  16.141  0.00  0.00     0.021 C 
ATOM     11  C6  ZIN A   1      18.068   5.471  12.760  0.00  0.00     0.052 C 
ATOM     12  C21 ZIN A   1      17.093   5.896  17.421  0.00  0.00    -0.060 C 
ATOM     13  C12 ZIN A   1      15.065   6.449  16.027  0.00  0.00     0.014 C 
ATOM     14  C20 ZIN A   1      16.553   6.516  18.460  0.00  0.00    -0.048 C 
ATOM     15  C22 ZIN A   1      18.518   5.401  17.567  0.00  0.00     0.049 C 
ATOM     16  C14 ZIN A   1      15.159   6.960  18.425  0.00  0.00    -0.048 C 
ATOM     17  C19 ZIN A   1      17.363   6.772  19.709  0.00  0.00     0.047 C 
ATOM     18  C13 ZIN A   1      14.269   6.429  17.331  0.00  0.00     0.040 C 
ATOM     19  C15 ZIN A   1      14.696   7.819  19.360  0.00  0.00     0.057 C 
ATOM     20  C16 ZIN A   1      15.564   8.376  20.314  0.00  0.00     0.150 C 
ATOM     21  O17 ZIN A   1      15.103   9.024  21.233  0.00  0.00    -0.293 OA
ATOM     22  C18 ZIN A   1      17.053   8.183  20.218  0.00  0.00     0.087 C 
BRANCH  15  23
ATOM     23  C24 ZIN A   1      18.503   3.917  17.825  0.00  0.00    -0.050 A 
ATOM     24  C32 ZIN A   1      19.588   3.142  17.458  0.00  0.00     0.010 A 
ATOM     25  C31 ZIN A   1      19.580   1.782  17.698  0.00  0.00     0.030 A 
ATOM     26  C27 ZIN A   1      18.476   1.191  18.299  0.00  0.00     0.029 A 
ATOM     27  C26 ZIN A   1      17.386   1.972  18.662  0.00  0.00     0.030 A 
ATOM     28  C25 ZIN A   1      17.402   3.332  18.423  0.00  0.00     0.010 A 
BRANCH  26  29
ATOM     29  N28 ZIN A   1      18.462  -0.185  18.539  0.00  0.00    -0.390 N 
ATOM     30  C29 ZIN A   1      18.051  -0.697  19.847  0.00  0.00     0.149 C 
ATOM     31  C30 ZIN A   1      18.858  -1.117  17.478  0.00  0.00     0.149 C 
ENDBRANCH  26  29
ENDBRANCH  15  23
BRANCH   4  32
ATOM     32  O5  ZIN A   1      19.937   4.055  13.447  0.00  0.00    -0.377 OA
ATOM     33  H39 ZIN A   1      20.853   4.201  13.172  0.00  0.00     0.211 HD
ENDBRANCH   4  32
ENDBRANCH   3   4
TORSDOF 4
ENDMDL
MODEL 9
REMARK VINA RESULT:      -2.0      4.931      7.598
REMARK  4 active torsions:
REMARK  status: ('A' for Active; 'I' for Inactive)
REMARK    1  A    between atoms: C3_3  and  C4_4 
REMARK    2  A    between atoms: C4_4  and  O5_5 
REMARK    3  A    between atoms: C22_20  and  C24_21 
REMARK    4  A    between atoms: C27_24  and  N28_25 
ROOT
ATOM      1  C1  ZIN A   1      15.972  -5.293  13.186  0.00  0.00     0.112 C 
ATOM      2  C2  ZIN A   1      17.004  -4.861  12.229  0.00  0.00    -0.108 C 
ATOM      3  C3  ZIN A   1      17.826  -4.517  11.465  0.00  0.00    -0.068 C 
ENDROOT
BRANCH   3   4
ATOM      4  C4  ZIN A   1      18.857  -4.085  10.508  0.00  0.00     0.128 C 
ATOM      5  C34 ZIN A   1      18.811  -2.569  10.329  0.00  0.00     0.004 C 
ATOM      6  C8  ZIN A   1      19.789  -2.048  11.414  0.00  0.00     0.006 C 
ATOM      7  C33 ZIN A   1      17.488  -1.916  10.577  0.00  0.00     0.027 C 
ATOM      8  C35 ZIN A   1      19.329  -2.185   8.942  0.00  0.00     0.020 C 
ATOM      9  C7  ZIN A   1      20.967  -3.020  11.268  0.00  0.00     0.010 C 
ATOM     10  C10 ZIN A   1      20.118  -0.594  11.099  0.00  0.00     0.021 C 
ATOM     11  C6  ZIN A   1      20.269  -4.391  11.066  0.00  0.00     0.052 C 
ATOM     12  C21 ZIN A   1      18.816   0.164  11.048  0.00  0.00    -0.060 C 
ATOM     13  C12 ZIN A   1      21.076  -0.051  12.145  0.00  0.00     0.014 C 
ATOM     14  C20 ZIN A   1      18.649   1.350  11.615  0.00  0.00    -0.048 C 
ATOM     15  C22 ZIN A   1      17.643  -0.415  10.283  0.00  0.00     0.049 C 
ATOM     16  C14 ZIN A   1      19.755   2.009  12.310  0.00  0.00    -0.048 C 
ATOM     17  C19 ZIN A   1      17.313   2.052  11.551  0.00  0.00     0.047 C 
ATOM     18  C13 ZIN A   1      21.149   1.474  12.101  0.00  0.00     0.040 C 
ATOM     19  C15 ZIN A   1      19.518   3.073  13.110  0.00  0.00     0.057 C 
ATOM     20  C16 ZIN A   1      18.203   3.498  13.366  0.00  0.00     0.150 C 
ATOM     21  O17 ZIN A   1      18.019   4.540  13.962  0.00  0.00    -0.293 OA
ATOM     22  C18 ZIN A   1      17.021   2.683  12.915  0.00  0.00     0.087 C 
BRANCH  15  23
ATOM     23  C24 ZIN A   1      17.868  -0.220   8.806  0.00  0.00    -0.050 A 
ATOM     24  C32 ZIN A   1      18.884   0.608   8.367  0.00  0.00     0.010 A 
ATOM     25  C31 ZIN A   1      19.097   0.786   7.014  0.00  0.00     0.030 A 
ATOM     26  C27 ZIN A   1      18.282   0.139   6.095  0.00  0.00     0.029 A 
ATOM     27  C26 ZIN A   1      17.259  -0.689   6.540  0.00  0.00     0.030 A 
ATOM     28  C25 ZIN A   1      17.054  -0.865   7.893  0.00  0.00     0.010 A 
BRANCH  26  29
ATOM     29  N28 ZIN A   1      18.491   0.319   4.725  0.00  0.00    -0.390 N 
ATOM     30  C29 ZIN A   1      19.340   1.414   4.251  0.00  0.00     0.149 C 
ATOM     31  C30 ZIN A   1      17.859  -0.588   3.762  0.00  0.00     0.149 C 
ENDBRANCH  26  29
ENDBRANCH  15  23
BRANCH   4  32
ATOM     32  O5  ZIN A   1      18.670  -4.737   9.251  0.00  0.00    -0.377 OA
ATOM     33  H39 ZIN A   1      19.491  -5.034   8.835  0.00  0.00     0.211 HD
ENDBRANCH   4  32
ENDBRANCH   3   4
TORSDOF 4
ENDMDL
