MODEL 1
REMARK VINA RESULT:      -7.6      0.000      0.000
REMARK  6 active torsions:
REMARK  status: ('A' for Active; 'I' for Inactive)
REMARK    1  A    between atoms: C5_5  and  C6_6 
REMARK    2  A    between atoms: C6_6  and  S7_7 
REMARK    3  A    between atoms: S7_7  and  C8_8 
REMARK    4  A    between atoms: C8_8  and  C10_9 
REMARK    5  A    between atoms: C8_8  and  C17_16 
REMARK    6  A    between atoms: C10_9  and  N11_10 
ROOT
ATOM      1  C8  ZIN A   1      18.464  -0.833  12.753  0.00  0.00     0.100 C 
ENDROOT
BRANCH   1   2
ATOM      2  S7  ZIN A   1      16.960   0.054  12.262  0.00  0.00    -0.153 SA
BRANCH   2   3
ATOM      3  C6  ZIN A   1      17.608   1.572  11.510  0.00  0.00     0.113 C 
BRANCH   3   4
ATOM      4  C5  ZIN A   1      17.970   1.305  10.071  0.00  0.00    -0.049 A 
ATOM      5  C4  ZIN A   1      17.361   0.271   9.386  0.00  0.00     0.009 A 
ATOM      6  C3  ZIN A   1      17.691   0.026   8.066  0.00  0.00     0.024 A 
ATOM      7  C2  ZIN A   1      18.633   0.816   7.431  0.00  0.00     0.034 A 
ATOM      8 Cl1  ZIN A   1      19.048   0.510   5.774  0.00  0.00    -0.084 Cl
ATOM      9  C26 ZIN A   1      19.247   1.848   8.120  0.00  0.00     0.024 A 
ATOM     10  C25 ZIN A   1      18.911   2.095   9.437  0.00  0.00     0.009 A 
ENDBRANCH   3   4
ENDBRANCH   2   3
ENDBRANCH   1   2
BRANCH   1  11
ATOM     11  C10 ZIN A   1      18.374  -1.211  14.232  0.00  0.00     0.149 C 
BRANCH  11  12
ATOM     12  N11 ZIN A   1      18.426   0.005  15.049  0.00  0.00    -0.350 N 
ATOM     13  C16 ZIN A   1      17.585   0.331  16.056  0.00  0.00     0.182 A 
ATOM     14  N14 ZIN A   1      17.947   1.484  16.547  0.00  0.00    -0.361 N 
ATOM     15  C13 ZIN A   1      19.015   1.935  15.872  0.00  0.00     0.106 A 
ATOM     16  H15 ZIN A   1      17.511   1.944  17.280  0.00  0.00     0.166 HD
ATOM     17  C12 ZIN A   1      19.331   1.025  14.931  0.00  0.00     0.108 A 
ENDBRANCH  11  12
ENDBRANCH   1  11
BRANCH   1  18
ATOM     18  C17 ZIN A   1      18.604  -2.082  11.922  0.00  0.00    -0.021 A 
ATOM     19  C23 ZIN A   1      19.603  -2.171  10.967  0.00  0.00     0.043 A 
ATOM     20  C22 ZIN A   1      19.735  -3.320  10.210  0.00  0.00     0.048 A 
ATOM     21 Cl24 ZIN A   1      20.697  -0.844  10.731  0.00  0.00    -0.084 Cl
ATOM     22  C20 ZIN A   1      18.863  -4.377  10.399  0.00  0.00     0.035 A 
ATOM     23  C19 ZIN A   1      17.861  -4.285  11.350  0.00  0.00     0.024 A 
ATOM     24 Cl21 ZIN A   1      19.023  -5.818   9.444  0.00  0.00    -0.084 Cl
ATOM     25  C18 ZIN A   1      17.732  -3.138  12.110  0.00  0.00     0.012 A 
ENDBRANCH   1  18
TORSDOF 6
ENDMDL
MODEL 2
REMARK VINA RESULT:      -7.5      3.090      6.261
REMARK  6 active torsions:
REMARK  status: ('A' for Active; 'I' for Inactive)
REMARK    1  A    between atoms: C5_5  and  C6_6 
REMARK    2  A    between atoms: C6_6  and  S7_7 
REMARK    3  A    between atoms: S7_7  and  C8_8 
REMARK    4  A    between atoms: C8_8  and  C10_9 
REMARK    5  A    between atoms: C8_8  and  C17_16 
REMARK    6  A    between atoms: C10_9  and  N11_10 
ROOT
ATOM      1  C8  ZIN A   1      19.023   1.665  11.313  0.00  0.00     0.100 C 
ENDROOT
BRANCH   1   2
ATOM      2  S7  ZIN A   1      20.364   0.647  11.986  0.00  0.00    -0.153 SA
BRANCH   2   3
ATOM      3  C6  ZIN A   1      19.480  -0.739  12.752  0.00  0.00     0.113 C 
BRANCH   3   4
ATOM      4  C5  ZIN A   1      19.259  -0.448  14.214  0.00  0.00    -0.049 A 
ATOM      5  C4  ZIN A   1      19.011  -1.482  15.095  0.00  0.00     0.009 A 
ATOM      6  C3  ZIN A   1      18.808  -1.216  16.437  0.00  0.00     0.024 A 
ATOM      7  C2  ZIN A   1      18.852   0.089  16.896  0.00  0.00     0.034 A 
ATOM      8 Cl1  ZIN A   1      18.598   0.425  18.580  0.00  0.00    -0.084 Cl
ATOM      9  C26 ZIN A   1      19.093   1.126  16.012  0.00  0.00     0.024 A 
ATOM     10  C25 ZIN A   1      19.302   0.856  14.672  0.00  0.00     0.009 A 
ENDBRANCH   3   4
ENDBRANCH   2   3
ENDBRANCH   1   2
BRANCH   1  11
ATOM     11  C10 ZIN A   1      19.466   3.129  11.267  0.00  0.00     0.149 C 
BRANCH  11  12
ATOM     12  N11 ZIN A   1      18.291   3.997  11.391  0.00  0.00    -0.350 N 
ATOM     13  C16 ZIN A   1      17.628   4.598  10.379  0.00  0.00     0.182 A 
ATOM     14  N14 ZIN A   1      16.639   5.287  10.878  0.00  0.00    -0.361 N 
ATOM     15  C13 ZIN A   1      16.640   5.158  12.213  0.00  0.00     0.106 A 
ATOM     16  H15 ZIN A   1      16.005   5.811  10.365  0.00  0.00     0.166 HD
ATOM     17  C12 ZIN A   1      17.666   4.356  12.555  0.00  0.00     0.108 A 
ENDBRANCH  11  12
ENDBRANCH   1  11
BRANCH   1  18
ATOM     18  C17 ZIN A   1      18.686   1.198   9.921  0.00  0.00    -0.021 A 
ATOM     19  C23 ZIN A   1      17.596   0.370   9.713  0.00  0.00     0.043 A 
ATOM     20  C22 ZIN A   1      17.284  -0.053   8.434  0.00  0.00     0.048 A 
ATOM     21 Cl24 ZIN A   1      16.612  -0.123  11.055  0.00  0.00    -0.084 Cl
ATOM     22  C20 ZIN A   1      18.068   0.340   7.364  0.00  0.00     0.035 A 
ATOM     23  C19 ZIN A   1      19.161   1.163   7.574  0.00  0.00     0.024 A 
ATOM     24 Cl21 ZIN A   1      17.681  -0.196   5.759  0.00  0.00    -0.084 Cl
ATOM     25  C18 ZIN A   1      19.470   1.590   8.852  0.00  0.00     0.012 A 
ENDBRANCH   1  18
TORSDOF 6
ENDMDL
MODEL 3
REMARK VINA RESULT:      -7.4      3.436      7.320
REMARK  6 active torsions:
REMARK  status: ('A' for Active; 'I' for Inactive)
REMARK    1  A    between atoms: C5_5  and  C6_6 
REMARK    2  A    between atoms: C6_6  and  S7_7 
REMARK    3  A    between atoms: S7_7  and  C8_8 
REMARK    4  A    between atoms: C8_8  and  C10_9 
REMARK    5  A    between atoms: C8_8  and  C17_16 
REMARK    6  A    between atoms: C10_9  and  N11_10 
ROOT
ATOM      1  C8  ZIN A   1      18.882  -0.067  10.735  0.00  0.00     0.100 C 
ENDROOT
BRANCH   1   2
ATOM      2  S7  ZIN A   1      19.812  -0.413  12.253  0.00  0.00    -0.153 SA
BRANCH   2   3
ATOM      3  C6  ZIN A   1      18.704  -1.520  13.168  0.00  0.00     0.113 C 
BRANCH   3   4
ATOM      4  C5  ZIN A   1      18.546  -1.018  14.580  0.00  0.00    -0.049 A 
ATOM      5  C4  ZIN A   1      19.272  -1.595  15.604  0.00  0.00     0.009 A 
ATOM      6  C3  ZIN A   1      19.128  -1.134  16.900  0.00  0.00     0.024 A 
ATOM      7  C2  ZIN A   1      18.255  -0.096  17.171  0.00  0.00     0.034 A 
ATOM      8 Cl1  ZIN A   1      18.073   0.483  18.797  0.00  0.00    -0.084 Cl
ATOM      9  C26 ZIN A   1      17.522   0.477  16.146  0.00  0.00     0.024 A 
ATOM     10  C25 ZIN A   1      17.672   0.019  14.851  0.00  0.00     0.009 A 
ENDBRANCH   3   4
ENDBRANCH   2   3
ENDBRANCH   1   2
BRANCH   1  11
ATOM     11  C10 ZIN A   1      17.648  -0.970  10.675  0.00  0.00     0.149 C 
BRANCH  11  12
ATOM     12  N11 ZIN A   1      17.807  -1.941   9.589  0.00  0.00    -0.350 N 
ATOM     13  C16 ZIN A   1      17.893  -1.662   8.270  0.00  0.00     0.182 A 
ATOM     14  N14 ZIN A   1      18.031  -2.781   7.614  0.00  0.00    -0.361 N 
ATOM     15  C13 ZIN A   1      18.030  -3.804   8.480  0.00  0.00     0.106 A 
ATOM     16  H15 ZIN A   1      18.117  -2.860   6.651  0.00  0.00     0.166 HD
ATOM     17  C12 ZIN A   1      17.891  -3.300   9.722  0.00  0.00     0.108 A 
ENDBRANCH  11  12
ENDBRANCH   1  11
BRANCH   1  18
ATOM     18  C17 ZIN A   1      18.450   1.376  10.728  0.00  0.00    -0.021 A 
ATOM     19  C23 ZIN A   1      18.721   2.175   9.631  0.00  0.00     0.043 A 
ATOM     20  C22 ZIN A   1      18.320   3.498   9.622  0.00  0.00     0.048 A 
ATOM     21 Cl24 ZIN A   1      19.554   1.512   8.260  0.00  0.00    -0.084 Cl
ATOM     22  C20 ZIN A   1      17.656   4.026  10.715  0.00  0.00     0.035 A 
ATOM     23  C19 ZIN A   1      17.391   3.228  11.814  0.00  0.00     0.024 A 
ATOM     24 Cl21 ZIN A   1      17.157   5.689  10.709  0.00  0.00    -0.084 Cl
ATOM     25  C18 ZIN A   1      17.788   1.904  11.821  0.00  0.00     0.012 A 
ENDBRANCH   1  18
TORSDOF 6
ENDMDL
MODEL 4
REMARK VINA RESULT:      -7.3      3.409      5.660
REMARK  6 active torsions:
REMARK  status: ('A' for Active; 'I' for Inactive)
REMARK    1  A    between atoms: C5_5  and  C6_6 
REMARK    2  A    between atoms: C6_6  and  S7_7 
REMARK    3  A    between atoms: S7_7  and  C8_8 
REMARK    4  A    between atoms: C8_8  and  C10_9 
REMARK    5  A    between atoms: C8_8  and  C17_16 
REMARK    6  A    between atoms: C10_9  and  N11_10 
ROOT
ATOM      1  C8  ZIN A   1      18.980  -1.494  11.440  0.00  0.00     0.100 C 
ENDROOT
BRANCH   1   2
ATOM      2  S7  ZIN A   1      20.445  -0.591  10.867  0.00  0.00    -0.153 SA
BRANCH   2   3
ATOM      3  C6  ZIN A   1      19.759   0.576   9.659  0.00  0.00     0.113 C 
BRANCH   3   4
ATOM      4  C5  ZIN A   1      19.215   1.783  10.380  0.00  0.00    -0.049 A 
ATOM      5  C4  ZIN A   1      18.204   2.532   9.809  0.00  0.00     0.009 A 
ATOM      6  C3  ZIN A   1      17.704   3.639  10.469  0.00  0.00     0.024 A 
ATOM      7  C2  ZIN A   1      18.219   3.998  11.702  0.00  0.00     0.034 A 
ATOM      8 Cl1  ZIN A   1      17.593   5.388  12.533  0.00  0.00    -0.084 Cl
ATOM      9  C26 ZIN A   1      19.236   3.252  12.271  0.00  0.00     0.024 A 
ATOM     10  C25 ZIN A   1      19.730   2.142  11.612  0.00  0.00     0.009 A 
ENDBRANCH   3   4
ENDBRANCH   2   3
ENDBRANCH   1   2
BRANCH   1  11
ATOM     11  C10 ZIN A   1      19.235  -2.998  11.337  0.00  0.00     0.149 C 
BRANCH  11  12
ATOM     12  N11 ZIN A   1      18.328  -3.579  10.343  0.00  0.00    -0.350 N 
ATOM     13  C16 ZIN A   1      18.186  -3.182   9.060  0.00  0.00     0.182 A 
ATOM     14  N14 ZIN A   1      17.290  -3.937   8.485  0.00  0.00    -0.361 N 
ATOM     15  C13 ZIN A   1      16.828  -4.828   9.374  0.00  0.00     0.106 A 
ATOM     16  H15 ZIN A   1      17.001  -3.862   7.562  0.00  0.00     0.166 HD
ATOM     17  C12 ZIN A   1      17.464  -4.622  10.542  0.00  0.00     0.108 A 
ENDBRANCH  11  12
ENDBRANCH   1  11
BRANCH   1  18
ATOM     18  C17 ZIN A   1      18.693  -1.129  12.873  0.00  0.00    -0.021 A 
ATOM     19  C23 ZIN A   1      17.590  -0.352  13.183  0.00  0.00     0.043 A 
ATOM     20  C22 ZIN A   1      17.324  -0.023  14.499  0.00  0.00     0.048 A 
ATOM     21 Cl24 ZIN A   1      16.533   0.196  11.921  0.00  0.00    -0.084 Cl
ATOM     22  C20 ZIN A   1      18.167  -0.460  15.506  0.00  0.00     0.035 A 
ATOM     23  C19 ZIN A   1      19.273  -1.231  15.195  0.00  0.00     0.024 A 
ATOM     24 Cl21 ZIN A   1      17.838  -0.042  17.159  0.00  0.00    -0.084 Cl
ATOM     25  C18 ZIN A   1      19.536  -1.564  13.879  0.00  0.00     0.012 A 
ENDBRANCH   1  18
TORSDOF 6
ENDMDL
MODEL 5
REMARK VINA RESULT:      -7.3      3.013      4.088
REMARK  6 active torsions:
REMARK  status: ('A' for Active; 'I' for Inactive)
REMARK    1  A    between atoms: C5_5  and  C6_6 
REMARK    2  A    between atoms: C6_6  and  S7_7 
REMARK    3  A    between atoms: S7_7  and  C8_8 
REMARK    4  A    between atoms: C8_8  and  C10_9 
REMARK    5  A    between atoms: C8_8  and  C17_16 
REMARK    6  A    between atoms: C10_9  and  N11_10 
ROOT
ATOM      1  C8  ZIN A   1      18.736   2.758  13.234  0.00  0.00     0.100 C 
ENDROOT
BRANCH   1   2
ATOM      2  S7  ZIN A   1      17.763   2.600  11.712  0.00  0.00    -0.153 SA
BRANCH   2   3
ATOM      3  C6  ZIN A   1      19.014   2.759  10.409  0.00  0.00     0.113 C 
BRANCH   3   4
ATOM      4  C5  ZIN A   1      18.663   1.846   9.262  0.00  0.00    -0.049 A 
ATOM      5  C4  ZIN A   1      17.743   0.831   9.443  0.00  0.00     0.009 A 
ATOM      6  C3  ZIN A   1      17.420  -0.007   8.391  0.00  0.00     0.024 A 
ATOM      7  C2  ZIN A   1      18.020   0.170   7.158  0.00  0.00     0.034 A 
ATOM      8 Cl1  ZIN A   1      17.616  -0.881   5.837  0.00  0.00    -0.084 Cl
ATOM      9  C26 ZIN A   1      18.948   1.182   6.979  0.00  0.00     0.024 A 
ATOM     10  C25 ZIN A   1      19.265   2.022   8.030  0.00  0.00     0.009 A 
ENDBRANCH   3   4
ENDBRANCH   2   3
ENDBRANCH   1   2
BRANCH   1  11
ATOM     11  C10 ZIN A   1      18.202   3.927  14.063  0.00  0.00     0.149 C 
BRANCH  11  12
ATOM     12  N11 ZIN A   1      19.320   4.605  14.726  0.00  0.00    -0.350 N 
ATOM     13  C16 ZIN A   1      19.813   4.328  15.953  0.00  0.00     0.182 A 
ATOM     14  N14 ZIN A   1      20.806   5.138  16.198  0.00  0.00    -0.361 N 
ATOM     15  C13 ZIN A   1      20.976   5.958  15.150  0.00  0.00     0.106 A 
ATOM     16  H15 ZIN A   1      21.335   5.148  17.011  0.00  0.00     0.166 HD
ATOM     17  C12 ZIN A   1      20.057   5.641  14.218  0.00  0.00     0.108 A 
ENDBRANCH  11  12
ENDBRANCH   1  11
BRANCH   1  18
ATOM     18  C17 ZIN A   1      18.631   1.485  14.033  0.00  0.00    -0.021 A 
ATOM     19  C23 ZIN A   1      19.502   0.438  13.786  0.00  0.00     0.043 A 
ATOM     20  C22 ZIN A   1      19.408  -0.728  14.523  0.00  0.00     0.048 A 
ATOM     21 Cl24 ZIN A   1      20.720   0.593  12.560  0.00  0.00    -0.084 Cl
ATOM     22  C20 ZIN A   1      18.437  -0.852  15.501  0.00  0.00     0.035 A 
ATOM     23  C19 ZIN A   1      17.563   0.193  15.743  0.00  0.00     0.024 A 
ATOM     24 Cl21 ZIN A   1      18.314  -2.318  16.423  0.00  0.00    -0.084 Cl
ATOM     25  C18 ZIN A   1      17.660   1.360  15.009  0.00  0.00     0.012 A 
ENDBRANCH   1  18
TORSDOF 6
ENDMDL
MODEL 6
REMARK VINA RESULT:      -7.3      2.996      5.059
REMARK  6 active torsions:
REMARK  status: ('A' for Active; 'I' for Inactive)
REMARK    1  A    between atoms: C5_5  and  C6_6 
REMARK    2  A    between atoms: C6_6  and  S7_7 
REMARK    3  A    between atoms: S7_7  and  C8_8 
REMARK    4  A    between atoms: C8_8  and  C10_9 
REMARK    5  A    between atoms: C8_8  and  C17_16 
REMARK    6  A    between atoms: C10_9  and  N11_10 
ROOT
ATOM      1  C8  ZIN A   1      19.019  -1.604  11.642  0.00  0.00     0.100 C 
ENDROOT
BRANCH   1   2
ATOM      2  S7  ZIN A   1      20.380  -0.608  10.973  0.00  0.00    -0.153 SA
BRANCH   2   3
ATOM      3  C6  ZIN A   1      19.521   0.793  10.205  0.00  0.00     0.113 C 
BRANCH   3   4
ATOM      4  C5  ZIN A   1      19.318   0.514   8.738  0.00  0.00    -0.049 A 
ATOM      5  C4  ZIN A   1      19.327  -0.788   8.274  0.00  0.00     0.009 A 
ATOM      6  C3  ZIN A   1      19.140  -1.045   6.928  0.00  0.00     0.024 A 
ATOM      7  C2  ZIN A   1      18.946   0.003   6.045  0.00  0.00     0.034 A 
ATOM      8 Cl1  ZIN A   1      18.712  -0.319   4.356  0.00  0.00    -0.084 Cl
ATOM      9  C26 ZIN A   1      18.945   1.307   6.509  0.00  0.00     0.024 A 
ATOM     10  C25 ZIN A   1      19.125   1.561   7.856  0.00  0.00     0.009 A 
ENDBRANCH   3   4
ENDBRANCH   2   3
ENDBRANCH   1   2
BRANCH   1  11
ATOM     11  C10 ZIN A   1      19.424  -3.079  11.653  0.00  0.00     0.149 C 
BRANCH  11  12
ATOM     12  N11 ZIN A   1      18.342  -3.886  11.080  0.00  0.00    -0.350 N 
ATOM     13  C16 ZIN A   1      17.854  -3.794   9.824  0.00  0.00     0.182 A 
ATOM     14  N14 ZIN A   1      16.901  -4.674   9.680  0.00  0.00    -0.361 N 
ATOM     15  C13 ZIN A   1      16.743  -5.345  10.830  0.00  0.00     0.106 A 
ATOM     16  H15 ZIN A   1      16.385  -4.817   8.872  0.00  0.00     0.166 HD
ATOM     17  C12 ZIN A   1      17.635  -4.867  11.719  0.00  0.00     0.108 A 
ENDBRANCH  11  12
ENDBRANCH   1  11
BRANCH   1  18
ATOM     18  C17 ZIN A   1      18.711  -1.156  13.046  0.00  0.00    -0.021 A 
ATOM     19  C23 ZIN A   1      17.632  -0.323  13.287  0.00  0.00     0.043 A 
ATOM     20  C22 ZIN A   1      17.346   0.082  14.577  0.00  0.00     0.048 A 
ATOM     21 Cl24 ZIN A   1      16.629   0.200  11.970  0.00  0.00    -0.084 Cl
ATOM     22  C20 ZIN A   1      18.145  -0.334  15.627  0.00  0.00     0.035 A 
ATOM     23  C19 ZIN A   1      19.227  -1.162  15.385  0.00  0.00     0.024 A 
ATOM     24 Cl21 ZIN A   1      17.791   0.180  17.247  0.00  0.00    -0.084 Cl
ATOM     25  C18 ZIN A   1      19.510  -1.572  14.095  0.00  0.00     0.012 A 
ENDBRANCH   1  18
TORSDOF 6
ENDMDL
MODEL 7
REMARK VINA RESULT:      -7.2      1.502      4.650
REMARK  6 active torsions:
REMARK  status: ('A' for Active; 'I' for Inactive)
REMARK    1  A    between atoms: C5_5  and  C6_6 
REMARK    2  A    between atoms: C6_6  and  S7_7 
REMARK    3  A    between atoms: S7_7  and  C8_8 
REMARK    4  A    between atoms: C8_8  and  C10_9 
REMARK    5  A    between atoms: C8_8  and  C17_16 
REMARK    6  A    between atoms: C10_9  and  N11_10 
ROOT
ATOM      1  C8  ZIN A   1      17.858   1.098  11.737  0.00  0.00     0.100 C 
ENDROOT
BRANCH   1   2
ATOM      2  S7  ZIN A   1      16.914  -0.397  12.142  0.00  0.00    -0.153 SA
BRANCH   2   3
ATOM      3  C6  ZIN A   1      18.162  -1.475  12.897  0.00  0.00     0.113 C 
BRANCH   3   4
ATOM      4  C5  ZIN A   1      18.430  -2.647  11.988  0.00  0.00    -0.049 A 
ATOM      5  C4  ZIN A   1      17.390  -3.236  11.294  0.00  0.00     0.009 A 
ATOM      6  C3  ZIN A   1      17.634  -4.310  10.459  0.00  0.00     0.024 A 
ATOM      7  C2  ZIN A   1      18.922  -4.797  10.319  0.00  0.00     0.034 A 
ATOM      8 Cl1  ZIN A   1      19.231  -6.145   9.270  0.00  0.00    -0.084 Cl
ATOM      9  C26 ZIN A   1      19.963  -4.211  11.019  0.00  0.00     0.024 A 
ATOM     10  C25 ZIN A   1      19.717  -3.133  11.848  0.00  0.00     0.009 A 
ENDBRANCH   3   4
ENDBRANCH   2   3
ENDBRANCH   1   2
BRANCH   1  11
ATOM     11  C10 ZIN A   1      19.131   1.143  12.584  0.00  0.00     0.149 C 
BRANCH  11  12
ATOM     12  N11 ZIN A   1      18.840   1.787  13.868  0.00  0.00    -0.350 N 
ATOM     13  C16 ZIN A   1      18.102   2.902  14.056  0.00  0.00     0.182 A 
ATOM     14  N14 ZIN A   1      18.064   3.168  15.333  0.00  0.00    -0.361 N 
ATOM     15  C13 ZIN A   1      18.776   2.247  15.997  0.00  0.00     0.106 A 
ATOM     16  H15 ZIN A   1      17.598   3.917  15.737  0.00  0.00     0.166 HD
ATOM     17  C12 ZIN A   1      19.270   1.373  15.099  0.00  0.00     0.108 A 
ENDBRANCH  11  12
ENDBRANCH   1  11
BRANCH   1  18
ATOM     18  C17 ZIN A   1      18.225   1.081  10.276  0.00  0.00    -0.021 A 
ATOM     19  C23 ZIN A   1      18.520   2.265   9.622  0.00  0.00     0.043 A 
ATOM     20  C22 ZIN A   1      18.863   2.247   8.283  0.00  0.00     0.048 A 
ATOM     21 Cl24 ZIN A   1      18.473   3.769  10.487  0.00  0.00    -0.084 Cl
ATOM     22  C20 ZIN A   1      18.901   1.048   7.594  0.00  0.00     0.035 A 
ATOM     23  C19 ZIN A   1      18.600  -0.134   8.247  0.00  0.00     0.024 A 
ATOM     24 Cl21 ZIN A   1      19.325   1.025   5.910  0.00  0.00    -0.084 Cl
ATOM     25  C18 ZIN A   1      18.262  -0.117   9.588  0.00  0.00     0.012 A 
ENDBRANCH   1  18
TORSDOF 6
ENDMDL
MODEL 8
REMARK VINA RESULT:      -7.2      1.587      2.095
REMARK  6 active torsions:
REMARK  status: ('A' for Active; 'I' for Inactive)
REMARK    1  A    between atoms: C5_5  and  C6_6 
REMARK    2  A    between atoms: C6_6  and  S7_7 
REMARK    3  A    between atoms: S7_7  and  C8_8 
REMARK    4  A    between atoms: C8_8  and  C10_9 
REMARK    5  A    between atoms: C8_8  and  C17_16 
REMARK    6  A    between atoms: C10_9  and  N11_10 
ROOT
ATOM      1  C8  ZIN A   1      18.494   1.358  12.735  0.00  0.00     0.100 C 
ENDROOT
BRANCH   1   2
ATOM      2  S7  ZIN A   1      17.693   2.282  11.396  0.00  0.00    -0.153 SA
BRANCH   2   3
ATOM      3  C6  ZIN A   1      19.004   2.410  10.148  0.00  0.00     0.113 C 
BRANCH   3   4
ATOM      4  C5  ZIN A   1      18.627   1.594   8.938  0.00  0.00    -0.049 A 
ATOM      5  C4  ZIN A   1      17.686   0.588   9.048  0.00  0.00     0.009 A 
ATOM      6  C3  ZIN A   1      17.339  -0.160   7.939  0.00  0.00     0.024 A 
ATOM      7  C2  ZIN A   1      17.935   0.098   6.717  0.00  0.00     0.034 A 
ATOM      8 Cl1  ZIN A   1      17.500  -0.840   5.323  0.00  0.00    -0.084 Cl
ATOM      9  C26 ZIN A   1      18.883   1.101   6.608  0.00  0.00     0.024 A 
ATOM     10  C25 ZIN A   1      19.224   1.852   7.717  0.00  0.00     0.009 A 
ENDBRANCH   3   4
ENDBRANCH   2   3
ENDBRANCH   1   2
BRANCH   1  11
ATOM     11  C10 ZIN A   1      17.670   1.499  14.016  0.00  0.00     0.149 C 
BRANCH  11  12
ATOM     12  N11 ZIN A   1      18.335   2.440  14.922  0.00  0.00    -0.350 N 
ATOM     13  C16 ZIN A   1      18.205   3.784  14.918  0.00  0.00     0.182 A 
ATOM     14  N14 ZIN A   1      18.947   4.280  15.870  0.00  0.00    -0.361 N 
ATOM     15  C13 ZIN A   1      19.577   3.280  16.504  0.00  0.00     0.106 A 
ATOM     16  H15 ZIN A   1      19.032   5.222  16.083  0.00  0.00     0.166 HD
ATOM     17  C12 ZIN A   1      19.209   2.120  15.926  0.00  0.00     0.108 A 
ENDBRANCH  11  12
ENDBRANCH   1  11
BRANCH   1  18
ATOM     18  C17 ZIN A   1      18.589  -0.097  12.355  0.00  0.00    -0.021 A 
ATOM     19  C23 ZIN A   1      19.810  -0.641  11.995  0.00  0.00     0.043 A 
ATOM     20  C22 ZIN A   1      19.897  -1.977  11.652  0.00  0.00     0.048 A 
ATOM     21 Cl24 ZIN A   1      21.233   0.353  11.985  0.00  0.00    -0.084 Cl
ATOM     22  C20 ZIN A   1      18.762  -2.769  11.660  0.00  0.00     0.035 A 
ATOM     23  C19 ZIN A   1      17.541  -2.223  12.015  0.00  0.00     0.024 A 
ATOM     24 Cl21 ZIN A   1      18.870  -4.446  11.224  0.00  0.00    -0.084 Cl
ATOM     25  C18 ZIN A   1      17.455  -0.888  12.362  0.00  0.00     0.012 A 
ENDBRANCH   1  18
TORSDOF 6
ENDMDL
MODEL 9
REMARK VINA RESULT:      -7.0      2.343      3.062
REMARK  6 active torsions:
REMARK  status: ('A' for Active; 'I' for Inactive)
REMARK    1  A    between atoms: C5_5  and  C6_6 
REMARK    2  A    between atoms: C6_6  and  S7_7 
REMARK    3  A    between atoms: S7_7  and  C8_8 
REMARK    4  A    between atoms: C8_8  and  C10_9 
REMARK    5  A    between atoms: C8_8  and  C17_16 
REMARK    6  A    between atoms: C10_9  and  N11_10 
ROOT
ATOM      1  C8  ZIN A   1      18.678   0.956  11.326  0.00  0.00     0.100 C 
ENDROOT
BRANCH   1   2
ATOM      2  S7  ZIN A   1      17.797   1.462   9.823  0.00  0.00    -0.153 SA
BRANCH   2   3
ATOM      3  C6  ZIN A   1      19.142   1.755   8.641  0.00  0.00     0.113 C 
BRANCH   3   4
ATOM      4  C5  ZIN A   1      19.104   0.700   7.566  0.00  0.00    -0.049 A 
ATOM      5  C4  ZIN A   1      18.954   1.067   6.242  0.00  0.00     0.009 A 
ATOM      6  C3  ZIN A   1      18.919   0.099   5.255  0.00  0.00     0.024 A 
ATOM      7  C2  ZIN A   1      19.033  -1.238   5.593  0.00  0.00     0.034 A 
ATOM      8 Cl1  ZIN A   1      18.990  -2.453   4.355  0.00  0.00    -0.084 Cl
ATOM      9  C26 ZIN A   1      19.175  -1.605   6.920  0.00  0.00     0.024 A 
ATOM     10  C25 ZIN A   1      19.216  -0.636   7.905  0.00  0.00     0.009 A 
ENDBRANCH   3   4
ENDBRANCH   2   3
ENDBRANCH   1   2
BRANCH   1  11
ATOM     11  C10 ZIN A   1      18.019   1.601  12.546  0.00  0.00     0.149 C 
BRANCH  11  12
ATOM     12  N11 ZIN A   1      18.661   2.890  12.822  0.00  0.00    -0.350 N 
ATOM     13  C16 ZIN A   1      19.713   3.418  12.161  0.00  0.00     0.182 A 
ATOM     14  N14 ZIN A   1      20.000   4.577  12.689  0.00  0.00    -0.361 N 
ATOM     15  C13 ZIN A   1      19.154   4.822  13.700  0.00  0.00     0.106 A 
ATOM     16  H15 ZIN A   1      20.714   5.165  12.398  0.00  0.00     0.166 HD
ATOM     17  C12 ZIN A   1      18.308   3.779  13.800  0.00  0.00     0.108 A 
ENDBRANCH  11  12
ENDBRANCH   1  11
BRANCH   1  18
ATOM     18  C17 ZIN A   1      18.624  -0.544  11.458  0.00  0.00    -0.021 A 
ATOM     19  C23 ZIN A   1      19.772  -1.297  11.282  0.00  0.00     0.043 A 
ATOM     20  C22 ZIN A   1      19.723  -2.672  11.410  0.00  0.00     0.048 A 
ATOM     21 Cl24 ZIN A   1      21.276  -0.513  10.914  0.00  0.00    -0.084 Cl
ATOM     22  C20 ZIN A   1      18.524  -3.298  11.704  0.00  0.00     0.035 A 
ATOM     23  C19 ZIN A   1      17.376  -2.545  11.874  0.00  0.00     0.024 A 
ATOM     24 Cl21 ZIN A   1      18.459  -5.026  11.859  0.00  0.00    -0.084 Cl
ATOM     25  C18 ZIN A   1      17.426  -1.169  11.751  0.00  0.00     0.012 A 
ENDBRANCH   1  18
TORSDOF 6
ENDMDL
