MODEL 1
REMARK VINA RESULT:      -4.8      0.000      0.000
REMARK  10 active torsions:
REMARK  status: ('A' for Active; 'I' for Inactive)
REMARK    1  A    between atoms: C2_2  and  C4_4 
REMARK    2  A    between atoms: C4_4  and  O6_5 
REMARK    3  A    between atoms: C4_4  and  C7_6 
REMARK    4  A    between atoms: C7_6  and  O9_7 
REMARK    5  A    between atoms: C7_6  and  C10_8 
REMARK    6  A    between atoms: C10_8  and  O12_9 
REMARK    7  A    between atoms: C10_8  and  C13_10 
REMARK    8  A    between atoms: C13_10  and  O15_11 
REMARK    9  A    between atoms: C13_10  and  C16_12 
REMARK   10  A    between atoms: C16_12  and  O17_13 
ROOT
ATOM      1  C7  <0> d   1      18.253   2.289  12.145  0.00  0.00     0.188 C 
ENDROOT
BRANCH   1   2
ATOM      2  C4  <0> d   1      18.177   3.816  12.156  0.00  0.00     0.250 C 
BRANCH   2   3
ATOM      3  C2  <0> d   1      17.397   4.288  10.955  0.00  0.00     0.205 C 
ATOM      4  O1  <0> d   1      16.244   4.662  11.085  0.00  0.00    -0.646 OA
ATOM      5  O3  <0> d   1      17.922   4.302   9.854  0.00  0.00    -0.646 OA
ENDBRANCH   2   3
BRANCH   2   6
ATOM      6  O6  <0> d   1      19.498   4.360  12.108  0.00  0.00    -0.382 OA
ATOM      7  H18 <0> d   1      20.006   4.232  12.920  0.00  0.00     0.210 HD
ENDBRANCH   2   6
ENDBRANCH   1   2
BRANCH   1   8
ATOM      8  O9  <0> d   1      17.328   1.772  11.185  0.00  0.00    -0.390 OA
ATOM      9  H19 <0> d   1      17.743   1.445  10.376  0.00  0.00     0.210 HD
ENDBRANCH   1   8
BRANCH   1  10
ATOM     10  C10 <0> d   1      19.672   1.851  11.773  0.00  0.00     0.180 C 
BRANCH  10  11
ATOM     11  O12 <0> d   1      19.836   1.925  10.356  0.00  0.00    -0.390 OA
ATOM     12  H20 <0> d   1      20.637   2.389  10.076  0.00  0.00     0.210 HD
ENDBRANCH  10  11
BRANCH  10  13
ATOM     13  C13 <0> d   1      19.900   0.412  12.239  0.00  0.00     0.173 C 
BRANCH  13  14
ATOM     14  O15 <0> d   1      20.962   0.383  13.194  0.00  0.00    -0.391 OA
ATOM     15  H21 <0> d   1      21.773  -0.032  12.869  0.00  0.00     0.210 HD
ENDBRANCH  13  14
BRANCH  13  16
ATOM     16  C16 <0> d   1      20.271  -0.460  11.037  0.00  0.00     0.198 C 
BRANCH  16  17
ATOM     17  O17 <0> d   1      21.693  -0.549  10.934  0.00  0.00    -0.398 OA
ATOM     18  H24 <0> d   1      22.049  -1.423  11.148  0.00  0.00     0.209 HD
ENDBRANCH  16  17
ENDBRANCH  13  16
ENDBRANCH  10  13
ENDBRANCH   1  10
TORSDOF 10
ENDMDL
MODEL 2
REMARK VINA RESULT:      -4.6      1.295      2.324
REMARK  10 active torsions:
REMARK  status: ('A' for Active; 'I' for Inactive)
REMARK    1  A    between atoms: C2_2  and  C4_4 
REMARK    2  A    between atoms: C4_4  and  O6_5 
REMARK    3  A    between atoms: C4_4  and  C7_6 
REMARK    4  A    between atoms: C7_6  and  O9_7 
REMARK    5  A    between atoms: C7_6  and  C10_8 
REMARK    6  A    between atoms: C10_8  and  O12_9 
REMARK    7  A    between atoms: C10_8  and  C13_10 
REMARK    8  A    between atoms: C13_10  and  O15_11 
REMARK    9  A    between atoms: C13_10  and  C16_12 
REMARK   10  A    between atoms: C16_12  and  O17_13 
ROOT
ATOM      1  C7  <0> d   1      19.655   1.639  11.689  0.00  0.00     0.188 C 
ENDROOT
BRANCH   1   2
ATOM      2  C4  <0> d   1      18.643   2.354  12.586  0.00  0.00     0.250 C 
BRANCH   2   3
ATOM      3  C2  <0> d   1      18.093   3.557  11.865  0.00  0.00     0.205 C 
ATOM      4  O1  <0> d   1      18.715   4.606  11.866  0.00  0.00    -0.646 OA
ATOM      5  O3  <0> d   1      17.029   3.481  11.274  0.00  0.00    -0.646 OA
ENDBRANCH   2   3
BRANCH   2   6
ATOM      6  O6  <0> d   1      19.287   2.775  13.791  0.00  0.00    -0.382 OA
ATOM      7  H18 <0> d   1      18.725   3.302  14.374  0.00  0.00     0.210 HD
ENDBRANCH   2   6
ENDBRANCH   1   2
BRANCH   1   8
ATOM      8  O9  <0> d   1      20.875   2.383  11.661  0.00  0.00    -0.390 OA
ATOM      9  H19 <0> d   1      21.455   2.216  12.416  0.00  0.00     0.210 HD
ENDBRANCH   1   8
BRANCH   1  10
ATOM     10  C10 <0> d   1      19.925   0.237  12.241  0.00  0.00     0.180 C 
BRANCH  10  11
ATOM     11  O12 <0> d   1      20.950   0.306  13.233  0.00  0.00    -0.390 OA
ATOM     12  H20 <0> d   1      21.648  -0.354  13.125  0.00  0.00     0.210 HD
ENDBRANCH  10  11
BRANCH  10  13
ATOM     13  C13 <0> d   1      20.376  -0.680  11.103  0.00  0.00     0.173 C 
BRANCH  13  14
ATOM     14  O15 <0> d   1      21.787  -0.550  10.917  0.00  0.00    -0.391 OA
ATOM     15  H21 <0> d   1      22.306  -0.709  11.717  0.00  0.00     0.210 HD
ENDBRANCH  13  14
BRANCH  13  16
ATOM     16  C16 <0> d   1      19.653  -0.285   9.813  0.00  0.00     0.198 C 
BRANCH  16  17
ATOM     17  O17 <0> d   1      19.963  -1.228   8.786  0.00  0.00    -0.398 OA
ATOM     18  H24 <0> d   1      19.448  -2.045   8.834  0.00  0.00     0.209 HD
ENDBRANCH  16  17
ENDBRANCH  13  16
ENDBRANCH  10  13
ENDBRANCH   1  10
TORSDOF 10
ENDMDL
MODEL 3
REMARK VINA RESULT:      -4.6      5.948      8.429
REMARK  10 active torsions:
REMARK  status: ('A' for Active; 'I' for Inactive)
REMARK    1  A    between atoms: C2_2  and  C4_4 
REMARK    2  A    between atoms: C4_4  and  O6_5 
REMARK    3  A    between atoms: C4_4  and  C7_6 
REMARK    4  A    between atoms: C7_6  and  O9_7 
REMARK    5  A    between atoms: C7_6  and  C10_8 
REMARK    6  A    between atoms: C10_8  and  O12_9 
REMARK    7  A    between atoms: C10_8  and  C13_10 
REMARK    8  A    between atoms: C13_10  and  O15_11 
REMARK    9  A    between atoms: C13_10  and  C16_12 
REMARK   10  A    between atoms: C16_12  and  O17_13 
ROOT
ATOM      1  C7  <0> d   1      18.958  -3.899   6.481  0.00  0.00     0.188 C 
ENDROOT
BRANCH   1   2
ATOM      2  C4  <0> d   1      19.936  -5.005   6.882  0.00  0.00     0.250 C 
BRANCH   2   3
ATOM      3  C2  <0> d   1      19.556  -5.545   8.236  0.00  0.00     0.205 C 
ATOM      4  O1  <0> d   1      19.019  -6.635   8.329  0.00  0.00    -0.646 OA
ATOM      5  O3  <0> d   1      19.791  -4.894   9.241  0.00  0.00    -0.646 OA
ENDBRANCH   2   3
BRANCH   2   6
ATOM      6  O6  <0> d   1      21.261  -4.472   6.938  0.00  0.00    -0.382 OA
ATOM      7  H18 <0> d   1      21.296  -3.513   7.054  0.00  0.00     0.210 HD
ENDBRANCH   2   6
ENDBRANCH   1   2
BRANCH   1   8
ATOM      8  O9  <0> d   1      17.832  -3.917   7.361  0.00  0.00    -0.390 OA
ATOM      9  H19 <0> d   1      17.252  -4.682   7.243  0.00  0.00     0.210 HD
ENDBRANCH   1   8
BRANCH   1  10
ATOM     10  C10 <0> d   1      19.657  -2.541   6.577  0.00  0.00     0.180 C 
BRANCH  10  11
ATOM     11  O12 <0> d   1      19.627  -2.084   7.930  0.00  0.00    -0.390 OA
ATOM     12  H20 <0> d   1      20.499  -1.995   8.336  0.00  0.00     0.210 HD
ENDBRANCH  10  11
BRANCH  10  13
ATOM     13  C13 <0> d   1      18.936  -1.532   5.681  0.00  0.00     0.173 C 
BRANCH  13  14
ATOM     14  O15 <0> d   1      19.866  -0.965   4.757  0.00  0.00    -0.391 OA
ATOM     15  H21 <0> d   1      19.832  -1.356   3.874  0.00  0.00     0.210 HD
ENDBRANCH  13  14
BRANCH  13  16
ATOM     16  C16 <0> d   1      18.334  -0.422   6.546  0.00  0.00     0.198 C 
BRANCH  16  17
ATOM     17  O17 <0> d   1      17.160  -0.910   7.198  0.00  0.00    -0.398 OA
ATOM     18  H24 <0> d   1      16.377  -0.359   7.062  0.00  0.00     0.209 HD
ENDBRANCH  16  17
ENDBRANCH  13  16
ENDBRANCH  10  13
ENDBRANCH   1  10
TORSDOF 10
ENDMDL
MODEL 4
REMARK VINA RESULT:      -4.6      1.607      2.428
REMARK  10 active torsions:
REMARK  status: ('A' for Active; 'I' for Inactive)
REMARK    1  A    between atoms: C2_2  and  C4_4 
REMARK    2  A    between atoms: C4_4  and  O6_5 
REMARK    3  A    between atoms: C4_4  and  C7_6 
REMARK    4  A    between atoms: C7_6  and  O9_7 
REMARK    5  A    between atoms: C7_6  and  C10_8 
REMARK    6  A    between atoms: C10_8  and  O12_9 
REMARK    7  A    between atoms: C10_8  and  C13_10 
REMARK    8  A    between atoms: C13_10  and  O15_11 
REMARK    9  A    between atoms: C13_10  and  C16_12 
REMARK   10  A    between atoms: C16_12  and  O17_13 
ROOT
ATOM      1  C7  <0> d   1      19.480   0.749  10.778  0.00  0.00     0.188 C 
ENDROOT
BRANCH   1   2
ATOM      2  C4  <0> d   1      19.271   2.089  11.486  0.00  0.00     0.250 C 
BRANCH   2   3
ATOM      3  C2  <0> d   1      18.242   2.897  10.738  0.00  0.00     0.205 C 
ATOM      4  O1  <0> d   1      18.522   3.394   9.660  0.00  0.00    -0.646 OA
ATOM      5  O3  <0> d   1      17.127   3.048  11.207  0.00  0.00    -0.646 OA
ENDBRANCH   2   3
BRANCH   2   6
ATOM      6  O6  <0> d   1      20.506   2.807  11.522  0.00  0.00    -0.382 OA
ATOM      7  H18 <0> d   1      20.423   3.717  11.839  0.00  0.00     0.210 HD
ENDBRANCH   2   6
ENDBRANCH   1   2
BRANCH   1   8
ATOM      8  O9  <0> d   1      20.111   0.971   9.515  0.00  0.00    -0.390 OA
ATOM      9  H19 <0> d   1      19.577   1.483   8.893  0.00  0.00     0.210 HD
ENDBRANCH   1   8
BRANCH   1  10
ATOM     10  C10 <0> d   1      20.370  -0.150  11.641  0.00  0.00     0.180 C 
BRANCH  10  11
ATOM     11  O12 <0> d   1      21.499  -0.575  10.877  0.00  0.00    -0.390 OA
ATOM     12  H20 <0> d   1      22.050   0.149  10.550  0.00  0.00     0.210 HD
ENDBRANCH  10  11
BRANCH  10  13
ATOM     13  C13 <0> d   1      19.571  -1.372  12.095  0.00  0.00     0.173 C 
BRANCH  13  14
ATOM     14  O15 <0> d   1      20.025  -1.787  13.384  0.00  0.00    -0.391 OA
ATOM     15  H21 <0> d   1      20.395  -1.072  13.920  0.00  0.00     0.210 HD
ENDBRANCH  13  14
BRANCH  13  16
ATOM     16  C16 <0> d   1      19.771  -2.512  11.093  0.00  0.00     0.198 C 
BRANCH  16  17
ATOM     17  O17 <0> d   1      20.888  -3.307  11.494  0.00  0.00    -0.398 OA
ATOM     18  H24 <0> d   1      21.720  -3.059  11.067  0.00  0.00     0.209 HD
ENDBRANCH  16  17
ENDBRANCH  13  16
ENDBRANCH  10  13
ENDBRANCH   1  10
TORSDOF 10
ENDMDL
MODEL 5
REMARK VINA RESULT:      -4.6      3.840      5.424
REMARK  10 active torsions:
REMARK  status: ('A' for Active; 'I' for Inactive)
REMARK    1  A    between atoms: C2_2  and  C4_4 
REMARK    2  A    between atoms: C4_4  and  O6_5 
REMARK    3  A    between atoms: C4_4  and  C7_6 
REMARK    4  A    between atoms: C7_6  and  O9_7 
REMARK    5  A    between atoms: C7_6  and  C10_8 
REMARK    6  A    between atoms: C10_8  and  O12_9 
REMARK    7  A    between atoms: C10_8  and  C13_10 
REMARK    8  A    between atoms: C13_10  and  O15_11 
REMARK    9  A    between atoms: C13_10  and  C16_12 
REMARK   10  A    between atoms: C16_12  and  O17_13 
ROOT
ATOM      1  C7  <0> d   1      19.135   0.056   7.840  0.00  0.00     0.188 C 
ENDROOT
BRANCH   1   2
ATOM      2  C4  <0> d   1      19.065  -1.113   6.856  0.00  0.00     0.250 C 
BRANCH   2   3
ATOM      3  C2  <0> d   1      19.091  -0.583   5.445  0.00  0.00     0.205 C 
ATOM      4  O1  <0> d   1      19.922  -0.995   4.654  0.00  0.00    -0.646 OA
ATOM      5  O3  <0> d   1      18.276   0.254   5.093  0.00  0.00    -0.646 OA
ENDBRANCH   2   3
BRANCH   2   6
ATOM      6  O6  <0> d   1      17.854  -1.843   7.067  0.00  0.00    -0.382 OA
ATOM      7  H18 <0> d   1      17.053  -1.350   6.845  0.00  0.00     0.210 HD
ENDBRANCH   2   6
ENDBRANCH   1   2
BRANCH   1   8
ATOM      8  O9  <0> d   1      17.813   0.408   8.258  0.00  0.00    -0.390 OA
ATOM      9  H19 <0> d   1      17.787   1.048   8.981  0.00  0.00     0.210 HD
ENDBRANCH   1   8
BRANCH   1  10
ATOM     10  C10 <0> d   1      19.962  -0.355   9.061  0.00  0.00     0.180 C 
BRANCH  10  11
ATOM     11  O12 <0> d   1      19.775  -1.748   9.316  0.00  0.00    -0.390 OA
ATOM     12  H20 <0> d   1      20.305  -2.327   8.751  0.00  0.00     0.210 HD
ENDBRANCH  10  11
BRANCH  10  13
ATOM     13  C13 <0> d   1      19.508   0.451  10.279  0.00  0.00     0.173 C 
BRANCH  13  14
ATOM     14  O15 <0> d   1      19.772   1.838  10.058  0.00  0.00    -0.391 OA
ATOM     15  H21 <0> d   1      20.356   2.013   9.307  0.00  0.00     0.210 HD
ENDBRANCH  13  14
BRANCH  13  16
ATOM     16  C16 <0> d   1      20.272  -0.022  11.518  0.00  0.00     0.198 C 
BRANCH  16  17
ATOM     17  O17 <0> d   1      21.608  -0.368  11.150  0.00  0.00    -0.398 OA
ATOM     18  H24 <0> d   1      21.673  -1.170  10.613  0.00  0.00     0.209 HD
ENDBRANCH  16  17
ENDBRANCH  13  16
ENDBRANCH  10  13
ENDBRANCH   1  10
TORSDOF 10
ENDMDL
MODEL 6
REMARK VINA RESULT:      -4.5      1.691      3.215
REMARK  10 active torsions:
REMARK  status: ('A' for Active; 'I' for Inactive)
REMARK    1  A    between atoms: C2_2  and  C4_4 
REMARK    2  A    between atoms: C4_4  and  O6_5 
REMARK    3  A    between atoms: C4_4  and  C7_6 
REMARK    4  A    between atoms: C7_6  and  O9_7 
REMARK    5  A    between atoms: C7_6  and  C10_8 
REMARK    6  A    between atoms: C10_8  and  O12_9 
REMARK    7  A    between atoms: C10_8  and  C13_10 
REMARK    8  A    between atoms: C13_10  and  O15_11 
REMARK    9  A    between atoms: C13_10  and  C16_12 
REMARK   10  A    between atoms: C16_12  and  O17_13 
ROOT
ATOM      1  C7  <0> d   1      20.251   0.540  11.768  0.00  0.00     0.188 C 
ENDROOT
BRANCH   1   2
ATOM      2  C4  <0> d   1      19.630   1.930  11.918  0.00  0.00     0.250 C 
BRANCH   2   3
ATOM      3  C2  <0> d   1      18.504   2.086  10.928  0.00  0.00     0.205 C 
ATOM      4  O1  <0> d   1      18.741   2.427   9.782  0.00  0.00    -0.646 OA
ATOM      5  O3  <0> d   1      17.355   1.865  11.272  0.00  0.00    -0.646 OA
ENDBRANCH   2   3
BRANCH   2   6
ATOM      6  O6  <0> d   1      20.624   2.926  11.668  0.00  0.00    -0.382 OA
ATOM      7  H18 <0> d   1      20.777   3.103  10.730  0.00  0.00     0.210 HD
ENDBRANCH   2   6
ENDBRANCH   1   2
BRANCH   1   8
ATOM      8  O9  <0> d   1      21.630   0.592  12.144  0.00  0.00    -0.390 OA
ATOM      9  H19 <0> d   1      22.236   0.708  11.400  0.00  0.00     0.210 HD
ENDBRANCH   1   8
BRANCH   1  10
ATOM     10  C10 <0> d   1      19.513  -0.449  12.674  0.00  0.00     0.180 C 
BRANCH  10  11
ATOM     11  O12 <0> d   1      20.266  -0.652  13.870  0.00  0.00    -0.390 OA
ATOM     12  H20 <0> d   1      21.010  -1.261  13.769  0.00  0.00     0.210 HD
ENDBRANCH  10  11
BRANCH  10  13
ATOM     13  C13 <0> d   1      19.346  -1.782  11.943  0.00  0.00     0.173 C 
BRANCH  13  14
ATOM     14  O15 <0> d   1      20.509  -2.043  11.156  0.00  0.00    -0.391 OA
ATOM     15  H21 <0> d   1      20.988  -2.841  11.414  0.00  0.00     0.210 HD
ENDBRANCH  13  14
BRANCH  13  16
ATOM     16  C16 <0> d   1      18.118  -1.714  11.032  0.00  0.00     0.198 C 
BRANCH  16  17
ATOM     17  O17 <0> d   1      17.020  -1.154  11.755  0.00  0.00    -0.398 OA
ATOM     18  H24 <0> d   1      16.950  -1.465  12.668  0.00  0.00     0.209 HD
ENDBRANCH  16  17
ENDBRANCH  13  16
ENDBRANCH  10  13
ENDBRANCH   1  10
TORSDOF 10
ENDMDL
MODEL 7
REMARK VINA RESULT:      -4.5      1.673      4.746
REMARK  10 active torsions:
REMARK  status: ('A' for Active; 'I' for Inactive)
REMARK    1  A    between atoms: C2_2  and  C4_4 
REMARK    2  A    between atoms: C4_4  and  O6_5 
REMARK    3  A    between atoms: C4_4  and  C7_6 
REMARK    4  A    between atoms: C7_6  and  O9_7 
REMARK    5  A    between atoms: C7_6  and  C10_8 
REMARK    6  A    between atoms: C10_8  and  O12_9 
REMARK    7  A    between atoms: C10_8  and  C13_10 
REMARK    8  A    between atoms: C13_10  and  O15_11 
REMARK    9  A    between atoms: C13_10  and  C16_12 
REMARK   10  A    between atoms: C16_12  and  O17_13 
ROOT
ATOM      1  C7  <0> d   1      20.404   0.270  12.227  0.00  0.00     0.188 C 
ENDROOT
BRANCH   1   2
ATOM      2  C4  <0> d   1      20.035  -0.226  10.827  0.00  0.00     0.250 C 
BRANCH   2   3
ATOM      3  C2  <0> d   1      19.343  -1.560  10.934  0.00  0.00     0.205 C 
ATOM      4  O1  <0> d   1      18.832  -1.900  11.987  0.00  0.00    -0.646 OA
ATOM      5  O3  <0> d   1      19.288  -2.298   9.964  0.00  0.00    -0.646 OA
ENDBRANCH   2   3
BRANCH   2   6
ATOM      6  O6  <0> d   1      21.222  -0.367  10.044  0.00  0.00    -0.382 OA
ATOM      7  H18 <0> d   1      22.027  -0.482  10.565  0.00  0.00     0.210 HD
ENDBRANCH   2   6
ENDBRANCH   1   2
BRANCH   1   8
ATOM      8  O9  <0> d   1      21.780   0.659  12.247  0.00  0.00    -0.390 OA
ATOM      9  H19 <0> d   1      22.120   0.854  13.131  0.00  0.00     0.210 HD
ENDBRANCH   1   8
BRANCH   1  10
ATOM     10  C10 <0> d   1      19.529   1.472  12.589  0.00  0.00     0.180 C 
BRANCH  10  11
ATOM     11  O12 <0> d   1      18.180   1.041  12.773  0.00  0.00    -0.390 OA
ATOM     12  H20 <0> d   1      17.678   1.576  13.402  0.00  0.00     0.210 HD
ENDBRANCH  10  11
BRANCH  10  13
ATOM     13  C13 <0> d   1      19.586   2.502  11.459  0.00  0.00     0.173 C 
BRANCH  13  14
ATOM     14  O15 <0> d   1      20.800   3.249  11.556  0.00  0.00    -0.391 OA
ATOM     15  H21 <0> d   1      20.677   4.168  11.829  0.00  0.00     0.210 HD
ENDBRANCH  13  14
BRANCH  13  16
ATOM     16  C16 <0> d   1      18.392   3.453  11.576  0.00  0.00     0.198 C 
BRANCH  16  17
ATOM     17  O17 <0> d   1      17.278   2.907  10.868  0.00  0.00    -0.398 OA
ATOM     18  H24 <0> d   1      16.700   3.573  10.472  0.00  0.00     0.209 HD
ENDBRANCH  16  17
ENDBRANCH  13  16
ENDBRANCH  10  13
ENDBRANCH   1  10
TORSDOF 10
ENDMDL
MODEL 8
REMARK VINA RESULT:      -4.4      3.375      5.577
REMARK  10 active torsions:
REMARK  status: ('A' for Active; 'I' for Inactive)
REMARK    1  A    between atoms: C2_2  and  C4_4 
REMARK    2  A    between atoms: C4_4  and  O6_5 
REMARK    3  A    between atoms: C4_4  and  C7_6 
REMARK    4  A    between atoms: C7_6  and  O9_7 
REMARK    5  A    between atoms: C7_6  and  C10_8 
REMARK    6  A    between atoms: C10_8  and  O12_9 
REMARK    7  A    between atoms: C10_8  and  C13_10 
REMARK    8  A    between atoms: C13_10  and  O15_11 
REMARK    9  A    between atoms: C13_10  and  C16_12 
REMARK   10  A    between atoms: C16_12  and  O17_13 
ROOT
ATOM      1  C7  <0> d   1      19.710  -1.524  11.434  0.00  0.00     0.188 C 
ENDROOT
BRANCH   1   2
ATOM      2  C4  <0> d   1      18.560  -2.316  10.809  0.00  0.00     0.250 C 
BRANCH   2   3
ATOM      3  C2  <0> d   1      18.991  -3.744  10.597  0.00  0.00     0.205 C 
ATOM      4  O1  <0> d   1      19.345  -4.117   9.491  0.00  0.00    -0.646 OA
ATOM      5  O3  <0> d   1      18.991  -4.526  11.533  0.00  0.00    -0.646 OA
ENDBRANCH   2   3
BRANCH   2   6
ATOM      6  O6  <0> d   1      18.208  -1.734   9.552  0.00  0.00    -0.382 OA
ATOM      7  H18 <0> d   1      18.432  -2.281   8.788  0.00  0.00     0.210 HD
ENDBRANCH   2   6
ENDBRANCH   1   2
BRANCH   1   8
ATOM      8  O9  <0> d   1      20.920  -2.277  11.328  0.00  0.00    -0.390 OA
ATOM      9  H19 <0> d   1      21.168  -2.498  10.420  0.00  0.00     0.210 HD
ENDBRANCH   1   8
BRANCH   1  10
ATOM     10  C10 <0> d   1      19.872  -0.193  10.695  0.00  0.00     0.180 C 
BRANCH  10  11
ATOM     11  O12 <0> d   1      20.855  -0.335   9.668  0.00  0.00    -0.390 OA
ATOM     12  H20 <0> d   1      21.629   0.232   9.783  0.00  0.00     0.210 HD
ENDBRANCH  10  11
BRANCH  10  13
ATOM     13  C13 <0> d   1      20.319   0.886  11.683  0.00  0.00     0.173 C 
BRANCH  13  14
ATOM     14  O15 <0> d   1      21.647   0.606  12.127  0.00  0.00    -0.391 OA
ATOM     15  H21 <0> d   1      21.726  -0.206  12.646  0.00  0.00     0.210 HD
ENDBRANCH  13  14
BRANCH  13  16
ATOM     16  C16 <0> d   1      19.372   0.900  12.886  0.00  0.00     0.198 C 
BRANCH  16  17
ATOM     17  O17 <0> d   1      20.132   0.814  14.092  0.00  0.00    -0.398 OA
ATOM     18  H24 <0> d   1      20.974   1.290  14.061  0.00  0.00     0.209 HD
ENDBRANCH  16  17
ENDBRANCH  13  16
ENDBRANCH  10  13
ENDBRANCH   1  10
TORSDOF 10
ENDMDL
MODEL 9
REMARK VINA RESULT:      -4.4      2.936      3.818
REMARK  10 active torsions:
REMARK  status: ('A' for Active; 'I' for Inactive)
REMARK    1  A    between atoms: C2_2  and  C4_4 
REMARK    2  A    between atoms: C4_4  and  O6_5 
REMARK    3  A    between atoms: C4_4  and  C7_6 
REMARK    4  A    between atoms: C7_6  and  O9_7 
REMARK    5  A    between atoms: C7_6  and  C10_8 
REMARK    6  A    between atoms: C10_8  and  O12_9 
REMARK    7  A    between atoms: C10_8  and  C13_10 
REMARK    8  A    between atoms: C13_10  and  O15_11 
REMARK    9  A    between atoms: C13_10  and  C16_12 
REMARK   10  A    between atoms: C16_12  and  O17_13 
ROOT
ATOM      1  C7  <0> d   1      19.410  -0.336  10.001  0.00  0.00     0.188 C 
ENDROOT
BRANCH   1   2
ATOM      2  C4  <0> d   1      18.842   0.838   9.202  0.00  0.00     0.250 C 
BRANCH   2   3
ATOM      3  C2  <0> d   1      18.292   0.335   7.892  0.00  0.00     0.205 C 
ATOM      4  O1  <0> d   1      18.884   0.568   6.852  0.00  0.00    -0.646 OA
ATOM      5  O3  <0> d   1      17.258  -0.311   7.873  0.00  0.00    -0.646 OA
ENDBRANCH   2   3
BRANCH   2   6
ATOM      6  O6  <0> d   1      19.879   1.788   8.948  0.00  0.00    -0.382 OA
ATOM      7  H18 <0> d   1      20.022   1.975   8.010  0.00  0.00     0.210 HD
ENDBRANCH   2   6
ENDBRANCH   1   2
BRANCH   1   8
ATOM      8  O9  <0> d   1      20.026  -1.267   9.108  0.00  0.00    -0.390 OA
ATOM      9  H19 <0> d   1      20.092  -0.953   8.196  0.00  0.00     0.210 HD
ENDBRANCH   1   8
BRANCH   1  10
ATOM     10  C10 <0> d   1      20.452   0.181  10.996  0.00  0.00     0.180 C 
BRANCH  10  11
ATOM     11  O12 <0> d   1      21.618  -0.642  10.935  0.00  0.00    -0.390 OA
ATOM     12  H20 <0> d   1      21.565  -1.351  10.280  0.00  0.00     0.210 HD
ENDBRANCH  10  11
BRANCH  10  13
ATOM     13  C13 <0> d   1      19.871   0.139  12.410  0.00  0.00     0.173 C 
BRANCH  13  14
ATOM     14  O15 <0> d   1      20.929   0.249  13.364  0.00  0.00    -0.391 OA
ATOM     15  H21 <0> d   1      21.483  -0.541  13.430  0.00  0.00     0.210 HD
ENDBRANCH  13  14
BRANCH  13  16
ATOM     16  C16 <0> d   1      19.132  -1.185  12.618  0.00  0.00     0.198 C 
BRANCH  16  17
ATOM     17  O17 <0> d   1      20.072  -2.208  12.948  0.00  0.00    -0.398 OA
ATOM     18  H24 <0> d   1      19.689  -2.954  13.429  0.00  0.00     0.209 HD
ENDBRANCH  16  17
ENDBRANCH  13  16
ENDBRANCH  10  13
ENDBRANCH   1  10
TORSDOF 10
ENDMDL
