MODEL 1
REMARK VINA RESULT:      -5.1      0.000      0.000
REMARK  4 active torsions:
REMARK  status: ('A' for Active; 'I' for Inactive)
REMARK    1  A    between atoms: C2_2  and  O3_3 
REMARK    2  A    between atoms: O3_3  and  C4_4 
REMARK    3  A    between atoms: C4_4  and  C6_6 
REMARK    4  A    between atoms: C9_9  and  N10_10 
ROOT
ATOM      1  C6  <0> d   1      17.703   0.745   9.547  0.00  0.00     0.039 A 
ATOM      2  C7  <0> d   1      17.254  -0.183   8.602  0.00  0.00     0.020 A 
ATOM      3  C8  <0> d   1      17.771  -0.169   7.331  0.00  0.00     0.030 A 
ATOM      4  C9  <0> d   1      18.740   0.767   6.982  0.00  0.00     0.025 A 
ATOM      5  C11 <0> d   1      19.189   1.692   7.922  0.00  0.00     0.030 A 
ATOM      6  C12 <0> d   1      18.672   1.687   9.192  0.00  0.00     0.020 A 
ENDROOT
BRANCH   1   7
ATOM      7  C4  <0> d   1      17.150   0.733  10.913  0.00  0.00     0.293 C 
ATOM      8  O5  <0> d   1      17.197   1.737  11.596  0.00  0.00    -0.259 OA
BRANCH   7   9
ATOM      9  O3  <0> d   1      16.592  -0.391  11.405  0.00  0.00    -0.318 OA
BRANCH   9  10
ATOM     10  C2  <0> d   1      17.443  -1.256  12.201  0.00  0.00     0.174 C 
ATOM     11  C1  <0> d   1      17.591  -2.610  11.502  0.00  0.00     0.034 C 
ENDBRANCH   9  10
ENDBRANCH   7   9
ENDBRANCH   1   7
BRANCH   4  12
ATOM     12  N10 <0> d   1      19.263   0.778   5.694  0.00  0.00    -0.399 N 
ATOM     13  H20 <0> d   1      19.203  -0.017   5.140  0.00  0.00     0.156 HD
ATOM     14  H21 <0> d   1      19.686   1.579   5.349  0.00  0.00     0.156 HD
ENDBRANCH   4  12
TORSDOF 4
ENDMDL
MODEL 2
REMARK VINA RESULT:      -5.1      1.658      3.210
REMARK  4 active torsions:
REMARK  status: ('A' for Active; 'I' for Inactive)
REMARK    1  A    between atoms: C2_2  and  O3_3 
REMARK    2  A    between atoms: O3_3  and  C4_4 
REMARK    3  A    between atoms: C4_4  and  C6_6 
REMARK    4  A    between atoms: C9_9  and  N10_10 
ROOT
ATOM      1  C6  <0> d   1      18.019   1.351   9.650  0.00  0.00     0.039 A 
ATOM      2  C7  <0> d   1      18.941   2.075   8.887  0.00  0.00     0.020 A 
ATOM      3  C8  <0> d   1      19.247   1.664   7.614  0.00  0.00     0.030 A 
ATOM      4  C9  <0> d   1      18.641   0.529   7.082  0.00  0.00     0.025 A 
ATOM      5  C11 <0> d   1      17.723  -0.194   7.840  0.00  0.00     0.030 A 
ATOM      6  C12 <0> d   1      17.417   0.208   9.115  0.00  0.00     0.020 A 
ENDROOT
BRANCH   1   7
ATOM      7  C4  <0> d   1      17.689   1.789  11.017  0.00  0.00     0.293 C 
ATOM      8  O5  <0> d   1      16.895   1.153  11.684  0.00  0.00    -0.259 OA
BRANCH   7   9
ATOM      9  O3  <0> d   1      18.265   2.894  11.530  0.00  0.00    -0.318 OA
BRANCH   9  10
ATOM     10  C2  <0> d   1      17.383   3.978  11.920  0.00  0.00     0.174 C 
ATOM     11  C1  <0> d   1      17.069   4.846  10.699  0.00  0.00     0.034 C 
ENDBRANCH   9  10
ENDBRANCH   7   9
ENDBRANCH   1   7
BRANCH   4  12
ATOM     12  N10 <0> d   1      18.952   0.116   5.792  0.00  0.00    -0.399 N 
ATOM     13  H20 <0> d   1      18.246  -0.171   5.191  0.00  0.00     0.156 HD
ATOM     14  H21 <0> d   1      19.875   0.114   5.492  0.00  0.00     0.156 HD
ENDBRANCH   4  12
TORSDOF 4
ENDMDL
MODEL 3
REMARK VINA RESULT:      -5.1      1.759      2.969
REMARK  4 active torsions:
REMARK  status: ('A' for Active; 'I' for Inactive)
REMARK    1  A    between atoms: C2_2  and  O3_3 
REMARK    2  A    between atoms: O3_3  and  C4_4 
REMARK    3  A    between atoms: C4_4  and  C6_6 
REMARK    4  A    between atoms: C9_9  and  N10_10 
ROOT
ATOM      1  C6  <0> d   1      18.104   1.364   9.621  0.00  0.00     0.039 A 
ATOM      2  C7  <0> d   1      17.420   0.249   9.125  0.00  0.00     0.020 A 
ATOM      3  C8  <0> d   1      17.624  -0.159   7.832  0.00  0.00     0.030 A 
ATOM      4  C9  <0> d   1      18.511   0.535   7.013  0.00  0.00     0.025 A 
ATOM      5  C11 <0> d   1      19.193   1.645   7.504  0.00  0.00     0.030 A 
ATOM      6  C12 <0> d   1      18.989   2.062   8.794  0.00  0.00     0.020 A 
ENDROOT
BRANCH   1   7
ATOM      7  C4  <0> d   1      17.886   1.806  11.010  0.00  0.00     0.293 C 
ATOM      8  O5  <0> d   1      18.493   1.275  11.919  0.00  0.00    -0.259 OA
BRANCH   7   9
ATOM      9  O3  <0> d   1      17.014   2.798  11.273  0.00  0.00    -0.318 OA
BRANCH   9  10
ATOM     10  C2  <0> d   1      17.572   4.095  11.612  0.00  0.00     0.174 C 
ATOM     11  C1  <0> d   1      17.368   5.061  10.443  0.00  0.00     0.034 C 
ENDBRANCH   9  10
ENDBRANCH   7   9
ENDBRANCH   1   7
BRANCH   4  12
ATOM     12  N10 <0> d   1      18.717   0.118   5.703  0.00  0.00    -0.399 N 
ATOM     13  H20 <0> d   1      19.601  -0.162   5.417  0.00  0.00     0.156 HD
ATOM     14  H21 <0> d   1      17.978   0.107   5.075  0.00  0.00     0.156 HD
ENDBRANCH   4  12
TORSDOF 4
ENDMDL
MODEL 4
REMARK VINA RESULT:      -4.9      2.833      4.080
REMARK  4 active torsions:
REMARK  status: ('A' for Active; 'I' for Inactive)
REMARK    1  A    between atoms: C2_2  and  O3_3 
REMARK    2  A    between atoms: O3_3  and  C4_4 
REMARK    3  A    between atoms: C4_4  and  C6_6 
REMARK    4  A    between atoms: C9_9  and  N10_10 
ROOT
ATOM      1  C6  <0> d   1      18.088   2.745  10.059  0.00  0.00     0.039 A 
ATOM      2  C7  <0> d   1      18.933   2.694   8.946  0.00  0.00     0.020 A 
ATOM      3  C8  <0> d   1      19.517   1.506   8.585  0.00  0.00     0.030 A 
ATOM      4  C9  <0> d   1      19.270   0.353   9.326  0.00  0.00     0.025 A 
ATOM      5  C11 <0> d   1      18.430   0.402  10.435  0.00  0.00     0.030 A 
ATOM      6  C12 <0> d   1      17.847   1.587  10.804  0.00  0.00     0.020 A 
ENDROOT
BRANCH   1   7
ATOM      7  C4  <0> d   1      17.459   4.019  10.450  0.00  0.00     0.293 C 
ATOM      8  O5  <0> d   1      17.564   4.994   9.732  0.00  0.00    -0.259 OA
BRANCH   7   9
ATOM      9  O3  <0> d   1      16.766   4.104  11.603  0.00  0.00    -0.318 OA
BRANCH   9  10
ATOM     10  C2  <0> d   1      17.173   5.132  12.543  0.00  0.00     0.174 C 
ATOM     11  C1  <0> d   1      18.582   4.826  13.056  0.00  0.00     0.034 C 
ENDBRANCH   9  10
ENDBRANCH   7   9
ENDBRANCH   1   7
BRANCH   4  12
ATOM     12  N10 <0> d   1      19.863  -0.848   8.957  0.00  0.00    -0.399 N 
ATOM     13  H20 <0> d   1      19.801  -1.619   9.543  0.00  0.00     0.156 HD
ATOM     14  H21 <0> d   1      20.339  -0.916   8.115  0.00  0.00     0.156 HD
ENDBRANCH   4  12
TORSDOF 4
ENDMDL
MODEL 5
REMARK VINA RESULT:      -4.8      4.038      6.146
REMARK  4 active torsions:
REMARK  status: ('A' for Active; 'I' for Inactive)
REMARK    1  A    between atoms: C2_2  and  O3_3 
REMARK    2  A    between atoms: O3_3  and  C4_4 
REMARK    3  A    between atoms: C4_4  and  C6_6 
REMARK    4  A    between atoms: C9_9  and  N10_10 
ROOT
ATOM      1  C6  <0> d   1      17.605   0.038  13.336  0.00  0.00     0.039 A 
ATOM      2  C7  <0> d   1      18.448  -1.071  13.216  0.00  0.00     0.020 A 
ATOM      3  C8  <0> d   1      19.032  -1.609  14.335  0.00  0.00     0.030 A 
ATOM      4  C9  <0> d   1      18.787  -1.052  15.587  0.00  0.00     0.025 A 
ATOM      5  C11 <0> d   1      17.948   0.052  15.709  0.00  0.00     0.030 A 
ATOM      6  C12 <0> d   1      17.365   0.599  14.594  0.00  0.00     0.020 A 
ENDROOT
BRANCH   1   7
ATOM      7  C4  <0> d   1      16.976   0.620  12.137  0.00  0.00     0.293 C 
ATOM      8  O5  <0> d   1      16.159  -0.024  11.507  0.00  0.00    -0.259 OA
BRANCH   7   9
ATOM      9  O3  <0> d   1      17.305   1.864  11.738  0.00  0.00    -0.318 OA
BRANCH   9  10
ATOM     10  C2  <0> d   1      18.538   2.012  10.988  0.00  0.00     0.174 C 
ATOM     11  C1  <0> d   1      18.370   3.117   9.942  0.00  0.00     0.034 C 
ENDBRANCH   9  10
ENDBRANCH   7   9
ENDBRANCH   1   7
BRANCH   4  12
ATOM     12  N10 <0> d   1      19.380  -1.601  16.718  0.00  0.00    -0.399 N 
ATOM     13  H20 <0> d   1      19.153  -2.503  16.995  0.00  0.00     0.156 HD
ATOM     14  H21 <0> d   1      20.020  -1.082  17.230  0.00  0.00     0.156 HD
ENDBRANCH   4  12
TORSDOF 4
ENDMDL
MODEL 6
REMARK VINA RESULT:      -4.7      3.914      5.261
REMARK  4 active torsions:
REMARK  status: ('A' for Active; 'I' for Inactive)
REMARK    1  A    between atoms: C2_2  and  O3_3 
REMARK    2  A    between atoms: O3_3  and  C4_4 
REMARK    3  A    between atoms: C4_4  and  C6_6 
REMARK    4  A    between atoms: C9_9  and  N10_10 
ROOT
ATOM      1  C6  <0> d   1      19.157  -0.448   6.684  0.00  0.00     0.039 A 
ATOM      2  C7  <0> d   1      19.009   0.942   6.633  0.00  0.00     0.020 A 
ATOM      3  C8  <0> d   1      19.124   1.685   7.780  0.00  0.00     0.030 A 
ATOM      4  C9  <0> d   1      19.388   1.057   8.995  0.00  0.00     0.025 A 
ATOM      5  C11 <0> d   1      19.537  -0.326   9.048  0.00  0.00     0.030 A 
ATOM      6  C12 <0> d   1      19.417  -1.076   7.906  0.00  0.00     0.020 A 
ENDROOT
BRANCH   1   7
ATOM      7  C4  <0> d   1      19.034  -1.249   5.454  0.00  0.00     0.293 C 
ATOM      8  O5  <0> d   1      19.790  -1.053   4.522  0.00  0.00    -0.259 OA
BRANCH   7   9
ATOM      9  O3  <0> d   1      18.083  -2.199   5.360  0.00  0.00    -0.318 OA
BRANCH   9  10
ATOM     10  C2  <0> d   1      18.499  -3.505   4.882  0.00  0.00     0.174 C 
ATOM     11  C1  <0> d   1      17.595  -3.937   3.725  0.00  0.00     0.034 C 
ENDBRANCH   9  10
ENDBRANCH   7   9
ENDBRANCH   1   7
BRANCH   4  12
ATOM     12  N10 <0> d   1      19.506   1.813  10.155  0.00  0.00    -0.399 N 
ATOM     13  H20 <0> d   1      19.030   2.654  10.235  0.00  0.00     0.156 HD
ATOM     14  H21 <0> d   1      20.062   1.499  10.885  0.00  0.00     0.156 HD
ENDBRANCH   4  12
TORSDOF 4
ENDMDL
MODEL 7
REMARK VINA RESULT:      -4.7      2.511      3.580
REMARK  4 active torsions:
REMARK  status: ('A' for Active; 'I' for Inactive)
REMARK    1  A    between atoms: C2_2  and  O3_3 
REMARK    2  A    between atoms: O3_3  and  C4_4 
REMARK    3  A    between atoms: C4_4  and  C6_6 
REMARK    4  A    between atoms: C9_9  and  N10_10 
ROOT
ATOM      1  C6  <0> d   1      19.004   0.350   7.959  0.00  0.00     0.039 A 
ATOM      2  C7  <0> d   1      18.867   1.103   6.788  0.00  0.00     0.020 A 
ATOM      3  C8  <0> d   1      18.887   0.478   5.567  0.00  0.00     0.030 A 
ATOM      4  C9  <0> d   1      19.043  -0.904   5.493  0.00  0.00     0.025 A 
ATOM      5  C11 <0> d   1      19.180  -1.655   6.657  0.00  0.00     0.030 A 
ATOM      6  C12 <0> d   1      19.167  -1.036   7.880  0.00  0.00     0.020 A 
ENDROOT
BRANCH   1   7
ATOM      7  C4  <0> d   1      18.983   1.018   9.272  0.00  0.00     0.293 C 
ATOM      8  O5  <0> d   1      19.706   0.624  10.166  0.00  0.00    -0.259 OA
BRANCH   7   9
ATOM      9  O3  <0> d   1      18.163   2.066   9.483  0.00  0.00    -0.318 OA
BRANCH   9  10
ATOM     10  C2  <0> d   1      18.697   3.180  10.246  0.00  0.00     0.174 C 
ATOM     11  C1  <0> d   1      17.667   4.310  10.289  0.00  0.00     0.034 C 
ENDBRANCH   9  10
ENDBRANCH   7   9
ENDBRANCH   1   7
BRANCH   4  12
ATOM     12  N10 <0> d   1      19.062  -1.534   4.254  0.00  0.00    -0.399 N 
ATOM     13  H20 <0> d   1      19.722  -2.221   4.070  0.00  0.00     0.156 HD
ATOM     14  H21 <0> d   1      18.417  -1.286   3.574  0.00  0.00     0.156 HD
ENDBRANCH   4  12
TORSDOF 4
ENDMDL
MODEL 8
REMARK VINA RESULT:      -4.6      4.516      6.243
REMARK  4 active torsions:
REMARK  status: ('A' for Active; 'I' for Inactive)
REMARK    1  A    between atoms: C2_2  and  O3_3 
REMARK    2  A    between atoms: O3_3  and  C4_4 
REMARK    3  A    between atoms: C4_4  and  C6_6 
REMARK    4  A    between atoms: C9_9  and  N10_10 
ROOT
ATOM      1  C6  <0> d   1      17.872  -0.400  13.708  0.00  0.00     0.039 A 
ATOM      2  C7  <0> d   1      18.664  -1.421  14.242  0.00  0.00     0.020 A 
ATOM      3  C8  <0> d   1      19.075  -1.355  15.549  0.00  0.00     0.030 A 
ATOM      4  C9  <0> d   1      18.705  -0.272  16.343  0.00  0.00     0.025 A 
ATOM      5  C11 <0> d   1      17.916   0.745  15.813  0.00  0.00     0.030 A 
ATOM      6  C12 <0> d   1      17.507   0.688  14.506  0.00  0.00     0.020 A 
ENDROOT
BRANCH   1   7
ATOM      7  C4  <0> d   1      17.428  -0.468  12.304  0.00  0.00     0.293 C 
ATOM      8  O5  <0> d   1      16.336  -0.037  11.990  0.00  0.00    -0.259 OA
BRANCH   7   9
ATOM      9  O3  <0> d   1      18.233  -1.008  11.368  0.00  0.00    -0.318 OA
BRANCH   9  10
ATOM     10  C2  <0> d   1      17.671  -2.062  10.542  0.00  0.00     0.174 C 
ATOM     11  C1  <0> d   1      17.489  -3.327  11.383  0.00  0.00     0.034 C 
ENDBRANCH   9  10
ENDBRANCH   7   9
ENDBRANCH   1   7
BRANCH   4  12
ATOM     12  N10 <0> d   1      19.122  -0.208  17.667  0.00  0.00    -0.399 N 
ATOM     13  H20 <0> d   1      18.816  -0.873  18.304  0.00  0.00     0.156 HD
ATOM     14  H21 <0> d   1      19.720   0.500  17.954  0.00  0.00     0.156 HD
ENDBRANCH   4  12
TORSDOF 4
ENDMDL
MODEL 9
REMARK VINA RESULT:      -4.5      5.246      6.375
REMARK  4 active torsions:
REMARK  status: ('A' for Active; 'I' for Inactive)
REMARK    1  A    between atoms: C2_2  and  O3_3 
REMARK    2  A    between atoms: O3_3  and  C4_4 
REMARK    3  A    between atoms: C4_4  and  C6_6 
REMARK    4  A    between atoms: C9_9  and  N10_10 
ROOT
ATOM      1  C6  <0> d   1      18.651  -1.154  13.654  0.00  0.00     0.039 A 
ATOM      2  C7  <0> d   1      19.016  -1.670  14.902  0.00  0.00     0.020 A 
ATOM      3  C8  <0> d   1      18.536  -1.090  16.048  0.00  0.00     0.030 A 
ATOM      4  C9  <0> d   1      17.687   0.012  15.971  0.00  0.00     0.025 A 
ATOM      5  C11 <0> d   1      17.322   0.526  14.729  0.00  0.00     0.030 A 
ATOM      6  C12 <0> d   1      17.803  -0.045  13.580  0.00  0.00     0.020 A 
ENDROOT
BRANCH   1   7
ATOM      7  C4  <0> d   1      19.165  -1.776  12.421  0.00  0.00     0.293 C 
ATOM      8  O5  <0> d   1      19.759  -1.101  11.602  0.00  0.00    -0.259 OA
BRANCH   7   9
ATOM      9  O3  <0> d   1      18.977  -3.091  12.199  0.00  0.00    -0.318 OA
BRANCH   9  10
ATOM     10  C2  <0> d   1      17.702  -3.490  11.631  0.00  0.00     0.174 C 
ATOM     11  C1  <0> d   1      17.445  -4.966  11.940  0.00  0.00     0.034 C 
ENDBRANCH   9  10
ENDBRANCH   7   9
ENDBRANCH   1   7
BRANCH   4  12
ATOM     12  N10 <0> d   1      17.201   0.597  17.134  0.00  0.00    -0.399 N 
ATOM     13  H20 <0> d   1      16.789   1.475  17.100  0.00  0.00     0.156 HD
ATOM     14  H21 <0> d   1      17.275   0.128  17.980  0.00  0.00     0.156 HD
ENDBRANCH   4  12
TORSDOF 4
ENDMDL
