MODEL 1
REMARK VINA RESULT:      -9.0      0.000      0.000
REMARK  5 active torsions:
REMARK  status: ('A' for Active; 'I' for Inactive)
REMARK    1  A    between atoms: N2_2  and  C5_5 
REMARK    2  A    between atoms: C9_8  and  C10_9 
REMARK       I    between atoms: C10_9  and  N11_10 
REMARK    3  A    between atoms: C15_14  and  O16_15 
REMARK    4  A    between atoms: C23_22  and  O24_23 
REMARK    5  A    between atoms: C29_28  and  O31_30 
ROOT
ATOM      1  C5  ZIN A   1      17.203   5.015  14.763  0.00  0.00     0.255 C 
ATOM      2  C7  ZIN A   1      18.506   5.670  15.110  0.00  0.00     0.135 C 
ATOM      3  O8  ZIN A   1      18.614   6.321  16.277  0.00  0.00    -0.193 OA
ATOM      4  C9  ZIN A   1      19.593   5.626  14.273  0.00  0.00     0.115 C 
ATOM      5  C13 ZIN A   1      19.523   4.899  13.007  0.00  0.00     0.210 C 
ATOM      6  O14 ZIN A   1      20.528   4.674  12.365  0.00  0.00    -0.288 OA
ATOM      7  C15 ZIN A   1      18.167   4.431  12.509  0.00  0.00     0.194 C 
ATOM      8  C17 ZIN A   1      18.404   3.287  11.558  0.00  0.00     0.201 C 
ATOM      9  O18 ZIN A   1      18.766   3.544  10.426  0.00  0.00    -0.289 OA
ATOM     10  C19 ZIN A   1      18.230   1.954  11.906  0.00  0.00     0.036 C 
ATOM     11  C20 ZIN A   1      18.449   0.977  10.952  0.00  0.00     0.131 C 
ATOM     12  O21 ZIN A   1      18.742   1.322   9.679  0.00  0.00    -0.190 OA
ATOM     13  C22 ZIN A   1      18.362  -0.440  11.336  0.00  0.00     0.043 A 
ATOM     14  C23 ZIN A   1      18.254  -1.440  10.359  0.00  0.00     0.079 A 
ATOM     15  C25 ZIN A   1      18.164  -2.768  10.748  0.00  0.00     0.037 A 
ATOM     16  C26 ZIN A   1      18.176  -3.101  12.090  0.00  0.00     0.003 A 
ATOM     17  C27 ZIN A   1      18.285  -2.114  13.058  0.00  0.00     0.011 A 
ATOM     18  C28 ZIN A   1      18.383  -0.792  12.689  0.00  0.00    -0.008 A 
ATOM     19  C29 ZIN A   1      18.525   0.285  13.734  0.00  0.00     0.090 C 
ATOM     20  C30 ZIN A   1      17.938  -0.208  15.057  0.00  0.00     0.052 C 
ATOM     21  C32 ZIN A   1      17.780   1.537  13.282  0.00  0.00     0.065 C 
ATOM     22  C34 ZIN A   1      18.013   2.676  14.278  0.00  0.00     0.024 C 
ATOM     23  C35 ZIN A   1      17.368   3.936  13.710  0.00  0.00     0.074 C 
ENDROOT
BRANCH   4  24
ATOM     24  C10 ZIN A   1      20.839   6.313  14.653  0.00  0.00     0.255 C 
ATOM     25  N11 ZIN A   1      21.669   5.754  15.554  0.00  0.00    -0.366 N 
ATOM     26  H43 ZIN A   1      21.414   4.933  16.005  0.00  0.00     0.159 HD
ATOM     27  H44 ZIN A   1      22.522   6.171  15.754  0.00  0.00     0.159 HD
ATOM     28  O12 ZIN A   1      21.118   7.386  14.152  0.00  0.00    -0.268 OA
ENDBRANCH   4  24
BRANCH   1  29
ATOM     29  N2  ZIN A   1      16.276   6.037  14.257  0.00  0.00    -0.068 N 
ATOM     30  C1  ZIN A   1      14.990   5.920  14.957  0.00  0.00     0.270 C 
ATOM     31  H3  ZIN A   1      16.134   5.902  13.268  0.00  0.00     0.279 HD
ATOM     32  C4  ZIN A   1      16.843   7.372  14.493  0.00  0.00     0.270 C 
ENDBRANCH   1  29
BRANCH   7  33
ATOM     33  O16 ZIN A   1      17.480   5.504  11.862  0.00  0.00    -0.373 OA
ATOM     34  H45 ZIN A   1      16.558   5.307  11.645  0.00  0.00     0.211 HD
ENDBRANCH   7  33
BRANCH  19  35
ATOM     35  O31 ZIN A   1      19.910   0.594  13.914  0.00  0.00    -0.385 OA
ATOM     36  H53 ZIN A   1      20.074   1.483  14.257  0.00  0.00     0.211 HD
ENDBRANCH  19  35
BRANCH  14  37
ATOM     37  O24 ZIN A   1      18.240  -1.111   9.043  0.00  0.00    -0.360 OA
ATOM     38  H46 ZIN A   1      18.174  -1.871   8.448  0.00  0.00     0.217 HD
ENDBRANCH  14  37
TORSDOF 5
ENDMDL
MODEL 2
REMARK VINA RESULT:      -8.9      4.604      9.468
REMARK  5 active torsions:
REMARK  status: ('A' for Active; 'I' for Inactive)
REMARK    1  A    between atoms: N2_2  and  C5_5 
REMARK    2  A    between atoms: C9_8  and  C10_9 
REMARK       I    between atoms: C10_9  and  N11_10 
REMARK    3  A    between atoms: C15_14  and  O16_15 
REMARK    4  A    between atoms: C23_22  and  O24_23 
REMARK    5  A    between atoms: C29_28  and  O31_30 
ROOT
ATOM      1  C5  ZIN A   1      17.314  -4.989   8.303  0.00  0.00     0.255 C 
ATOM      2  C7  ZIN A   1      18.666  -5.574   8.028  0.00  0.00     0.135 C 
ATOM      3  O8  ZIN A   1      18.856  -6.262   6.892  0.00  0.00    -0.193 OA
ATOM      4  C9  ZIN A   1      19.717  -5.430   8.898  0.00  0.00     0.115 C 
ATOM      5  C13 ZIN A   1      19.556  -4.660  10.131  0.00  0.00     0.210 C 
ATOM      6  O14 ZIN A   1      20.521  -4.349  10.797  0.00  0.00    -0.288 OA
ATOM      7  C15 ZIN A   1      18.157  -4.259  10.563  0.00  0.00     0.194 C 
ATOM      8  C17 ZIN A   1      18.288  -3.068  11.475  0.00  0.00     0.201 C 
ATOM      9  O18 ZIN A   1      18.624  -3.258  12.628  0.00  0.00    -0.289 OA
ATOM     10  C19 ZIN A   1      18.045  -1.762  11.066  0.00  0.00     0.036 C 
ATOM     11  C20 ZIN A   1      18.170  -0.737  11.987  0.00  0.00     0.131 C 
ATOM     12  O21 ZIN A   1      18.436  -1.014  13.282  0.00  0.00    -0.190 OA
ATOM     13  C22 ZIN A   1      18.010   0.656  11.543  0.00  0.00     0.043 A 
ATOM     14  C23 ZIN A   1      17.805   1.684  12.474  0.00  0.00     0.079 A 
ATOM     15  C25 ZIN A   1      17.648   2.988  12.028  0.00  0.00     0.037 A 
ATOM     16  C26 ZIN A   1      17.689   3.268  10.676  0.00  0.00     0.003 A 
ATOM     17  C27 ZIN A   1      17.894   2.254   9.753  0.00  0.00     0.011 A 
ATOM     18  C28 ZIN A   1      18.059   0.956  10.178  0.00  0.00    -0.008 A 
ATOM     19  C29 ZIN A   1      18.305  -0.150   9.183  0.00  0.00     0.090 C 
ATOM     20  C30 ZIN A   1      17.737   0.255   7.822  0.00  0.00     0.052 C 
ATOM     21  C32 ZIN A   1      17.622  -1.427   9.660  0.00  0.00     0.065 C 
ATOM     22  C34 ZIN A   1      17.960  -2.587   8.720  0.00  0.00     0.024 C 
ATOM     23  C35 ZIN A   1      17.373  -3.862   9.316  0.00  0.00     0.074 C 
ENDROOT
BRANCH   4  24
ATOM     24  C10 ZIN A   1      21.015  -6.052   8.589  0.00  0.00     0.255 C 
ATOM     25  N11 ZIN A   1      21.804  -5.526   7.632  0.00  0.00    -0.366 N 
ATOM     26  H43 ZIN A   1      21.487  -4.781   7.098  0.00  0.00     0.159 HD
ATOM     27  H44 ZIN A   1      22.688  -5.893   7.475  0.00  0.00     0.159 HD
ATOM     28  O12 ZIN A   1      21.376  -7.040   9.201  0.00  0.00    -0.268 OA
ENDBRANCH   4  24
BRANCH   1  29
ATOM     29  N2  ZIN A   1      16.433  -6.047   8.818  0.00  0.00    -0.068 N 
ATOM     30  C1  ZIN A   1      15.040  -5.739   8.466  0.00  0.00     0.270 C 
ATOM     31  H3  ZIN A   1      16.522  -6.100   9.821  0.00  0.00     0.279 HD
ATOM     32  C4  ZIN A   1      16.815  -7.335   8.223  0.00  0.00     0.270 C 
ENDBRANCH   1  29
BRANCH   7  33
ATOM     33  O16 ZIN A   1      17.513  -5.347  11.229  0.00  0.00    -0.373 OA
ATOM     34  H45 ZIN A   1      17.784  -6.219  10.912  0.00  0.00     0.211 HD
ENDBRANCH   7  33
BRANCH  19  35
ATOM     35  O31 ZIN A   1      19.712  -0.378   9.064  0.00  0.00    -0.385 OA
ATOM     36  H53 ZIN A   1      20.025  -0.437   8.150  0.00  0.00     0.211 HD
ENDBRANCH  19  35
BRANCH  14  37
ATOM     37  O24 ZIN A   1      17.763   1.405  13.801  0.00  0.00    -0.360 OA
ATOM     38  H46 ZIN A   1      18.364   1.943  14.335  0.00  0.00     0.217 HD
ENDBRANCH  14  37
TORSDOF 5
ENDMDL
MODEL 3
REMARK VINA RESULT:      -8.0      8.379     12.699
REMARK  5 active torsions:
REMARK  status: ('A' for Active; 'I' for Inactive)
REMARK    1  A    between atoms: N2_2  and  C5_5 
REMARK    2  A    between atoms: C9_8  and  C10_9 
REMARK       I    between atoms: C10_9  and  N11_10 
REMARK    3  A    between atoms: C15_14  and  O16_15 
REMARK    4  A    between atoms: C23_22  and  O24_23 
REMARK    5  A    between atoms: C29_28  and  O31_30 
ROOT
ATOM      1  C5  ZIN A   1      17.362  -7.164   3.305  0.00  0.00     0.255 C 
ATOM      2  C7  ZIN A   1      16.054  -6.728   2.716  0.00  0.00     0.135 C 
ATOM      3  O8  ZIN A   1      15.333  -7.613   2.011  0.00  0.00    -0.193 OA
ATOM      4  C9  ZIN A   1      15.570  -5.454   2.873  0.00  0.00     0.115 C 
ATOM      5  C13 ZIN A   1      16.314  -4.472   3.661  0.00  0.00     0.210 C 
ATOM      6  O14 ZIN A   1      15.801  -3.420   3.982  0.00  0.00    -0.288 OA
ATOM      7  C15 ZIN A   1      17.740  -4.793   4.068  0.00  0.00     0.194 C 
ATOM      8  C17 ZIN A   1      18.067  -3.951   5.273  0.00  0.00     0.201 C 
ATOM      9  O18 ZIN A   1      18.347  -2.780   5.100  0.00  0.00    -0.289 OA
ATOM     10  C19 ZIN A   1      18.067  -4.443   6.572  0.00  0.00     0.036 C 
ATOM     11  C20 ZIN A   1      18.406  -3.594   7.611  0.00  0.00     0.131 C 
ATOM     12  O21 ZIN A   1      18.817  -2.333   7.354  0.00  0.00    -0.190 OA
ATOM     13  C22 ZIN A   1      18.316  -4.077   8.998  0.00  0.00     0.043 A 
ATOM     14  C23 ZIN A   1      18.946  -3.382  10.039  0.00  0.00     0.079 A 
ATOM     15  C25 ZIN A   1      18.852  -3.864  11.337  0.00  0.00     0.037 A 
ATOM     16  C26 ZIN A   1      18.146  -5.023  11.597  0.00  0.00     0.003 A 
ATOM     17  C27 ZIN A   1      17.520  -5.711  10.569  0.00  0.00     0.011 A 
ATOM     18  C28 ZIN A   1      17.596  -5.243   9.277  0.00  0.00    -0.008 A 
ATOM     19  C29 ZIN A   1      16.899  -5.972   8.157  0.00  0.00     0.090 C 
ATOM     20  C30 ZIN A   1      16.716  -7.441   8.541  0.00  0.00     0.052 C 
ATOM     21  C32 ZIN A   1      17.738  -5.878   6.886  0.00  0.00     0.065 C 
ATOM     22  C34 ZIN A   1      16.988  -6.514   5.713  0.00  0.00     0.024 C 
ATOM     23  C35 ZIN A   1      17.802  -6.269   4.447  0.00  0.00     0.074 C 
ENDROOT
BRANCH   4  24
ATOM     24  C10 ZIN A   1      14.293  -5.073   2.246  0.00  0.00     0.255 C 
ATOM     25  N11 ZIN A   1      14.277  -4.597   0.986  0.00  0.00    -0.366 N 
ATOM     26  H43 ZIN A   1      15.111  -4.440   0.516  0.00  0.00     0.159 HD
ATOM     27  H44 ZIN A   1      13.431  -4.411   0.548  0.00  0.00     0.159 HD
ATOM     28  O12 ZIN A   1      13.254  -5.189   2.867  0.00  0.00    -0.268 OA
ENDBRANCH   4  24
BRANCH   1  29
ATOM     29  N2  ZIN A   1      18.390  -7.139   2.255  0.00  0.00    -0.068 N 
ATOM     30  C1  ZIN A   1      18.972  -8.480   2.107  0.00  0.00     0.270 C 
ATOM     31  H3  ZIN A   1      19.114  -6.485   2.510  0.00  0.00     0.279 HD
ATOM     32  C4  ZIN A   1      17.781  -6.725   0.983  0.00  0.00     0.270 C 
ENDBRANCH   1  29
BRANCH   7  33
ATOM     33  O16 ZIN A   1      18.637  -4.518   2.990  0.00  0.00    -0.373 OA
ATOM     34  H45 ZIN A   1      18.728  -5.244   2.359  0.00  0.00     0.211 HD
ENDBRANCH   7  33
BRANCH  19  35
ATOM     35  O31 ZIN A   1      15.619  -5.378   7.927  0.00  0.00    -0.385 OA
ATOM     36  H53 ZIN A   1      15.602  -4.751   7.190  0.00  0.00     0.211 HD
ENDBRANCH  19  35
BRANCH  14  37
ATOM     37  O24 ZIN A   1      19.640  -2.246   9.781  0.00  0.00    -0.360 OA
ATOM     38  H46 ZIN A   1      19.096  -1.446   9.769  0.00  0.00     0.217 HD
ENDBRANCH  14  37
TORSDOF 5
ENDMDL
MODEL 4
REMARK VINA RESULT:      -6.6      7.303     12.290
REMARK  5 active torsions:
REMARK  status: ('A' for Active; 'I' for Inactive)
REMARK    1  A    between atoms: N2_2  and  C5_5 
REMARK    2  A    between atoms: C9_8  and  C10_9 
REMARK       I    between atoms: C10_9  and  N11_10 
REMARK    3  A    between atoms: C15_14  and  O16_15 
REMARK    4  A    between atoms: C23_22  and  O24_23 
REMARK    5  A    between atoms: C29_28  and  O31_30 
ROOT
ATOM      1  C5  ZIN A   1      16.775  -9.022   7.594  0.00  0.00     0.255 C 
ATOM      2  C7  ZIN A   1      15.333  -8.969   7.187  0.00  0.00     0.135 C 
ATOM      3  O8  ZIN A   1      14.563 -10.048   7.390  0.00  0.00    -0.193 OA
ATOM      4  C9  ZIN A   1      14.775  -7.854   6.614  0.00  0.00     0.115 C 
ATOM      5  C13 ZIN A   1      15.576  -6.649   6.406  0.00  0.00     0.210 C 
ATOM      6  O14 ZIN A   1      15.049  -5.600   6.101  0.00  0.00    -0.288 OA
ATOM      7  C15 ZIN A   1      17.082  -6.736   6.578  0.00  0.00     0.194 C 
ATOM      8  C17 ZIN A   1      17.586  -5.346   6.864  0.00  0.00     0.201 C 
ATOM      9  O18 ZIN A   1      17.705  -4.572   5.934  0.00  0.00    -0.289 OA
ATOM     10  C19 ZIN A   1      17.923  -4.903   8.137  0.00  0.00     0.036 C 
ATOM     11  C20 ZIN A   1      18.401  -3.613   8.293  0.00  0.00     0.131 C 
ATOM     12  O21 ZIN A   1      18.620  -2.832   7.213  0.00  0.00    -0.190 OA
ATOM     13  C22 ZIN A   1      18.669  -3.101   9.645  0.00  0.00     0.043 A 
ATOM     14  C23 ZIN A   1      19.445  -1.949   9.833  0.00  0.00     0.079 A 
ATOM     15  C25 ZIN A   1      19.690  -1.492  11.120  0.00  0.00     0.037 A 
ATOM     16  C26 ZIN A   1      19.175  -2.172  12.207  0.00  0.00     0.003 A 
ATOM     17  C27 ZIN A   1      18.405  -3.311  12.024  0.00  0.00     0.011 A 
ATOM     18  C28 ZIN A   1      18.146  -3.774  10.755  0.00  0.00    -0.008 A 
ATOM     19  C29 ZIN A   1      17.291  -4.997  10.546  0.00  0.00     0.090 C 
ATOM     20  C30 ZIN A   1      17.342  -5.874  11.799  0.00  0.00     0.052 C 
ATOM     21  C32 ZIN A   1      17.813  -5.787   9.350  0.00  0.00     0.065 C 
ATOM     22  C34 ZIN A   1      16.886  -6.969   9.056  0.00  0.00     0.024 C 
ATOM     23  C35 ZIN A   1      17.370  -7.638   7.773  0.00  0.00     0.074 C 
ENDROOT
BRANCH   4  24
ATOM     24  C10 ZIN A   1      13.360  -7.870   6.207  0.00  0.00     0.255 C 
ATOM     25  N11 ZIN A   1      12.391  -7.955   7.140  0.00  0.00    -0.366 N 
ATOM     26  H43 ZIN A   1      12.626  -8.075   8.073  0.00  0.00     0.159 HD
ATOM     27  H44 ZIN A   1      11.459  -7.895   6.878  0.00  0.00     0.159 HD
ATOM     28  O12 ZIN A   1      13.066  -7.806   5.029  0.00  0.00    -0.268 OA
ENDBRANCH   4  24
BRANCH   1  29
ATOM     29  N2  ZIN A   1      17.536  -9.737   6.560  0.00  0.00    -0.068 N 
ATOM     30  C1  ZIN A   1      18.507 -10.635   7.200  0.00  0.00     0.270 C 
ATOM     31  H3  ZIN A   1      18.025  -9.071   5.981  0.00  0.00     0.279 HD
ATOM     32  C4  ZIN A   1      16.614 -10.524   5.730  0.00  0.00     0.270 C 
ENDBRANCH   1  29
BRANCH   7  33
ATOM     33  O16 ZIN A   1      17.685  -7.268   5.397  0.00  0.00    -0.373 OA
ATOM     34  H45 ZIN A   1      18.436  -6.753   5.071  0.00  0.00     0.211 HD
ENDBRANCH   7  33
BRANCH  19  35
ATOM     35  O31 ZIN A   1      15.941  -4.598  10.300  0.00  0.00    -0.385 OA
ATOM     36  H53 ZIN A   1      15.656  -4.714   9.383  0.00  0.00     0.211 HD
ENDBRANCH  19  35
BRANCH  14  37
ATOM     37  O24 ZIN A   1      19.951  -1.284   8.764  0.00  0.00    -0.360 OA
ATOM     38  H46 ZIN A   1      19.469  -1.441   7.940  0.00  0.00     0.217 HD
ENDBRANCH  14  37
TORSDOF 5
ENDMDL
MODEL 5
REMARK VINA RESULT:      -6.1      1.897      3.987
REMARK  5 active torsions:
REMARK  status: ('A' for Active; 'I' for Inactive)
REMARK    1  A    between atoms: N2_2  and  C5_5 
REMARK    2  A    between atoms: C9_8  and  C10_9 
REMARK       I    between atoms: C10_9  and  N11_10 
REMARK    3  A    between atoms: C15_14  and  O16_15 
REMARK    4  A    between atoms: C23_22  and  O24_23 
REMARK    5  A    between atoms: C29_28  and  O31_30 
ROOT
ATOM      1  C5  ZIN A   1      19.783   5.455  13.773  0.00  0.00     0.255 C 
ATOM      2  C7  ZIN A   1      18.462   5.861  14.354  0.00  0.00     0.135 C 
ATOM      3  O8  ZIN A   1      18.185   7.167  14.483  0.00  0.00    -0.193 OA
ATOM      4  C9  ZIN A   1      17.526   4.942  14.757  0.00  0.00     0.115 C 
ATOM      5  C13 ZIN A   1      17.781   3.511  14.602  0.00  0.00     0.210 C 
ATOM      6  O14 ZIN A   1      16.888   2.703  14.755  0.00  0.00    -0.288 OA
ATOM      7  C15 ZIN A   1      19.185   3.054  14.248  0.00  0.00     0.194 C 
ATOM      8  C17 ZIN A   1      19.071   1.691  13.617  0.00  0.00     0.201 C 
ATOM      9  O18 ZIN A   1      18.908   0.730  14.344  0.00  0.00    -0.289 OA
ATOM     10  C19 ZIN A   1      19.144   1.475  12.246  0.00  0.00     0.036 C 
ATOM     11  C20 ZIN A   1      19.054   0.180  11.766  0.00  0.00     0.131 C 
ATOM     12  O21 ZIN A   1      18.985  -0.861  12.623  0.00  0.00    -0.190 OA
ATOM     13  C22 ZIN A   1      19.033  -0.051  10.313  0.00  0.00     0.043 A 
ATOM     14  C23 ZIN A   1      19.268  -1.329   9.789  0.00  0.00     0.079 A 
ATOM     15  C25 ZIN A   1      19.252  -1.518   8.415  0.00  0.00     0.037 A 
ATOM     16  C26 ZIN A   1      19.009  -0.452   7.571  0.00  0.00     0.003 A 
ATOM     17  C27 ZIN A   1      18.773   0.814   8.087  0.00  0.00     0.011 A 
ATOM     18  C28 ZIN A   1      18.779   1.018   9.447  0.00  0.00    -0.008 A 
ATOM     19  C29 ZIN A   1      18.500   2.386  10.017  0.00  0.00     0.090 C 
ATOM     20  C30 ZIN A   1      18.847   3.451   8.976  0.00  0.00     0.052 C 
ATOM     21  C32 ZIN A   1      19.349   2.600  11.267  0.00  0.00     0.065 C 
ATOM     22  C34 ZIN A   1      18.991   3.937  11.921  0.00  0.00     0.024 C 
ATOM     23  C35 ZIN A   1      19.760   4.038  13.235  0.00  0.00     0.074 C 
ENDROOT
BRANCH   4  24
ATOM     24  C10 ZIN A   1      16.257   5.399  15.348  0.00  0.00     0.255 C 
ATOM     25  N11 ZIN A   1      16.176   5.634  16.672  0.00  0.00    -0.366 N 
ATOM     26  H43 ZIN A   1      16.932   5.435  17.247  0.00  0.00     0.159 HD
ATOM     27  H44 ZIN A   1      15.362   6.000  17.051  0.00  0.00     0.159 HD
ATOM     28  O12 ZIN A   1      15.283   5.566  14.639  0.00  0.00    -0.268 OA
ENDBRANCH   4  24
BRANCH   1  29
ATOM     29  N2  ZIN A   1      20.812   5.552  14.818  0.00  0.00    -0.068 N 
ATOM     30  C1  ZIN A   1      21.764   6.615  14.470  0.00  0.00     0.270 C 
ATOM     31  H3  ZIN A   1      21.302   4.673  14.890  0.00  0.00     0.279 HD
ATOM     32  C4  ZIN A   1      20.176   5.865  16.105  0.00  0.00     0.270 C 
ENDBRANCH   1  29
BRANCH   7  33
ATOM     33  O16 ZIN A   1      20.002   3.011  15.419  0.00  0.00    -0.373 OA
ATOM     34  H45 ZIN A   1      20.249   2.118  15.695  0.00  0.00     0.211 HD
ENDBRANCH   7  33
BRANCH  19  35
ATOM     35  O31 ZIN A   1      17.116   2.486  10.358  0.00  0.00    -0.385 OA
ATOM     36  H53 ZIN A   1      16.774   3.391  10.354  0.00  0.00     0.211 HD
ENDBRANCH  19  35
BRANCH  14  37
ATOM     37  O24 ZIN A   1      19.509  -2.375  10.620  0.00  0.00    -0.360 OA
ATOM     38  H46 ZIN A   1      18.897  -2.431  11.368  0.00  0.00     0.217 HD
ENDBRANCH  14  37
TORSDOF 5
ENDMDL
MODEL 6
REMARK VINA RESULT:      -6.0      8.601     13.778
REMARK  5 active torsions:
REMARK  status: ('A' for Active; 'I' for Inactive)
REMARK    1  A    between atoms: N2_2  and  C5_5 
REMARK    2  A    between atoms: C9_8  and  C10_9 
REMARK       I    between atoms: C10_9  and  N11_10 
REMARK    3  A    between atoms: C15_14  and  O16_15 
REMARK    4  A    between atoms: C23_22  and  O24_23 
REMARK    5  A    between atoms: C29_28  and  O31_30 
ROOT
ATOM      1  C5  ZIN A   1      17.254  -8.064   2.948  0.00  0.00     0.255 C 
ATOM      2  C7  ZIN A   1      15.785  -8.365   2.945  0.00  0.00     0.135 C 
ATOM      3  O8  ZIN A   1      15.386  -9.646   2.926  0.00  0.00    -0.193 OA
ATOM      4  C9  ZIN A   1      14.835  -7.375   2.961  0.00  0.00     0.115 C 
ATOM      5  C13 ZIN A   1      15.233  -5.969   3.014  0.00  0.00     0.210 C 
ATOM      6  O14 ZIN A   1      14.415  -5.103   3.242  0.00  0.00    -0.288 OA
ATOM      7  C15 ZIN A   1      16.690  -5.614   2.778  0.00  0.00     0.194 C 
ATOM      8  C17 ZIN A   1      16.938  -4.272   3.414  0.00  0.00     0.201 C 
ATOM      9  O18 ZIN A   1      16.566  -3.276   2.824  0.00  0.00    -0.289 OA
ATOM     10  C19 ZIN A   1      17.569  -4.113   4.641  0.00  0.00     0.036 C 
ATOM     11  C20 ZIN A   1      17.773  -2.834   5.130  0.00  0.00     0.131 C 
ATOM     12  O21 ZIN A   1      17.441  -1.758   4.383  0.00  0.00    -0.190 OA
ATOM     13  C22 ZIN A   1      18.353  -2.657   6.470  0.00  0.00     0.043 A 
ATOM     14  C23 ZIN A   1      18.870  -1.416   6.867  0.00  0.00     0.079 A 
ATOM     15  C25 ZIN A   1      19.419  -1.278   8.133  0.00  0.00     0.037 A 
ATOM     16  C26 ZIN A   1      19.459  -2.359   8.993  0.00  0.00     0.003 A 
ATOM     17  C27 ZIN A   1      18.946  -3.587   8.604  0.00  0.00     0.011 A 
ATOM     18  C28 ZIN A   1      18.391  -3.740   7.354  0.00  0.00    -0.008 A 
ATOM     19  C29 ZIN A   1      17.810  -5.065   6.932  0.00  0.00     0.090 C 
ATOM     20  C30 ZIN A   1      18.467  -6.188   7.735  0.00  0.00     0.052 C 
ATOM     21  C32 ZIN A   1      18.068  -5.284   5.444  0.00  0.00     0.065 C 
ATOM     22  C34 ZIN A   1      17.383  -6.571   4.977  0.00  0.00     0.024 C 
ATOM     23  C35 ZIN A   1      17.551  -6.669   3.464  0.00  0.00     0.074 C 
ENDROOT
BRANCH   4  24
ATOM     24  C10 ZIN A   1      13.407  -7.730   2.927  0.00  0.00     0.255 C 
ATOM     25  N11 ZIN A   1      12.805  -8.212   4.031  0.00  0.00    -0.366 N 
ATOM     26  H43 ZIN A   1      13.328  -8.392   4.829  0.00  0.00     0.159 HD
ATOM     27  H44 ZIN A   1      11.850  -8.381   4.030  0.00  0.00     0.159 HD
ATOM     28  O12 ZIN A   1      12.770  -7.585   1.901  0.00  0.00    -0.268 OA
ENDBRANCH   4  24
BRANCH   1  29
ATOM     29  N2  ZIN A   1      17.768  -8.185   1.577  0.00  0.00    -0.068 N 
ATOM     30  C1  ZIN A   1      19.237  -8.182   1.602  0.00  0.00     0.270 C 
ATOM     31  H3  ZIN A   1      17.440  -7.406   1.025  0.00  0.00     0.279 HD
ATOM     32  C4  ZIN A   1      17.290  -9.441   0.983  0.00  0.00     0.270 C 
ENDBRANCH   1  29
BRANCH   7  33
ATOM     33  O16 ZIN A   1      16.970  -5.578   1.377  0.00  0.00    -0.373 OA
ATOM     34  H45 ZIN A   1      17.496  -4.816   1.100  0.00  0.00     0.211 HD
ENDBRANCH   7  33
BRANCH  19  35
ATOM     35  O31 ZIN A   1      16.401  -5.066   7.177  0.00  0.00    -0.385 OA
ATOM     36  H53 ZIN A   1      16.084  -5.848   7.650  0.00  0.00     0.211 HD
ENDBRANCH  19  35
BRANCH  14  37
ATOM     37  O24 ZIN A   1      18.831  -0.357   6.019  0.00  0.00    -0.360 OA
ATOM     38  H46 ZIN A   1      19.679  -0.161   5.597  0.00  0.00     0.217 HD
ENDBRANCH  14  37
TORSDOF 5
ENDMDL
