MODEL 1
REMARK VINA RESULT:      -7.8      0.000      0.000
REMARK  5 active torsions:
REMARK  status: ('A' for Active; 'I' for Inactive)
REMARK    1  A    between atoms: O2_2  and  C3_3 
REMARK    2  A    between atoms: C7_7  and  O8_8 
REMARK    3  A    between atoms: C10_10  and  O11_11 
REMARK    4  A    between atoms: C16_16  and  O17_17 
REMARK    5  A    between atoms: C23_23  and  N25_24 
REMARK       I    between atoms: N25_24  and  C26_25 
ROOT
ATOM      1  C3  <0> d   1      18.910   2.209   9.382  0.00  0.00     0.104 A 
ATOM      2  C4  <0> d   1      19.781   1.171   9.689  0.00  0.00     0.047 A 
ATOM      3  C5  <0> d   1      19.800   0.641  10.963  0.00  0.00    -0.041 A 
ATOM      4  C6  <0> d   1      18.943   1.143  11.938  0.00  0.00     0.017 A 
ATOM      5  C7  <0> d   1      18.068   2.191  11.636  0.00  0.00     0.116 A 
ATOM      6  C10 <0> d   1      18.059   2.725  10.354  0.00  0.00     0.136 A 
ATOM      7  C13 <0> d   1      18.945   0.554  13.310  0.00  0.00    -0.014 A 
ATOM      8  C14 <0> d   1      19.006   1.435  14.359  0.00  0.00     0.016 A 
ATOM      9  C15 <0> d   1      19.053   1.263  15.693  0.00  0.00     0.042 A 
ATOM     10  C16 <0> d   1      19.084   0.103  16.403  0.00  0.00     0.118 A 
ATOM     11  C19 <0> d   1      19.065  -1.177  15.858  0.00  0.00     0.205 A 
ATOM     12  O20 <0> d   1      19.163  -2.097  16.658  0.00  0.00    -0.285 OA
ATOM     13  C21 <0> d   1      18.951  -1.542  14.546  0.00  0.00     0.068 A 
ATOM     14  C22 <0> d   1      18.879  -0.837  13.404  0.00  0.00    -0.020 A 
ATOM     15  C23 <0> d   1      18.691  -1.638  12.131  0.00  0.00     0.119 C 
ATOM     16  C29 <0> d   1      19.993  -1.797  11.372  0.00  0.00     0.034 C 
ATOM     17  C30 <0> d   1      20.753  -0.475  11.304  0.00  0.00     0.042 C 
ENDROOT
BRANCH  15  18
ATOM     18  N25 <0> d   1      18.175  -2.965  12.473  0.00  0.00    -0.353 N 
ATOM     19  C26 <0> d   1      17.537  -3.701  11.542  0.00  0.00     0.214 C 
ATOM     20  C27 <0> d   1      17.006  -5.066  11.894  0.00  0.00     0.117 C 
ATOM     21  O28 <0> d   1      17.392  -3.265  10.419  0.00  0.00    -0.274 OA
ATOM     22  H47 <0> d   1      18.291  -3.314  13.371  0.00  0.00     0.163 HD
ENDBRANCH  15  18
BRANCH   5  23
ATOM     23  O8  <0> d   1      17.238   2.687  12.590  0.00  0.00    -0.352 OA
ATOM     24  C9  <0> d   1      17.605   3.934  13.185  0.00  0.00     0.210 C 
ENDBRANCH   5  23
BRANCH  10  25
ATOM     25  O17 <0> d   1      19.138   0.201  17.754  0.00  0.00    -0.352 OA
ATOM     26  C18 <0> d   1      19.135   1.518  18.308  0.00  0.00     0.210 C 
ENDBRANCH  10  25
BRANCH   6  27
ATOM     27  O11 <0> d   1      17.212   3.745  10.046  0.00  0.00    -0.351 OA
ATOM     28  C12 <0> d   1      17.756   5.065  10.058  0.00  0.00     0.210 C 
ENDBRANCH   6  27
BRANCH   1  29
ATOM     29  O2  <0> d   1      18.893   2.726   8.125  0.00  0.00    -0.353 OA
ATOM     30  C1  <0> d   1      18.987   1.800   7.040  0.00  0.00     0.210 C 
ENDBRANCH   1  29
TORSDOF 5
ENDMDL
MODEL 2
REMARK VINA RESULT:      -7.2      2.688      7.911
REMARK  5 active torsions:
REMARK  status: ('A' for Active; 'I' for Inactive)
REMARK    1  A    between atoms: O2_2  and  C3_3 
REMARK    2  A    between atoms: C7_7  and  O8_8 
REMARK    3  A    between atoms: C10_10  and  O11_11 
REMARK    4  A    between atoms: C16_16  and  O17_17 
REMARK    5  A    between atoms: C23_23  and  N25_24 
REMARK       I    between atoms: N25_24  and  C26_25 
ROOT
ATOM      1  C3  <0> d   1      19.258   1.501  17.092  0.00  0.00     0.104 A 
ATOM      2  C4  <0> d   1      19.469   2.848  16.824  0.00  0.00     0.047 A 
ATOM      3  C5  <0> d   1      19.206   3.350  15.565  0.00  0.00    -0.041 A 
ATOM      4  C6  <0> d   1      18.725   2.509  14.568  0.00  0.00     0.017 A 
ATOM      5  C7  <0> d   1      18.516   1.151  14.830  0.00  0.00     0.116 A 
ATOM      6  C10 <0> d   1      18.790   0.651  16.096  0.00  0.00     0.136 A 
ATOM      7  C13 <0> d   1      18.417   3.055  13.213  0.00  0.00    -0.014 A 
ATOM      8  C14 <0> d   1      18.917   2.364  12.140  0.00  0.00     0.016 A 
ATOM      9  C15 <0> d   1      18.862   2.575  10.811  0.00  0.00     0.042 A 
ATOM     10  C16 <0> d   1      18.288   3.606  10.136  0.00  0.00     0.118 A 
ATOM     11  C19 <0> d   1      17.615   4.677  10.716  0.00  0.00     0.205 A 
ATOM     12  O20 <0> d   1      17.221   5.540   9.944  0.00  0.00    -0.285 OA
ATOM     13  C21 <0> d   1      17.336   4.891  12.036  0.00  0.00     0.068 A 
ATOM     14  C22 <0> d   1      17.643   4.216  13.158  0.00  0.00    -0.020 A 
ATOM     15  C23 <0> d   1      17.076   4.767  14.451  0.00  0.00     0.119 C 
ATOM     16  C29 <0> d   1      18.114   5.551  15.228  0.00  0.00     0.034 C 
ATOM     17  C30 <0> d   1      19.447   4.807  15.267  0.00  0.00     0.042 C 
ENDROOT
BRANCH  15  18
ATOM     18  N25 <0> d   1      15.948   5.648  14.140  0.00  0.00    -0.353 N 
ATOM     19  C26 <0> d   1      15.185   6.143  15.135  0.00  0.00     0.214 C 
ATOM     20  C27 <0> d   1      14.024   7.049  14.816  0.00  0.00     0.117 C 
ATOM     21  O28 <0> d   1      15.434   5.858  16.288  0.00  0.00    -0.274 OA
ATOM     22  H47 <0> d   1      15.749   5.875  13.219  0.00  0.00     0.163 HD
ENDBRANCH  15  18
BRANCH   5  23
ATOM     23  O8  <0> d   1      18.056   0.327  13.853  0.00  0.00    -0.352 OA
ATOM     24  C9  <0> d   1      18.957  -0.670  13.366  0.00  0.00     0.210 C 
ENDBRANCH   5  23
BRANCH  10  25
ATOM     25  O17 <0> d   1      18.378   3.591   8.783  0.00  0.00    -0.352 OA
ATOM     26  C18 <0> d   1      18.874   2.394   8.181  0.00  0.00     0.210 C 
ENDBRANCH  10  25
BRANCH   6  27
ATOM     27  O11 <0> d   1      18.591  -0.669  16.366  0.00  0.00    -0.351 OA
ATOM     28  C12 <0> d   1      17.258  -1.073  16.680  0.00  0.00     0.210 C 
ENDBRANCH   6  27
BRANCH   1  29
ATOM     29  O2  <0> d   1      19.517   1.012  18.333  0.00  0.00    -0.353 OA
ATOM     30  C1  <0> d   1      18.399   0.831  19.206  0.00  0.00     0.210 C 
ENDBRANCH   1  29
TORSDOF 5
ENDMDL
MODEL 3
REMARK VINA RESULT:      -7.0      2.659      5.149
REMARK  5 active torsions:
REMARK  status: ('A' for Active; 'I' for Inactive)
REMARK    1  A    between atoms: O2_2  and  C3_3 
REMARK    2  A    between atoms: C7_7  and  O8_8 
REMARK    3  A    between atoms: C10_10  and  O11_11 
REMARK    4  A    between atoms: C16_16  and  O17_17 
REMARK    5  A    between atoms: C23_23  and  N25_24 
REMARK       I    between atoms: N25_24  and  C26_25 
ROOT
ATOM      1  C3  <0> d   1      18.876   1.210   7.985  0.00  0.00     0.104 A 
ATOM      2  C4  <0> d   1      18.275   2.297   8.606  0.00  0.00     0.047 A 
ATOM      3  C5  <0> d   1      18.122   2.310   9.978  0.00  0.00    -0.041 A 
ATOM      4  C6  <0> d   1      18.572   1.236  10.737  0.00  0.00     0.017 A 
ATOM      5  C7  <0> d   1      19.173   0.136  10.117  0.00  0.00     0.116 A 
ATOM      6  C10 <0> d   1      19.318   0.126   8.736  0.00  0.00     0.136 A 
ATOM      7  C13 <0> d   1      18.429   1.259  12.224  0.00  0.00    -0.014 A 
ATOM      8  C14 <0> d   1      17.901   0.137  12.810  0.00  0.00     0.016 A 
ATOM      9  C15 <0> d   1      17.610  -0.174  14.087  0.00  0.00     0.042 A 
ATOM     10  C16 <0> d   1      17.741   0.593  15.202  0.00  0.00     0.118 A 
ATOM     11  C19 <0> d   1      18.228   1.896  15.233  0.00  0.00     0.205 A 
ATOM     12  O20 <0> d   1      18.211   2.444  16.327  0.00  0.00    -0.285 OA
ATOM     13  C21 <0> d   1      18.723   2.644  14.203  0.00  0.00     0.068 A 
ATOM     14  C22 <0> d   1      18.850   2.414  12.884  0.00  0.00    -0.020 A 
ATOM     15  C23 <0> d   1      19.524   3.503  12.074  0.00  0.00     0.119 C 
ATOM     16  C29 <0> d   1      18.515   4.353  11.328  0.00  0.00     0.034 C 
ATOM     17  C30 <0> d   1      17.458   3.482  10.654  0.00  0.00     0.042 C 
ENDROOT
BRANCH  15  18
ATOM     18  N25 <0> d   1      20.294   4.362  12.977  0.00  0.00    -0.353 N 
ATOM     19  C26 <0> d   1      19.693   5.393  13.603  0.00  0.00     0.214 C 
ATOM     20  C27 <0> d   1      20.485   6.277  14.531  0.00  0.00     0.117 C 
ATOM     21  O28 <0> d   1      18.513   5.609  13.419  0.00  0.00    -0.274 OA
ATOM     22  H47 <0> d   1      21.237   4.190  13.123  0.00  0.00     0.163 HD
ENDBRANCH  15  18
BRANCH   5  23
ATOM     23  O8  <0> d   1      19.605  -0.918  10.858  0.00  0.00    -0.352 OA
ATOM     24  C9  <0> d   1      20.991  -0.943  11.205  0.00  0.00     0.210 C 
ENDBRANCH   5  23
BRANCH  10  25
ATOM     25  O17 <0> d   1      17.366   0.043  16.383  0.00  0.00    -0.352 OA
ATOM     26  C18 <0> d   1      18.034  -1.156  16.780  0.00  0.00     0.210 C 
ENDBRANCH  10  25
BRANCH   6  27
ATOM     27  O11 <0> d   1      19.901  -0.938   8.119  0.00  0.00    -0.351 OA
ATOM     28  C12 <0> d   1      19.079  -2.083   7.886  0.00  0.00     0.210 C 
ENDBRANCH   6  27
BRANCH   1  29
ATOM     29  O2  <0> d   1      19.027   1.203   6.634  0.00  0.00    -0.353 OA
ATOM     30  C1  <0> d   1      17.959   0.648   5.864  0.00  0.00     0.210 C 
ENDBRANCH   1  29
TORSDOF 5
ENDMDL
MODEL 4
REMARK VINA RESULT:      -6.9      2.086      5.552
REMARK  5 active torsions:
REMARK  status: ('A' for Active; 'I' for Inactive)
REMARK    1  A    between atoms: O2_2  and  C3_3 
REMARK    2  A    between atoms: C7_7  and  O8_8 
REMARK    3  A    between atoms: C10_10  and  O11_11 
REMARK    4  A    between atoms: C16_16  and  O17_17 
REMARK    5  A    between atoms: C23_23  and  N25_24 
REMARK       I    between atoms: N25_24  and  C26_25 
ROOT
ATOM      1  C3  <0> d   1      18.340   2.026   9.376  0.00  0.00     0.104 A 
ATOM      2  C4  <0> d   1      17.453   1.674  10.386  0.00  0.00     0.047 A 
ATOM      3  C5  <0> d   1      17.300   0.349  10.738  0.00  0.00    -0.041 A 
ATOM      4  C6  <0> d   1      18.037  -0.633  10.085  0.00  0.00     0.017 A 
ATOM      5  C7  <0> d   1      18.927  -0.286   9.065  0.00  0.00     0.116 A 
ATOM      6  C10 <0> d   1      19.071   1.049   8.710  0.00  0.00     0.136 A 
ATOM      7  C13 <0> d   1      17.890  -2.066  10.482  0.00  0.00    -0.014 A 
ATOM      8  C14 <0> d   1      17.704  -2.970   9.468  0.00  0.00     0.016 A 
ATOM      9  C15 <0> d   1      17.511  -4.303   9.458  0.00  0.00     0.042 A 
ATOM     10  C16 <0> d   1      17.415  -5.158  10.511  0.00  0.00     0.118 A 
ATOM     11  C19 <0> d   1      17.510  -4.801  11.853  0.00  0.00     0.205 A 
ATOM     12  O20 <0> d   1      17.335  -5.705  12.658  0.00  0.00    -0.285 OA
ATOM     13  C21 <0> d   1      17.773  -3.572  12.389  0.00  0.00     0.068 A 
ATOM     14  C22 <0> d   1      17.962  -2.357  11.845  0.00  0.00    -0.020 A 
ATOM     15  C23 <0> d   1      18.299  -1.235  12.806  0.00  0.00     0.119 C 
ATOM     16  C29 <0> d   1      17.091  -0.370  13.102  0.00  0.00     0.034 C 
ATOM     17  C30 <0> d   1      16.327  -0.038  11.822  0.00  0.00     0.042 C 
ENDROOT
BRANCH  15  18
ATOM     18  N25 <0> d   1      18.790  -1.812  14.060  0.00  0.00    -0.353 N 
ATOM     19  C26 <0> d   1      19.112  -1.007  15.092  0.00  0.00     0.214 C 
ATOM     20  C27 <0> d   1      19.617  -1.599  16.381  0.00  0.00     0.117 C 
ATOM     21  O28 <0> d   1      18.993   0.196  14.982  0.00  0.00    -0.274 OA
ATOM     22  H47 <0> d   1      18.886  -2.773  14.147  0.00  0.00     0.163 HD
ENDBRANCH  15  18
BRANCH   5  23
ATOM     23  O8  <0> d   1      19.641  -1.246   8.421  0.00  0.00    -0.352 OA
ATOM     24  C9  <0> d   1      19.175  -1.645   7.130  0.00  0.00     0.210 C 
ENDBRANCH   5  23
BRANCH  10  25
ATOM     25  O17 <0> d   1      17.211  -6.469  10.232  0.00  0.00    -0.352 OA
ATOM     26  C18 <0> d   1      16.878  -6.799   8.882  0.00  0.00     0.210 C 
ENDBRANCH  10  25
BRANCH   6  27
ATOM     27  O11 <0> d   1      19.935   1.402   7.719  0.00  0.00    -0.351 OA
ATOM     28  C12 <0> d   1      19.386   1.577   6.412  0.00  0.00     0.210 C 
ENDBRANCH   6  27
BRANCH   1  29
ATOM     29  O2  <0> d   1      18.490   3.334   9.035  0.00  0.00    -0.353 OA
ATOM     30  C1  <0> d   1      17.988   4.306   9.954  0.00  0.00     0.210 C 
ENDBRANCH   1  29
TORSDOF 5
ENDMDL
MODEL 5
REMARK VINA RESULT:      -6.9      2.302      4.248
REMARK  5 active torsions:
REMARK  status: ('A' for Active; 'I' for Inactive)
REMARK    1  A    between atoms: O2_2  and  C3_3 
REMARK    2  A    between atoms: C7_7  and  O8_8 
REMARK    3  A    between atoms: C10_10  and  O11_11 
REMARK    4  A    between atoms: C16_16  and  O17_17 
REMARK    5  A    between atoms: C23_23  and  N25_24 
REMARK       I    between atoms: N25_24  and  C26_25 
ROOT
ATOM      1  C3  <0> d   1      19.545  -0.251   9.500  0.00  0.00     0.104 A 
ATOM      2  C4  <0> d   1      20.257  -0.390  10.685  0.00  0.00     0.047 A 
ATOM      3  C5  <0> d   1      20.128   0.556  11.682  0.00  0.00    -0.041 A 
ATOM      4  C6  <0> d   1      19.283   1.645  11.501  0.00  0.00     0.017 A 
ATOM      5  C7  <0> d   1      18.568   1.793  10.309  0.00  0.00     0.116 A 
ATOM      6  C10 <0> d   1      18.708   0.842   9.307  0.00  0.00     0.136 A 
ATOM      7  C13 <0> d   1      19.124   2.656  12.589  0.00  0.00    -0.014 A 
ATOM      8  C14 <0> d   1      19.228   3.974  12.226  0.00  0.00     0.016 A 
ATOM      9  C15 <0> d   1      19.169   5.122  12.927  0.00  0.00     0.042 A 
ATOM     10  C16 <0> d   1      19.009   5.295  14.267  0.00  0.00     0.118 A 
ATOM     11  C19 <0> d   1      18.862   4.274  15.200  0.00  0.00     0.205 A 
ATOM     12  O20 <0> d   1      18.793   4.628  16.369  0.00  0.00    -0.285 OA
ATOM     13  C21 <0> d   1      18.786   2.927  14.983  0.00  0.00     0.068 A 
ATOM     14  C22 <0> d   1      18.876   2.172  13.875  0.00  0.00    -0.020 A 
ATOM     15  C23 <0> d   1      18.669   0.682  14.057  0.00  0.00     0.119 C 
ATOM     16  C29 <0> d   1      19.986  -0.067  14.078  0.00  0.00     0.034 C 
ATOM     17  C30 <0> d   1      20.910   0.416  12.963  0.00  0.00     0.042 C 
ENDROOT
BRANCH  15  18
ATOM     18  N25 <0> d   1      17.968   0.449  15.322  0.00  0.00    -0.353 N 
ATOM     19  C26 <0> d   1      17.738  -0.811  15.742  0.00  0.00     0.214 C 
ATOM     20  C27 <0> d   1      17.017  -1.052  17.043  0.00  0.00     0.117 C 
ATOM     21  O28 <0> d   1      18.112  -1.751  15.073  0.00  0.00    -0.274 OA
ATOM     22  H47 <0> d   1      17.669   1.200  15.857  0.00  0.00     0.163 HD
ENDBRANCH  15  18
BRANCH   5  23
ATOM     23  O8  <0> d   1      17.749   2.862  10.129  0.00  0.00    -0.352 OA
ATOM     24  C9  <0> d   1      18.237   3.922   9.304  0.00  0.00     0.210 C 
ENDBRANCH   5  23
BRANCH  10  25
ATOM     25  O17 <0> d   1      18.990   6.568  14.732  0.00  0.00    -0.352 OA
ATOM     26  C18 <0> d   1      17.764   7.289  14.594  0.00  0.00     0.210 C 
ENDBRANCH  10  25
BRANCH   6  27
ATOM     27  O11 <0> d   1      18.018   0.973   8.141  0.00  0.00    -0.351 OA
ATOM     28  C12 <0> d   1      18.778   1.263   6.967  0.00  0.00     0.210 C 
ENDBRANCH   6  27
BRANCH   1  29
ATOM     29  O2  <0> d   1      19.674  -1.186   8.522  0.00  0.00    -0.353 OA
ATOM     30  C1  <0> d   1      18.891  -2.375   8.655  0.00  0.00     0.210 C 
ENDBRANCH   1  29
TORSDOF 5
ENDMDL
MODEL 6
REMARK VINA RESULT:      -6.6      2.506      5.164
REMARK  5 active torsions:
REMARK  status: ('A' for Active; 'I' for Inactive)
REMARK    1  A    between atoms: O2_2  and  C3_3 
REMARK    2  A    between atoms: C7_7  and  O8_8 
REMARK    3  A    between atoms: C10_10  and  O11_11 
REMARK    4  A    between atoms: C16_16  and  O17_17 
REMARK    5  A    between atoms: C23_23  and  N25_24 
REMARK       I    between atoms: N25_24  and  C26_25 
ROOT
ATOM      1  C3  <0> d   1      18.277  -0.791   7.603  0.00  0.00     0.104 A 
ATOM      2  C4  <0> d   1      17.677   0.284   8.245  0.00  0.00     0.047 A 
ATOM      3  C5  <0> d   1      17.821   0.441   9.609  0.00  0.00    -0.041 A 
ATOM      4  C6  <0> d   1      18.571  -0.475  10.338  0.00  0.00     0.017 A 
ATOM      5  C7  <0> d   1      19.173  -1.563   9.698  0.00  0.00     0.116 A 
ATOM      6  C10 <0> d   1      19.018  -1.719   8.327  0.00  0.00     0.136 A 
ATOM      7  C13 <0> d   1      18.749  -0.293  11.810  0.00  0.00    -0.014 A 
ATOM      8  C14 <0> d   1      18.523  -1.391  12.599  0.00  0.00     0.016 A 
ATOM      9  C15 <0> d   1      18.559  -1.581  13.931  0.00  0.00     0.042 A 
ATOM     10  C16 <0> d   1      18.818  -0.677  14.914  0.00  0.00     0.118 A 
ATOM     11  C19 <0> d   1      19.111   0.668  14.717  0.00  0.00     0.205 A 
ATOM     12  O20 <0> d   1      19.252   1.337  15.731  0.00  0.00    -0.285 OA
ATOM     13  C21 <0> d   1      19.263   1.342  13.538  0.00  0.00     0.068 A 
ATOM     14  C22 <0> d   1      19.135   0.974  12.251  0.00  0.00    -0.020 A 
ATOM     15  C23 <0> d   1      19.459   2.031  11.214  0.00  0.00     0.119 C 
ATOM     16  C29 <0> d   1      18.204   2.661  10.646  0.00  0.00     0.034 C 
ATOM     17  C30 <0> d   1      17.160   1.599  10.312  0.00  0.00     0.042 C 
ENDROOT
BRANCH  15  18
ATOM     18  N25 <0> d   1      20.276   3.075  11.837  0.00  0.00    -0.353 N 
ATOM     19  C26 <0> d   1      19.697   4.206  12.285  0.00  0.00     0.214 C 
ATOM     20  C27 <0> d   1      20.537   5.281  12.925  0.00  0.00     0.117 C 
ATOM     21  O28 <0> d   1      18.499   4.359  12.175  0.00  0.00    -0.274 OA
ATOM     22  H47 <0> d   1      21.234   2.953  11.925  0.00  0.00     0.163 HD
ENDBRANCH  15  18
BRANCH   5  23
ATOM     23  O8  <0> d   1      19.898  -2.463  10.412  0.00  0.00    -0.352 OA
ATOM     24  C9  <0> d   1      19.289  -3.731  10.667  0.00  0.00     0.210 C 
ENDBRANCH   5  23
BRANCH  10  25
ATOM     25  O17 <0> d   1      18.787  -1.124  16.194  0.00  0.00    -0.352 OA
ATOM     26  C18 <0> d   1      17.498  -1.331  16.776  0.00  0.00     0.210 C 
ENDBRANCH  10  25
BRANCH   6  27
ATOM     27  O11 <0> d   1      19.599  -2.773   7.691  0.00  0.00    -0.351 OA
ATOM     28  C12 <0> d   1      18.739  -3.837   7.280  0.00  0.00     0.210 C 
ENDBRANCH   6  27
BRANCH   1  29
ATOM     29  O2  <0> d   1      18.134  -0.940   6.259  0.00  0.00    -0.353 OA
ATOM     30  C1  <0> d   1      19.046  -0.221   5.426  0.00  0.00     0.210 C 
ENDBRANCH   1  29
TORSDOF 5
ENDMDL
MODEL 7
REMARK VINA RESULT:      -6.5      2.771      5.418
REMARK  5 active torsions:
REMARK  status: ('A' for Active; 'I' for Inactive)
REMARK    1  A    between atoms: O2_2  and  C3_3 
REMARK    2  A    between atoms: C7_7  and  O8_8 
REMARK    3  A    between atoms: C10_10  and  O11_11 
REMARK    4  A    between atoms: C16_16  and  O17_17 
REMARK    5  A    between atoms: C23_23  and  N25_24 
REMARK       I    between atoms: N25_24  and  C26_25 
ROOT
ATOM      1  C3  <0> d   1      18.407   3.402  10.793  0.00  0.00     0.104 A 
ATOM      2  C4  <0> d   1      19.127   2.870   9.730  0.00  0.00     0.047 A 
ATOM      3  C5  <0> d   1      19.106   1.511   9.494  0.00  0.00    -0.041 A 
ATOM      4  C6  <0> d   1      18.360   0.674  10.318  0.00  0.00     0.017 A 
ATOM      5  C7  <0> d   1      17.638   1.202  11.392  0.00  0.00     0.116 A 
ATOM      6  C10 <0> d   1      17.669   2.570  11.629  0.00  0.00     0.136 A 
ATOM      7  C13 <0> d   1      18.316  -0.794  10.049  0.00  0.00    -0.014 A 
ATOM      8  C14 <0> d   1      18.534  -1.624  11.119  0.00  0.00     0.016 A 
ATOM      9  C15 <0> d   1      18.595  -2.964  11.238  0.00  0.00     0.042 A 
ATOM     10  C16 <0> d   1      18.479  -3.911  10.269  0.00  0.00     0.118 A 
ATOM     11  C19 <0> d   1      18.258  -3.662   8.918  0.00  0.00     0.205 A 
ATOM     12  O20 <0> d   1      18.244  -4.645   8.191  0.00  0.00    -0.285 OA
ATOM     13  C21 <0> d   1      18.054  -2.462   8.297  0.00  0.00     0.068 A 
ATOM     14  C22 <0> d   1      18.051  -1.192   8.737  0.00  0.00    -0.020 A 
ATOM     15  C23 <0> d   1      17.713  -0.126   7.715  0.00  0.00     0.119 C 
ATOM     16  C29 <0> d   1      18.955   0.574   7.203  0.00  0.00     0.034 C 
ATOM     17  C30 <0> d   1      19.897   0.929   8.351  0.00  0.00     0.042 C 
ENDROOT
BRANCH  15  18
ATOM     18  N25 <0> d   1      17.019  -0.751   6.586  0.00  0.00    -0.353 N 
ATOM     19  C26 <0> d   1      17.700  -1.061   5.465  0.00  0.00     0.214 C 
ATOM     20  C27 <0> d   1      16.987  -1.704   4.303  0.00  0.00     0.117 C 
ATOM     21  O28 <0> d   1      18.887  -0.824   5.392  0.00  0.00    -0.274 OA
ATOM     22  H47 <0> d   1      16.070  -0.940   6.644  0.00  0.00     0.163 HD
ENDBRANCH  15  18
BRANCH   5  23
ATOM     23  O8  <0> d   1      16.917   0.384  12.202  0.00  0.00    -0.352 OA
ATOM     24  C9  <0> d   1      17.475   0.082  13.483  0.00  0.00     0.210 C 
ENDBRANCH   5  23
BRANCH  10  25
ATOM     25  O17 <0> d   1      18.585  -5.208  10.650  0.00  0.00    -0.352 OA
ATOM     26  C18 <0> d   1      17.525  -5.738  11.448  0.00  0.00     0.210 C 
ENDBRANCH  10  25
BRANCH   6  27
ATOM     27  O11 <0> d   1      16.971   3.099  12.671  0.00  0.00    -0.351 OA
ATOM     28  C12 <0> d   1      17.722   3.507  13.815  0.00  0.00     0.210 C 
ENDBRANCH   6  27
BRANCH   1  29
ATOM     29  O2  <0> d   1      18.429   4.742  11.020  0.00  0.00    -0.353 OA
ATOM     30  C1  <0> d   1      17.397   5.521  10.409  0.00  0.00     0.210 C 
ENDBRANCH   1  29
TORSDOF 5
ENDMDL
MODEL 8
REMARK VINA RESULT:      -6.5      2.546      6.312
REMARK  5 active torsions:
REMARK  status: ('A' for Active; 'I' for Inactive)
REMARK    1  A    between atoms: O2_2  and  C3_3 
REMARK    2  A    between atoms: C7_7  and  O8_8 
REMARK    3  A    between atoms: C10_10  and  O11_11 
REMARK    4  A    between atoms: C16_16  and  O17_17 
REMARK    5  A    between atoms: C23_23  and  N25_24 
REMARK       I    between atoms: N25_24  and  C26_25 
ROOT
ATOM      1  C3  <0> d   1      18.196   0.700  13.604  0.00  0.00     0.104 A 
ATOM      2  C4  <0> d   1      17.625  -0.517  13.251  0.00  0.00     0.047 A 
ATOM      3  C5  <0> d   1      17.642  -0.930  11.935  0.00  0.00    -0.041 A 
ATOM      4  C6  <0> d   1      18.234  -0.131  10.963  0.00  0.00     0.017 A 
ATOM      5  C7  <0> d   1      18.806   1.097  11.311  0.00  0.00     0.116 A 
ATOM      6  C10 <0> d   1      18.779   1.510  12.637  0.00  0.00     0.136 A 
ATOM      7  C13 <0> d   1      18.275  -0.588   9.542  0.00  0.00    -0.014 A 
ATOM      8  C14 <0> d   1      17.879   0.317   8.591  0.00  0.00     0.016 A 
ATOM      9  C15 <0> d   1      17.763   0.242   7.252  0.00  0.00     0.042 A 
ATOM     10  C16 <0> d   1      17.994  -0.820   6.434  0.00  0.00     0.118 A 
ATOM     11  C19 <0> d   1      18.418  -2.079   6.847  0.00  0.00     0.205 A 
ATOM     12  O20 <0> d   1      18.510  -2.925   5.968  0.00  0.00    -0.285 OA
ATOM     13  C21 <0> d   1      18.745  -2.496   8.106  0.00  0.00     0.068 A 
ATOM     14  C22 <0> d   1      18.719  -1.891   9.306  0.00  0.00    -0.020 A 
ATOM     15  C23 <0> d   1      19.234  -2.700  10.479  0.00  0.00     0.119 C 
ATOM     16  C29 <0> d   1      18.101  -3.283  11.299  0.00  0.00     0.034 C 
ATOM     17  C30 <0> d   1      17.011  -2.242  11.545  0.00  0.00     0.042 C 
ENDROOT
BRANCH  15  18
ATOM     18  N25 <0> d   1      20.068  -3.794   9.975  0.00  0.00    -0.353 N 
ATOM     19  C26 <0> d   1      19.528  -5.011   9.762  0.00  0.00     0.214 C 
ATOM     20  C27 <0> d   1      20.385  -6.136   9.244  0.00  0.00     0.117 C 
ATOM     21  O28 <0> d   1      18.351  -5.199   9.988  0.00  0.00    -0.274 OA
ATOM     22  H47 <0> d   1      21.009  -3.643   9.795  0.00  0.00     0.163 HD
ENDBRANCH  15  18
BRANCH   5  23
ATOM     23  O8  <0> d   1      19.376   1.882  10.360  0.00  0.00    -0.352 OA
ATOM     24  C9  <0> d   1      18.635   3.026   9.933  0.00  0.00     0.210 C 
ENDBRANCH   5  23
BRANCH  10  25
ATOM     25  O17 <0> d   1      17.795  -0.638   5.106  0.00  0.00    -0.352 OA
ATOM     26  C18 <0> d   1      18.869  -0.055   4.365  0.00  0.00     0.210 C 
ENDBRANCH  10  25
BRANCH   6  27
ATOM     27  O11 <0> d   1      19.331   2.703  12.990  0.00  0.00    -0.351 OA
ATOM     28  C12 <0> d   1      18.432   3.774  13.281  0.00  0.00     0.210 C 
ENDBRANCH   6  27
BRANCH   1  29
ATOM     29  O2  <0> d   1      18.179   1.101  14.903  0.00  0.00    -0.353 OA
ATOM     30  C1  <0> d   1      18.818   0.248  15.855  0.00  0.00     0.210 C 
ENDBRANCH   1  29
TORSDOF 5
ENDMDL
MODEL 9
REMARK VINA RESULT:      -6.3      2.270      5.833
REMARK  5 active torsions:
REMARK  status: ('A' for Active; 'I' for Inactive)
REMARK    1  A    between atoms: O2_2  and  C3_3 
REMARK    2  A    between atoms: C7_7  and  O8_8 
REMARK    3  A    between atoms: C10_10  and  O11_11 
REMARK    4  A    between atoms: C16_16  and  O17_17 
REMARK    5  A    between atoms: C23_23  and  N25_24 
REMARK       I    between atoms: N25_24  and  C26_25 
ROOT
ATOM      1  C3  <0> d   1      18.134   2.543  14.590  0.00  0.00     0.104 A 
ATOM      2  C4  <0> d   1      17.586   1.314  14.245  0.00  0.00     0.047 A 
ATOM      3  C5  <0> d   1      17.779   0.804  12.976  0.00  0.00    -0.041 A 
ATOM      4  C6  <0> d   1      18.525   1.521  12.046  0.00  0.00     0.017 A 
ATOM      5  C7  <0> d   1      19.074   2.761  12.386  0.00  0.00     0.116 A 
ATOM      6  C10 <0> d   1      18.870   3.271  13.662  0.00  0.00     0.136 A 
ATOM      7  C13 <0> d   1      18.755   0.960  10.681  0.00  0.00    -0.014 A 
ATOM      8  C14 <0> d   1      18.522   1.799   9.622  0.00  0.00     0.016 A 
ATOM      9  C15 <0> d   1      18.596   1.629   8.289  0.00  0.00     0.042 A 
ATOM     10  C16 <0> d   1      18.912   0.506   7.590  0.00  0.00     0.118 A 
ATOM     11  C19 <0> d   1      19.238  -0.727   8.146  0.00  0.00     0.205 A 
ATOM     12  O20 <0> d   1      19.432  -1.635   7.351  0.00  0.00    -0.285 OA
ATOM     13  C21 <0> d   1      19.372  -1.056   9.465  0.00  0.00     0.068 A 
ATOM     14  C22 <0> d   1      19.192  -0.364  10.604  0.00  0.00    -0.020 A 
ATOM     15  C23 <0> d   1      19.513  -1.093  11.892  0.00  0.00     0.119 C 
ATOM     16  C29 <0> d   1      18.260  -1.596  12.580  0.00  0.00     0.034 C 
ATOM     17  C30 <0> d   1      17.175  -0.522  12.593  0.00  0.00     0.042 C 
ENDROOT
BRANCH  15  18
ATOM     18  N25 <0> d   1      20.381  -2.235  11.591  0.00  0.00    -0.353 N 
ATOM     19  C26 <0> d   1      19.873  -3.483  11.583  0.00  0.00     0.214 C 
ATOM     20  C27 <0> d   1      20.765  -4.658  11.273  0.00  0.00     0.117 C 
ATOM     21  O28 <0> d   1      18.698  -3.661  11.824  0.00  0.00    -0.274 OA
ATOM     22  H47 <0> d   1      21.320  -2.093  11.398  0.00  0.00     0.163 HD
ENDBRANCH  15  18
BRANCH   5  23
ATOM     23  O8  <0> d   1      19.794   3.465  11.474  0.00  0.00    -0.352 OA
ATOM     24  C9  <0> d   1      21.213   3.487  11.646  0.00  0.00     0.210 C 
ENDBRANCH   5  23
BRANCH  10  25
ATOM     25  O17 <0> d   1      18.909   0.594   6.237  0.00  0.00    -0.352 OA
ATOM     26  C18 <0> d   1      17.664   0.357   5.575  0.00  0.00     0.210 C 
ENDBRANCH  10  25
BRANCH   6  27
ATOM     27  O11 <0> d   1      19.398   4.477  14.007  0.00  0.00    -0.351 OA
ATOM     28  C12 <0> d   1      18.542   5.615  13.901  0.00  0.00     0.210 C 
ENDBRANCH   6  27
BRANCH   1  29
ATOM     29  O2  <0> d   1      17.943   3.039  15.841  0.00  0.00    -0.353 OA
ATOM     30  C1  <0> d   1      18.803   2.547  16.872  0.00  0.00     0.210 C 
ENDBRANCH   1  29
TORSDOF 5
ENDMDL
