MODEL 1
REMARK VINA RESULT:      -7.4      0.000      0.000
REMARK  10 active torsions:
REMARK  status: ('A' for Active; 'I' for Inactive)
REMARK    1  A    between atoms: O2_2  and  C3_3 
REMARK    2  A    between atoms: C5_5  and  C6_6 
REMARK       I    between atoms: C6_6  and  N8_8 
REMARK    3  A    between atoms: N8_8  and  C9_9 
REMARK    4  A    between atoms: C9_9  and  C10_10 
REMARK    5  A    between atoms: C13_13  and  O14_14 
REMARK    6  A    between atoms: O14_14  and  C15_15 
REMARK    7  A    between atoms: C15_15  and  C16_16 
REMARK    8  A    between atoms: C16_16  and  N17_17 
REMARK    9  A    between atoms: C23_23  and  O24_24 
REMARK   10  A    between atoms: C26_26  and  O27_27 
ROOT
ATOM      1  C6  <0> d   1      19.264  -1.704   5.863  0.00  0.00     0.252 C 
ATOM      2  O7  <0> d   1      19.799  -1.184   4.903  0.00  0.00    -0.268 OA
ATOM      3  N8  <0> d   1      18.877  -0.950   6.911  0.00  0.00    -0.353 N 
ATOM      4  H33 <0> d   1      18.450  -1.365   7.676  0.00  0.00     0.163 HD
ENDROOT
BRANCH   3   5
ATOM      5  C9  <0> d   1      19.102   0.498   6.893  0.00  0.00     0.161 C 
BRANCH   5   6
ATOM      6  C10 <0> d   1      18.627   1.095   8.192  0.00  0.00    -0.040 A 
ATOM      7  C21 <0> d   1      17.788   0.371   9.019  0.00  0.00     0.011 A 
ATOM      8  C20 <0> d   1      17.354   0.915  10.213  0.00  0.00     0.037 A 
ATOM      9  C13 <0> d   1      17.753   2.194  10.577  0.00  0.00     0.068 A 
ATOM     10  C12 <0> d   1      18.590   2.920   9.743  0.00  0.00     0.037 A 
ATOM     11  C11 <0> d   1      19.025   2.370   8.553  0.00  0.00     0.011 A 
BRANCH   9  12
ATOM     12  O14 <0> d   1      17.323   2.732  11.747  0.00  0.00    -0.349 OA
BRANCH  12  13
ATOM     13  C15 <0> d   1      18.270   2.801  12.816  0.00  0.00     0.206 C 
BRANCH  13  14
ATOM     14  C16 <0> d   1      17.997   1.670  13.812  0.00  0.00     0.297 C 
BRANCH  14  15
ATOM     15  N17 <0> d   1      19.273   1.135  14.305  0.00  0.00     0.082 N 
ATOM     16  C18 <0> d   1      19.060   0.244  15.454  0.00  0.00     0.309 C 
ATOM     17  C19 <0> d   1      20.005   0.446  13.235  0.00  0.00     0.309 C 
ENDBRANCH  14  15
ENDBRANCH  13  14
ENDBRANCH  12  13
ENDBRANCH   9  12
ENDBRANCH   5   6
ENDBRANCH   3   5
BRANCH   1  18
ATOM     18  C5  <0> d   1      19.037  -3.163   5.880  0.00  0.00     0.037 A 
ATOM     19  C4  <0> d   1      19.742  -3.971   6.776  0.00  0.00     0.057 A 
ATOM     20  C3  <0> d   1      19.529  -5.336   6.789  0.00  0.00     0.105 A 
ATOM     21  C26 <0> d   1      18.617  -5.907   5.906  0.00  0.00     0.135 A 
ATOM     22  C23 <0> d   1      17.909  -5.105   5.017  0.00  0.00     0.105 A 
ATOM     23  C22 <0> d   1      18.118  -3.739   4.999  0.00  0.00     0.057 A 
BRANCH  20  24
ATOM     24  O2  <0> d   1      20.215  -6.123   7.661  0.00  0.00    -0.353 OA
ATOM     25  C1  <0> d   1      20.100  -5.805   9.050  0.00  0.00     0.210 C 
ENDBRANCH  20  24
BRANCH  21  26
ATOM     26  O27 <0> d   1      18.409  -7.251   5.921  0.00  0.00    -0.351 OA
ATOM     27  C28 <0> d   1      17.415  -7.743   6.822  0.00  0.00     0.210 C 
ENDBRANCH  21  26
BRANCH  22  28
ATOM     28  O24 <0> d   1      17.014  -5.665   4.159  0.00  0.00    -0.353 OA
ATOM     29  C25 <0> d   1      15.632  -5.378   4.384  0.00  0.00     0.210 C 
ENDBRANCH  22  28
ENDBRANCH   1  18
TORSDOF 10
ENDMDL
MODEL 2
REMARK VINA RESULT:      -7.3      0.234      2.431
REMARK  10 active torsions:
REMARK  status: ('A' for Active; 'I' for Inactive)
REMARK    1  A    between atoms: O2_2  and  C3_3 
REMARK    2  A    between atoms: C5_5  and  C6_6 
REMARK       I    between atoms: C6_6  and  N8_8 
REMARK    3  A    between atoms: N8_8  and  C9_9 
REMARK    4  A    between atoms: C9_9  and  C10_10 
REMARK    5  A    between atoms: C13_13  and  O14_14 
REMARK    6  A    between atoms: O14_14  and  C15_15 
REMARK    7  A    between atoms: C15_15  and  C16_16 
REMARK    8  A    between atoms: C16_16  and  N17_17 
REMARK    9  A    between atoms: C23_23  and  O24_24 
REMARK   10  A    between atoms: C26_26  and  O27_27 
ROOT
ATOM      1  C6  <0> d   1      19.199  -1.707   5.831  0.00  0.00     0.252 C 
ATOM      2  O7  <0> d   1      19.826  -1.189   4.927  0.00  0.00    -0.268 OA
ATOM      3  N8  <0> d   1      18.698  -0.949   6.826  0.00  0.00    -0.353 N 
ATOM      4  H33 <0> d   1      18.198  -1.363   7.546  0.00  0.00     0.163 HD
ENDROOT
BRANCH   3   5
ATOM      5  C9  <0> d   1      18.911   0.500   6.820  0.00  0.00     0.161 C 
BRANCH   5   6
ATOM      6  C10 <0> d   1      18.520   1.071   8.159  0.00  0.00    -0.040 A 
ATOM      7  C21 <0> d   1      17.711   0.341   9.010  0.00  0.00     0.011 A 
ATOM      8  C20 <0> d   1      17.355   0.860  10.241  0.00  0.00     0.037 A 
ATOM      9  C13 <0> d   1      17.801   2.119  10.617  0.00  0.00     0.068 A 
ATOM     10  C12 <0> d   1      18.608   2.851   9.758  0.00  0.00     0.037 A 
ATOM     11  C11 <0> d   1      18.966   2.326   8.531  0.00  0.00     0.011 A 
BRANCH   9  12
ATOM     12  O14 <0> d   1      17.449   2.633  11.823  0.00  0.00    -0.349 OA
BRANCH  12  13
ATOM     13  C15 <0> d   1      18.456   2.660  12.837  0.00  0.00     0.206 C 
BRANCH  13  14
ATOM     14  C16 <0> d   1      17.993   1.831  14.037  0.00  0.00     0.297 C 
BRANCH  14  15
ATOM     15  N17 <0> d   1      18.619   0.503  13.986  0.00  0.00     0.082 N 
ATOM     16  C18 <0> d   1      19.928   0.563  13.320  0.00  0.00     0.309 C 
ATOM     17  C19 <0> d   1      18.740  -0.075  15.330  0.00  0.00     0.309 C 
ENDBRANCH  14  15
ENDBRANCH  13  14
ENDBRANCH  12  13
ENDBRANCH   9  12
ENDBRANCH   5   6
ENDBRANCH   3   5
BRANCH   1  18
ATOM     18  C5  <0> d   1      18.985  -3.168   5.836  0.00  0.00     0.037 A 
ATOM     19  C4  <0> d   1      18.079  -3.747   4.944  0.00  0.00     0.057 A 
ATOM     20  C3  <0> d   1      17.881  -5.115   4.952  0.00  0.00     0.105 A 
ATOM     21  C26 <0> d   1      18.579  -5.915   5.853  0.00  0.00     0.135 A 
ATOM     22  C23 <0> d   1      19.486  -5.342   6.739  0.00  0.00     0.105 A 
ATOM     23  C22 <0> d   1      19.689  -3.974   6.735  0.00  0.00     0.057 A 
BRANCH  20  24
ATOM     24  O2  <0> d   1      16.999  -5.679   4.085  0.00  0.00    -0.353 OA
ATOM     25  C1  <0> d   1      15.609  -5.451   4.332  0.00  0.00     0.210 C 
ENDBRANCH  20  24
BRANCH  21  26
ATOM     26  O27 <0> d   1      18.382  -7.260   5.859  0.00  0.00    -0.351 OA
ATOM     27  C28 <0> d   1      17.425  -7.771   6.789  0.00  0.00     0.210 C 
ENDBRANCH  21  26
BRANCH  22  28
ATOM     28  O24 <0> d   1      20.172  -6.127   7.613  0.00  0.00    -0.353 OA
ATOM     29  C25 <0> d   1      20.075  -5.792   8.999  0.00  0.00     0.210 C 
ENDBRANCH  22  28
ENDBRANCH   1  18
TORSDOF 10
ENDMDL
MODEL 3
REMARK VINA RESULT:      -7.1      1.497      3.053
REMARK  10 active torsions:
REMARK  status: ('A' for Active; 'I' for Inactive)
REMARK    1  A    between atoms: O2_2  and  C3_3 
REMARK    2  A    between atoms: C5_5  and  C6_6 
REMARK       I    between atoms: C6_6  and  N8_8 
REMARK    3  A    between atoms: N8_8  and  C9_9 
REMARK    4  A    between atoms: C9_9  and  C10_10 
REMARK    5  A    between atoms: C13_13  and  O14_14 
REMARK    6  A    between atoms: O14_14  and  C15_15 
REMARK    7  A    between atoms: C15_15  and  C16_16 
REMARK    8  A    between atoms: C16_16  and  N17_17 
REMARK    9  A    between atoms: C23_23  and  O24_24 
REMARK   10  A    between atoms: C26_26  and  O27_27 
ROOT
ATOM      1  C6  <0> d   1      19.240  -1.838   5.784  0.00  0.00     0.252 C 
ATOM      2  O7  <0> d   1      19.872  -1.330   4.878  0.00  0.00    -0.268 OA
ATOM      3  N8  <0> d   1      18.762  -1.073   6.786  0.00  0.00    -0.353 N 
ATOM      4  H33 <0> d   1      18.258  -1.479   7.508  0.00  0.00     0.163 HD
ENDROOT
BRANCH   3   5
ATOM      5  C9  <0> d   1      19.005   0.372   6.783  0.00  0.00     0.161 C 
BRANCH   5   6
ATOM      6  C10 <0> d   1      18.563   0.957   8.099  0.00  0.00    -0.040 A 
ATOM      7  C21 <0> d   1      17.692   0.254   8.910  0.00  0.00     0.011 A 
ATOM      8  C20 <0> d   1      17.289   0.787  10.120  0.00  0.00     0.037 A 
ATOM      9  C13 <0> d   1      17.752   2.033  10.516  0.00  0.00     0.068 A 
ATOM     10  C12 <0> d   1      18.622   2.739   9.698  0.00  0.00     0.037 A 
ATOM     11  C11 <0> d   1      19.026   2.200   8.492  0.00  0.00     0.011 A 
BRANCH   9  12
ATOM     12  O14 <0> d   1      17.354   2.562  11.702  0.00  0.00    -0.349 OA
BRANCH  12  13
ATOM     13  C15 <0> d   1      17.946   3.802  12.091  0.00  0.00     0.206 C 
BRANCH  13  14
ATOM     14  C16 <0> d   1      17.855   3.957  13.612  0.00  0.00     0.297 C 
BRANCH  14  15
ATOM     15  N17 <0> d   1      17.143   5.200  13.936  0.00  0.00     0.082 N 
ATOM     16  C18 <0> d   1      18.042   6.168  14.579  0.00  0.00     0.309 C 
ATOM     17  C19 <0> d   1      16.518   5.777  12.739  0.00  0.00     0.309 C 
ENDBRANCH  14  15
ENDBRANCH  13  14
ENDBRANCH  12  13
ENDBRANCH   9  12
ENDBRANCH   5   6
ENDBRANCH   3   5
BRANCH   1  18
ATOM     18  C5  <0> d   1      18.996  -3.294   5.787  0.00  0.00     0.037 A 
ATOM     19  C4  <0> d   1      18.157  -3.866   4.826  0.00  0.00     0.057 A 
ATOM     20  C3  <0> d   1      17.930  -5.229   4.830  0.00  0.00     0.105 A 
ATOM     21  C26 <0> d   1      18.531  -6.032   5.796  0.00  0.00     0.135 A 
ATOM     22  C23 <0> d   1      19.371  -5.467   6.751  0.00  0.00     0.105 A 
ATOM     23  C22 <0> d   1      19.602  -4.104   6.751  0.00  0.00     0.057 A 
BRANCH  20  24
ATOM     24  O2  <0> d   1      17.115  -5.785   3.896  0.00  0.00    -0.353 OA
ATOM     25  C1  <0> d   1      15.710  -5.566   4.047  0.00  0.00     0.210 C 
ENDBRANCH  20  24
BRANCH  21  26
ATOM     26  O27 <0> d   1      18.306  -7.373   5.799  0.00  0.00    -0.351 OA
ATOM     27  C28 <0> d   1      17.270  -7.854   6.656  0.00  0.00     0.210 C 
ENDBRANCH  21  26
BRANCH  22  28
ATOM     28  O24 <0> d   1      19.962  -6.255   7.689  0.00  0.00    -0.353 OA
ATOM     29  C25 <0> d   1      20.109  -5.705   9.000  0.00  0.00     0.210 C 
ENDBRANCH  22  28
ENDBRANCH   1  18
TORSDOF 10
ENDMDL
MODEL 4
REMARK VINA RESULT:      -7.0      1.513      2.210
REMARK  10 active torsions:
REMARK  status: ('A' for Active; 'I' for Inactive)
REMARK    1  A    between atoms: O2_2  and  C3_3 
REMARK    2  A    between atoms: C5_5  and  C6_6 
REMARK       I    between atoms: C6_6  and  N8_8 
REMARK    3  A    between atoms: N8_8  and  C9_9 
REMARK    4  A    between atoms: C9_9  and  C10_10 
REMARK    5  A    between atoms: C13_13  and  O14_14 
REMARK    6  A    between atoms: O14_14  and  C15_15 
REMARK    7  A    between atoms: C15_15  and  C16_16 
REMARK    8  A    between atoms: C16_16  and  N17_17 
REMARK    9  A    between atoms: C23_23  and  O24_24 
REMARK   10  A    between atoms: C26_26  and  O27_27 
ROOT
ATOM      1  C6  <0> d   1      18.500  -1.810   4.802  0.00  0.00     0.252 C 
ATOM      2  O7  <0> d   1      19.632  -1.603   4.408  0.00  0.00    -0.268 OA
ATOM      3  N8  <0> d   1      17.836  -0.852   5.479  0.00  0.00    -0.353 N 
ATOM      4  H33 <0> d   1      16.933  -1.018   5.792  0.00  0.00     0.163 HD
ENDROOT
BRANCH   3   5
ATOM      5  C9  <0> d   1      18.478   0.439   5.740  0.00  0.00     0.161 C 
BRANCH   5   6
ATOM      6  C10 <0> d   1      18.441   0.727   7.219  0.00  0.00    -0.040 A 
ATOM      7  C21 <0> d   1      17.609  -0.006   8.044  0.00  0.00     0.011 A 
ATOM      8  C20 <0> d   1      17.576   0.254   9.402  0.00  0.00     0.037 A 
ATOM      9  C13 <0> d   1      18.372   1.258   9.933  0.00  0.00     0.068 A 
ATOM     10  C12 <0> d   1      19.202   1.995   9.102  0.00  0.00     0.037 A 
ATOM     11  C11 <0> d   1      19.235   1.729   7.747  0.00  0.00     0.011 A 
BRANCH   9  12
ATOM     12  O14 <0> d   1      18.339   1.518  11.266  0.00  0.00    -0.349 OA
BRANCH  12  13
ATOM     13  C15 <0> d   1      19.583   1.823  11.899  0.00  0.00     0.206 C 
BRANCH  13  14
ATOM     14  C16 <0> d   1      20.120   0.571  12.598  0.00  0.00     0.297 C 
BRANCH  14  15
ATOM     15  N17 <0> d   1      19.134   0.095  13.576  0.00  0.00     0.082 N 
ATOM     16  C18 <0> d   1      19.255  -1.355  13.782  0.00  0.00     0.309 C 
ATOM     17  C19 <0> d   1      19.259   0.819  14.847  0.00  0.00     0.309 C 
ENDBRANCH  14  15
ENDBRANCH  13  14
ENDBRANCH  12  13
ENDBRANCH   9  12
ENDBRANCH   5   6
ENDBRANCH   3   5
BRANCH   1  18
ATOM     18  C5  <0> d   1      17.854  -3.110   4.538  0.00  0.00     0.037 A 
ATOM     19  C4  <0> d   1      18.373  -4.278   5.104  0.00  0.00     0.057 A 
ATOM     20  C3  <0> d   1      17.767  -5.495   4.855  0.00  0.00     0.105 A 
ATOM     21  C26 <0> d   1      16.643  -5.558   4.035  0.00  0.00     0.135 A 
ATOM     22  C23 <0> d   1      16.121  -4.397   3.474  0.00  0.00     0.105 A 
ATOM     23  C22 <0> d   1      16.723  -3.177   3.720  0.00  0.00     0.057 A 
BRANCH  20  24
ATOM     24  O2  <0> d   1      18.271  -6.631   5.405  0.00  0.00    -0.353 OA
ATOM     25  C1  <0> d   1      18.065  -6.820   6.808  0.00  0.00     0.210 C 
ENDBRANCH  20  24
BRANCH  21  26
ATOM     26  O27 <0> d   1      16.048  -6.756   3.791  0.00  0.00    -0.351 OA
ATOM     27  C28 <0> d   1      16.564  -7.526   2.703  0.00  0.00     0.210 C 
ENDBRANCH  21  26
BRANCH  22  28
ATOM     28  O24 <0> d   1      15.019  -4.461   2.679  0.00  0.00    -0.353 OA
ATOM     29  C25 <0> d   1      15.234  -4.408   1.267  0.00  0.00     0.210 C 
ENDBRANCH  22  28
ENDBRANCH   1  18
TORSDOF 10
ENDMDL
MODEL 5
REMARK VINA RESULT:      -6.9      2.735      9.626
REMARK  10 active torsions:
REMARK  status: ('A' for Active; 'I' for Inactive)
REMARK    1  A    between atoms: O2_2  and  C3_3 
REMARK    2  A    between atoms: C5_5  and  C6_6 
REMARK       I    between atoms: C6_6  and  N8_8 
REMARK    3  A    between atoms: N8_8  and  C9_9 
REMARK    4  A    between atoms: C9_9  and  C10_10 
REMARK    5  A    between atoms: C13_13  and  O14_14 
REMARK    6  A    between atoms: O14_14  and  C15_15 
REMARK    7  A    between atoms: C15_15  and  C16_16 
REMARK    8  A    between atoms: C16_16  and  N17_17 
REMARK    9  A    between atoms: C23_23  and  O24_24 
REMARK   10  A    between atoms: C26_26  and  O27_27 
ROOT
ATOM      1  C6  <0> d   1      18.155   3.057  12.325  0.00  0.00     0.252 C 
ATOM      2  O7  <0> d   1      17.106   3.628  12.096  0.00  0.00    -0.268 OA
ATOM      3  N8  <0> d   1      18.979   2.727  11.310  0.00  0.00    -0.353 N 
ATOM      4  H33 <0> d   1      19.815   2.272  11.493  0.00  0.00     0.163 HD
ENDROOT
BRANCH   3   5
ATOM      5  C9  <0> d   1      18.609   3.056   9.931  0.00  0.00     0.161 C 
BRANCH   5   6
ATOM      6  C10 <0> d   1      18.497   1.787   9.126  0.00  0.00    -0.040 A 
ATOM      7  C21 <0> d   1      17.729   0.738   9.595  0.00  0.00     0.011 A 
ATOM      8  C20 <0> d   1      17.620  -0.426   8.856  0.00  0.00     0.037 A 
ATOM      9  C13 <0> d   1      18.291  -0.543   7.647  0.00  0.00     0.068 A 
ATOM     10  C12 <0> d   1      19.065   0.510   7.182  0.00  0.00     0.037 A 
ATOM     11  C11 <0> d   1      19.167   1.672   7.921  0.00  0.00     0.011 A 
BRANCH   9  12
ATOM     12  O14 <0> d   1      18.190  -1.687   6.922  0.00  0.00    -0.349 OA
BRANCH  12  13
ATOM     13  C15 <0> d   1      19.155  -2.708   7.183  0.00  0.00     0.206 C 
BRANCH  13  14
ATOM     14  C16 <0> d   1      18.479  -3.874   7.909  0.00  0.00     0.297 C 
BRANCH  14  15
ATOM     15  N17 <0> d   1      19.492  -4.870   8.285  0.00  0.00     0.082 N 
ATOM     16  C18 <0> d   1      18.861  -6.086   8.815  0.00  0.00     0.309 C 
ATOM     17  C19 <0> d   1      20.368  -5.184   7.149  0.00  0.00     0.309 C 
ENDBRANCH  14  15
ENDBRANCH  13  14
ENDBRANCH  12  13
ENDBRANCH   9  12
ENDBRANCH   5   6
ENDBRANCH   3   5
BRANCH   1  18
ATOM     18  C5  <0> d   1      18.526   2.727  13.714  0.00  0.00     0.037 A 
ATOM     19  C4  <0> d   1      18.669   1.392  14.103  0.00  0.00     0.057 A 
ATOM     20  C3  <0> d   1      19.016   1.085  15.405  0.00  0.00     0.105 A 
ATOM     21  C26 <0> d   1      19.217   2.104  16.331  0.00  0.00     0.135 A 
ATOM     22  C23 <0> d   1      19.080   3.435  15.946  0.00  0.00     0.105 A 
ATOM     23  C22 <0> d   1      18.733   3.748  14.645  0.00  0.00     0.057 A 
BRANCH  20  24
ATOM     24  O2  <0> d   1      19.155  -0.214  15.783  0.00  0.00    -0.353 OA
ATOM     25  C1  <0> d   1      19.303  -1.181  14.740  0.00  0.00     0.210 C 
ENDBRANCH  20  24
BRANCH  21  26
ATOM     26  O27 <0> d   1      19.558   1.800  17.611  0.00  0.00    -0.351 OA
ATOM     27  C28 <0> d   1      18.488   1.540  18.523  0.00  0.00     0.210 C 
ENDBRANCH  21  26
BRANCH  22  28
ATOM     28  O24 <0> d   1      19.283   4.429  16.852  0.00  0.00    -0.353 OA
ATOM     29  C25 <0> d   1      18.126   5.115  17.333  0.00  0.00     0.210 C 
ENDBRANCH  22  28
ENDBRANCH   1  18
TORSDOF 10
ENDMDL
MODEL 6
REMARK VINA RESULT:      -6.9      1.868      3.393
REMARK  10 active torsions:
REMARK  status: ('A' for Active; 'I' for Inactive)
REMARK    1  A    between atoms: O2_2  and  C3_3 
REMARK    2  A    between atoms: C5_5  and  C6_6 
REMARK       I    between atoms: C6_6  and  N8_8 
REMARK    3  A    between atoms: N8_8  and  C9_9 
REMARK    4  A    between atoms: C9_9  and  C10_10 
REMARK    5  A    between atoms: C13_13  and  O14_14 
REMARK    6  A    between atoms: O14_14  and  C15_15 
REMARK    7  A    between atoms: C15_15  and  C16_16 
REMARK    8  A    between atoms: C16_16  and  N17_17 
REMARK    9  A    between atoms: C23_23  and  O24_24 
REMARK   10  A    between atoms: C26_26  and  O27_27 
ROOT
ATOM      1  C6  <0> d   1      18.592  -2.320   4.898  0.00  0.00     0.252 C 
ATOM      2  O7  <0> d   1      19.670  -1.875   4.554  0.00  0.00    -0.268 OA
ATOM      3  N8  <0> d   1      17.626  -1.487   5.333  0.00  0.00    -0.353 N 
ATOM      4  H33 <0> d   1      16.767  -1.842   5.607  0.00  0.00     0.163 HD
ENDROOT
BRANCH   3   5
ATOM      5  C9  <0> d   1      17.876  -0.044   5.391  0.00  0.00     0.161 C 
BRANCH   5   6
ATOM      6  C10 <0> d   1      18.120   0.366   6.820  0.00  0.00    -0.040 A 
ATOM      7  C21 <0> d   1      19.072   1.325   7.110  0.00  0.00     0.011 A 
ATOM      8  C20 <0> d   1      19.295   1.706   8.420  0.00  0.00     0.037 A 
ATOM      9  C13 <0> d   1      18.570   1.117   9.445  0.00  0.00     0.068 A 
ATOM     10  C12 <0> d   1      17.619   0.150   9.152  0.00  0.00     0.037 A 
ATOM     11  C11 <0> d   1      17.396  -0.224   7.841  0.00  0.00     0.011 A 
BRANCH   9  12
ATOM     12  O14 <0> d   1      18.790   1.485  10.734  0.00  0.00    -0.349 OA
BRANCH  12  13
ATOM     13  C15 <0> d   1      17.644   1.613  11.578  0.00  0.00     0.206 C 
BRANCH  13  14
ATOM     14  C16 <0> d   1      17.663   2.983  12.260  0.00  0.00     0.297 C 
BRANCH  14  15
ATOM     15  N17 <0> d   1      18.510   3.903  11.490  0.00  0.00     0.082 N 
ATOM     16  C18 <0> d   1      17.692   4.842  10.709  0.00  0.00     0.309 C 
ATOM     17  C19 <0> d   1      19.442   4.621  12.367  0.00  0.00     0.309 C 
ENDBRANCH  14  15
ENDBRANCH  13  14
ENDBRANCH  12  13
ENDBRANCH   9  12
ENDBRANCH   5   6
ENDBRANCH   3   5
BRANCH   1  18
ATOM     18  C5  <0> d   1      18.342  -3.773   4.839  0.00  0.00     0.037 A 
ATOM     19  C4  <0> d   1      17.715  -4.332   3.722  0.00  0.00     0.057 A 
ATOM     20  C3  <0> d   1      17.481  -5.693   3.670  0.00  0.00     0.105 A 
ATOM     21  C26 <0> d   1      17.864  -6.507   4.732  0.00  0.00     0.135 A 
ATOM     22  C23 <0> d   1      18.494  -5.955   5.844  0.00  0.00     0.105 A 
ATOM     23  C22 <0> d   1      18.730  -4.594   5.902  0.00  0.00     0.057 A 
BRANCH  20  24
ATOM     24  O2  <0> d   1      16.871  -6.236   2.583  0.00  0.00    -0.353 OA
ATOM     25  C1  <0> d   1      15.739  -5.538   2.057  0.00  0.00     0.210 C 
ENDBRANCH  20  24
BRANCH  21  26
ATOM     26  O27 <0> d   1      17.633  -7.845   4.679  0.00  0.00    -0.351 OA
ATOM     27  C28 <0> d   1      16.355  -8.301   5.130  0.00  0.00     0.210 C 
ENDBRANCH  21  26
BRANCH  22  28
ATOM     28  O24 <0> d   1      18.872  -6.754   6.878  0.00  0.00    -0.353 OA
ATOM     29  C25 <0> d   1      18.078  -6.700   8.064  0.00  0.00     0.210 C 
ENDBRANCH  22  28
ENDBRANCH   1  18
TORSDOF 10
ENDMDL
MODEL 7
REMARK VINA RESULT:      -6.9      2.699      9.790
REMARK  10 active torsions:
REMARK  status: ('A' for Active; 'I' for Inactive)
REMARK    1  A    between atoms: O2_2  and  C3_3 
REMARK    2  A    between atoms: C5_5  and  C6_6 
REMARK       I    between atoms: C6_6  and  N8_8 
REMARK    3  A    between atoms: N8_8  and  C9_9 
REMARK    4  A    between atoms: C9_9  and  C10_10 
REMARK    5  A    between atoms: C13_13  and  O14_14 
REMARK    6  A    between atoms: O14_14  and  C15_15 
REMARK    7  A    between atoms: C15_15  and  C16_16 
REMARK    8  A    between atoms: C16_16  and  N17_17 
REMARK    9  A    between atoms: C23_23  and  O24_24 
REMARK   10  A    between atoms: C26_26  and  O27_27 
ROOT
ATOM      1  C6  <0> d   1      18.154   3.051  12.270  0.00  0.00     0.252 C 
ATOM      2  O7  <0> d   1      17.069   3.544  12.028  0.00  0.00    -0.268 OA
ATOM      3  N8  <0> d   1      19.009   2.774  11.266  0.00  0.00    -0.353 N 
ATOM      4  H33 <0> d   1      19.873   2.381  11.460  0.00  0.00     0.163 HD
ENDROOT
BRANCH   3   5
ATOM      5  C9  <0> d   1      18.631   3.068   9.881  0.00  0.00     0.161 C 
BRANCH   5   6
ATOM      6  C10 <0> d   1      18.512   1.780   9.109  0.00  0.00    -0.040 A 
ATOM      7  C21 <0> d   1      19.143   1.648   7.886  0.00  0.00     0.011 A 
ATOM      8  C20 <0> d   1      19.039   0.465   7.177  0.00  0.00     0.037 A 
ATOM      9  C13 <0> d   1      18.293  -0.586   7.691  0.00  0.00     0.068 A 
ATOM     10  C12 <0> d   1      17.657  -0.449   8.916  0.00  0.00     0.037 A 
ATOM     11  C11 <0> d   1      17.768   0.733   9.622  0.00  0.00     0.011 A 
BRANCH   9  12
ATOM     12  O14 <0> d   1      18.186  -1.747   6.994  0.00  0.00    -0.349 OA
BRANCH  12  13
ATOM     13  C15 <0> d   1      19.265  -2.677   7.112  0.00  0.00     0.206 C 
BRANCH  13  14
ATOM     14  C16 <0> d   1      19.288  -3.590   5.884  0.00  0.00     0.297 C 
BRANCH  14  15
ATOM     15  N17 <0> d   1      19.302  -4.993   6.317  0.00  0.00     0.082 N 
ATOM     16  C18 <0> d   1      20.116  -5.162   7.529  0.00  0.00     0.309 C 
ATOM     17  C19 <0> d   1      17.938  -5.494   6.525  0.00  0.00     0.309 C 
ENDBRANCH  14  15
ENDBRANCH  13  14
ENDBRANCH  12  13
ENDBRANCH   9  12
ENDBRANCH   5   6
ENDBRANCH   3   5
BRANCH   1  18
ATOM     18  C5  <0> d   1      18.534   2.754  13.666  0.00  0.00     0.037 A 
ATOM     19  C4  <0> d   1      18.976   3.781  14.505  0.00  0.00     0.057 A 
ATOM     20  C3  <0> d   1      19.331   3.501  15.811  0.00  0.00     0.105 A 
ATOM     21  C26 <0> d   1      19.256   2.196  16.288  0.00  0.00     0.135 A 
ATOM     22  C23 <0> d   1      18.811   1.172  15.457  0.00  0.00     0.105 A 
ATOM     23  C22 <0> d   1      18.454   1.446  14.150  0.00  0.00     0.057 A 
BRANCH  20  24
ATOM     24  O2  <0> d   1      19.761   4.499  16.627  0.00  0.00    -0.353 OA
ATOM     25  C1  <0> d   1      19.684   5.833  16.117  0.00  0.00     0.210 C 
ENDBRANCH  20  24
BRANCH  21  26
ATOM     26  O27 <0> d   1      19.606   1.922  17.573  0.00  0.00    -0.351 OA
ATOM     27  C28 <0> d   1      18.563   1.950  18.549  0.00  0.00     0.210 C 
ENDBRANCH  21  26
BRANCH  22  28
ATOM     28  O24 <0> d   1      18.732  -0.102  15.929  0.00  0.00    -0.353 OA
ATOM     29  C25 <0> d   1      19.088  -1.151  15.027  0.00  0.00     0.210 C 
ENDBRANCH  22  28
ENDBRANCH   1  18
TORSDOF 10
ENDMDL
MODEL 8
REMARK VINA RESULT:      -6.7      2.684      3.883
REMARK  10 active torsions:
REMARK  status: ('A' for Active; 'I' for Inactive)
REMARK    1  A    between atoms: O2_2  and  C3_3 
REMARK    2  A    between atoms: C5_5  and  C6_6 
REMARK       I    between atoms: C6_6  and  N8_8 
REMARK    3  A    between atoms: N8_8  and  C9_9 
REMARK    4  A    between atoms: C9_9  and  C10_10 
REMARK    5  A    between atoms: C13_13  and  O14_14 
REMARK    6  A    between atoms: O14_14  and  C15_15 
REMARK    7  A    between atoms: C15_15  and  C16_16 
REMARK    8  A    between atoms: C16_16  and  N17_17 
REMARK    9  A    between atoms: C23_23  and  O24_24 
REMARK   10  A    between atoms: C26_26  and  O27_27 
ROOT
ATOM      1  C6  <0> d   1      18.729   1.007   8.206  0.00  0.00     0.252 C 
ATOM      2  O7  <0> d   1      19.018   1.569   7.166  0.00  0.00    -0.268 OA
ATOM      3  N8  <0> d   1      18.436   1.730   9.305  0.00  0.00    -0.353 N 
ATOM      4  H33 <0> d   1      18.206   1.281  10.132  0.00  0.00     0.163 HD
ENDROOT
BRANCH   3   5
ATOM      5  C9  <0> d   1      18.463   3.193   9.247  0.00  0.00     0.161 C 
BRANCH   5   6
ATOM      6  C10 <0> d   1      18.370   3.752  10.643  0.00  0.00    -0.040 A 
ATOM      7  C21 <0> d   1      19.421   3.584  11.525  0.00  0.00     0.011 A 
ATOM      8  C20 <0> d   1      19.340   4.100  12.805  0.00  0.00     0.037 A 
ATOM      9  C13 <0> d   1      18.198   4.778  13.207  0.00  0.00     0.068 A 
ATOM     10  C12 <0> d   1      17.143   4.941  12.321  0.00  0.00     0.037 A 
ATOM     11  C11 <0> d   1      17.231   4.428  11.042  0.00  0.00     0.011 A 
BRANCH   9  12
ATOM     12  O14 <0> d   1      18.114   5.282  14.465  0.00  0.00    -0.349 OA
BRANCH  12  13
ATOM     13  C15 <0> d   1      17.919   4.345  15.527  0.00  0.00     0.206 C 
BRANCH  13  14
ATOM     14  C16 <0> d   1      18.951   4.600  16.628  0.00  0.00     0.297 C 
BRANCH  14  15
ATOM     15  N17 <0> d   1      19.487   3.318  17.104  0.00  0.00     0.082 N 
ATOM     16  C18 <0> d   1      18.985   3.005  18.449  0.00  0.00     0.309 C 
ATOM     17  C19 <0> d   1      19.177   2.235  16.162  0.00  0.00     0.309 C 
ENDBRANCH  14  15
ENDBRANCH  13  14
ENDBRANCH  12  13
ENDBRANCH   9  12
ENDBRANCH   5   6
ENDBRANCH   3   5
BRANCH   1  18
ATOM     18  C5  <0> d   1      18.702  -0.468   8.263  0.00  0.00     0.037 A 
ATOM     19  C4  <0> d   1      18.140  -1.116   9.366  0.00  0.00     0.057 A 
ATOM     20  C3  <0> d   1      18.116  -2.497   9.417  0.00  0.00     0.105 A 
ATOM     21  C26 <0> d   1      18.657  -3.242   8.374  0.00  0.00     0.135 A 
ATOM     22  C23 <0> d   1      19.213  -2.600   7.271  0.00  0.00     0.105 A 
ATOM     23  C22 <0> d   1      19.240  -1.219   7.214  0.00  0.00     0.057 A 
BRANCH  20  24
ATOM     24  O2  <0> d   1      17.569  -3.128  10.490  0.00  0.00    -0.353 OA
ATOM     25  C1  <0> d   1      18.243  -2.980  11.743  0.00  0.00     0.210 C 
ENDBRANCH  20  24
BRANCH  21  26
ATOM     26  O27 <0> d   1      18.633  -4.601   8.426  0.00  0.00    -0.351 OA
ATOM     27  C28 <0> d   1      19.734  -5.244   9.070  0.00  0.00     0.210 C 
ENDBRANCH  21  26
BRANCH  22  28
ATOM     28  O24 <0> d   1      19.735  -3.332   6.250  0.00  0.00    -0.353 OA
ATOM     29  C25 <0> d   1      19.045  -3.286   4.999  0.00  0.00     0.210 C 
ENDBRANCH  22  28
ENDBRANCH   1  18
TORSDOF 10
ENDMDL
MODEL 9
REMARK VINA RESULT:      -6.6      2.586      9.666
REMARK  10 active torsions:
REMARK  status: ('A' for Active; 'I' for Inactive)
REMARK    1  A    between atoms: O2_2  and  C3_3 
REMARK    2  A    between atoms: C5_5  and  C6_6 
REMARK       I    between atoms: C6_6  and  N8_8 
REMARK    3  A    between atoms: N8_8  and  C9_9 
REMARK    4  A    between atoms: C9_9  and  C10_10 
REMARK    5  A    between atoms: C13_13  and  O14_14 
REMARK    6  A    between atoms: O14_14  and  C15_15 
REMARK    7  A    between atoms: C15_15  and  C16_16 
REMARK    8  A    between atoms: C16_16  and  N17_17 
REMARK    9  A    between atoms: C23_23  and  O24_24 
REMARK   10  A    between atoms: C26_26  and  O27_27 
ROOT
ATOM      1  C6  <0> d   1      18.360   2.534  11.313  0.00  0.00     0.252 C 
ATOM      2  O7  <0> d   1      17.234   2.772  10.920  0.00  0.00    -0.268 OA
ATOM      3  N8  <0> d   1      19.371   2.414  10.430  0.00  0.00    -0.353 N 
ATOM      4  H33 <0> d   1      20.269   2.225  10.744  0.00  0.00     0.163 HD
ENDROOT
BRANCH   3   5
ATOM      5  C9  <0> d   1      19.113   2.569   8.996  0.00  0.00     0.161 C 
BRANCH   5   6
ATOM      6  C10 <0> d   1      19.163   1.219   8.328  0.00  0.00    -0.040 A 
ATOM      7  C21 <0> d   1      19.490   0.096   9.066  0.00  0.00     0.011 A 
ATOM      8  C20 <0> d   1      19.532  -1.144   8.456  0.00  0.00     0.037 A 
ATOM      9  C13 <0> d   1      19.256  -1.259   7.101  0.00  0.00     0.068 A 
ATOM     10  C12 <0> d   1      18.934  -0.130   6.363  0.00  0.00     0.037 A 
ATOM     11  C11 <0> d   1      18.888   1.106   6.978  0.00  0.00     0.011 A 
BRANCH   9  12
ATOM     12  O14 <0> d   1      19.302  -2.476   6.500  0.00  0.00    -0.349 OA
BRANCH  12  13
ATOM     13  C15 <0> d   1      19.113  -2.507   5.083  0.00  0.00     0.206 C 
BRANCH  13  14
ATOM     14  C16 <0> d   1      18.441  -3.824   4.687  0.00  0.00     0.297 C 
BRANCH  14  15
ATOM     15  N17 <0> d   1      17.103  -3.549   4.148  0.00  0.00     0.082 N 
ATOM     16  C18 <0> d   1      16.887  -2.104   3.987  0.00  0.00     0.309 C 
ATOM     17  C19 <0> d   1      16.890  -4.257   2.880  0.00  0.00     0.309 C 
ENDBRANCH  14  15
ENDBRANCH  13  14
ENDBRANCH  12  13
ENDBRANCH   9  12
ENDBRANCH   5   6
ENDBRANCH   3   5
BRANCH   1  18
ATOM     18  C5  <0> d   1      18.619   2.378  12.758  0.00  0.00     0.037 A 
ATOM     19  C4  <0> d   1      18.837   1.108  13.297  0.00  0.00     0.057 A 
ATOM     20  C3  <0> d   1      19.079   0.964  14.650  0.00  0.00     0.105 A 
ATOM     21  C26 <0> d   1      19.099   2.084  15.477  0.00  0.00     0.135 A 
ATOM     22  C23 <0> d   1      18.888   3.352  14.942  0.00  0.00     0.105 A 
ATOM     23  C22 <0> d   1      18.646   3.501  13.589  0.00  0.00     0.057 A 
BRANCH  20  24
ATOM     24  O2  <0> d   1      19.290  -0.272  15.176  0.00  0.00    -0.353 OA
ATOM     25  C1  <0> d   1      19.410  -1.357  14.253  0.00  0.00     0.210 C 
ENDBRANCH  20  24
BRANCH  21  26
ATOM     26  O27 <0> d   1      19.337   1.941  16.808  0.00  0.00    -0.351 OA
ATOM     27  C28 <0> d   1      18.219   1.609  17.634  0.00  0.00     0.210 C 
ENDBRANCH  21  26
BRANCH  22  28
ATOM     28  O24 <0> d   1      18.915   4.445  15.751  0.00  0.00    -0.353 OA
ATOM     29  C25 <0> d   1      17.684   5.144  15.939  0.00  0.00     0.210 C 
ENDBRANCH  22  28
ENDBRANCH   1  18
TORSDOF 10
ENDMDL
