MODEL 1
REMARK VINA RESULT:      -5.9      0.000      0.000
REMARK  4 active torsions:
REMARK  status: ('A' for Active; 'I' for Inactive)
REMARK    1  A    between atoms: C2_2  and  C3_3 
REMARK    2  A    between atoms: C3_3  and  C4_4 
REMARK    3  A    between atoms: C4_4  and  C5_5 
REMARK    4  A    between atoms: C5_5  and  C6_6 
ROOT
ATOM      1  C4  ZIN A   1      18.405  -0.047  12.501  0.00  0.00     0.127 A 
ATOM      2  C9  ZIN A   1      17.196   0.707  11.979  0.00  0.00     0.266 A 
ATOM      3  O10 ZIN A   1      16.165   0.130  11.709  0.00  0.00    -0.270 OA
ATOM      4  N11 ZIN A   1      17.313   2.043  11.826  0.00  0.00    -0.157 NA
ATOM      5  C12 ZIN A   1      18.444   2.694  12.120  0.00  0.00     0.351 A 
ATOM      6  O13 ZIN A   1      18.461   3.897  11.954  0.00  0.00    -0.244 OA
ATOM      7  N14 ZIN A   1      19.558   2.117  12.585  0.00  0.00    -0.276 N 
ATOM      8  C15 ZIN A   1      19.636   0.787  12.802  0.00  0.00     0.244 A 
ATOM      9  O16 ZIN A   1      20.653   0.278  13.224  0.00  0.00    -0.272 OA
ATOM     10  H31 ZIN A   1      20.332   2.671  12.770  0.00  0.00     0.173 HD
ENDROOT
BRANCH   1  11
ATOM     11  C3  ZIN A   1      17.995  -0.773  13.784  0.00  0.00     0.055 C 
BRANCH  11  12
ATOM     12  C2  ZIN A   1      17.663   0.240  14.850  0.00  0.00    -0.035 C 
ATOM     13  C1  ZIN A   1      17.473  -0.150  16.086  0.00  0.00     0.007 C 
ENDBRANCH  11  12
ENDBRANCH   1  11
BRANCH   1  14
ATOM     14  C5  ZIN A   1      18.788  -1.102  11.462  0.00  0.00     0.033 C 
BRANCH  14  15
ATOM     15  C6  ZIN A   1      18.583  -2.498  12.053  0.00  0.00    -0.021 C 
ATOM     16  C7  ZIN A   1      17.427  -3.193  11.331  0.00  0.00     0.009 C 
ATOM     17  C8  ZIN A   1      19.861  -3.319  11.876  0.00  0.00     0.009 C 
ENDBRANCH  14  15
ENDBRANCH   1  14
TORSDOF 4
ENDMDL
MODEL 2
REMARK VINA RESULT:      -5.8      2.604      4.914
REMARK  4 active torsions:
REMARK  status: ('A' for Active; 'I' for Inactive)
REMARK    1  A    between atoms: C2_2  and  C3_3 
REMARK    2  A    between atoms: C3_3  and  C4_4 
REMARK    3  A    between atoms: C4_4  and  C5_5 
REMARK    4  A    between atoms: C5_5  and  C6_6 
ROOT
ATOM      1  C4  ZIN A   1      18.305   0.196  11.079  0.00  0.00     0.127 A 
ATOM      2  C9  ZIN A   1      17.001  -0.473  11.471  0.00  0.00     0.266 A 
ATOM      3  O10 ZIN A   1      15.957   0.142  11.481  0.00  0.00    -0.270 OA
ATOM      4  N11 ZIN A   1      17.047  -1.779  11.808  0.00  0.00    -0.157 NA
ATOM      5  C12 ZIN A   1      18.192  -2.473  11.802  0.00  0.00     0.351 A 
ATOM      6  O13 ZIN A   1      18.141  -3.645  12.119  0.00  0.00    -0.244 OA
ATOM      7  N14 ZIN A   1      19.387  -1.971  11.471  0.00  0.00    -0.276 N 
ATOM      8  C15 ZIN A   1      19.543  -0.681  11.105  0.00  0.00     0.244 A 
ATOM      9  O16 ZIN A   1      20.633  -0.240  10.808  0.00  0.00    -0.272 OA
ATOM     10  H31 ZIN A   1      20.163  -2.551  11.496  0.00  0.00     0.173 HD
ENDROOT
BRANCH   1  11
ATOM     11  C3  ZIN A   1      18.147   0.753   9.662  0.00  0.00     0.055 C 
BRANCH  11  12
ATOM     12  C2  ZIN A   1      17.875  -0.378   8.704  0.00  0.00    -0.035 C 
ATOM     13  C1  ZIN A   1      17.268  -0.142   7.568  0.00  0.00     0.007 C 
ENDBRANCH  11  12
ENDBRANCH   1  11
BRANCH   1  14
ATOM     14  C5  ZIN A   1      18.535   1.373  12.028  0.00  0.00     0.033 C 
BRANCH  14  15
ATOM     15  C6  ZIN A   1      18.659   2.665  11.217  0.00  0.00    -0.021 C 
ATOM     16  C7  ZIN A   1      17.520   3.614  11.594  0.00  0.00     0.009 C 
ATOM     17  C8  ZIN A   1      20.001   3.332  11.524  0.00  0.00     0.009 C 
ENDBRANCH  14  15
ENDBRANCH   1  14
TORSDOF 4
ENDMDL
MODEL 3
REMARK VINA RESULT:      -5.6      2.331      4.260
REMARK  4 active torsions:
REMARK  status: ('A' for Active; 'I' for Inactive)
REMARK    1  A    between atoms: C2_2  and  C3_3 
REMARK    2  A    between atoms: C3_3  and  C4_4 
REMARK    3  A    between atoms: C4_4  and  C5_5 
REMARK    4  A    between atoms: C5_5  and  C6_6 
ROOT
ATOM      1  C4  ZIN A   1      18.208   1.346  11.281  0.00  0.00     0.127 A 
ATOM      2  C9  ZIN A   1      19.411   1.774  12.101  0.00  0.00     0.266 A 
ATOM      3  O10 ZIN A   1      20.334   2.376  11.596  0.00  0.00    -0.270 OA
ATOM      4  N11 ZIN A   1      19.415   1.460  13.414  0.00  0.00    -0.157 NA
ATOM      5  C12 ZIN A   1      18.404   0.796  13.987  0.00  0.00     0.351 A 
ATOM      6  O13 ZIN A   1      18.491   0.555  15.174  0.00  0.00    -0.244 OA
ATOM      7  N14 ZIN A   1      17.306   0.380  13.347  0.00  0.00    -0.276 N 
ATOM      8  C15 ZIN A   1      17.119   0.600  12.029  0.00  0.00     0.244 A 
ATOM      9  O16 ZIN A   1      16.118   0.216  11.463  0.00  0.00    -0.272 OA
ATOM     10  H31 ZIN A   1      16.623  -0.096  13.846  0.00  0.00     0.173 HD
ENDROOT
BRANCH   1  11
ATOM     11  C3  ZIN A   1      17.587   2.598  10.659  0.00  0.00     0.055 C 
BRANCH  11  12
ATOM     12  C2  ZIN A   1      17.306   3.610  11.741  0.00  0.00    -0.035 C 
ATOM     13  C1  ZIN A   1      16.869   4.803  11.422  0.00  0.00     0.007 C 
ENDBRANCH  11  12
ENDBRANCH   1  11
BRANCH   1  14
ATOM     14  C5  ZIN A   1      18.706   0.450  10.146  0.00  0.00     0.033 C 
BRANCH  14  15
ATOM     15  C6  ZIN A   1      18.187   0.985   8.810  0.00  0.00    -0.021 C 
ATOM     16  C7  ZIN A   1      19.371   1.379   7.924  0.00  0.00     0.009 C 
ATOM     17  C8  ZIN A   1      17.367  -0.100   8.110  0.00  0.00     0.009 C 
ENDBRANCH  14  15
ENDBRANCH   1  14
TORSDOF 4
ENDMDL
MODEL 4
REMARK VINA RESULT:      -5.5      1.734      2.473
REMARK  4 active torsions:
REMARK  status: ('A' for Active; 'I' for Inactive)
REMARK    1  A    between atoms: C2_2  and  C3_3 
REMARK    2  A    between atoms: C3_3  and  C4_4 
REMARK    3  A    between atoms: C4_4  and  C5_5 
REMARK    4  A    between atoms: C5_5  and  C6_6 
ROOT
ATOM      1  C4  ZIN A   1      18.602   0.004  11.616  0.00  0.00     0.127 A 
ATOM      2  C9  ZIN A   1      17.261   0.700  11.751  0.00  0.00     0.266 A 
ATOM      3  O10 ZIN A   1      16.225   0.125  11.496  0.00  0.00    -0.270 OA
ATOM      4  N11 ZIN A   1      17.264   1.984  12.167  0.00  0.00    -0.157 NA
ATOM      5  C12 ZIN A   1      18.399   2.634  12.453  0.00  0.00     0.351 A 
ATOM      6  O13 ZIN A   1      18.309   3.788  12.821  0.00  0.00    -0.244 OA
ATOM      7  N14 ZIN A   1      19.624   2.104  12.364  0.00  0.00    -0.276 N 
ATOM      8  C15 ZIN A   1      19.825   0.831  11.966  0.00  0.00     0.244 A 
ATOM      9  O16 ZIN A   1      20.942   0.365  11.890  0.00  0.00    -0.272 OA
ATOM     10  H31 ZIN A   1      20.391   2.653  12.593  0.00  0.00     0.173 HD
ENDROOT
BRANCH   1  11
ATOM     11  C3  ZIN A   1      18.589  -1.232  12.518  0.00  0.00     0.055 C 
BRANCH  11  12
ATOM     12  C2  ZIN A   1      18.386  -0.807  13.950  0.00  0.00    -0.035 C 
ATOM     13  C1  ZIN A   1      19.152  -1.298  14.892  0.00  0.00     0.007 C 
ENDBRANCH  11  12
ENDBRANCH   1  11
BRANCH   1  14
ATOM     14  C5  ZIN A   1      18.745  -0.468  10.168  0.00  0.00     0.033 C 
BRANCH  14  15
ATOM     15  C6  ZIN A   1      18.221   0.616   9.224  0.00  0.00    -0.021 C 
ATOM     16  C7  ZIN A   1      19.402   1.359   8.596  0.00  0.00     0.009 C 
ATOM     17  C8  ZIN A   1      17.381  -0.030   8.122  0.00  0.00     0.009 C 
ENDBRANCH  14  15
ENDBRANCH   1  14
TORSDOF 4
ENDMDL
MODEL 5
REMARK VINA RESULT:      -5.5      2.095      4.317
REMARK  4 active torsions:
REMARK  status: ('A' for Active; 'I' for Inactive)
REMARK    1  A    between atoms: C2_2  and  C3_3 
REMARK    2  A    between atoms: C3_3  and  C4_4 
REMARK    3  A    between atoms: C4_4  and  C5_5 
REMARK    4  A    between atoms: C5_5  and  C6_6 
ROOT
ATOM      1  C4  ZIN A   1      18.198   0.570  11.843  0.00  0.00     0.127 A 
ATOM      2  C9  ZIN A   1      17.046  -0.416  11.791  0.00  0.00     0.266 A 
ATOM      3  O10 ZIN A   1      15.900  -0.038  11.679  0.00  0.00    -0.270 OA
ATOM      4  N11 ZIN A   1      17.346  -1.730  11.875  0.00  0.00    -0.157 NA
ATOM      5  C12 ZIN A   1      18.606  -2.163  11.999  0.00  0.00     0.351 A 
ATOM      6  O13 ZIN A   1      18.784  -3.363  12.067  0.00  0.00    -0.244 OA
ATOM      7  N14 ZIN A   1      19.683  -1.372  12.053  0.00  0.00    -0.276 N 
ATOM      8  C15 ZIN A   1      19.586  -0.028  11.986  0.00  0.00     0.244 A 
ATOM      9  O16 ZIN A   1      20.572   0.677  12.036  0.00  0.00    -0.272 OA
ATOM     10  H31 ZIN A   1      20.559  -1.776  12.145  0.00  0.00     0.173 HD
ENDROOT
BRANCH   1  11
ATOM     11  C3  ZIN A   1      18.168   1.405  10.561  0.00  0.00     0.055 C 
BRANCH  11  12
ATOM     12  C2  ZIN A   1      17.800   2.827  10.897  0.00  0.00    -0.035 C 
ATOM     13  C1  ZIN A   1      18.118   3.797  10.075  0.00  0.00     0.007 C 
ENDBRANCH  11  12
ENDBRANCH   1  11
BRANCH   1  14
ATOM     14  C5  ZIN A   1      17.961   1.510  13.026  0.00  0.00     0.033 C 
BRANCH  14  15
ATOM     15  C6  ZIN A   1      18.496   0.865  14.306  0.00  0.00    -0.021 C 
ATOM     16  C7  ZIN A   1      19.229   1.918  15.140  0.00  0.00     0.009 C 
ATOM     17  C8  ZIN A   1      17.330   0.295  15.115  0.00  0.00     0.009 C 
ENDBRANCH  14  15
ENDBRANCH   1  14
TORSDOF 4
ENDMDL
MODEL 6
REMARK VINA RESULT:      -5.5      2.119      4.160
REMARK  4 active torsions:
REMARK  status: ('A' for Active; 'I' for Inactive)
REMARK    1  A    between atoms: C2_2  and  C3_3 
REMARK    2  A    between atoms: C3_3  and  C4_4 
REMARK    3  A    between atoms: C4_4  and  C5_5 
REMARK    4  A    between atoms: C5_5  and  C6_6 
ROOT
ATOM      1  C4  ZIN A   1      18.253   0.369  12.308  0.00  0.00     0.127 A 
ATOM      2  C9  ZIN A   1      19.721   0.133  12.007  0.00  0.00     0.266 A 
ATOM      3  O10 ZIN A   1      20.581   0.409  12.815  0.00  0.00    -0.270 OA
ATOM      4  N11 ZIN A   1      20.033  -0.398  10.806  0.00  0.00    -0.157 NA
ATOM      5  C12 ZIN A   1      19.096  -0.710   9.903  0.00  0.00     0.351 A 
ATOM      6  O13 ZIN A   1      19.466  -1.185   8.848  0.00  0.00    -0.244 OA
ATOM      7  N14 ZIN A   1      17.780  -0.538  10.078  0.00  0.00    -0.276 N 
ATOM      8  C15 ZIN A   1      17.273  -0.019  11.216  0.00  0.00     0.244 A 
ATOM      9  O16 ZIN A   1      16.078   0.131  11.360  0.00  0.00    -0.272 OA
ATOM     10  H31 ZIN A   1      17.174  -0.794   9.366  0.00  0.00     0.173 HD
ENDROOT
BRANCH   1  11
ATOM     11  C3  ZIN A   1      17.893  -0.415  13.571  0.00  0.00     0.055 C 
BRANCH  11  12
ATOM     12  C2  ZIN A   1      17.617   0.547  14.699  0.00  0.00    -0.035 C 
ATOM     13  C1  ZIN A   1      17.495   0.101  15.924  0.00  0.00     0.007 C 
ENDBRANCH  11  12
ENDBRANCH   1  11
BRANCH   1  14
ATOM     14  C5  ZIN A   1      18.067   1.858  12.606  0.00  0.00     0.033 C 
BRANCH  14  15
ATOM     15  C6  ZIN A   1      18.627   2.685  11.447  0.00  0.00    -0.021 C 
ATOM     16  C7  ZIN A   1      17.482   3.415  10.742  0.00  0.00     0.009 C 
ATOM     17  C8  ZIN A   1      19.627   3.708  11.988  0.00  0.00     0.009 C 
ENDBRANCH  14  15
ENDBRANCH   1  14
TORSDOF 4
ENDMDL
MODEL 7
REMARK VINA RESULT:      -5.4      1.869      3.809
REMARK  4 active torsions:
REMARK  status: ('A' for Active; 'I' for Inactive)
REMARK    1  A    between atoms: C2_2  and  C3_3 
REMARK    2  A    between atoms: C3_3  and  C4_4 
REMARK    3  A    between atoms: C4_4  and  C5_5 
REMARK    4  A    between atoms: C5_5  and  C6_6 
ROOT
ATOM      1  C4  ZIN A   1      18.571   0.263  11.576  0.00  0.00     0.127 A 
ATOM      2  C9  ZIN A   1      19.836   0.382  12.405  0.00  0.00     0.266 A 
ATOM      3  O10 ZIN A   1      20.930   0.406  11.883  0.00  0.00    -0.270 OA
ATOM      4  N11 ZIN A   1      19.698   0.460  13.745  0.00  0.00    -0.157 NA
ATOM      5  C12 ZIN A   1      18.498   0.435  14.337  0.00  0.00     0.351 A 
ATOM      6  O13 ZIN A   1      18.467   0.512  15.549  0.00  0.00    -0.244 OA
ATOM      7  N14 ZIN A   1      17.331   0.334  13.691  0.00  0.00    -0.276 N 
ATOM      8  C15 ZIN A   1      17.264   0.245  12.347  0.00  0.00     0.244 A 
ATOM      9  O16 ZIN A   1      16.198   0.153  11.775  0.00  0.00    -0.272 OA
ATOM     10  H31 ZIN A   1      16.509   0.324  14.205  0.00  0.00     0.173 HD
ENDROOT
BRANCH   1  11
ATOM     11  C3  ZIN A   1      18.531   1.440  10.599  0.00  0.00     0.055 C 
BRANCH  11  12
ATOM     12  C2  ZIN A   1      18.699   0.929   9.190  0.00  0.00    -0.035 C 
ATOM     13  C1  ZIN A   1      19.239   1.696   8.276  0.00  0.00     0.007 C 
ENDBRANCH  11  12
ENDBRANCH   1  11
BRANCH   1  14
ATOM     14  C5  ZIN A   1      18.661  -1.027  10.760  0.00  0.00     0.033 C 
BRANCH  14  15
ATOM     15  C6  ZIN A   1      18.647  -2.230  11.705  0.00  0.00    -0.021 C 
ATOM     16  C7  ZIN A   1      17.451  -3.125  11.374  0.00  0.00     0.009 C 
ATOM     17  C8  ZIN A   1      19.942  -3.027  11.534  0.00  0.00     0.009 C 
ENDBRANCH  14  15
ENDBRANCH   1  14
TORSDOF 4
ENDMDL
MODEL 8
REMARK VINA RESULT:      -5.4      1.933      3.731
REMARK  4 active torsions:
REMARK  status: ('A' for Active; 'I' for Inactive)
REMARK    1  A    between atoms: C2_2  and  C3_3 
REMARK    2  A    between atoms: C3_3  and  C4_4 
REMARK    3  A    between atoms: C4_4  and  C5_5 
REMARK    4  A    between atoms: C5_5  and  C6_6 
ROOT
ATOM      1  C4  ZIN A   1      18.115  -0.409  10.923  0.00  0.00     0.127 A 
ATOM      2  C9  ZIN A   1      17.147   0.061  11.993  0.00  0.00     0.266 A 
ATOM      3  O10 ZIN A   1      15.949   0.035  11.812  0.00  0.00    -0.270 OA
ATOM      4  N11 ZIN A   1      17.671   0.510  13.153  0.00  0.00    -0.157 NA
ATOM      5  C12 ZIN A   1      18.992   0.545  13.368  0.00  0.00     0.351 A 
ATOM      6  O13 ZIN A   1      19.376   0.964  14.442  0.00  0.00    -0.244 OA
ATOM      7  N14 ZIN A   1      19.919   0.152  12.487  0.00  0.00    -0.276 N 
ATOM      8  C15 ZIN A   1      19.590  -0.327  11.270  0.00  0.00     0.244 A 
ATOM      9  O16 ZIN A   1      20.442  -0.680  10.481  0.00  0.00    -0.272 OA
ATOM     10  H31 ZIN A   1      20.855   0.214  12.732  0.00  0.00     0.173 HD
ENDROOT
BRANCH   1  11
ATOM     11  C3  ZIN A   1      17.784  -1.866  10.590  0.00  0.00     0.055 C 
BRANCH  11  12
ATOM     12  C2  ZIN A   1      18.015  -2.724  11.808  0.00  0.00    -0.035 C 
ATOM     13  C1  ZIN A   1      17.728  -4.002  11.771  0.00  0.00     0.007 C 
ENDBRANCH  11  12
ENDBRANCH   1  11
BRANCH   1  14
ATOM     14  C5  ZIN A   1      17.874   0.429   9.667  0.00  0.00     0.033 C 
BRANCH  14  15
ATOM     15  C6  ZIN A   1      18.718   1.704   9.734  0.00  0.00    -0.021 C 
ATOM     16  C7  ZIN A   1      19.263   2.029   8.342  0.00  0.00     0.009 C 
ATOM     17  C8  ZIN A   1      17.850   2.864  10.225  0.00  0.00     0.009 C 
ENDBRANCH  14  15
ENDBRANCH   1  14
TORSDOF 4
ENDMDL
MODEL 9
REMARK VINA RESULT:      -5.4      2.163      4.215
REMARK  4 active torsions:
REMARK  status: ('A' for Active; 'I' for Inactive)
REMARK    1  A    between atoms: C2_2  and  C3_3 
REMARK    2  A    between atoms: C3_3  and  C4_4 
REMARK    3  A    between atoms: C4_4  and  C5_5 
REMARK    4  A    between atoms: C5_5  and  C6_6 
ROOT
ATOM      1  C4  ZIN A   1      18.255  -0.846  11.541  0.00  0.00     0.127 A 
ATOM      2  C9  ZIN A   1      19.469  -1.112  10.670  0.00  0.00     0.266 A 
ATOM      3  O10 ZIN A   1      20.442  -1.686  11.108  0.00  0.00    -0.270 OA
ATOM      4  N11 ZIN A   1      19.424  -0.684   9.391  0.00  0.00    -0.157 NA
ATOM      5  C12 ZIN A   1      18.357  -0.049   8.892  0.00  0.00     0.351 A 
ATOM      6  O13 ZIN A   1      18.402   0.300   7.730  0.00  0.00    -0.244 OA
ATOM      7  N14 ZIN A   1      17.244   0.228   9.581  0.00  0.00    -0.276 N 
ATOM      8  C15 ZIN A   1      17.100  -0.120  10.877  0.00  0.00     0.244 A 
ATOM      9  O16 ZIN A   1      16.085   0.139  11.488  0.00  0.00    -0.272 OA
ATOM     10  H31 ZIN A   1      16.519   0.694   9.135  0.00  0.00     0.173 HD
ENDROOT
BRANCH   1  11
ATOM     11  C3  ZIN A   1      17.738  -2.190  12.058  0.00  0.00     0.055 C 
BRANCH  11  12
ATOM     12  C2  ZIN A   1      17.425  -3.091  10.890  0.00  0.00    -0.035 C 
ATOM     13  C1  ZIN A   1      17.002  -4.313  11.102  0.00  0.00     0.007 C 
ENDBRANCH  11  12
ENDBRANCH   1  11
BRANCH   1  14
ATOM     14  C5  ZIN A   1      18.709  -0.019  12.745  0.00  0.00     0.033 C 
BRANCH  14  15
ATOM     15  C6  ZIN A   1      18.348  -0.757  14.036  0.00  0.00    -0.021 C 
ATOM     16  C7  ZIN A   1      19.627  -1.252  14.714  0.00  0.00     0.009 C 
ATOM     17  C8  ZIN A   1      17.608   0.195  14.976  0.00  0.00     0.009 C 
ENDBRANCH  14  15
ENDBRANCH   1  14
TORSDOF 4
ENDMDL
