MODEL 1
REMARK VINA RESULT:      -8.3      0.000      0.000
REMARK  10 active torsions:
REMARK  status: ('A' for Active; 'I' for Inactive)
REMARK    1  A    between atoms: O2_2  and  C3_3 
REMARK    2  A    between atoms: C6_6  and  C7_7 
REMARK    3  A    between atoms: C7_7  and  C8_8 
REMARK    4  A    between atoms: C8_8  and  N11_10 
REMARK    5  A    between atoms: N11_10  and  C14_13 
REMARK    6  A    between atoms: C14_13  and  C15_14 
REMARK    7  A    between atoms: C15_14  and  O17_15 
REMARK    8  A    between atoms: C15_14  and  C18_16 
REMARK    9  A    between atoms: C23_21  and  N24_22 
REMARK   10  A    between atoms: N24_22  and  C25_23 
ROOT
ATOM      1  C14 ZIN A   1      19.740   1.914  11.654  0.00  0.00     0.269 C 
ENDROOT
BRANCH   1   2
ATOM      2  N11 ZIN A   1      19.950   1.973  10.201  0.00  0.00    -0.068 N 
ATOM      3  H12 ZIN A   1      20.270   1.075   9.870  0.00  0.00     0.277 HD
ATOM      4  H13 ZIN A   1      20.642   2.676   9.990  0.00  0.00     0.277 HD
BRANCH   2   5
ATOM      5  C8  ZIN A   1      18.685   2.317   9.537  0.00  0.00     0.186 C 
ATOM      6  C10 ZIN A   1      17.889   3.279  10.423  0.00  0.00     0.040 C 
BRANCH   5   7
ATOM      7  C7  ZIN A   1      17.869   1.044   9.305  0.00  0.00     0.071 C 
BRANCH   7   8
ATOM      8  C6  ZIN A   1      18.357   0.354   8.058  0.00  0.00    -0.056 A 
ATOM      9  C5  ZIN A   1      18.566   1.083   6.902  0.00  0.00     0.010 A 
ATOM     10  C4  ZIN A   1      19.014   0.452   5.757  0.00  0.00     0.037 A 
ATOM     11  C3  ZIN A   1      19.254  -0.914   5.769  0.00  0.00     0.068 A 
ATOM     12  C29 ZIN A   1      19.038  -1.644   6.928  0.00  0.00     0.037 A 
ATOM     13  C28 ZIN A   1      18.595  -1.008   8.072  0.00  0.00     0.010 A 
BRANCH  11  14
ATOM     14  O2  ZIN A   1      19.693  -1.537   4.644  0.00  0.00    -0.356 OA
ATOM     15  C1  ZIN A   1      19.013  -2.733   4.256  0.00  0.00     0.210 C 
ENDBRANCH  11  14
ENDBRANCH   7   8
ENDBRANCH   5   7
ENDBRANCH   2   5
ENDBRANCH   1   2
BRANCH   1  16
ATOM     16  C15 ZIN A   1      20.269   0.582  12.192  0.00  0.00     0.176 C 
BRANCH  16  17
ATOM     17  O17 ZIN A   1      21.693   0.635  12.278  0.00  0.00    -0.389 OA
ATOM     18  H42 ZIN A   1      22.026   1.321  12.874  0.00  0.00     0.210 HD
ENDBRANCH  16  17
BRANCH  16  19
ATOM     19  C18 ZIN A   1      19.691   0.329  13.560  0.00  0.00    -0.026 A 
ATOM     20  C27 ZIN A   1      19.242   1.388  14.327  0.00  0.00     0.042 A 
ATOM     21  C23 ZIN A   1      18.704   1.155  15.584  0.00  0.00     0.071 A 
ATOM     22  C21 ZIN A   1      18.629  -0.147  16.074  0.00  0.00     0.134 A 
ATOM     23  C20 ZIN A   1      19.086  -1.202  15.303  0.00  0.00     0.043 A 
ATOM     24  O22 ZIN A   1      18.108  -0.380  17.309  0.00  0.00    -0.190 OA
ATOM     25  C19 ZIN A   1      19.615  -0.962  14.048  0.00  0.00     0.013 A 
BRANCH  21  26
ATOM     26  N24 ZIN A   1      18.243   2.226  16.360  0.00  0.00    -0.332 N 
ATOM     27  H45 ZIN A   1      17.343   2.566  16.234  0.00  0.00     0.168 HD
BRANCH  26  28
ATOM     28  C25 ZIN A   1      19.050   2.784  17.285  0.00  0.00     0.353 C 
ATOM     29  O26 ZIN A   1      20.070   3.342  16.942  0.00  0.00    -0.283 OA
ENDBRANCH  26  28
ENDBRANCH  21  26
ENDBRANCH  16  19
ENDBRANCH   1  16
TORSDOF 10
ENDMDL
MODEL 2
REMARK VINA RESULT:      -8.1      2.598      5.119
REMARK  10 active torsions:
REMARK  status: ('A' for Active; 'I' for Inactive)
REMARK    1  A    between atoms: O2_2  and  C3_3 
REMARK    2  A    between atoms: C6_6  and  C7_7 
REMARK    3  A    between atoms: C7_7  and  C8_8 
REMARK    4  A    between atoms: C8_8  and  N11_10 
REMARK    5  A    between atoms: N11_10  and  C14_13 
REMARK    6  A    between atoms: C14_13  and  C15_14 
REMARK    7  A    between atoms: C15_14  and  O17_15 
REMARK    8  A    between atoms: C15_14  and  C18_16 
REMARK    9  A    between atoms: C23_21  and  N24_22 
REMARK   10  A    between atoms: N24_22  and  C25_23 
ROOT
ATOM      1  C14 ZIN A   1      17.982  -0.738  10.851  0.00  0.00     0.269 C 
ENDROOT
BRANCH   1   2
ATOM      2  N11 ZIN A   1      18.976  -0.024  10.037  0.00  0.00    -0.068 N 
ATOM      3  H12 ZIN A   1      19.464  -0.682   9.448  0.00  0.00     0.277 HD
ATOM      4  H13 ZIN A   1      19.635   0.440  10.643  0.00  0.00     0.277 HD
BRANCH   2   5
ATOM      5  C8  ZIN A   1      18.296   0.973   9.199  0.00  0.00     0.186 C 
ATOM      6  C10 ZIN A   1      18.147   0.426   7.777  0.00  0.00     0.040 C 
BRANCH   5   7
ATOM      7  C7  ZIN A   1      19.121   2.260   9.166  0.00  0.00     0.071 C 
BRANCH   7   8
ATOM      8  C6  ZIN A   1      18.795   3.097  10.376  0.00  0.00    -0.056 A 
ATOM      9  C5  ZIN A   1      17.543   3.667  10.504  0.00  0.00     0.010 A 
ATOM     10  C4  ZIN A   1      17.242   4.436  11.612  0.00  0.00     0.037 A 
ATOM     11  C3  ZIN A   1      18.198   4.635  12.597  0.00  0.00     0.068 A 
ATOM     12  C29 ZIN A   1      19.457   4.066  12.463  0.00  0.00     0.037 A 
ATOM     13  C28 ZIN A   1      19.751   3.295  11.355  0.00  0.00     0.010 A 
BRANCH  11  14
ATOM     14  O2  ZIN A   1      17.905   5.391  13.688  0.00  0.00    -0.356 OA
ATOM     15  C1  ZIN A   1      16.523   5.544  14.018  0.00  0.00     0.210 C 
ENDBRANCH  11  14
ENDBRANCH   7   8
ENDBRANCH   5   7
ENDBRANCH   2   5
ENDBRANCH   1   2
BRANCH   1  16
ATOM     16  C15 ZIN A   1      17.243   0.260  11.745  0.00  0.00     0.176 C 
BRANCH  16  17
ATOM     17  O17 ZIN A   1      15.841  -0.005  11.698  0.00  0.00    -0.389 OA
ATOM     18  H42 ZIN A   1      15.621  -0.932  11.528  0.00  0.00     0.210 HD
ENDBRANCH  16  17
BRANCH  16  19
ATOM     19  C18 ZIN A   1      17.734   0.122  13.164  0.00  0.00    -0.026 A 
ATOM     20  C27 ZIN A   1      17.696   1.210  14.016  0.00  0.00     0.042 A 
ATOM     21  C23 ZIN A   1      18.142   1.083  15.323  0.00  0.00     0.071 A 
ATOM     22  C21 ZIN A   1      18.636  -0.141  15.769  0.00  0.00     0.134 A 
ATOM     23  C20 ZIN A   1      18.675  -1.225  14.909  0.00  0.00     0.043 A 
ATOM     24  O22 ZIN A   1      19.079  -0.270  17.049  0.00  0.00    -0.190 OA
ATOM     25  C19 ZIN A   1      18.224  -1.091  13.608  0.00  0.00     0.013 A 
BRANCH  21  26
ATOM     26  N24 ZIN A   1      18.100   2.182  16.190  0.00  0.00    -0.332 N 
ATOM     27  H45 ZIN A   1      17.361   2.283  16.811  0.00  0.00     0.168 HD
BRANCH  26  28
ATOM     28  C25 ZIN A   1      19.086   3.100  16.162  0.00  0.00     0.353 C 
ATOM     29  O26 ZIN A   1      19.931   3.110  17.032  0.00  0.00    -0.283 OA
ENDBRANCH  26  28
ENDBRANCH  21  26
ENDBRANCH  16  19
ENDBRANCH   1  16
TORSDOF 10
ENDMDL
MODEL 3
REMARK VINA RESULT:      -8.0      2.228      8.852
REMARK  10 active torsions:
REMARK  status: ('A' for Active; 'I' for Inactive)
REMARK    1  A    between atoms: O2_2  and  C3_3 
REMARK    2  A    between atoms: C6_6  and  C7_7 
REMARK    3  A    between atoms: C7_7  and  C8_8 
REMARK    4  A    between atoms: C8_8  and  N11_10 
REMARK    5  A    between atoms: N11_10  and  C14_13 
REMARK    6  A    between atoms: C14_13  and  C15_14 
REMARK    7  A    between atoms: C15_14  and  O17_15 
REMARK    8  A    between atoms: C15_14  and  C18_16 
REMARK    9  A    between atoms: C23_21  and  N24_22 
REMARK   10  A    between atoms: N24_22  and  C25_23 
ROOT
ATOM      1  C14 ZIN A   1      19.953  -2.009  11.147  0.00  0.00     0.269 C 
ENDROOT
BRANCH   1   2
ATOM      2  N11 ZIN A   1      19.761  -2.137  12.598  0.00  0.00    -0.068 N 
ATOM      3  H12 ZIN A   1      20.134  -1.320  13.059  0.00  0.00     0.277 HD
ATOM      4  H13 ZIN A   1      20.242  -2.959  12.929  0.00  0.00     0.277 HD
BRANCH   2   5
ATOM      5  C8  ZIN A   1      18.327  -2.255  12.894  0.00  0.00     0.186 C 
ATOM      6  C10 ZIN A   1      17.616  -2.917  11.712  0.00  0.00     0.040 C 
BRANCH   5   7
ATOM      7  C7  ZIN A   1      17.739  -0.863  13.130  0.00  0.00     0.071 C 
BRANCH   7   8
ATOM      8  C6  ZIN A   1      18.101  -0.392  14.515  0.00  0.00    -0.056 A 
ATOM      9  C5  ZIN A   1      18.365  -1.313  15.511  0.00  0.00     0.010 A 
ATOM     10  C4  ZIN A   1      18.697  -0.883  16.781  0.00  0.00     0.037 A 
ATOM     11  C3  ZIN A   1      18.766   0.475  17.056  0.00  0.00     0.068 A 
ATOM     12  C29 ZIN A   1      18.495   1.397  16.056  0.00  0.00     0.037 A 
ATOM     13  C28 ZIN A   1      18.168   0.962  14.787  0.00  0.00     0.010 A 
BRANCH  11  14
ATOM     14  O2  ZIN A   1      19.092   0.901  18.305  0.00  0.00    -0.356 OA
ATOM     15  C1  ZIN A   1      19.168   2.313  18.510  0.00  0.00     0.210 C 
ENDBRANCH  11  14
ENDBRANCH   7   8
ENDBRANCH   5   7
ENDBRANCH   2   5
ENDBRANCH   1   2
BRANCH   1  16
ATOM     16  C15 ZIN A   1      20.400  -0.584  10.814  0.00  0.00     0.176 C 
BRANCH  16  17
ATOM     17  O17 ZIN A   1      21.825  -0.539  10.730  0.00  0.00    -0.389 OA
ATOM     18  H42 ZIN A   1      22.168  -0.613   9.828  0.00  0.00     0.210 HD
ENDBRANCH  16  17
BRANCH  16  19
ATOM     19  C18 ZIN A   1      19.804  -0.166   9.494  0.00  0.00    -0.026 A 
ATOM     20  C27 ZIN A   1      19.416  -1.125   8.578  0.00  0.00     0.042 A 
ATOM     21  C23 ZIN A   1      18.863  -0.742   7.366  0.00  0.00     0.071 A 
ATOM     22  C21 ZIN A   1      18.710   0.611   7.072  0.00  0.00     0.134 A 
ATOM     23  C20 ZIN A   1      19.105   1.566   7.993  0.00  0.00     0.043 A 
ATOM     24  O22 ZIN A   1      18.172   0.993   5.882  0.00  0.00    -0.190 OA
ATOM     25  C19 ZIN A   1      19.652   1.176   9.202  0.00  0.00     0.013 A 
BRANCH  21  26
ATOM     26  N24 ZIN A   1      18.464  -1.713   6.437  0.00  0.00    -0.332 N 
ATOM     27  H45 ZIN A   1      17.528  -1.961   6.367  0.00  0.00     0.168 HD
BRANCH  26  28
ATOM     28  C25 ZIN A   1      19.379  -2.300   5.642  0.00  0.00     0.353 C 
ATOM     29  O26 ZIN A   1      19.745  -1.747   4.627  0.00  0.00    -0.283 OA
ENDBRANCH  26  28
ENDBRANCH  21  26
ENDBRANCH  16  19
ENDBRANCH   1  16
TORSDOF 10
ENDMDL
MODEL 4
REMARK VINA RESULT:      -7.9      2.278      5.153
REMARK  10 active torsions:
REMARK  status: ('A' for Active; 'I' for Inactive)
REMARK    1  A    between atoms: O2_2  and  C3_3 
REMARK    2  A    between atoms: C6_6  and  C7_7 
REMARK    3  A    between atoms: C7_7  and  C8_8 
REMARK    4  A    between atoms: C8_8  and  N11_10 
REMARK    5  A    between atoms: N11_10  and  C14_13 
REMARK    6  A    between atoms: C14_13  and  C15_14 
REMARK    7  A    between atoms: C15_14  and  O17_15 
REMARK    8  A    between atoms: C15_14  and  C18_16 
REMARK    9  A    between atoms: C23_21  and  N24_22 
REMARK   10  A    between atoms: N24_22  and  C25_23 
ROOT
ATOM      1  C14 ZIN A   1      19.201  -0.085  11.309  0.00  0.00     0.269 C 
ENDROOT
BRANCH   1   2
ATOM      2  N11 ZIN A   1      19.781   0.658  10.181  0.00  0.00    -0.068 N 
ATOM      3  H12 ZIN A   1      20.242   0.014   9.556  0.00  0.00     0.277 HD
ATOM      4  H13 ZIN A   1      20.451   1.328  10.529  0.00  0.00     0.277 HD
BRANCH   2   5
ATOM      5  C8  ZIN A   1      18.714   1.364   9.459  0.00  0.00     0.186 C 
ATOM      6  C10 ZIN A   1      18.619   0.819   8.031  0.00  0.00     0.040 C 
BRANCH   5   7
ATOM      7  C7  ZIN A   1      19.031   2.859   9.413  0.00  0.00     0.071 C 
BRANCH   7   8
ATOM      8  C6  ZIN A   1      18.674   3.489  10.735  0.00  0.00    -0.056 A 
ATOM      9  C5  ZIN A   1      17.360   3.819  11.011  0.00  0.00     0.010 A 
ATOM     10  C4  ZIN A   1      17.030   4.396  12.222  0.00  0.00     0.037 A 
ATOM     11  C3  ZIN A   1      18.020   4.645  13.162  0.00  0.00     0.068 A 
ATOM     12  C29 ZIN A   1      19.339   4.319  12.880  0.00  0.00     0.037 A 
ATOM     13  C28 ZIN A   1      19.662   3.737  11.670  0.00  0.00     0.010 A 
BRANCH  11  14
ATOM     14  O2  ZIN A   1      17.699   5.214  14.353  0.00  0.00    -0.356 OA
ATOM     15  C1  ZIN A   1      17.757   6.640  14.428  0.00  0.00     0.210 C 
ENDBRANCH  11  14
ENDBRANCH   7   8
ENDBRANCH   5   7
ENDBRANCH   2   5
ENDBRANCH   1   2
BRANCH   1  16
ATOM     16  C15 ZIN A   1      20.276  -0.316  12.374  0.00  0.00     0.176 C 
BRANCH  16  17
ATOM     17  O17 ZIN A   1      21.305   0.665  12.234  0.00  0.00    -0.389 OA
ATOM     18  H42 ZIN A   1      21.458   1.190  13.031  0.00  0.00     0.210 HD
ENDBRANCH  16  17
BRANCH  16  19
ATOM     19  C18 ZIN A   1      19.657  -0.204  13.743  0.00  0.00    -0.026 A 
ATOM     20  C27 ZIN A   1      19.329   1.038  14.253  0.00  0.00     0.042 A 
ATOM     21  C23 ZIN A   1      18.755   1.143  15.511  0.00  0.00     0.071 A 
ATOM     22  C21 ZIN A   1      18.520  -0.008  16.261  0.00  0.00     0.134 A 
ATOM     23  C20 ZIN A   1      18.856  -1.248  15.747  0.00  0.00     0.043 A 
ATOM     24  O22 ZIN A   1      17.962   0.089  17.498  0.00  0.00    -0.190 OA
ATOM     25  C19 ZIN A   1      19.424  -1.344  14.489  0.00  0.00     0.013 A 
BRANCH  21  26
ATOM     26  N24 ZIN A   1      18.416   2.400  16.027  0.00  0.00    -0.332 N 
ATOM     27  H45 ZIN A   1      17.493   2.698  16.013  0.00  0.00     0.168 HD
BRANCH  26  28
ATOM     28  C25 ZIN A   1      19.373   3.196  16.543  0.00  0.00     0.353 C 
ATOM     29  O26 ZIN A   1      19.793   2.992  17.662  0.00  0.00    -0.283 OA
ENDBRANCH  26  28
ENDBRANCH  21  26
ENDBRANCH  16  19
ENDBRANCH   1  16
TORSDOF 10
ENDMDL
MODEL 5
REMARK VINA RESULT:      -7.7      3.476      6.907
REMARK  10 active torsions:
REMARK  status: ('A' for Active; 'I' for Inactive)
REMARK    1  A    between atoms: O2_2  and  C3_3 
REMARK    2  A    between atoms: C6_6  and  C7_7 
REMARK    3  A    between atoms: C7_7  and  C8_8 
REMARK    4  A    between atoms: C8_8  and  N11_10 
REMARK    5  A    between atoms: N11_10  and  C14_13 
REMARK    6  A    between atoms: C14_13  and  C15_14 
REMARK    7  A    between atoms: C15_14  and  O17_15 
REMARK    8  A    between atoms: C15_14  and  C18_16 
REMARK    9  A    between atoms: C23_21  and  N24_22 
REMARK   10  A    between atoms: N24_22  and  C25_23 
ROOT
ATOM      1  C14 ZIN A   1      18.367  -2.912  11.924  0.00  0.00     0.269 C 
ENDROOT
BRANCH   1   2
ATOM      2  N11 ZIN A   1      17.288  -1.943  11.684  0.00  0.00    -0.068 N 
ATOM      3  H12 ZIN A   1      16.636  -1.970  12.454  0.00  0.00     0.277 HD
ATOM      4  H13 ZIN A   1      16.809  -2.179  10.829  0.00  0.00     0.277 HD
BRANCH   2   5
ATOM      5  C8  ZIN A   1      17.858  -0.594  11.571  0.00  0.00     0.186 C 
ATOM      6  C10 ZIN A   1      17.969   0.031  12.964  0.00  0.00     0.040 C 
BRANCH   5   7
ATOM      7  C7  ZIN A   1      16.950   0.271  10.696  0.00  0.00     0.071 C 
BRANCH   7   8
ATOM      8  C6  ZIN A   1      17.605   0.491   9.356  0.00  0.00    -0.056 A 
ATOM      9  C5  ZIN A   1      17.222  -0.269   8.267  0.00  0.00     0.010 A 
ATOM     10  C4  ZIN A   1      17.821  -0.070   7.038  0.00  0.00     0.037 A 
ATOM     11  C3  ZIN A   1      18.808   0.895   6.898  0.00  0.00     0.068 A 
ATOM     12  C29 ZIN A   1      19.195   1.653   7.994  0.00  0.00     0.037 A 
ATOM     13  C28 ZIN A   1      18.589   1.452   9.219  0.00  0.00     0.010 A 
BRANCH  11  14
ATOM     14  O2  ZIN A   1      19.400   1.093   5.691  0.00  0.00    -0.356 OA
ATOM     15  C1  ZIN A   1      19.187   0.093   4.692  0.00  0.00     0.210 C 
ENDBRANCH  11  14
ENDBRANCH   7   8
ENDBRANCH   5   7
ENDBRANCH   2   5
ENDBRANCH   1   2
BRANCH   1  16
ATOM     16  C15 ZIN A   1      19.444  -2.752  10.848  0.00  0.00     0.176 C 
BRANCH  16  17
ATOM     17  O17 ZIN A   1      20.734  -2.925  11.436  0.00  0.00    -0.389 OA
ATOM     18  H42 ZIN A   1      21.206  -2.096  11.599  0.00  0.00     0.210 HD
ENDBRANCH  16  17
BRANCH  16  19
ATOM     19  C18 ZIN A   1      19.237  -3.789   9.773  0.00  0.00    -0.026 A 
ATOM     20  C27 ZIN A   1      18.662  -3.429   8.569  0.00  0.00     0.042 A 
ATOM     21  C23 ZIN A   1      18.477  -4.380   7.577  0.00  0.00     0.071 A 
ATOM     22  C21 ZIN A   1      18.863  -5.700   7.804  0.00  0.00     0.134 A 
ATOM     23  C20 ZIN A   1      19.434  -6.054   9.015  0.00  0.00     0.043 A 
ATOM     24  O22 ZIN A   1      18.678  -6.638   6.836  0.00  0.00    -0.190 OA
ATOM     25  C19 ZIN A   1      19.620  -5.098   9.997  0.00  0.00     0.013 A 
BRANCH  21  26
ATOM     26  N24 ZIN A   1      17.900  -4.017   6.354  0.00  0.00    -0.332 N 
ATOM     27  H45 ZIN A   1      16.936  -3.933   6.278  0.00  0.00     0.168 HD
BRANCH  26  28
ATOM     28  C25 ZIN A   1      18.683  -3.782   5.283  0.00  0.00     0.353 C 
ATOM     29  O26 ZIN A   1      19.687  -3.112   5.400  0.00  0.00    -0.283 OA
ENDBRANCH  26  28
ENDBRANCH  21  26
ENDBRANCH  16  19
ENDBRANCH   1  16
TORSDOF 10
ENDMDL
MODEL 6
REMARK VINA RESULT:      -7.7      3.034      7.018
REMARK  10 active torsions:
REMARK  status: ('A' for Active; 'I' for Inactive)
REMARK    1  A    between atoms: O2_2  and  C3_3 
REMARK    2  A    between atoms: C6_6  and  C7_7 
REMARK    3  A    between atoms: C7_7  and  C8_8 
REMARK    4  A    between atoms: C8_8  and  N11_10 
REMARK    5  A    between atoms: N11_10  and  C14_13 
REMARK    6  A    between atoms: C14_13  and  C15_14 
REMARK    7  A    between atoms: C15_14  and  O17_15 
REMARK    8  A    between atoms: C15_14  and  C18_16 
REMARK    9  A    between atoms: C23_21  and  N24_22 
REMARK   10  A    between atoms: N24_22  and  C25_23 
ROOT
ATOM      1  C14 ZIN A   1      19.520   1.297  11.617  0.00  0.00     0.269 C 
ENDROOT
BRANCH   1   2
ATOM      2  N11 ZIN A   1      19.417   0.968  13.045  0.00  0.00    -0.068 N 
ATOM      3  H12 ZIN A   1      18.984   1.736  13.537  0.00  0.00     0.277 HD
ATOM      4  H13 ZIN A   1      20.340   0.807  13.419  0.00  0.00     0.277 HD
BRANCH   2   5
ATOM      5  C8  ZIN A   1      18.602  -0.242  13.212  0.00  0.00     0.186 C 
ATOM      6  C10 ZIN A   1      17.775  -0.126  14.495  0.00  0.00     0.040 C 
BRANCH   5   7
ATOM      7  C7  ZIN A   1      19.517  -1.465  13.304  0.00  0.00     0.071 C 
BRANCH   7   8
ATOM      8  C6  ZIN A   1      19.077  -2.498  12.299  0.00  0.00    -0.056 A 
ATOM      9  C5  ZIN A   1      17.751  -2.569  11.916  0.00  0.00     0.010 A 
ATOM     10  C4  ZIN A   1      17.346  -3.515  10.994  0.00  0.00     0.037 A 
ATOM     11  C3  ZIN A   1      18.272  -4.395  10.453  0.00  0.00     0.068 A 
ATOM     12  C29 ZIN A   1      19.601  -4.326  10.844  0.00  0.00     0.037 A 
ATOM     13  C28 ZIN A   1      20.002  -3.375  11.762  0.00  0.00     0.010 A 
BRANCH  11  14
ATOM     14  O2  ZIN A   1      17.876  -5.328   9.548  0.00  0.00    -0.356 OA
ATOM     15  C1  ZIN A   1      16.559  -5.191   9.009  0.00  0.00     0.210 C 
ENDBRANCH  11  14
ENDBRANCH   7   8
ENDBRANCH   5   7
ENDBRANCH   2   5
ENDBRANCH   1   2
BRANCH   1  16
ATOM     16  C15 ZIN A   1      18.178   1.022  10.933  0.00  0.00     0.176 C 
BRANCH  16  17
ATOM     17  O17 ZIN A   1      17.320   2.152  11.097  0.00  0.00    -0.389 OA
ATOM     18  H42 ZIN A   1      17.138   2.377  12.020  0.00  0.00     0.210 HD
ENDBRANCH  16  17
BRANCH  16  19
ATOM     19  C18 ZIN A   1      18.405   0.772   9.464  0.00  0.00    -0.026 A 
ATOM     20  C27 ZIN A   1      18.156  -0.479   8.931  0.00  0.00     0.042 A 
ATOM     21  C23 ZIN A   1      18.359  -0.709   7.579  0.00  0.00     0.071 A 
ATOM     22  C21 ZIN A   1      18.825   0.320   6.764  0.00  0.00     0.134 A 
ATOM     23  C20 ZIN A   1      19.077   1.569   7.306  0.00  0.00     0.043 A 
ATOM     24  O22 ZIN A   1      19.031   0.099   5.437  0.00  0.00    -0.190 OA
ATOM     25  C19 ZIN A   1      18.867   1.792   8.655  0.00  0.00     0.013 A 
BRANCH  21  26
ATOM     26  N24 ZIN A   1      18.101  -1.974   7.035  0.00  0.00    -0.332 N 
ATOM     27  H45 ZIN A   1      17.259  -2.148   6.587  0.00  0.00     0.168 HD
BRANCH  26  28
ATOM     28  C25 ZIN A   1      19.026  -2.950   7.133  0.00  0.00     0.353 C 
ATOM     29  O26 ZIN A   1      19.917  -3.027   6.314  0.00  0.00    -0.283 OA
ENDBRANCH  26  28
ENDBRANCH  21  26
ENDBRANCH  16  19
ENDBRANCH   1  16
TORSDOF 10
ENDMDL
MODEL 7
REMARK VINA RESULT:      -7.4      3.276      5.482
REMARK  10 active torsions:
REMARK  status: ('A' for Active; 'I' for Inactive)
REMARK    1  A    between atoms: O2_2  and  C3_3 
REMARK    2  A    between atoms: C6_6  and  C7_7 
REMARK    3  A    between atoms: C7_7  and  C8_8 
REMARK    4  A    between atoms: C8_8  and  N11_10 
REMARK    5  A    between atoms: N11_10  and  C14_13 
REMARK    6  A    between atoms: C14_13  and  C15_14 
REMARK    7  A    between atoms: C15_14  and  O17_15 
REMARK    8  A    between atoms: C15_14  and  C18_16 
REMARK    9  A    between atoms: C23_21  and  N24_22 
REMARK   10  A    between atoms: N24_22  and  C25_23 
ROOT
ATOM      1  C14 ZIN A   1      18.442  -0.077  11.761  0.00  0.00     0.269 C 
ENDROOT
BRANCH   1   2
ATOM      2  N11 ZIN A   1      19.108   1.213  11.532  0.00  0.00    -0.068 N 
ATOM      3  H12 ZIN A   1      20.093   1.124  11.733  0.00  0.00     0.277 HD
ATOM      4  H13 ZIN A   1      18.703   1.912  12.136  0.00  0.00     0.277 HD
BRANCH   2   5
ATOM      5  C8  ZIN A   1      18.929   1.614  10.130  0.00  0.00     0.186 C 
ATOM      6  C10 ZIN A   1      18.573   3.101  10.066  0.00  0.00     0.040 C 
BRANCH   5   7
ATOM      7  C7  ZIN A   1      17.800   0.793   9.505  0.00  0.00     0.071 C 
BRANCH   7   8
ATOM      8  C6  ZIN A   1      18.279   0.179   8.215  0.00  0.00    -0.056 A 
ATOM      9  C5  ZIN A   1      18.691   0.990   7.174  0.00  0.00     0.010 A 
ATOM     10  C4  ZIN A   1      19.131   0.429   5.991  0.00  0.00     0.037 A 
ATOM     11  C3  ZIN A   1      19.159  -0.950   5.847  0.00  0.00     0.068 A 
ATOM     12  C29 ZIN A   1      18.740  -1.763   6.891  0.00  0.00     0.037 A 
ATOM     13  C28 ZIN A   1      18.306  -1.197   8.074  0.00  0.00     0.010 A 
BRANCH  11  14
ATOM     14  O2  ZIN A   1      19.591  -1.505   4.684  0.00  0.00    -0.356 OA
ATOM     15  C1  ZIN A   1      19.024  -2.764   4.316  0.00  0.00     0.210 C 
ENDBRANCH  11  14
ENDBRANCH   7   8
ENDBRANCH   5   7
ENDBRANCH   2   5
ENDBRANCH   1   2
BRANCH   1  16
ATOM     16  C15 ZIN A   1      19.498  -1.166  11.964  0.00  0.00     0.176 C 
BRANCH  16  17
ATOM     17  O17 ZIN A   1      19.800  -1.284  13.355  0.00  0.00    -0.389 OA
ATOM     18  H42 ZIN A   1      20.549  -0.742  13.642  0.00  0.00     0.210 HD
ENDBRANCH  16  17
BRANCH  16  19
ATOM     19  C18 ZIN A   1      18.967  -2.481  11.452  0.00  0.00    -0.026 A 
ATOM     20  C27 ZIN A   1      19.767  -3.288  10.665  0.00  0.00     0.042 A 
ATOM     21  C23 ZIN A   1      19.282  -4.500  10.197  0.00  0.00     0.071 A 
ATOM     22  C21 ZIN A   1      17.984  -4.895  10.515  0.00  0.00     0.134 A 
ATOM     23  C20 ZIN A   1      17.187  -4.079  11.300  0.00  0.00     0.043 A 
ATOM     24  O22 ZIN A   1      17.502  -6.081  10.055  0.00  0.00    -0.190 OA
ATOM     25  C19 ZIN A   1      17.680  -2.874  11.767  0.00  0.00     0.013 A 
BRANCH  21  26
ATOM     26  N24 ZIN A   1      20.093  -5.322   9.404  0.00  0.00    -0.332 N 
ATOM     27  H45 ZIN A   1      20.647  -6.003   9.818  0.00  0.00     0.168 HD
BRANCH  26  28
ATOM     28  C25 ZIN A   1      20.102  -5.169   8.065  0.00  0.00     0.353 C 
ATOM     29  O26 ZIN A   1      19.708  -6.064   7.349  0.00  0.00    -0.283 OA
ENDBRANCH  26  28
ENDBRANCH  21  26
ENDBRANCH  16  19
ENDBRANCH   1  16
TORSDOF 10
ENDMDL
MODEL 8
REMARK VINA RESULT:      -7.4      3.595      7.801
REMARK  10 active torsions:
REMARK  status: ('A' for Active; 'I' for Inactive)
REMARK    1  A    between atoms: O2_2  and  C3_3 
REMARK    2  A    between atoms: C6_6  and  C7_7 
REMARK    3  A    between atoms: C7_7  and  C8_8 
REMARK    4  A    between atoms: C8_8  and  N11_10 
REMARK    5  A    between atoms: N11_10  and  C14_13 
REMARK    6  A    between atoms: C14_13  and  C15_14 
REMARK    7  A    between atoms: C15_14  and  O17_15 
REMARK    8  A    between atoms: C15_14  and  C18_16 
REMARK    9  A    between atoms: C23_21  and  N24_22 
REMARK   10  A    between atoms: N24_22  and  C25_23 
ROOT
ATOM      1  C14 ZIN A   1      18.185  -0.395  10.405  0.00  0.00     0.269 C 
ENDROOT
BRANCH   1   2
ATOM      2  N11 ZIN A   1      19.169  -0.578  11.480  0.00  0.00    -0.068 N 
ATOM      3  H12 ZIN A   1      19.214   0.259  12.042  0.00  0.00     0.277 HD
ATOM      4  H13 ZIN A   1      20.076  -0.762  11.078  0.00  0.00     0.277 HD
BRANCH   2   5
ATOM      5  C8  ZIN A   1      18.768  -1.712  12.324  0.00  0.00     0.186 C 
ATOM      6  C10 ZIN A   1      18.949  -1.341  13.797  0.00  0.00     0.040 C 
BRANCH   5   7
ATOM      7  C7  ZIN A   1      19.638  -2.926  11.993  0.00  0.00     0.071 C 
BRANCH   7   8
ATOM      8  C6  ZIN A   1      18.824  -3.932  11.220  0.00  0.00    -0.056 A 
ATOM      9  C5  ZIN A   1      19.435  -4.733  10.273  0.00  0.00     0.010 A 
ATOM     10  C4  ZIN A   1      18.691  -5.655   9.563  0.00  0.00     0.037 A 
ATOM     11  C3  ZIN A   1      17.329  -5.777   9.801  0.00  0.00     0.068 A 
ATOM     12  C29 ZIN A   1      16.718  -4.968  10.748  0.00  0.00     0.037 A 
ATOM     13  C28 ZIN A   1      17.467  -4.051  11.459  0.00  0.00     0.010 A 
BRANCH  11  14
ATOM     14  O2  ZIN A   1      16.595  -6.683   9.103  0.00  0.00    -0.356 OA
ATOM     15  C1  ZIN A   1      15.482  -6.182   8.360  0.00  0.00     0.210 C 
ENDBRANCH  11  14
ENDBRANCH   7   8
ENDBRANCH   5   7
ENDBRANCH   2   5
ENDBRANCH   1   2
BRANCH   1  16
ATOM     16  C15 ZIN A   1      18.652   0.723   9.470  0.00  0.00     0.176 C 
BRANCH  16  17
ATOM     17  O17 ZIN A   1      19.861   1.293   9.976  0.00  0.00    -0.389 OA
ATOM     18  H42 ZIN A   1      20.380   0.690  10.526  0.00  0.00     0.210 HD
ENDBRANCH  16  17
BRANCH  16  19
ATOM     19  C18 ZIN A   1      18.900   0.157   8.096  0.00  0.00    -0.026 A 
ATOM     20  C27 ZIN A   1      19.103  -1.201   7.935  0.00  0.00     0.042 A 
ATOM     21  C23 ZIN A   1      19.325  -1.724   6.670  0.00  0.00     0.071 A 
ATOM     22  C21 ZIN A   1      19.354  -0.874   5.566  0.00  0.00     0.134 A 
ATOM     23  C20 ZIN A   1      19.155   0.485   5.735  0.00  0.00     0.043 A 
ATOM     24  O22 ZIN A   1      19.577  -1.382   4.323  0.00  0.00    -0.190 OA
ATOM     25  C19 ZIN A   1      18.929   0.998   6.999  0.00  0.00     0.013 A 
BRANCH  21  26
ATOM     26  N24 ZIN A   1      19.525  -3.100   6.504  0.00  0.00    -0.332 N 
ATOM     27  H45 ZIN A   1      20.426  -3.459   6.465  0.00  0.00     0.168 HD
BRANCH  26  28
ATOM     28  C25 ZIN A   1      18.466  -3.927   6.399  0.00  0.00     0.353 C 
ATOM     29  O26 ZIN A   1      18.629  -5.085   6.078  0.00  0.00    -0.283 OA
ENDBRANCH  26  28
ENDBRANCH  21  26
ENDBRANCH  16  19
ENDBRANCH   1  16
TORSDOF 10
ENDMDL
MODEL 9
REMARK VINA RESULT:      -7.3      2.863      5.937
REMARK  10 active torsions:
REMARK  status: ('A' for Active; 'I' for Inactive)
REMARK    1  A    between atoms: O2_2  and  C3_3 
REMARK    2  A    between atoms: C6_6  and  C7_7 
REMARK    3  A    between atoms: C7_7  and  C8_8 
REMARK    4  A    between atoms: C8_8  and  N11_10 
REMARK    5  A    between atoms: N11_10  and  C14_13 
REMARK    6  A    between atoms: C14_13  and  C15_14 
REMARK    7  A    between atoms: C15_14  and  O17_15 
REMARK    8  A    between atoms: C15_14  and  C18_16 
REMARK    9  A    between atoms: C23_21  and  N24_22 
REMARK   10  A    between atoms: N24_22  and  C25_23 
ROOT
ATOM      1  C14 ZIN A   1      18.965   1.804  15.757  0.00  0.00     0.269 C 
ENDROOT
BRANCH   1   2
ATOM      2  N11 ZIN A   1      17.672   1.257  16.190  0.00  0.00    -0.068 N 
ATOM      3  H12 ZIN A   1      16.925   1.825  15.820  0.00  0.00     0.277 HD
ATOM      4  H13 ZIN A   1      17.627   1.257  17.198  0.00  0.00     0.277 HD
BRANCH   2   5
ATOM      5  C8  ZIN A   1      17.532  -0.119  15.694  0.00  0.00     0.186 C 
ATOM      6  C10 ZIN A   1      17.212  -1.053  16.864  0.00  0.00     0.040 C 
BRANCH   5   7
ATOM      7  C7  ZIN A   1      18.840  -0.559  15.034  0.00  0.00     0.071 C 
BRANCH   7   8
ATOM      8  C6  ZIN A   1      18.550  -1.108  13.661  0.00  0.00    -0.056 A 
ATOM      9  C5  ZIN A   1      17.526  -0.570  12.904  0.00  0.00     0.010 A 
ATOM     10  C4  ZIN A   1      17.258  -1.072  11.645  0.00  0.00     0.037 A 
ATOM     11  C3  ZIN A   1      18.020  -2.116  11.140  0.00  0.00     0.068 A 
ATOM     12  C29 ZIN A   1      19.043  -2.658  11.904  0.00  0.00     0.037 A 
ATOM     13  C28 ZIN A   1      19.310  -2.149  13.160  0.00  0.00     0.010 A 
BRANCH  11  14
ATOM     14  O2  ZIN A   1      17.758  -2.612   9.902  0.00  0.00    -0.356 OA
ATOM     15  C1  ZIN A   1      18.435  -2.001   8.802  0.00  0.00     0.210 C 
ENDBRANCH  11  14
ENDBRANCH   7   8
ENDBRANCH   5   7
ENDBRANCH   2   5
ENDBRANCH   1   2
BRANCH   1  16
ATOM     16  C15 ZIN A   1      18.869   3.329  15.670  0.00  0.00     0.176 C 
BRANCH  16  17
ATOM     17  O17 ZIN A   1      20.182   3.892  15.706  0.00  0.00    -0.389 OA
ATOM     18  H42 ZIN A   1      20.486   4.124  16.595  0.00  0.00     0.210 HD
ENDBRANCH  16  17
BRANCH  16  19
ATOM     19  C18 ZIN A   1      18.191   3.716  14.381  0.00  0.00    -0.026 A 
ATOM     20  C27 ZIN A   1      18.327   2.916  13.262  0.00  0.00     0.042 A 
ATOM     21  C23 ZIN A   1      17.699   3.268  12.077  0.00  0.00     0.071 A 
ATOM     22  C21 ZIN A   1      16.941   4.435  12.016  0.00  0.00     0.134 A 
ATOM     23  C20 ZIN A   1      16.813   5.234  13.139  0.00  0.00     0.043 A 
ATOM     24  O22 ZIN A   1      16.327   4.788  10.854  0.00  0.00    -0.190 OA
ATOM     25  C19 ZIN A   1      17.438   4.873  14.319  0.00  0.00     0.013 A 
BRANCH  21  26
ATOM     26  N24 ZIN A   1      17.831   2.455  10.943  0.00  0.00    -0.332 N 
ATOM     27  H45 ZIN A   1      17.079   1.924  10.637  0.00  0.00     0.168 HD
BRANCH  26  28
ATOM     28  C25 ZIN A   1      19.002   2.412  10.278  0.00  0.00     0.353 C 
ATOM     29  O26 ZIN A   1      19.022   2.556   9.074  0.00  0.00    -0.283 OA
ENDBRANCH  26  28
ENDBRANCH  21  26
ENDBRANCH  16  19
ENDBRANCH   1  16
TORSDOF 10
ENDMDL
