MODEL 1
REMARK VINA RESULT:      -8.4      0.000      0.000
REMARK  2 active torsions:
REMARK  status: ('A' for Active; 'I' for Inactive)
REMARK    1  A    between atoms: C2_2  and  O4_4 
REMARK    2  A    between atoms: O4_4  and  C5_5 
REMARK       I    between atoms: N14_13  and  C15_14 
REMARK       I    between atoms: C15_14  and  N16_15 
ROOT
ATOM      1  C5  ZIN A   1      18.652  -1.328   7.185  0.00  0.00     0.171 C 
ATOM      2  C7  ZIN A   1      19.179  -2.655   7.675  0.00  0.00     0.078 C 
ATOM      3  C8  ZIN A   1      18.395  -3.184   8.839  0.00  0.00    -0.028 A 
ATOM      4  C9  ZIN A   1      17.591  -4.301   8.686  0.00  0.00     0.009 A 
ATOM      5  C10 ZIN A   1      16.859  -4.767   9.763  0.00  0.00     0.001 A 
ATOM      6  C11 ZIN A   1      16.925  -4.124  10.985  0.00  0.00     0.002 A 
ATOM      7  C12 ZIN A   1      17.734  -3.012  11.139  0.00  0.00     0.031 A 
ATOM      8  C13 ZIN A   1      18.472  -2.559  10.056  0.00  0.00     0.050 A 
ATOM      9  N14 ZIN A   1      19.341  -1.475  10.172  0.00  0.00    -0.264 N 
ATOM     10  C15 ZIN A   1      20.410  -1.596  10.985  0.00  0.00     0.325 C 
ATOM     11  N16 ZIN A   1      20.616  -2.742  11.662  0.00  0.00    -0.351 N 
ATOM     12  O17 ZIN A   1      21.187  -0.669  11.108  0.00  0.00    -0.247 OA
ATOM     13  C18 ZIN A   1      19.161  -0.276   9.489  0.00  0.00     0.053 A 
ATOM     14  C19 ZIN A   1      19.349   0.891  10.239  0.00  0.00     0.031 A 
ATOM     15  C20 ZIN A   1      19.168   2.132   9.673  0.00  0.00     0.002 A 
ATOM     16  C21 ZIN A   1      18.792   2.223   8.345  0.00  0.00     0.001 A 
ATOM     17  C22 ZIN A   1      18.619   1.077   7.603  0.00  0.00     0.012 A 
ATOM     18  C23 ZIN A   1      18.818  -0.191   8.161  0.00  0.00    -0.001 A 
ATOM     19  H33 ZIN A   1      19.996  -3.482  11.564  0.00  0.00     0.160 HD
ATOM     20  H34 ZIN A   1      21.384  -2.829  12.247  0.00  0.00     0.160 HD
ENDROOT
BRANCH   1  21
ATOM     21  O4  ZIN A   1      19.344  -0.985   5.956  0.00  0.00    -0.311 OA
BRANCH  21  22
ATOM     22  C2  ZIN A   1      18.889  -1.545   4.824  0.00  0.00     0.255 C 
ATOM     23  C1  ZIN A   1      17.428  -1.445   4.468  0.00  0.00     0.126 C 
ATOM     24  O3  ZIN A   1      19.652  -2.128   4.090  0.00  0.00    -0.266 OA
ENDBRANCH  21  22
ENDBRANCH   1  21
TORSDOF 2
ENDMDL
MODEL 2
REMARK VINA RESULT:      -8.2      4.196      5.654
REMARK  2 active torsions:
REMARK  status: ('A' for Active; 'I' for Inactive)
REMARK    1  A    between atoms: C2_2  and  O4_4 
REMARK    2  A    between atoms: O4_4  and  C5_5 
REMARK       I    between atoms: N14_13  and  C15_14 
REMARK       I    between atoms: C15_14  and  N16_15 
ROOT
ATOM      1  C5  ZIN A   1      18.885   1.721  11.244  0.00  0.00     0.171 C 
ATOM      2  C7  ZIN A   1      19.842   1.184  12.280  0.00  0.00     0.078 C 
ATOM      3  C8  ZIN A   1      19.132   0.626  13.477  0.00  0.00    -0.028 A 
ATOM      4  C9  ZIN A   1      19.136  -0.739  13.715  0.00  0.00     0.009 A 
ATOM      5  C10 ZIN A   1      18.461  -1.241  14.813  0.00  0.00     0.001 A 
ATOM      6  C11 ZIN A   1      17.783  -0.392  15.667  0.00  0.00     0.002 A 
ATOM      7  C12 ZIN A   1      17.784   0.971  15.432  0.00  0.00     0.031 A 
ATOM      8  C13 ZIN A   1      18.473   1.467  14.335  0.00  0.00     0.050 A 
ATOM      9  N14 ZIN A   1      18.549   2.836  14.083  0.00  0.00    -0.264 N 
ATOM     10  C15 ZIN A   1      19.193   3.616  14.974  0.00  0.00     0.325 C 
ATOM     11  N16 ZIN A   1      19.744   3.069  16.075  0.00  0.00    -0.351 N 
ATOM     12  O17 ZIN A   1      19.277   4.814  14.784  0.00  0.00    -0.247 OA
ATOM     13  C18 ZIN A   1      17.994   3.437  12.957  0.00  0.00     0.053 A 
ATOM     14  C19 ZIN A   1      17.286   4.624  13.181  0.00  0.00     0.031 A 
ATOM     15  C20 ZIN A   1      16.671   5.287  12.144  0.00  0.00     0.002 A 
ATOM     16  C21 ZIN A   1      16.752   4.767  10.866  0.00  0.00     0.001 A 
ATOM     17  C22 ZIN A   1      17.457   3.607  10.641  0.00  0.00     0.012 A 
ATOM     18  C23 ZIN A   1      18.104   2.932  11.683  0.00  0.00    -0.001 A 
ATOM     19  H33 ZIN A   1      19.677   2.113  16.228  0.00  0.00     0.160 HD
ATOM     20  H34 ZIN A   1      20.206   3.631  16.717  0.00  0.00     0.160 HD
ENDROOT
BRANCH   1  21
ATOM     21  O4  ZIN A   1      19.642   2.067  10.054  0.00  0.00    -0.311 OA
BRANCH  21  22
ATOM     22  C2  ZIN A   1      19.575   1.214   9.020  0.00  0.00     0.255 C 
ATOM     23  C1  ZIN A   1      18.996   1.669   7.705  0.00  0.00     0.126 C 
ATOM     24  O3  ZIN A   1      19.979   0.082   9.143  0.00  0.00    -0.266 OA
ENDBRANCH  21  22
ENDBRANCH   1  21
TORSDOF 2
ENDMDL
MODEL 3
REMARK VINA RESULT:      -8.0      3.173      5.500
REMARK  2 active torsions:
REMARK  status: ('A' for Active; 'I' for Inactive)
REMARK    1  A    between atoms: C2_2  and  O4_4 
REMARK    2  A    between atoms: O4_4  and  C5_5 
REMARK       I    between atoms: N14_13  and  C15_14 
REMARK       I    between atoms: C15_14  and  N16_15 
ROOT
ATOM      1  C5  ZIN A   1      17.846  -1.589  10.994  0.00  0.00     0.171 C 
ATOM      2  C7  ZIN A   1      16.994  -0.734  10.087  0.00  0.00     0.078 C 
ATOM      3  C8  ZIN A   1      17.816   0.184   9.232  0.00  0.00    -0.028 A 
ATOM      4  C9  ZIN A   1      17.902  -0.029   7.866  0.00  0.00     0.009 A 
ATOM      5  C10 ZIN A   1      18.680   0.815   7.093  0.00  0.00     0.001 A 
ATOM      6  C11 ZIN A   1      19.369   1.862   7.674  0.00  0.00     0.002 A 
ATOM      7  C12 ZIN A   1      19.277   2.077   9.038  0.00  0.00     0.031 A 
ATOM      8  C13 ZIN A   1      18.488   1.233   9.804  0.00  0.00     0.050 A 
ATOM      9  N14 ZIN A   1      18.320   1.438  11.173  0.00  0.00    -0.264 N 
ATOM     10  C15 ZIN A   1      17.699   2.563  11.581  0.00  0.00     0.325 C 
ATOM     11  N16 ZIN A   1      17.258   3.456  10.673  0.00  0.00    -0.351 N 
ATOM     12  O17 ZIN A   1      17.537   2.771  12.767  0.00  0.00    -0.247 OA
ATOM     13  C18 ZIN A   1      18.761   0.538  12.139  0.00  0.00     0.053 A 
ATOM     14  C19 ZIN A   1      19.418   1.096  13.242  0.00  0.00     0.031 A 
ATOM     15  C20 ZIN A   1      19.922   0.298  14.243  0.00  0.00     0.002 A 
ATOM     16  C21 ZIN A   1      19.779  -1.074  14.151  0.00  0.00     0.001 A 
ATOM     17  C22 ZIN A   1      19.123  -1.624  13.074  0.00  0.00     0.012 A 
ATOM     18  C23 ZIN A   1      18.589  -0.823  12.057  0.00  0.00    -0.001 A 
ATOM     19  H33 ZIN A   1      17.387   3.290   9.726  0.00  0.00     0.160 HD
ATOM     20  H34 ZIN A   1      16.812   4.266  10.967  0.00  0.00     0.160 HD
ENDROOT
BRANCH   1  21
ATOM     21  O4  ZIN A   1      16.989  -2.565  11.642  0.00  0.00    -0.311 OA
BRANCH  21  22
ATOM     22  C2  ZIN A   1      17.123  -3.844  11.258  0.00  0.00     0.255 C 
ATOM     23  C1  ZIN A   1      18.410  -4.311  10.627  0.00  0.00     0.126 C 
ATOM     24  O3  ZIN A   1      16.212  -4.621  11.418  0.00  0.00    -0.266 OA
ENDBRANCH  21  22
ENDBRANCH   1  21
TORSDOF 2
ENDMDL
MODEL 4
REMARK VINA RESULT:      -7.9      3.317      5.476
REMARK  2 active torsions:
REMARK  status: ('A' for Active; 'I' for Inactive)
REMARK    1  A    between atoms: C2_2  and  O4_4 
REMARK    2  A    between atoms: O4_4  and  C5_5 
REMARK       I    between atoms: N14_13  and  C15_14 
REMARK       I    between atoms: C15_14  and  N16_15 
ROOT
ATOM      1  C5  ZIN A   1      17.856   1.959  11.583  0.00  0.00     0.171 C 
ATOM      2  C7  ZIN A   1      17.083   1.035  12.492  0.00  0.00     0.078 C 
ATOM      3  C8  ZIN A   1      17.976   0.077  13.223  0.00  0.00    -0.028 A 
ATOM      4  C9  ZIN A   1      18.161   0.203  14.590  0.00  0.00     0.009 A 
ATOM      5  C10 ZIN A   1      19.002  -0.676  15.248  0.00  0.00     0.001 A 
ATOM      6  C11 ZIN A   1      19.657  -1.674  14.551  0.00  0.00     0.002 A 
ATOM      7  C12 ZIN A   1      19.467  -1.803  13.186  0.00  0.00     0.031 A 
ATOM      8  C13 ZIN A   1      18.614  -0.923  12.537  0.00  0.00     0.050 A 
ATOM      9  N14 ZIN A   1      18.347  -1.043  11.174  0.00  0.00    -0.264 N 
ATOM     10  C15 ZIN A   1      17.709  -2.149  10.741  0.00  0.00     0.325 C 
ATOM     11  N16 ZIN A   1      17.346  -3.105  11.618  0.00  0.00    -0.351 N 
ATOM     12  O17 ZIN A   1      17.462  -2.284   9.558  0.00  0.00    -0.247 OA
ATOM     13  C18 ZIN A   1      18.706  -0.077  10.238  0.00  0.00     0.053 A 
ATOM     14  C19 ZIN A   1      19.285  -0.553   9.056  0.00  0.00     0.031 A 
ATOM     15  C20 ZIN A   1      19.705   0.315   8.075  0.00  0.00     0.002 A 
ATOM     16  C21 ZIN A   1      19.555   1.676   8.265  0.00  0.00     0.001 A 
ATOM     17  C22 ZIN A   1      18.975   2.146   9.421  0.00  0.00     0.012 A 
ATOM     18  C23 ZIN A   1      18.526   1.274  10.420  0.00  0.00    -0.001 A 
ATOM     19  H33 ZIN A   1      17.544  -2.998  12.562  0.00  0.00     0.160 HD
ATOM     20  H34 ZIN A   1      16.888  -3.901  11.306  0.00  0.00     0.160 HD
ENDROOT
BRANCH   1  21
ATOM     21  O4  ZIN A   1      16.943   2.961  11.064  0.00  0.00    -0.311 OA
BRANCH  21  22
ATOM     22  C2  ZIN A   1      17.059   4.204  11.556  0.00  0.00     0.255 C 
ATOM     23  C1  ZIN A   1      18.361   4.654  12.168  0.00  0.00     0.126 C 
ATOM     24  O3  ZIN A   1      16.119   4.962  11.509  0.00  0.00    -0.266 OA
ENDBRANCH  21  22
ENDBRANCH   1  21
TORSDOF 2
ENDMDL
MODEL 5
REMARK VINA RESULT:      -7.8      1.405      1.689
REMARK  2 active torsions:
REMARK  status: ('A' for Active; 'I' for Inactive)
REMARK    1  A    between atoms: C2_2  and  O4_4 
REMARK    2  A    between atoms: O4_4  and  C5_5 
REMARK       I    between atoms: N14_13  and  C15_14 
REMARK       I    between atoms: C15_14  and  N16_15 
ROOT
ATOM      1  C5  ZIN A   1      18.329  -1.716   7.425  0.00  0.00     0.171 C 
ATOM      2  C7  ZIN A   1      18.950  -3.084   7.560  0.00  0.00     0.078 C 
ATOM      3  C8  ZIN A   1      18.033  -4.061   8.234  0.00  0.00    -0.028 A 
ATOM      4  C9  ZIN A   1      17.476  -5.104   7.512  0.00  0.00     0.009 A 
ATOM      5  C10 ZIN A   1      16.617  -5.987   8.142  0.00  0.00     0.001 A 
ATOM      6  C11 ZIN A   1      16.312  -5.832   9.482  0.00  0.00     0.002 A 
ATOM      7  C12 ZIN A   1      16.874  -4.794  10.203  0.00  0.00     0.031 A 
ATOM      8  C13 ZIN A   1      17.742  -3.921   9.566  0.00  0.00     0.050 A 
ATOM      9  N14 ZIN A   1      18.375  -2.890  10.260  0.00  0.00    -0.264 N 
ATOM     10  C15 ZIN A   1      19.249  -3.216  11.233  0.00  0.00     0.325 C 
ATOM     11  N16 ZIN A   1      19.492  -4.511  11.515  0.00  0.00    -0.351 N 
ATOM     12  O17 ZIN A   1      19.818  -2.342  11.857  0.00  0.00    -0.247 OA
ATOM     13  C18 ZIN A   1      18.151  -1.542   9.996  0.00  0.00     0.053 A 
ATOM     14  C19 ZIN A   1      17.978  -0.719  11.115  0.00  0.00     0.031 A 
ATOM     15  C20 ZIN A   1      17.720   0.625  10.972  0.00  0.00     0.002 A 
ATOM     16  C21 ZIN A   1      17.628   1.164   9.702  0.00  0.00     0.001 A 
ATOM     17  C22 ZIN A   1      17.810   0.360   8.601  0.00  0.00     0.012 A 
ATOM     18  C23 ZIN A   1      18.091  -1.005   8.733  0.00  0.00    -0.001 A 
ATOM     19  H33 ZIN A   1      19.038  -5.210  11.018  0.00  0.00     0.160 HD
ATOM     20  H34 ZIN A   1      20.120  -4.746  12.216  0.00  0.00     0.160 HD
ENDROOT
BRANCH   1  21
ATOM     21  O4  ZIN A   1      19.202  -0.894   6.606  0.00  0.00    -0.311 OA
BRANCH  21  22
ATOM     22  C2  ZIN A   1      19.055  -0.987   5.275  0.00  0.00     0.255 C 
ATOM     23  C1  ZIN A   1      17.682  -1.165   4.680  0.00  0.00     0.126 C 
ATOM     24  O3  ZIN A   1      20.023  -0.928   4.555  0.00  0.00    -0.266 OA
ENDBRANCH  21  22
ENDBRANCH   1  21
TORSDOF 2
ENDMDL
MODEL 6
REMARK VINA RESULT:      -7.7      2.697      4.817
REMARK  2 active torsions:
REMARK  status: ('A' for Active; 'I' for Inactive)
REMARK    1  A    between atoms: C2_2  and  O4_4 
REMARK    2  A    between atoms: O4_4  and  C5_5 
REMARK       I    between atoms: N14_13  and  C15_14 
REMARK       I    between atoms: C15_14  and  N16_15 
ROOT
ATOM      1  C5  ZIN A   1      18.245  -1.367   8.813  0.00  0.00     0.171 C 
ATOM      2  C7  ZIN A   1      17.715  -2.777   8.888  0.00  0.00     0.078 C 
ATOM      3  C8  ZIN A   1      18.770  -3.799   8.584  0.00  0.00    -0.028 A 
ATOM      4  C9  ZIN A   1      19.251  -4.623   9.589  0.00  0.00     0.009 A 
ATOM      5  C10 ZIN A   1      20.237  -5.548   9.298  0.00  0.00     0.001 A 
ATOM      6  C11 ZIN A   1      20.744  -5.652   8.016  0.00  0.00     0.002 A 
ATOM      7  C12 ZIN A   1      20.259  -4.833   7.012  0.00  0.00     0.031 A 
ATOM      8  C13 ZIN A   1      19.263  -3.916   7.311  0.00  0.00     0.050 A 
ATOM      9  N14 ZIN A   1      18.703  -3.104   6.325  0.00  0.00    -0.264 N 
ATOM     10  C15 ZIN A   1      18.010  -3.692   5.328  0.00  0.00     0.325 C 
ATOM     11  N16 ZIN A   1      17.873  -5.032   5.302  0.00  0.00    -0.351 N 
ATOM     12  O17 ZIN A   1      17.510  -3.013   4.453  0.00  0.00    -0.247 OA
ATOM     13  C18 ZIN A   1      18.822  -1.717   6.319  0.00  0.00     0.053 A 
ATOM     14  C19 ZIN A   1      19.135  -1.134   5.086  0.00  0.00     0.031 A 
ATOM     15  C20 ZIN A   1      19.306   0.226   4.970  0.00  0.00     0.002 A 
ATOM     16  C21 ZIN A   1      19.171   1.023   6.092  0.00  0.00     0.001 A 
ATOM     17  C22 ZIN A   1      18.852   0.454   7.303  0.00  0.00     0.012 A 
ATOM     18  C23 ZIN A   1      18.656  -0.927   7.431  0.00  0.00    -0.001 A 
ATOM     19  H33 ZIN A   1      18.273  -5.575   6.000  0.00  0.00     0.160 HD
ATOM     20  H34 ZIN A   1      17.376  -5.455   4.585  0.00  0.00     0.160 HD
ENDROOT
BRANCH   1  21
ATOM     21  O4  ZIN A   1      17.217  -0.463   9.297  0.00  0.00    -0.311 OA
BRANCH  21  22
ATOM     22  C2  ZIN A   1      17.230  -0.171  10.607  0.00  0.00     0.255 C 
ATOM     23  C1  ZIN A   1      18.540  -0.097  11.349  0.00  0.00     0.126 C 
ATOM     24  O3  ZIN A   1      16.192   0.033  11.191  0.00  0.00    -0.266 OA
ENDBRANCH  21  22
ENDBRANCH   1  21
TORSDOF 2
ENDMDL
MODEL 7
REMARK VINA RESULT:      -7.6      2.687      5.621
REMARK  2 active torsions:
REMARK  status: ('A' for Active; 'I' for Inactive)
REMARK    1  A    between atoms: C2_2  and  O4_4 
REMARK    2  A    between atoms: O4_4  and  C5_5 
REMARK       I    between atoms: N14_13  and  C15_14 
REMARK       I    between atoms: C15_14  and  N16_15 
ROOT
ATOM      1  C5  ZIN A   1      18.355  -2.050   9.827  0.00  0.00     0.171 C 
ATOM      2  C7  ZIN A   1      19.534  -1.770   8.928  0.00  0.00     0.078 C 
ATOM      3  C8  ZIN A   1      19.250  -2.109   7.495  0.00  0.00    -0.028 A 
ATOM      4  C9  ZIN A   1      19.126  -1.101   6.553  0.00  0.00     0.009 A 
ATOM      5  C10 ZIN A   1      18.846  -1.427   5.238  0.00  0.00     0.001 A 
ATOM      6  C11 ZIN A   1      18.687  -2.748   4.863  0.00  0.00     0.002 A 
ATOM      7  C12 ZIN A   1      18.818  -3.755   5.803  0.00  0.00     0.031 A 
ATOM      8  C13 ZIN A   1      19.109  -3.419   7.116  0.00  0.00     0.050 A 
ATOM      9  N14 ZIN A   1      19.302  -4.397   8.091  0.00  0.00    -0.264 N 
ATOM     10  C15 ZIN A   1      20.352  -5.233   7.960  0.00  0.00     0.325 C 
ATOM     11  N16 ZIN A   1      21.183  -5.111   6.907  0.00  0.00    -0.351 N 
ATOM     12  O17 ZIN A   1      20.548  -6.096   8.793  0.00  0.00    -0.247 OA
ATOM     13  C18 ZIN A   1      18.466  -4.552   9.193  0.00  0.00     0.053 A 
ATOM     14  C19 ZIN A   1      18.096  -5.866   9.501  0.00  0.00     0.031 A 
ATOM     15  C20 ZIN A   1      17.249  -6.134  10.551  0.00  0.00     0.002 A 
ATOM     16  C21 ZIN A   1      16.755  -5.087  11.307  0.00  0.00     0.001 A 
ATOM     17  C22 ZIN A   1      17.127  -3.795  11.014  0.00  0.00     0.012 A 
ATOM     18  C23 ZIN A   1      18.003  -3.510   9.960  0.00  0.00    -0.001 A 
ATOM     19  H33 ZIN A   1      21.027  -4.422   6.242  0.00  0.00     0.160 HD
ATOM     20  H34 ZIN A   1      21.938  -5.713   6.812  0.00  0.00     0.160 HD
ENDROOT
BRANCH   1  21
ATOM     21  O4  ZIN A   1      18.650  -1.525  11.148  0.00  0.00    -0.311 OA
BRANCH  21  22
ATOM     22  C2  ZIN A   1      18.234  -0.277  11.415  0.00  0.00     0.255 C 
ATOM     23  C1  ZIN A   1      16.771   0.068  11.310  0.00  0.00     0.126 C 
ATOM     24  O3  ZIN A   1      19.033   0.569  11.739  0.00  0.00    -0.266 OA
ENDBRANCH  21  22
ENDBRANCH   1  21
TORSDOF 2
ENDMDL
MODEL 8
REMARK VINA RESULT:      -7.6      2.074      5.995
REMARK  2 active torsions:
REMARK  status: ('A' for Active; 'I' for Inactive)
REMARK    1  A    between atoms: C2_2  and  O4_4 
REMARK    2  A    between atoms: O4_4  and  C5_5 
REMARK       I    between atoms: N14_13  and  C15_14 
REMARK       I    between atoms: C15_14  and  N16_15 
ROOT
ATOM      1  C5  ZIN A   1      18.916  -1.689  11.202  0.00  0.00     0.171 C 
ATOM      2  C7  ZIN A   1      19.956  -1.207  10.220  0.00  0.00     0.078 C 
ATOM      3  C8  ZIN A   1      19.343  -0.635   8.977  0.00  0.00    -0.028 A 
ATOM      4  C9  ZIN A   1      19.421   0.725   8.725  0.00  0.00     0.009 A 
ATOM      5  C10 ZIN A   1      18.834   1.242   7.583  0.00  0.00     0.001 A 
ATOM      6  C11 ZIN A   1      18.172   0.411   6.698  0.00  0.00     0.002 A 
ATOM      7  C12 ZIN A   1      18.101  -0.948   6.947  0.00  0.00     0.031 A 
ATOM      8  C13 ZIN A   1      18.700  -1.458   8.089  0.00  0.00     0.050 A 
ATOM      9  N14 ZIN A   1      18.702  -2.826   8.359  0.00  0.00    -0.264 N 
ATOM     10  C15 ZIN A   1      19.364  -3.645   7.517  0.00  0.00     0.325 C 
ATOM     11  N16 ZIN A   1      20.002  -3.136   6.445  0.00  0.00    -0.351 N 
ATOM     12  O17 ZIN A   1      19.384  -4.842   7.725  0.00  0.00    -0.247 OA
ATOM     13  C18 ZIN A   1      18.055  -3.388   9.456  0.00  0.00     0.053 A 
ATOM     14  C19 ZIN A   1      17.311  -4.546   9.202  0.00  0.00     0.031 A 
ATOM     15  C20 ZIN A   1      16.607  -5.169  10.207  0.00  0.00     0.002 A 
ATOM     16  C21 ZIN A   1      16.634  -4.637  11.483  0.00  0.00     0.001 A 
ATOM     17  C22 ZIN A   1      17.374  -3.505  11.738  0.00  0.00     0.012 A 
ATOM     18  C23 ZIN A   1      18.111  -2.872  10.729  0.00  0.00    -0.001 A 
ATOM     19  H33 ZIN A   1      19.986  -2.180   6.279  0.00  0.00     0.160 HD
ATOM     20  H34 ZIN A   1      20.478  -3.725   5.839  0.00  0.00     0.160 HD
ENDROOT
BRANCH   1  21
ATOM     21  O4  ZIN A   1      19.585  -2.052  12.438  0.00  0.00    -0.311 OA
BRANCH  21  22
ATOM     22  C2  ZIN A   1      19.252  -1.357  13.538  0.00  0.00     0.255 C 
ATOM     23  C1  ZIN A   1      18.255  -0.231  13.444  0.00  0.00     0.126 C 
ATOM     24  O3  ZIN A   1      19.753  -1.635  14.602  0.00  0.00    -0.266 OA
ENDBRANCH  21  22
ENDBRANCH   1  21
TORSDOF 2
ENDMDL
MODEL 9
REMARK VINA RESULT:      -7.6      5.192      7.835
REMARK  2 active torsions:
REMARK  status: ('A' for Active; 'I' for Inactive)
REMARK    1  A    between atoms: C2_2  and  O4_4 
REMARK    2  A    between atoms: O4_4  and  C5_5 
REMARK       I    between atoms: N14_13  and  C15_14 
REMARK       I    between atoms: C15_14  and  N16_15 
ROOT
ATOM      1  C5  ZIN A   1      18.112   1.140  14.337  0.00  0.00     0.171 C 
ATOM      2  C7  ZIN A   1      17.172   1.108  13.158  0.00  0.00     0.078 C 
ATOM      3  C8  ZIN A   1      17.859   1.460  11.872  0.00  0.00    -0.028 A 
ATOM      4  C9  ZIN A   1      18.061   0.490  10.903  0.00  0.00     0.009 A 
ATOM      5  C10 ZIN A   1      18.714   0.825   9.730  0.00  0.00     0.001 A 
ATOM      6  C11 ZIN A   1      19.164   2.115   9.522  0.00  0.00     0.002 A 
ATOM      7  C12 ZIN A   1      18.956   3.084  10.487  0.00  0.00     0.031 A 
ATOM      8  C13 ZIN A   1      18.292   2.742  11.656  0.00  0.00     0.050 A 
ATOM      9  N14 ZIN A   1      18.011   3.693  12.636  0.00  0.00    -0.264 N 
ATOM     10  C15 ZIN A   1      17.171   4.701  12.328  0.00  0.00     0.325 C 
ATOM     11  N16 ZIN A   1      16.627   4.773  11.098  0.00  0.00    -0.351 N 
ATOM     12  O17 ZIN A   1      16.905   5.546  13.161  0.00  0.00    -0.247 OA
ATOM     13  C18 ZIN A   1      18.553   3.651  13.918  0.00  0.00     0.053 A 
ATOM     14  C19 ZIN A   1      19.031   4.867  14.421  0.00  0.00     0.031 A 
ATOM     15  C20 ZIN A   1      19.614   4.936  15.665  0.00  0.00     0.002 A 
ATOM     16  C21 ZIN A   1      19.732   3.786  16.423  0.00  0.00     0.001 A 
ATOM     17  C22 ZIN A   1      19.252   2.592  15.936  0.00  0.00     0.012 A 
ATOM     18  C23 ZIN A   1      18.639   2.510  14.679  0.00  0.00    -0.001 A 
ATOM     19  H33 ZIN A   1      16.838   4.099  10.433  0.00  0.00     0.160 HD
ATOM     20  H34 ZIN A   1      16.023   5.499  10.876  0.00  0.00     0.160 HD
ENDROOT
BRANCH   1  21
ATOM     21  O4  ZIN A   1      17.413   0.613  15.496  0.00  0.00    -0.311 OA
BRANCH  21  22
ATOM     22  C2  ZIN A   1      17.769  -0.610  15.917  0.00  0.00     0.255 C 
ATOM     23  C1  ZIN A   1      19.014  -1.262  15.374  0.00  0.00     0.126 C 
ATOM     24  O3  ZIN A   1      17.090  -1.189  16.733  0.00  0.00    -0.266 OA
ENDBRANCH  21  22
ENDBRANCH   1  21
TORSDOF 2
ENDMDL
