MODEL 1
REMARK VINA RESULT:      -5.6      0.000      0.000
REMARK  8 active torsions:
REMARK  status: ('A' for Active; 'I' for Inactive)
REMARK    1  A    between atoms: C2_2  and  C3_3 
REMARK    2  A    between atoms: C3_3  and  C4_4 
REMARK    3  A    between atoms: C4_4  and  C6_6 
REMARK    4  A    between atoms: C4_4  and  C11_11 
REMARK    5  A    between atoms: C6_6  and  O7_7 
REMARK    6  A    between atoms: O7_7  and  C8_8 
REMARK       I    between atoms: C8_8  and  N9_9 
REMARK    7  A    between atoms: C11_11  and  O12_12 
REMARK    8  A    between atoms: O12_12  and  C13_13 
REMARK       I    between atoms: C13_13  and  N14_14 
ROOT
ATOM      1  C4  ZIN A   1      18.571   0.698   8.372  0.00  0.00     0.000 C 
ATOM      2  C5  ZIN A   1      17.347  -0.209   8.224  0.00  0.00     0.019 C 
ENDROOT
BRANCH   1   3
ATOM      3  C3  ZIN A   1      18.934   1.291   7.009  0.00  0.00     0.013 C 
BRANCH   3   4
ATOM      4  C2  ZIN A   1      18.274   0.466   5.902  0.00  0.00    -0.004 C 
ATOM      5  C1  ZIN A   1      19.336   0.027   4.891  0.00  0.00     0.005 C 
ENDBRANCH   3   4
ENDBRANCH   1   3
BRANCH   1   6
ATOM      6  C6  ZIN A   1      19.751  -0.120   8.902  0.00  0.00     0.192 C 
BRANCH   6   7
ATOM      7  O7  ZIN A   1      19.371  -0.768  10.145  0.00  0.00    -0.303 OA
BRANCH   7   8
ATOM      8  C8  ZIN A   1      20.239  -0.677  11.171  0.00  0.00     0.358 C 
ATOM      9  N9  ZIN A   1      21.561  -0.584  10.929  0.00  0.00    -0.346 N 
ATOM     10  H28 ZIN A   1      21.888  -0.583  10.016  0.00  0.00     0.161 HD
ATOM     11  H29 ZIN A   1      22.185  -0.519  11.668  0.00  0.00     0.161 HD
ATOM     12  O10 ZIN A   1      19.828  -0.679  12.315  0.00  0.00    -0.239 OA
ENDBRANCH   7   8
ENDBRANCH   6   7
ENDBRANCH   1   6
BRANCH   1  13
ATOM     13  C11 ZIN A   1      18.253   1.829   9.353  0.00  0.00     0.192 C 
BRANCH  13  14
ATOM     14  O12 ZIN A   1      19.485   2.485   9.751  0.00  0.00    -0.303 OA
BRANCH  14  15
ATOM     15  C13 ZIN A   1      19.542   2.969  11.005  0.00  0.00     0.358 C 
ATOM     16  N14 ZIN A   1      20.713   2.978  11.673  0.00  0.00    -0.346 N 
ATOM     17  H32 ZIN A   1      21.515   2.634  11.249  0.00  0.00     0.161 HD
ATOM     18  H33 ZIN A   1      20.753   3.327  12.576  0.00  0.00     0.161 HD
ATOM     19  O15 ZIN A   1      18.537   3.399  11.536  0.00  0.00    -0.239 OA
ENDBRANCH  14  15
ENDBRANCH  13  14
ENDBRANCH   1  13
TORSDOF 8
ENDMDL
MODEL 2
REMARK VINA RESULT:      -5.6      2.828      4.593
REMARK  8 active torsions:
REMARK  status: ('A' for Active; 'I' for Inactive)
REMARK    1  A    between atoms: C2_2  and  C3_3 
REMARK    2  A    between atoms: C3_3  and  C4_4 
REMARK    3  A    between atoms: C4_4  and  C6_6 
REMARK    4  A    between atoms: C4_4  and  C11_11 
REMARK    5  A    between atoms: C6_6  and  O7_7 
REMARK    6  A    between atoms: O7_7  and  C8_8 
REMARK       I    between atoms: C8_8  and  N9_9 
REMARK    7  A    between atoms: C11_11  and  O12_12 
REMARK    8  A    between atoms: O12_12  and  C13_13 
REMARK       I    between atoms: C13_13  and  N14_14 
ROOT
ATOM      1  C4  ZIN A   1      18.505   0.312   8.305  0.00  0.00     0.000 C 
ATOM      2  C5  ZIN A   1      17.321   0.176   9.265  0.00  0.00     0.019 C 
ENDROOT
BRANCH   1   3
ATOM      3  C3  ZIN A   1      19.145   1.691   8.476  0.00  0.00     0.013 C 
BRANCH   3   4
ATOM      4  C2  ZIN A   1      18.393   2.472   9.557  0.00  0.00    -0.004 C 
ATOM      5  C1  ZIN A   1      19.371   2.898  10.653  0.00  0.00     0.005 C 
ENDBRANCH   3   4
ENDBRANCH   1   3
BRANCH   1   6
ATOM      6  C6  ZIN A   1      18.013   0.154   6.864  0.00  0.00     0.192 C 
BRANCH   6   7
ATOM      7  O7  ZIN A   1      19.123   0.357   5.950  0.00  0.00    -0.303 OA
BRANCH   7   8
ATOM      8  C8  ZIN A   1      19.164  -0.428   4.856  0.00  0.00     0.358 C 
ATOM      9  N9  ZIN A   1      18.298  -0.220   3.845  0.00  0.00    -0.346 N 
ATOM     10  H28 ZIN A   1      17.645   0.495   3.905  0.00  0.00     0.161 HD
ATOM     11  H29 ZIN A   1      18.328  -0.786   3.057  0.00  0.00     0.161 HD
ATOM     12  O10 ZIN A   1      19.982  -1.324   4.782  0.00  0.00    -0.239 OA
ENDBRANCH   7   8
ENDBRANCH   6   7
ENDBRANCH   1   6
BRANCH   1  13
ATOM     13  C11 ZIN A   1      19.539  -0.773   8.613  0.00  0.00     0.192 C 
BRANCH  13  14
ATOM     14  O12 ZIN A   1      20.588  -0.217   9.449  0.00  0.00    -0.303 OA
BRANCH  14  15
ATOM     15  C13 ZIN A   1      20.637  -0.636  10.727  0.00  0.00     0.358 C 
ATOM     16  N14 ZIN A   1      21.413   0.010  11.620  0.00  0.00    -0.346 N 
ATOM     17  H32 ZIN A   1      21.937   0.777  11.340  0.00  0.00     0.161 HD
ATOM     18  H33 ZIN A   1      21.448  -0.292  12.540  0.00  0.00     0.161 HD
ATOM     19  O15 ZIN A   1      19.981  -1.597  11.077  0.00  0.00    -0.239 OA
ENDBRANCH  14  15
ENDBRANCH  13  14
ENDBRANCH   1  13
TORSDOF 8
ENDMDL
MODEL 3
REMARK VINA RESULT:      -5.4      1.633      1.869
REMARK  8 active torsions:
REMARK  status: ('A' for Active; 'I' for Inactive)
REMARK    1  A    between atoms: C2_2  and  C3_3 
REMARK    2  A    between atoms: C3_3  and  C4_4 
REMARK    3  A    between atoms: C4_4  and  C6_6 
REMARK    4  A    between atoms: C4_4  and  C11_11 
REMARK    5  A    between atoms: C6_6  and  O7_7 
REMARK    6  A    between atoms: O7_7  and  C8_8 
REMARK       I    between atoms: C8_8  and  N9_9 
REMARK    7  A    between atoms: C11_11  and  O12_12 
REMARK    8  A    between atoms: O12_12  and  C13_13 
REMARK       I    between atoms: C13_13  and  N14_14 
ROOT
ATOM      1  C4  ZIN A   1      18.112   0.656   9.677  0.00  0.00     0.000 C 
ATOM      2  C5  ZIN A   1      17.014  -0.010  10.510  0.00  0.00     0.019 C 
ENDROOT
BRANCH   1   3
ATOM      3  C3  ZIN A   1      17.894   0.336   8.197  0.00  0.00     0.013 C 
BRANCH   3   4
ATOM      4  C2  ZIN A   1      18.933   1.082   7.356  0.00  0.00    -0.004 C 
ATOM      5  C1  ZIN A   1      18.872   0.584   5.910  0.00  0.00     0.005 C 
ENDBRANCH   3   4
ENDBRANCH   1   3
BRANCH   1   6
ATOM      6  C6  ZIN A   1      19.479   0.126  10.117  0.00  0.00     0.192 C 
BRANCH   6   7
ATOM      7  O7  ZIN A   1      19.445  -0.180  11.536  0.00  0.00    -0.303 OA
BRANCH   7   8
ATOM      8  C8  ZIN A   1      20.221   0.572  12.341  0.00  0.00     0.358 C 
ATOM      9  N9  ZIN A   1      21.554   0.613  12.146  0.00  0.00    -0.346 N 
ATOM     10  H28 ZIN A   1      21.954   0.101  11.425  0.00  0.00     0.161 HD
ATOM     11  H29 ZIN A   1      22.112   1.154  12.726  0.00  0.00     0.161 HD
ATOM     12  O10 ZIN A   1      19.718   1.212  13.244  0.00  0.00    -0.239 OA
ENDBRANCH   7   8
ENDBRANCH   6   7
ENDBRANCH   1   6
BRANCH   1  13
ATOM     13  C11 ZIN A   1      18.062   2.171   9.885  0.00  0.00     0.192 C 
BRANCH  13  14
ATOM     14  O12 ZIN A   1      17.233   2.475  11.037  0.00  0.00    -0.303 OA
BRANCH  14  15
ATOM     15  C13 ZIN A   1      17.449   3.653  11.652  0.00  0.00     0.358 C 
ATOM     16  N14 ZIN A   1      18.627   3.889  12.263  0.00  0.00    -0.346 N 
ATOM     17  H32 ZIN A   1      19.319   3.209  12.260  0.00  0.00     0.161 HD
ATOM     18  H33 ZIN A   1      18.782   4.738  12.705  0.00  0.00     0.161 HD
ATOM     19  O15 ZIN A   1      16.582   4.504  11.656  0.00  0.00    -0.239 OA
ENDBRANCH  14  15
ENDBRANCH  13  14
ENDBRANCH   1  13
TORSDOF 8
ENDMDL
MODEL 4
REMARK VINA RESULT:      -5.3      3.855      6.729
REMARK  8 active torsions:
REMARK  status: ('A' for Active; 'I' for Inactive)
REMARK    1  A    between atoms: C2_2  and  C3_3 
REMARK    2  A    between atoms: C3_3  and  C4_4 
REMARK    3  A    between atoms: C4_4  and  C6_6 
REMARK    4  A    between atoms: C4_4  and  C11_11 
REMARK    5  A    between atoms: C6_6  and  O7_7 
REMARK    6  A    between atoms: O7_7  and  C8_8 
REMARK       I    between atoms: C8_8  and  N9_9 
REMARK    7  A    between atoms: C11_11  and  O12_12 
REMARK    8  A    between atoms: O12_12  and  C13_13 
REMARK       I    between atoms: C13_13  and  N14_14 
ROOT
ATOM      1  C4  ZIN A   1      18.511  -0.552  14.547  0.00  0.00     0.000 C 
ATOM      2  C5  ZIN A   1      17.401   0.479  14.758  0.00  0.00     0.019 C 
ENDROOT
BRANCH   1   3
ATOM      3  C3  ZIN A   1      18.662  -1.404  15.809  0.00  0.00     0.013 C 
BRANCH   3   4
ATOM      4  C2  ZIN A   1      18.021  -0.678  16.994  0.00  0.00    -0.004 C 
ATOM      5  C1  ZIN A   1      19.108  -0.270  17.991  0.00  0.00     0.005 C 
ENDBRANCH   3   4
ENDBRANCH   1   3
BRANCH   1   6
ATOM      6  C6  ZIN A   1      19.830   0.169  14.259  0.00  0.00     0.192 C 
BRANCH   6   7
ATOM      7  O7  ZIN A   1      19.631   1.133  13.192  0.00  0.00    -0.303 OA
BRANCH   7   8
ATOM      8  C8  ZIN A   1      20.313   0.928  12.049  0.00  0.00     0.358 C 
ATOM      9  N9  ZIN A   1      21.619   0.601  12.092  0.00  0.00    -0.346 N 
ATOM     10  H28 ZIN A   1      22.068   0.512  12.948  0.00  0.00     0.161 HD
ATOM     11  H29 ZIN A   1      22.109   0.453  11.269  0.00  0.00     0.161 HD
ATOM     12  O10 ZIN A   1      19.749   1.040  10.978  0.00  0.00    -0.239 OA
ENDBRANCH   7   8
ENDBRANCH   6   7
ENDBRANCH   1   6
BRANCH   1  13
ATOM     13  C11 ZIN A   1      18.153  -1.453  13.363  0.00  0.00     0.192 C 
BRANCH  13  14
ATOM     14  O12 ZIN A   1      19.276  -2.321  13.059  0.00  0.00    -0.303 OA
BRANCH  14  15
ATOM     15  C13 ZIN A   1      19.509  -2.588  11.760  0.00  0.00     0.358 C 
ATOM     16  N14 ZIN A   1      20.728  -3.005  11.365  0.00  0.00    -0.346 N 
ATOM     17  H32 ZIN A   1      21.439  -3.112  12.016  0.00  0.00     0.161 HD
ATOM     18  H33 ZIN A   1      20.895  -3.197  10.429  0.00  0.00     0.161 HD
ATOM     19  O15 ZIN A   1      18.619  -2.453  10.944  0.00  0.00    -0.239 OA
ENDBRANCH  14  15
ENDBRANCH  13  14
ENDBRANCH   1  13
TORSDOF 8
ENDMDL
MODEL 5
REMARK VINA RESULT:      -5.2      3.307      6.296
REMARK  8 active torsions:
REMARK  status: ('A' for Active; 'I' for Inactive)
REMARK    1  A    between atoms: C2_2  and  C3_3 
REMARK    2  A    between atoms: C3_3  and  C4_4 
REMARK    3  A    between atoms: C4_4  and  C6_6 
REMARK    4  A    between atoms: C4_4  and  C11_11 
REMARK    5  A    between atoms: C6_6  and  O7_7 
REMARK    6  A    between atoms: O7_7  and  C8_8 
REMARK       I    between atoms: C8_8  and  N9_9 
REMARK    7  A    between atoms: C11_11  and  O12_12 
REMARK    8  A    between atoms: O12_12  and  C13_13 
REMARK       I    between atoms: C13_13  and  N14_14 
ROOT
ATOM      1  C4  ZIN A   1      18.432  -0.566  13.184  0.00  0.00     0.000 C 
ATOM      2  C5  ZIN A   1      17.211  -0.514  12.263  0.00  0.00     0.019 C 
ENDROOT
BRANCH   1   3
ATOM      3  C3  ZIN A   1      18.054  -0.025  14.564  0.00  0.00     0.013 C 
BRANCH   3   4
ATOM      4  C2  ZIN A   1      18.373  -1.078  15.629  0.00  0.00    -0.004 C 
ATOM      5  C1  ZIN A   1      17.294  -1.050  16.713  0.00  0.00     0.005 C 
ENDBRANCH   3   4
ENDBRANCH   1   3
BRANCH   1   6
ATOM      6  C6  ZIN A   1      19.554   0.291  12.592  0.00  0.00     0.192 C 
BRANCH   6   7
ATOM      7  O7  ZIN A   1      19.406   0.352  11.149  0.00  0.00    -0.303 OA
BRANCH   7   8
ATOM      8  C8  ZIN A   1      20.339  -0.280  10.411  0.00  0.00     0.358 C 
ATOM      9  N9  ZIN A   1      21.521  -0.614  10.963  0.00  0.00    -0.346 N 
ATOM     10  H28 ZIN A   1      21.701  -0.400  11.892  0.00  0.00     0.161 HD
ATOM     11  H29 ZIN A   1      22.193  -1.069  10.431  0.00  0.00     0.161 HD
ATOM     12  O10 ZIN A   1      20.113  -0.548   9.247  0.00  0.00    -0.239 OA
ENDBRANCH   7   8
ENDBRANCH   6   7
ENDBRANCH   1   6
BRANCH   1  13
ATOM     13  C11 ZIN A   1      18.911  -2.013  13.316  0.00  0.00     0.192 C 
BRANCH  13  14
ATOM     14  O12 ZIN A   1      18.365  -2.805  12.228  0.00  0.00    -0.303 OA
BRANCH  14  15
ATOM     15  C13 ZIN A   1      19.202  -3.662  11.616  0.00  0.00     0.358 C 
ATOM     16  N14 ZIN A   1      18.708  -4.697  10.907  0.00  0.00    -0.346 N 
ATOM     17  H32 ZIN A   1      17.749  -4.824  10.839  0.00  0.00     0.161 HD
ATOM     18  H33 ZIN A   1      19.312  -5.314  10.466  0.00  0.00     0.161 HD
ATOM     19  O15 ZIN A   1      20.404  -3.503  11.702  0.00  0.00    -0.239 OA
ENDBRANCH  14  15
ENDBRANCH  13  14
ENDBRANCH   1  13
TORSDOF 8
ENDMDL
MODEL 6
REMARK VINA RESULT:      -5.2      2.934      5.787
REMARK  8 active torsions:
REMARK  status: ('A' for Active; 'I' for Inactive)
REMARK    1  A    between atoms: C2_2  and  C3_3 
REMARK    2  A    between atoms: C3_3  and  C4_4 
REMARK    3  A    between atoms: C4_4  and  C6_6 
REMARK    4  A    between atoms: C4_4  and  C11_11 
REMARK    5  A    between atoms: C6_6  and  O7_7 
REMARK    6  A    between atoms: O7_7  and  C8_8 
REMARK       I    between atoms: C8_8  and  N9_9 
REMARK    7  A    between atoms: C11_11  and  O12_12 
REMARK    8  A    between atoms: O12_12  and  C13_13 
REMARK       I    between atoms: C13_13  and  N14_14 
ROOT
ATOM      1  C4  ZIN A   1      18.026   0.333  12.995  0.00  0.00     0.000 C 
ATOM      2  C5  ZIN A   1      17.007  -0.347  12.078  0.00  0.00     0.019 C 
ENDROOT
BRANCH   1   3
ATOM      3  C3  ZIN A   1      17.821  -0.150  14.433  0.00  0.00     0.013 C 
BRANCH   3   4
ATOM      4  C2  ZIN A   1      18.961  -1.093  14.822  0.00  0.00    -0.004 C 
ATOM      5  C1  ZIN A   1      18.791  -1.526  16.279  0.00  0.00     0.005 C 
ENDBRANCH   3   4
ENDBRANCH   1   3
BRANCH   1   6
ATOM      6  C6  ZIN A   1      17.834   1.850  12.935  0.00  0.00     0.192 C 
BRANCH   6   7
ATOM      7  O7  ZIN A   1      17.068   2.195  11.751  0.00  0.00    -0.303 OA
BRANCH   7   8
ATOM      8  C8  ZIN A   1      17.510   3.235  11.018  0.00  0.00     0.358 C 
ATOM      9  N9  ZIN A   1      18.761   3.224  10.519  0.00  0.00    -0.346 N 
ATOM     10  H28 ZIN A   1      19.344   2.467  10.687  0.00  0.00     0.161 HD
ATOM     11  H29 ZIN A   1      19.079   3.974   9.992  0.00  0.00     0.161 HD
ATOM     12  O10 ZIN A   1      16.779   4.183  10.809  0.00  0.00    -0.239 OA
ENDBRANCH   7   8
ENDBRANCH   6   7
ENDBRANCH   1   6
BRANCH   1  13
ATOM     13  C11 ZIN A   1      19.442  -0.020  12.536  0.00  0.00     0.192 C 
BRANCH  13  14
ATOM     14  O12 ZIN A   1      19.639   0.444  11.175  0.00  0.00    -0.303 OA
BRANCH  14  15
ATOM     15  C13 ZIN A   1      20.474  -0.273  10.400  0.00  0.00     0.358 C 
ATOM     16  N14 ZIN A   1      21.650  -0.707  10.896  0.00  0.00    -0.346 N 
ATOM     17  H32 ZIN A   1      21.895  -0.501  11.812  0.00  0.00     0.161 HD
ATOM     18  H33 ZIN A   1      22.251  -1.223  10.337  0.00  0.00     0.161 HD
ATOM     19  O15 ZIN A   1      20.168  -0.530   9.252  0.00  0.00    -0.239 OA
ENDBRANCH  14  15
ENDBRANCH  13  14
ENDBRANCH   1  13
TORSDOF 8
ENDMDL
MODEL 7
REMARK VINA RESULT:      -5.1      2.132      4.141
REMARK  8 active torsions:
REMARK  status: ('A' for Active; 'I' for Inactive)
REMARK    1  A    between atoms: C2_2  and  C3_3 
REMARK    2  A    between atoms: C3_3  and  C4_4 
REMARK    3  A    between atoms: C4_4  and  C6_6 
REMARK    4  A    between atoms: C4_4  and  C11_11 
REMARK    5  A    between atoms: C6_6  and  O7_7 
REMARK    6  A    between atoms: O7_7  and  C8_8 
REMARK       I    between atoms: C8_8  and  N9_9 
REMARK    7  A    between atoms: C11_11  and  O12_12 
REMARK    8  A    between atoms: O12_12  and  C13_13 
REMARK       I    between atoms: C13_13  and  N14_14 
ROOT
ATOM      1  C4  ZIN A   1      18.680   2.655  10.443  0.00  0.00     0.000 C 
ATOM      2  C5  ZIN A   1      17.484   1.828  10.922  0.00  0.00     0.019 C 
ENDROOT
BRANCH   1   3
ATOM      3  C3  ZIN A   1      18.251   4.112  10.260  0.00  0.00     0.013 C 
BRANCH   3   4
ATOM      4  C2  ZIN A   1      16.881   4.326  10.908  0.00  0.00    -0.004 C 
ATOM      5  C1  ZIN A   1      16.997   5.382  12.010  0.00  0.00     0.005 C 
ENDBRANCH   3   4
ENDBRANCH   1   3
BRANCH   1   6
ATOM      6  C6  ZIN A   1      19.182   2.100   9.109  0.00  0.00     0.192 C 
BRANCH   6   7
ATOM      7  O7  ZIN A   1      18.620   0.779   8.891  0.00  0.00    -0.303 OA
BRANCH   7   8
ATOM      8  C8  ZIN A   1      19.491  -0.235   8.721  0.00  0.00     0.358 C 
ATOM      9  N9  ZIN A   1      19.303  -1.123   7.725  0.00  0.00    -0.346 N 
ATOM     10  H28 ZIN A   1      18.542  -1.032   7.131  0.00  0.00     0.161 HD
ATOM     11  H29 ZIN A   1      19.930  -1.853   7.603  0.00  0.00     0.161 HD
ATOM     12  O10 ZIN A   1      20.444  -0.348   9.466  0.00  0.00    -0.239 OA
ENDBRANCH   7   8
ENDBRANCH   6   7
ENDBRANCH   1   6
BRANCH   1  13
ATOM     13  C11 ZIN A   1      19.800   2.580  11.482  0.00  0.00     0.192 C 
BRANCH  13  14
ATOM     14  O12 ZIN A   1      19.442   1.621  12.512  0.00  0.00    -0.303 OA
BRANCH  14  15
ATOM     15  C13 ZIN A   1      20.358   0.684  12.819  0.00  0.00     0.358 C 
ATOM     16  N14 ZIN A   1      21.503   0.601  12.112  0.00  0.00    -0.346 N 
ATOM     17  H32 ZIN A   1      21.666   1.218  11.381  0.00  0.00     0.161 HD
ATOM     18  H33 ZIN A   1      22.163  -0.074  12.333  0.00  0.00     0.161 HD
ATOM     19  O15 ZIN A   1      20.153  -0.089  13.734  0.00  0.00    -0.239 OA
ENDBRANCH  14  15
ENDBRANCH  13  14
ENDBRANCH   1  13
TORSDOF 8
ENDMDL
MODEL 8
REMARK VINA RESULT:      -5.1      1.794      2.342
REMARK  8 active torsions:
REMARK  status: ('A' for Active; 'I' for Inactive)
REMARK    1  A    between atoms: C2_2  and  C3_3 
REMARK    2  A    between atoms: C3_3  and  C4_4 
REMARK    3  A    between atoms: C4_4  and  C6_6 
REMARK    4  A    between atoms: C4_4  and  C11_11 
REMARK    5  A    between atoms: C6_6  and  O7_7 
REMARK    6  A    between atoms: O7_7  and  C8_8 
REMARK       I    between atoms: C8_8  and  N9_9 
REMARK    7  A    between atoms: C11_11  and  O12_12 
REMARK    8  A    between atoms: O12_12  and  C13_13 
REMARK       I    between atoms: C13_13  and  N14_14 
ROOT
ATOM      1  C4  ZIN A   1      18.542   0.190   9.680  0.00  0.00     0.000 C 
ATOM      2  C5  ZIN A   1      17.179   0.026  10.356  0.00  0.00     0.019 C 
ENDROOT
BRANCH   1   3
ATOM      3  C3  ZIN A   1      18.351   0.804   8.291  0.00  0.00     0.013 C 
BRANCH   3   4
ATOM      4  C2  ZIN A   1      17.628  -0.196   7.386  0.00  0.00    -0.004 C 
ATOM      5  C1  ZIN A   1      17.685   0.291   5.937  0.00  0.00     0.005 C 
ENDBRANCH   3   4
ENDBRANCH   1   3
BRANCH   1   6
ATOM      6  C6  ZIN A   1      19.212  -1.179   9.544  0.00  0.00     0.192 C 
BRANCH   6   7
ATOM      7  O7  ZIN A   1      18.562  -2.126  10.431  0.00  0.00    -0.303 OA
BRANCH   7   8
ATOM      8  C8  ZIN A   1      19.312  -2.653  11.419  0.00  0.00     0.358 C 
ATOM      9  N9  ZIN A   1      20.638  -2.814  11.244  0.00  0.00    -0.346 N 
ATOM     10  H28 ZIN A   1      21.052  -2.550  10.408  0.00  0.00     0.161 HD
ATOM     11  H29 ZIN A   1      21.177  -3.193  11.956  0.00  0.00     0.161 HD
ATOM     12  O10 ZIN A   1      18.791  -2.982  12.466  0.00  0.00    -0.239 OA
ENDBRANCH   7   8
ENDBRANCH   6   7
ENDBRANCH   1   6
BRANCH   1  13
ATOM     13  C11 ZIN A   1      19.425   1.109  10.526  0.00  0.00     0.192 C 
BRANCH  13  14
ATOM     14  O12 ZIN A   1      19.219   0.816  11.933  0.00  0.00    -0.303 OA
BRANCH  14  15
ATOM     15  C13 ZIN A   1      20.312   0.527  12.664  0.00  0.00     0.358 C 
ATOM     16  N14 ZIN A   1      21.538   0.615  12.108  0.00  0.00    -0.346 N 
ATOM     17  H32 ZIN A   1      21.631   0.886  11.182  0.00  0.00     0.161 HD
ATOM     18  H33 ZIN A   1      22.325   0.408  12.635  0.00  0.00     0.161 HD
ATOM     19  O15 ZIN A   1      20.195   0.188  13.824  0.00  0.00    -0.239 OA
ENDBRANCH  14  15
ENDBRANCH  13  14
ENDBRANCH   1  13
TORSDOF 8
ENDMDL
MODEL 9
REMARK VINA RESULT:      -5.0      1.966      3.169
REMARK  8 active torsions:
REMARK  status: ('A' for Active; 'I' for Inactive)
REMARK    1  A    between atoms: C2_2  and  C3_3 
REMARK    2  A    between atoms: C3_3  and  C4_4 
REMARK    3  A    between atoms: C4_4  and  C6_6 
REMARK    4  A    between atoms: C4_4  and  C11_11 
REMARK    5  A    between atoms: C6_6  and  O7_7 
REMARK    6  A    between atoms: O7_7  and  C8_8 
REMARK       I    between atoms: C8_8  and  N9_9 
REMARK    7  A    between atoms: C11_11  and  O12_12 
REMARK    8  A    between atoms: O12_12  and  C13_13 
REMARK       I    between atoms: C13_13  and  N14_14 
ROOT
ATOM      1  C4  ZIN A   1      18.881   0.946   8.783  0.00  0.00     0.000 C 
ATOM      2  C5  ZIN A   1      20.002  -0.052   9.081  0.00  0.00     0.019 C 
ENDROOT
BRANCH   1   3
ATOM      3  C3  ZIN A   1      18.739   1.116   7.269  0.00  0.00     0.013 C 
BRANCH   3   4
ATOM      4  C2  ZIN A   1      18.763  -0.258   6.597  0.00  0.00    -0.004 C 
ATOM      5  C1  ZIN A   1      17.535  -0.407   5.696  0.00  0.00     0.005 C 
ENDBRANCH   3   4
ENDBRANCH   1   3
BRANCH   1   6
ATOM      6  C6  ZIN A   1      19.218   2.297   9.418  0.00  0.00     0.192 C 
BRANCH   6   7
ATOM      7  O7  ZIN A   1      18.750   2.316  10.793  0.00  0.00    -0.303 OA
BRANCH   7   8
ATOM      8  C8  ZIN A   1      19.689   2.316  11.758  0.00  0.00     0.358 C 
ATOM      9  N9  ZIN A   1      20.752   3.138  11.663  0.00  0.00    -0.346 N 
ATOM     10  H28 ZIN A   1      20.841   3.730  10.900  0.00  0.00     0.161 HD
ATOM     11  H29 ZIN A   1      21.428   3.138  12.359  0.00  0.00     0.161 HD
ATOM     12  O10 ZIN A   1      19.577   1.574  12.715  0.00  0.00    -0.239 OA
ENDBRANCH   7   8
ENDBRANCH   6   7
ENDBRANCH   1   6
BRANCH   1  13
ATOM     13  C11 ZIN A   1      17.565   0.423   9.363  0.00  0.00     0.192 C 
BRANCH  13  14
ATOM     14  O12 ZIN A   1      17.818  -0.787  10.123  0.00  0.00    -0.303 OA
BRANCH  14  15
ATOM     15  C13 ZIN A   1      17.225  -0.889  11.327  0.00  0.00     0.358 C 
ATOM     16  N14 ZIN A   1      16.852   0.224  11.991  0.00  0.00    -0.346 N 
ATOM     17  H32 ZIN A   1      17.013   1.098  11.602  0.00  0.00     0.161 HD
ATOM     18  H33 ZIN A   1      16.425   0.150  12.859  0.00  0.00     0.161 HD
ATOM     19  O15 ZIN A   1      17.024  -1.983  11.815  0.00  0.00    -0.239 OA
ENDBRANCH  14  15
ENDBRANCH  13  14
ENDBRANCH   1  13
TORSDOF 8
ENDMDL
