MODEL 1
REMARK VINA RESULT:      -5.8      0.000      0.000
REMARK  4 active torsions:
REMARK  status: ('A' for Active; 'I' for Inactive)
REMARK    1  A    between atoms: N2_2  and  O4_4 
REMARK    2  A    between atoms: O4_4  and  C5_5 
REMARK    3  A    between atoms: C11_9  and  O13_10 
REMARK    4  A    between atoms: O13_10  and  N14_11 
ROOT
ATOM      1  C5  ZIN A   1      19.052  -0.341   7.154  0.00  0.00     0.214 C 
ATOM      2  C7  ZIN A   1      17.568  -0.736   7.223  0.00  0.00     0.205 C 
ATOM      3  O8  ZIN A   1      17.021  -0.189   8.424  0.00  0.00    -0.378 OA
ATOM      4  C9  ZIN A   1      18.084   0.109   9.341  0.00  0.00     0.186 C 
ATOM      5  C11 ZIN A   1      17.756   1.446  10.047  0.00  0.00     0.214 C 
ATOM      6  C17 ZIN A   1      18.795   2.439   9.481  0.00  0.00     0.205 C 
ATOM      7  O18 ZIN A   1      19.195   1.873   8.212  0.00  0.00    -0.378 OA
ATOM      8  C19 ZIN A   1      19.319   0.439   8.454  0.00  0.00     0.186 C 
ENDROOT
BRANCH   1   9
ATOM      9  O4  ZIN A   1      19.292   0.490   6.017  0.00  0.00    -0.211 OA
BRANCH   9  10
ATOM     10  N2  ZIN A   1      19.282  -0.205   4.783  0.00  0.00     0.005 N 
ATOM     11  O1  ZIN A   1      18.527   0.146   3.894  0.00  0.00    -0.511 OA
ATOM     12  O3  ZIN A   1      20.032  -1.148   4.608  0.00  0.00    -0.511 OA
ENDBRANCH   9  10
ENDBRANCH   1   9
BRANCH   5  13
ATOM     13  O13 ZIN A   1      17.905   1.315  11.462  0.00  0.00    -0.211 OA
BRANCH  13  14
ATOM     14  N14 ZIN A   1      17.107   0.294  12.032  0.00  0.00     0.005 N 
ATOM     15  O15 ZIN A   1      17.577  -0.447  12.877  0.00  0.00    -0.511 OA
ATOM     16  O16 ZIN A   1      15.949   0.157  11.679  0.00  0.00    -0.511 OA
ENDBRANCH  13  14
ENDBRANCH   5  13
TORSDOF 4
ENDMDL
MODEL 2
REMARK VINA RESULT:      -5.8      1.450      5.940
REMARK  4 active torsions:
REMARK  status: ('A' for Active; 'I' for Inactive)
REMARK    1  A    between atoms: N2_2  and  O4_4 
REMARK    2  A    between atoms: O4_4  and  C5_5 
REMARK    3  A    between atoms: C11_9  and  O13_10 
REMARK    4  A    between atoms: O13_10  and  N14_11 
ROOT
ATOM      1  C5  ZIN A   1      18.570   1.574  10.367  0.00  0.00     0.214 C 
ATOM      2  C7  ZIN A   1      19.171   2.621   9.417  0.00  0.00     0.205 C 
ATOM      3  O8  ZIN A   1      19.336   2.011   8.135  0.00  0.00    -0.378 OA
ATOM      4  C9  ZIN A   1      19.342   0.583   8.284  0.00  0.00     0.186 C 
ATOM      5  C11 ZIN A   1      18.554  -0.030   7.102  0.00  0.00     0.214 C 
ATOM      6  C17 ZIN A   1      17.267  -0.586   7.751  0.00  0.00     0.205 C 
ATOM      7  O18 ZIN A   1      17.110   0.176   8.970  0.00  0.00    -0.378 OA
ATOM      8  C19 ZIN A   1      18.454   0.290   9.527  0.00  0.00     0.186 C 
ENDROOT
BRANCH   1   9
ATOM      9  O4  ZIN A   1      17.280   1.994  10.816  0.00  0.00    -0.211 OA
BRANCH   9  10
ATOM     10  N2  ZIN A   1      17.293   3.189  11.576  0.00  0.00     0.005 N 
ATOM     11  O1  ZIN A   1      16.675   4.164  11.187  0.00  0.00    -0.511 OA
ATOM     12  O3  ZIN A   1      17.917   3.239  12.620  0.00  0.00    -0.511 OA
ENDBRANCH   9  10
ENDBRANCH   1   9
BRANCH   5  13
ATOM     13  O13 ZIN A   1      19.304  -1.082   6.493  0.00  0.00    -0.211 OA
BRANCH  13  14
ATOM     14  N14 ZIN A   1      19.535  -0.898   5.108  0.00  0.00     0.005 N 
ATOM     15  O15 ZIN A   1      19.605   0.227   4.647  0.00  0.00    -0.511 OA
ATOM     16  O16 ZIN A   1      19.665  -1.865   4.379  0.00  0.00    -0.511 OA
ENDBRANCH  13  14
ENDBRANCH   5  13
TORSDOF 4
ENDMDL
MODEL 3
REMARK VINA RESULT:      -5.7      2.245      5.518
REMARK  4 active torsions:
REMARK  status: ('A' for Active; 'I' for Inactive)
REMARK    1  A    between atoms: N2_2  and  O4_4 
REMARK    2  A    between atoms: O4_4  and  C5_5 
REMARK    3  A    between atoms: C11_9  and  O13_10 
REMARK    4  A    between atoms: O13_10  and  N14_11 
ROOT
ATOM      1  C5  ZIN A   1      18.356   1.549  10.171  0.00  0.00     0.214 C 
ATOM      2  C7  ZIN A   1      19.500   0.642  10.651  0.00  0.00     0.205 C 
ATOM      3  O8  ZIN A   1      19.803  -0.279   9.602  0.00  0.00    -0.378 OA
ATOM      4  C9  ZIN A   1      18.688  -0.362   8.702  0.00  0.00     0.186 C 
ATOM      5  C11 ZIN A   1      19.236  -0.445   7.257  0.00  0.00     0.214 C 
ATOM      6  C17 ZIN A   1      18.852   0.912   6.628  0.00  0.00     0.205 C 
ATOM      7  O18 ZIN A   1      18.693   1.809   7.750  0.00  0.00    -0.378 OA
ATOM      8  C19 ZIN A   1      17.996   1.029   8.768  0.00  0.00     0.186 C 
ENDROOT
BRANCH   1   9
ATOM      9  O4  ZIN A   1      18.795   2.907  10.100  0.00  0.00    -0.211 OA
BRANCH   9  10
ATOM     10  N2  ZIN A   1      17.761   3.858  10.276  0.00  0.00     0.005 N 
ATOM     11  O1  ZIN A   1      16.892   3.665  11.108  0.00  0.00    -0.511 OA
ATOM     12  O3  ZIN A   1      17.743   4.871   9.601  0.00  0.00    -0.511 OA
ENDBRANCH   9  10
ENDBRANCH   1   9
BRANCH   5  13
ATOM     13  O13 ZIN A   1      18.618  -1.521   6.549  0.00  0.00    -0.211 OA
BRANCH  13  14
ATOM     14  N14 ZIN A   1      19.487  -2.203   5.664  0.00  0.00     0.005 N 
ATOM     15  O15 ZIN A   1      20.009  -3.248   6.009  0.00  0.00    -0.511 OA
ATOM     16  O16 ZIN A   1      19.712  -1.746   4.558  0.00  0.00    -0.511 OA
ENDBRANCH  13  14
ENDBRANCH   5  13
TORSDOF 4
ENDMDL
MODEL 4
REMARK VINA RESULT:      -5.6      5.092      7.158
REMARK  4 active torsions:
REMARK  status: ('A' for Active; 'I' for Inactive)
REMARK    1  A    between atoms: N2_2  and  O4_4 
REMARK    2  A    between atoms: O4_4  and  C5_5 
REMARK    3  A    between atoms: C11_9  and  O13_10 
REMARK    4  A    between atoms: O13_10  and  N14_11 
ROOT
ATOM      1  C5  ZIN A   1      17.769   0.883  13.465  0.00  0.00     0.214 C 
ATOM      2  C7  ZIN A   1      18.937   1.846  13.734  0.00  0.00     0.205 C 
ATOM      3  O8  ZIN A   1      19.365   1.654  15.083  0.00  0.00    -0.378 OA
ATOM      4  C9  ZIN A   1      18.316   1.021  15.831  0.00  0.00     0.186 C 
ATOM      5  C11 ZIN A   1      18.958  -0.016  16.784  0.00  0.00     0.214 C 
ATOM      6  C17 ZIN A   1      18.528  -1.380  16.204  0.00  0.00     0.205 C 
ATOM      7  O18 ZIN A   1      18.241  -1.118  14.812  0.00  0.00    -0.378 OA
ATOM      8  C19 ZIN A   1      17.533   0.159  14.802  0.00  0.00     0.186 C 
ENDROOT
BRANCH   1   9
ATOM      9  O4  ZIN A   1      18.124  -0.054  12.446  0.00  0.00    -0.211 OA
BRANCH   9  10
ATOM     10  N2  ZIN A   1      17.014  -0.661  11.809  0.00  0.00     0.005 N 
ATOM     11  O1  ZIN A   1      16.067   0.021  11.458  0.00  0.00    -0.511 OA
ATOM     12  O3  ZIN A   1      17.009  -1.861  11.607  0.00  0.00    -0.511 OA
ENDBRANCH   9  10
ENDBRANCH   1   9
BRANCH   5  13
ATOM     13  O13 ZIN A   1      18.457   0.148  18.112  0.00  0.00    -0.211 OA
BRANCH  13  14
ATOM     14  N14 ZIN A   1      18.617   1.455  18.631  0.00  0.00     0.005 N 
ATOM     15  O15 ZIN A   1      17.639   2.113  18.937  0.00  0.00    -0.511 OA
ATOM     16  O16 ZIN A   1      19.733   1.921  18.774  0.00  0.00    -0.511 OA
ENDBRANCH  13  14
ENDBRANCH   5  13
TORSDOF 4
ENDMDL
MODEL 5
REMARK VINA RESULT:      -5.6      4.438      8.373
REMARK  4 active torsions:
REMARK  status: ('A' for Active; 'I' for Inactive)
REMARK    1  A    between atoms: N2_2  and  O4_4 
REMARK    2  A    between atoms: O4_4  and  C5_5 
REMARK    3  A    between atoms: C11_9  and  O13_10 
REMARK    4  A    between atoms: O13_10  and  N14_11 
ROOT
ATOM      1  C5  ZIN A   1      19.276   2.056  15.871  0.00  0.00     0.214 C 
ATOM      2  C7  ZIN A   1      18.645   3.440  15.647  0.00  0.00     0.205 C 
ATOM      3  O8  ZIN A   1      18.124   3.477  14.318  0.00  0.00    -0.378 OA
ATOM      4  C9  ZIN A   1      18.755   2.457  13.529  0.00  0.00     0.186 C 
ATOM      5  C11 ZIN A   1      17.685   1.825  12.608  0.00  0.00     0.214 C 
ATOM      6  C17 ZIN A   1      17.490   0.402  13.175  0.00  0.00     0.205 C 
ATOM      7  O18 ZIN A   1      17.917   0.490  14.552  0.00  0.00    -0.378 OA
ATOM      8  C19 ZIN A   1      19.116   1.322  14.529  0.00  0.00     0.186 C 
ENDROOT
BRANCH   1   9
ATOM      9  O4  ZIN A   1      18.584   1.357  16.907  0.00  0.00    -0.211 OA
BRANCH   9  10
ATOM     10  N2  ZIN A   1      19.359   1.135  18.072  0.00  0.00     0.005 N 
ATOM     11  O1  ZIN A   1      19.640  -0.001  18.409  0.00  0.00    -0.511 OA
ATOM     12  O3  ZIN A   1      19.750   2.081  18.732  0.00  0.00    -0.511 OA
ENDBRANCH   9  10
ENDBRANCH   1   9
BRANCH   5  13
ATOM     13  O13 ZIN A   1      18.154   1.770  11.260  0.00  0.00    -0.211 OA
BRANCH  13  14
ATOM     14  N14 ZIN A   1      17.862   2.928  10.500  0.00  0.00     0.005 N 
ATOM     15  O15 ZIN A   1      18.531   3.197   9.518  0.00  0.00    -0.511 OA
ATOM     16  O16 ZIN A   1      16.941   3.654  10.827  0.00  0.00    -0.511 OA
ENDBRANCH  13  14
ENDBRANCH   5  13
TORSDOF 4
ENDMDL
MODEL 6
REMARK VINA RESULT:      -5.6      4.325      8.158
REMARK  4 active torsions:
REMARK  status: ('A' for Active; 'I' for Inactive)
REMARK    1  A    between atoms: N2_2  and  O4_4 
REMARK    2  A    between atoms: O4_4  and  C5_5 
REMARK    3  A    between atoms: C11_9  and  O13_10 
REMARK    4  A    between atoms: O13_10  and  N14_11 
ROOT
ATOM      1  C5  ZIN A   1      18.226   0.105  16.006  0.00  0.00     0.214 C 
ATOM      2  C7  ZIN A   1      18.506  -1.153  15.169  0.00  0.00     0.205 C 
ATOM      3  O8  ZIN A   1      18.339  -0.813  13.791  0.00  0.00    -0.378 OA
ATOM      4  C9  ZIN A   1      17.544   0.377  13.686  0.00  0.00     0.186 C 
ATOM      5  C11 ZIN A   1      18.131   1.254  12.555  0.00  0.00     0.214 C 
ATOM      6  C17 ZIN A   1      18.739   2.467  13.293  0.00  0.00     0.205 C 
ATOM      7  O18 ZIN A   1      18.995   1.994  14.634  0.00  0.00    -0.378 OA
ATOM      8  C19 ZIN A   1      17.831   1.185  14.983  0.00  0.00     0.186 C 
ENDROOT
BRANCH   1   9
ATOM      9  O4  ZIN A   1      19.400   0.499  16.718  0.00  0.00    -0.211 OA
BRANCH   9  10
ATOM     10  N2  ZIN A   1      19.195   0.694  18.106  0.00  0.00     0.005 N 
ATOM     11  O1  ZIN A   1      18.455  -0.052  18.722  0.00  0.00    -0.511 OA
ATOM     12  O3  ZIN A   1      19.763   1.603  18.684  0.00  0.00    -0.511 OA
ENDBRANCH   9  10
ENDBRANCH   1   9
BRANCH   5  13
ATOM     13  O13 ZIN A   1      17.098   1.675  11.661  0.00  0.00    -0.211 OA
BRANCH  13  14
ATOM     14  N14 ZIN A   1      17.504   2.670  10.740  0.00  0.00     0.005 N 
ATOM     15  O15 ZIN A   1      16.990   3.774  10.769  0.00  0.00    -0.511 OA
ATOM     16  O16 ZIN A   1      18.369   2.423   9.919  0.00  0.00    -0.511 OA
ENDBRANCH  13  14
ENDBRANCH   5  13
TORSDOF 4
ENDMDL
MODEL 7
REMARK VINA RESULT:      -5.5      1.196      5.779
REMARK  4 active torsions:
REMARK  status: ('A' for Active; 'I' for Inactive)
REMARK    1  A    between atoms: N2_2  and  O4_4 
REMARK    2  A    between atoms: O4_4  and  C5_5 
REMARK    3  A    between atoms: C11_9  and  O13_10 
REMARK    4  A    between atoms: O13_10  and  N14_11 
ROOT
ATOM      1  C5  ZIN A   1      17.520  -0.867   9.892  0.00  0.00     0.214 C 
ATOM      2  C7  ZIN A   1      18.386  -2.039   9.402  0.00  0.00     0.205 C 
ATOM      3  O8  ZIN A   1      18.953  -1.672   8.143  0.00  0.00    -0.378 OA
ATOM      4  C9  ZIN A   1      18.186  -0.605   7.567  0.00  0.00     0.186 C 
ATOM      5  C11 ZIN A   1      19.166   0.391   6.900  0.00  0.00     0.214 C 
ATOM      6  C17 ZIN A   1      19.094   1.648   7.794  0.00  0.00     0.205 C 
ATOM      7  O18 ZIN A   1      18.638   1.165   9.078  0.00  0.00    -0.378 OA
ATOM      8  C19 ZIN A   1      17.601   0.185   8.771  0.00  0.00     0.186 C 
ENDROOT
BRANCH   1   9
ATOM      9  O4  ZIN A   1      18.045  -0.337  11.111  0.00  0.00    -0.211 OA
BRANCH   9  10
ATOM     10  N2  ZIN A   1      17.054   0.029  12.054  0.00  0.00     0.005 N 
ATOM     11  O1  ZIN A   1      17.370   0.269  13.206  0.00  0.00    -0.511 OA
ATOM     12  O3  ZIN A   1      15.889   0.110  11.713  0.00  0.00    -0.511 OA
ENDBRANCH   9  10
ENDBRANCH   1   9
BRANCH   5  13
ATOM     13  O13 ZIN A   1      18.742   0.695   5.570  0.00  0.00    -0.211 OA
BRANCH  13  14
ATOM     14  N14 ZIN A   1      18.941  -0.360   4.647  0.00  0.00     0.005 N 
ATOM     15  O15 ZIN A   1      18.025  -0.727   3.934  0.00  0.00    -0.511 OA
ATOM     16  O16 ZIN A   1      20.030  -0.900   4.565  0.00  0.00    -0.511 OA
ENDBRANCH  13  14
ENDBRANCH   5  13
TORSDOF 4
ENDMDL
MODEL 8
REMARK VINA RESULT:      -5.5      1.779      2.232
REMARK  4 active torsions:
REMARK  status: ('A' for Active; 'I' for Inactive)
REMARK    1  A    between atoms: N2_2  and  O4_4 
REMARK    2  A    between atoms: O4_4  and  C5_5 
REMARK    3  A    between atoms: C11_9  and  O13_10 
REMARK    4  A    between atoms: O13_10  and  N14_11 
ROOT
ATOM      1  C5  ZIN A   1      19.057  -1.454   7.830  0.00  0.00     0.214 C 
ATOM      2  C7  ZIN A   1      17.888  -1.870   8.738  0.00  0.00     0.205 C 
ATOM      3  O8  ZIN A   1      17.712  -0.852   9.725  0.00  0.00    -0.378 OA
ATOM      4  C9  ZIN A   1      18.915  -0.076   9.830  0.00  0.00     0.186 C 
ATOM      5  C11 ZIN A   1      18.519   1.409  10.011  0.00  0.00     0.214 C 
ATOM      6  C17 ZIN A   1      18.939   2.077   8.683  0.00  0.00     0.205 C 
ATOM      7  O18 ZIN A   1      18.964   1.000   7.719  0.00  0.00    -0.378 OA
ATOM      8  C19 ZIN A   1      19.569  -0.128   8.421  0.00  0.00     0.186 C 
ENDROOT
BRANCH   1   9
ATOM      9  O4  ZIN A   1      18.600  -1.259   6.490  0.00  0.00    -0.211 OA
BRANCH   9  10
ATOM     10  N2  ZIN A   1      19.494  -1.735   5.501  0.00  0.00     0.005 N 
ATOM     11  O1  ZIN A   1      19.801  -2.914   5.475  0.00  0.00    -0.511 OA
ATOM     12  O3  ZIN A   1      19.951  -0.968   4.673  0.00  0.00    -0.511 OA
ENDBRANCH   9  10
ENDBRANCH   1   9
BRANCH   5  13
ATOM     13  O13 ZIN A   1      19.228   1.986  11.109  0.00  0.00    -0.211 OA
BRANCH  13  14
ATOM     14  N14 ZIN A   1      18.484   2.948  11.833  0.00  0.00     0.005 N 
ATOM     15  O15 ZIN A   1      17.272   2.992  11.720  0.00  0.00    -0.511 OA
ATOM     16  O16 ZIN A   1      19.055   3.731  12.570  0.00  0.00    -0.511 OA
ENDBRANCH  13  14
ENDBRANCH   5  13
TORSDOF 4
ENDMDL
MODEL 9
REMARK VINA RESULT:      -5.4      1.316      2.234
REMARK  4 active torsions:
REMARK  status: ('A' for Active; 'I' for Inactive)
REMARK    1  A    between atoms: N2_2  and  O4_4 
REMARK    2  A    between atoms: O4_4  and  C5_5 
REMARK    3  A    between atoms: C11_9  and  O13_10 
REMARK    4  A    between atoms: O13_10  and  N14_11 
ROOT
ATOM      1  C5  ZIN A   1      18.497   0.396   6.755  0.00  0.00     0.214 C 
ATOM      2  C7  ZIN A   1      19.009   1.493   7.703  0.00  0.00     0.205 C 
ATOM      3  O8  ZIN A   1      18.878   1.015   9.043  0.00  0.00    -0.378 OA
ATOM      4  C9  ZIN A   1      17.926  -0.058   9.076  0.00  0.00     0.186 C 
ATOM      5  C11 ZIN A   1      18.446  -1.139  10.054  0.00  0.00     0.214 C 
ATOM      6  C17 ZIN A   1      18.825  -2.325   9.141  0.00  0.00     0.205 C 
ATOM      7  O18 ZIN A   1      19.065  -1.733   7.845  0.00  0.00    -0.378 OA
ATOM      8  C19 ZIN A   1      18.012  -0.735   7.679  0.00  0.00     0.186 C 
ENDROOT
BRANCH   1   9
ATOM      9  O4  ZIN A   1      19.556  -0.067   5.915  0.00  0.00    -0.211 OA
BRANCH   9  10
ATOM     10  N2  ZIN A   1      19.115  -0.718   4.737  0.00  0.00     0.005 N 
ATOM     11  O1  ZIN A   1      18.253  -0.206   4.045  0.00  0.00    -0.511 OA
ATOM     12  O3  ZIN A   1      19.601  -1.786   4.413  0.00  0.00    -0.511 OA
ENDBRANCH   9  10
ENDBRANCH   1   9
BRANCH   5  13
ATOM     13  O13 ZIN A   1      17.420  -1.518  10.973  0.00  0.00    -0.211 OA
BRANCH  13  14
ATOM     14  N14 ZIN A   1      17.023  -0.483  11.853  0.00  0.00     0.005 N 
ATOM     15  O15 ZIN A   1      15.901  -0.016  11.777  0.00  0.00    -0.511 OA
ATOM     16  O16 ZIN A   1      17.804  -0.061  12.687  0.00  0.00    -0.511 OA
ENDBRANCH  13  14
ENDBRANCH   5  13
TORSDOF 4
ENDMDL
