MODEL 1
REMARK VINA RESULT:      -6.9      0.000      0.000
REMARK  7 active torsions:
REMARK  status: ('A' for Active; 'I' for Inactive)
REMARK    1  A    between atoms: C2_2  and  N4_4 
REMARK    2  A    between atoms: C13_11  and  O15_12 
REMARK    3  A    between atoms: O15_12  and  C16_13 
REMARK    4  A    between atoms: C16_13  and  C18_15 
REMARK    5  A    between atoms: C18_15  and  C20_16 
REMARK    6  A    between atoms: C18_15  and  C22_18 
REMARK    7  A    between atoms: C20_16  and  O21_17 
ROOT
ATOM      1  O15 ZIN A   1      19.238  -0.119  10.576  0.00  0.00    -0.315 OA
ENDROOT
BRANCH   1   2
ATOM      2  C13 ZIN A   1      20.003  -0.417   9.378  0.00  0.00     0.136 C 
ATOM      3  C12 ZIN A   1      19.928   0.773   8.416  0.00  0.00     0.066 C 
ATOM      4  C10 ZIN A   1      18.479   0.925   7.927  0.00  0.00     0.193 C 
ATOM      5  N4  ZIN A   1      18.134  -0.290   7.142  0.00  0.00    -0.059 N 
ATOM      6  C9  ZIN A   1      17.553   0.855   9.163  0.00  0.00     0.036 C 
ATOM      7  C5  ZIN A   1      16.869  -0.097   6.421  0.00  0.00     0.274 C 
ATOM      8  C6  ZIN A   1      17.992  -1.344   8.181  0.00  0.00     0.193 C 
ATOM      9  C28 ZIN A   1      19.406  -1.689   8.675  0.00  0.00     0.066 C 
ATOM     10  C8  ZIN A   1      17.231  -0.645   9.330  0.00  0.00     0.036 C 
BRANCH   5  11
ATOM     11  C2  ZIN A   1      19.216  -0.626   6.207  0.00  0.00     0.183 C 
ATOM     12  C1  ZIN A   1      18.946  -1.998   5.587  0.00  0.00     0.040 C 
ATOM     13  C3  ZIN A   1      19.282   0.429   5.102  0.00  0.00     0.040 C 
ENDBRANCH   5  11
ENDBRANCH   1   2
BRANCH   1  14
ATOM     14  C16 ZIN A   1      19.873  -0.247  11.752  0.00  0.00     0.270 C 
ATOM     15  O17 ZIN A   1      20.885   0.377  11.964  0.00  0.00    -0.264 OA
BRANCH  14  16
ATOM     16  C18 ZIN A   1      19.322  -1.171  12.807  0.00  0.00     0.142 C 
BRANCH  16  17
ATOM     17  C20 ZIN A   1      18.046  -0.568  13.398  0.00  0.00     0.183 C 
BRANCH  17  18
ATOM     18  O21 ZIN A   1      17.890   0.772  12.926  0.00  0.00    -0.400 OA
ATOM     19  H47 ZIN A   1      17.189   0.878  12.269  0.00  0.00     0.209 HD
ENDBRANCH  17  18
ENDBRANCH  16  17
BRANCH  16  20
ATOM     20  C22 ZIN A   1      19.005  -2.509  12.188  0.00  0.00    -0.043 A 
ATOM     21  C27 ZIN A   1      17.690  -2.901  12.025  0.00  0.00     0.008 A 
ATOM     22  C26 ZIN A   1      17.400  -4.126  11.455  0.00  0.00     0.001 A 
ATOM     23  C25 ZIN A   1      18.424  -4.962  11.055  0.00  0.00     0.000 A 
ATOM     24  C24 ZIN A   1      19.741  -4.572  11.222  0.00  0.00     0.001 A 
ATOM     25  C23 ZIN A   1      20.031  -3.345  11.789  0.00  0.00     0.008 A 
ENDBRANCH  16  20
ENDBRANCH  14  16
ENDBRANCH   1  14
TORSDOF 7
ENDMDL
MODEL 2
REMARK VINA RESULT:      -6.7      2.475      4.228
REMARK  7 active torsions:
REMARK  status: ('A' for Active; 'I' for Inactive)
REMARK    1  A    between atoms: C2_2  and  N4_4 
REMARK    2  A    between atoms: C13_11  and  O15_12 
REMARK    3  A    between atoms: O15_12  and  C16_13 
REMARK    4  A    between atoms: C16_13  and  C18_15 
REMARK    5  A    between atoms: C18_15  and  C20_16 
REMARK    6  A    between atoms: C18_15  and  C22_18 
REMARK    7  A    between atoms: C20_16  and  O21_17 
ROOT
ATOM      1  O15 ZIN A   1      19.468  -0.906  12.218  0.00  0.00    -0.315 OA
ENDROOT
BRANCH   1   2
ATOM      2  C13 ZIN A   1      20.078  -1.591  11.092  0.00  0.00     0.136 C 
ATOM      3  C12 ZIN A   1      19.170  -1.463   9.865  0.00  0.00     0.066 C 
ATOM      4  C10 ZIN A   1      17.866  -2.232  10.131  0.00  0.00     0.193 C 
ATOM      5  N4  ZIN A   1      18.208  -3.673  10.269  0.00  0.00    -0.059 N 
ATOM      6  C9  ZIN A   1      17.354  -1.826  11.532  0.00  0.00     0.036 C 
ATOM      7  C5  ZIN A   1      16.992  -4.496  10.254  0.00  0.00     0.274 C 
ATOM      8  C6  ZIN A   1      18.874  -3.744  11.596  0.00  0.00     0.193 C 
ATOM      9  C28 ZIN A   1      20.267  -3.112  11.440  0.00  0.00     0.066 C 
ATOM     10  C8  ZIN A   1      18.021  -2.825  12.500  0.00  0.00     0.036 C 
BRANCH   5  11
ATOM     11  C2  ZIN A   1      19.128  -4.091   9.204  0.00  0.00     0.183 C 
ATOM     12  C1  ZIN A   1      19.505  -5.560   9.403  0.00  0.00     0.040 C 
ATOM     13  C3  ZIN A   1      18.447  -3.919   7.845  0.00  0.00     0.040 C 
ENDBRANCH   5  11
ENDBRANCH   1   2
BRANCH   1  14
ATOM     14  C16 ZIN A   1      20.057   0.226  12.634  0.00  0.00     0.270 C 
ATOM     15  O17 ZIN A   1      21.137   0.542  12.196  0.00  0.00    -0.264 OA
BRANCH  14  16
ATOM     16  C18 ZIN A   1      19.369   1.102  13.649  0.00  0.00     0.142 C 
BRANCH  16  17
ATOM     17  C20 ZIN A   1      18.247   1.888  12.968  0.00  0.00     0.183 C 
BRANCH  17  18
ATOM     18  O21 ZIN A   1      18.287   1.651  11.559  0.00  0.00    -0.400 OA
ATOM     19  H47 ZIN A   1      18.838   0.900  11.302  0.00  0.00     0.209 HD
ENDBRANCH  17  18
ENDBRANCH  16  17
BRANCH  16  20
ATOM     20  C22 ZIN A   1      18.788   0.244  14.743  0.00  0.00    -0.043 A 
ATOM     21  C27 ZIN A   1      19.503  -0.834  15.229  0.00  0.00     0.008 A 
ATOM     22  C26 ZIN A   1      18.972  -1.620  16.235  0.00  0.00     0.001 A 
ATOM     23  C25 ZIN A   1      17.721  -1.332  16.748  0.00  0.00     0.000 A 
ATOM     24  C24 ZIN A   1      17.003  -0.256  16.259  0.00  0.00     0.001 A 
ATOM     25  C23 ZIN A   1      17.537   0.532  15.256  0.00  0.00     0.008 A 
ENDBRANCH  16  20
ENDBRANCH  14  16
ENDBRANCH   1  14
TORSDOF 7
ENDMDL
MODEL 3
REMARK VINA RESULT:      -6.5      2.429      4.577
REMARK  7 active torsions:
REMARK  status: ('A' for Active; 'I' for Inactive)
REMARK    1  A    between atoms: C2_2  and  N4_4 
REMARK    2  A    between atoms: C13_11  and  O15_12 
REMARK    3  A    between atoms: O15_12  and  C16_13 
REMARK    4  A    between atoms: C16_13  and  C18_15 
REMARK    5  A    between atoms: C18_15  and  C20_16 
REMARK    6  A    between atoms: C18_15  and  C22_18 
REMARK    7  A    between atoms: C20_16  and  O21_17 
ROOT
ATOM      1  O15 ZIN A   1      18.822  -1.891   8.839  0.00  0.00    -0.315 OA
ENDROOT
BRANCH   1   2
ATOM      2  C13 ZIN A   1      19.167  -0.496   8.632  0.00  0.00     0.136 C 
ATOM      3  C12 ZIN A   1      20.200  -0.066   9.678  0.00  0.00     0.066 C 
ATOM      4  C10 ZIN A   1      19.544  -0.105  11.068  0.00  0.00     0.193 C 
ATOM      5  N4  ZIN A   1      18.458   0.912  11.087  0.00  0.00    -0.059 N 
ATOM      6  C9  ZIN A   1      18.803  -1.455  11.205  0.00  0.00     0.036 C 
ATOM      7  C5  ZIN A   1      17.970   1.120  12.456  0.00  0.00     0.274 C 
ATOM      8  C6  ZIN A   1      17.401   0.303  10.238  0.00  0.00     0.193 C 
ATOM      9  C28 ZIN A   1      17.879   0.392   8.780  0.00  0.00     0.066 C 
ATOM     10  C8  ZIN A   1      17.387  -1.185  10.656  0.00  0.00     0.036 C 
BRANCH   5  11
ATOM     11  C2  ZIN A   1      18.925   2.177  10.506  0.00  0.00     0.183 C 
ATOM     12  C1  ZIN A   1      17.747   3.146  10.381  0.00  0.00     0.040 C 
ATOM     13  C3  ZIN A   1      19.995   2.791  11.411  0.00  0.00     0.040 C 
ENDBRANCH   5  11
ENDBRANCH   1   2
BRANCH   1  14
ATOM     14  C16 ZIN A   1      18.728  -2.665   7.746  0.00  0.00     0.270 C 
ATOM     15  O17 ZIN A   1      18.668  -2.159   6.651  0.00  0.00    -0.264 OA
BRANCH  14  16
ATOM     16  C18 ZIN A   1      18.697  -4.165   7.886  0.00  0.00     0.142 C 
BRANCH  16  17
ATOM     17  C20 ZIN A   1      20.089  -4.733   7.596  0.00  0.00     0.183 C 
BRANCH  17  18
ATOM     18  O21 ZIN A   1      20.744  -3.916   6.624  0.00  0.00    -0.400 OA
ATOM     19  H47 ZIN A   1      21.680  -3.760   6.807  0.00  0.00     0.209 HD
ENDBRANCH  17  18
ENDBRANCH  16  17
BRANCH  16  20
ATOM     20  C22 ZIN A   1      18.288  -4.530   9.290  0.00  0.00    -0.043 A 
ATOM     21  C27 ZIN A   1      19.252  -4.757  10.254  0.00  0.00     0.008 A 
ATOM     22  C26 ZIN A   1      18.877  -5.090  11.543  0.00  0.00     0.001 A 
ATOM     23  C25 ZIN A   1      17.538  -5.204  11.864  0.00  0.00     0.000 A 
ATOM     24  C24 ZIN A   1      16.573  -4.982  10.899  0.00  0.00     0.001 A 
ATOM     25  C23 ZIN A   1      16.948  -4.645   9.611  0.00  0.00     0.008 A 
ENDBRANCH  16  20
ENDBRANCH  14  16
ENDBRANCH   1  14
TORSDOF 7
ENDMDL
MODEL 4
REMARK VINA RESULT:      -6.4      2.627      4.333
REMARK  7 active torsions:
REMARK  status: ('A' for Active; 'I' for Inactive)
REMARK    1  A    between atoms: C2_2  and  N4_4 
REMARK    2  A    between atoms: C13_11  and  O15_12 
REMARK    3  A    between atoms: O15_12  and  C16_13 
REMARK    4  A    between atoms: C16_13  and  C18_15 
REMARK    5  A    between atoms: C18_15  and  C20_16 
REMARK    6  A    between atoms: C18_15  and  C22_18 
REMARK    7  A    between atoms: C20_16  and  O21_17 
ROOT
ATOM      1  O15 ZIN A   1      18.324   1.253  12.955  0.00  0.00    -0.315 OA
ENDROOT
BRANCH   1   2
ATOM      2  C13 ZIN A   1      17.822   1.745  11.684  0.00  0.00     0.136 C 
ATOM      3  C12 ZIN A   1      16.923   0.682  11.046  0.00  0.00     0.066 C 
ATOM      4  C10 ZIN A   1      17.780  -0.540  10.681  0.00  0.00     0.193 C 
ATOM      5  N4  ZIN A   1      18.756  -0.117   9.642  0.00  0.00    -0.059 N 
ATOM      6  C9  ZIN A   1      18.656  -0.887  11.907  0.00  0.00     0.036 C 
ATOM      7  C5  ZIN A   1      19.422  -1.286   9.052  0.00  0.00     0.274 C 
ATOM      8  C6  ZIN A   1      19.727   0.716  10.399  0.00  0.00     0.193 C 
ATOM      9  C28 ZIN A   1      19.028   2.046  10.723  0.00  0.00     0.066 C 
ATOM     10  C8  ZIN A   1      19.942  -0.056  11.720  0.00  0.00     0.036 C 
BRANCH   5  11
ATOM     11  C2  ZIN A   1      18.091   0.678   8.601  0.00  0.00     0.183 C 
ATOM     12  C1  ZIN A   1      19.146   1.318   7.697  0.00  0.00     0.040 C 
ATOM     13  C3  ZIN A   1      17.186  -0.230   7.765  0.00  0.00     0.040 C 
ENDBRANCH   5  11
ENDBRANCH   1   2
BRANCH   1  14
ATOM     14  C16 ZIN A   1      18.495   2.155  13.934  0.00  0.00     0.270 C 
ATOM     15  O17 ZIN A   1      18.069   3.278  13.801  0.00  0.00    -0.264 OA
BRANCH  14  16
ATOM     16  C18 ZIN A   1      19.219   1.768  15.197  0.00  0.00     0.142 C 
BRANCH  16  17
ATOM     17  C20 ZIN A   1      19.105   2.901  16.219  0.00  0.00     0.183 C 
BRANCH  17  18
ATOM     18  O21 ZIN A   1      20.178   3.825  16.028  0.00  0.00    -0.400 OA
ATOM     19  H47 ZIN A   1      19.899   4.750  15.996  0.00  0.00     0.209 HD
ENDBRANCH  17  18
ENDBRANCH  16  17
BRANCH  16  20
ATOM     20  C22 ZIN A   1      18.603   0.515  15.765  0.00  0.00    -0.043 A 
ATOM     21  C27 ZIN A   1      17.411   0.584  16.460  0.00  0.00     0.008 A 
ATOM     22  C26 ZIN A   1      16.845  -0.566  16.979  0.00  0.00     0.001 A 
ATOM     23  C25 ZIN A   1      17.477  -1.783  16.810  0.00  0.00     0.000 A 
ATOM     24  C24 ZIN A   1      18.672  -1.852  16.118  0.00  0.00     0.001 A 
ATOM     25  C23 ZIN A   1      19.236  -0.703  15.596  0.00  0.00     0.008 A 
ENDBRANCH  16  20
ENDBRANCH  14  16
ENDBRANCH   1  14
TORSDOF 7
ENDMDL
MODEL 5
REMARK VINA RESULT:      -6.4      2.503      4.654
REMARK  7 active torsions:
REMARK  status: ('A' for Active; 'I' for Inactive)
REMARK    1  A    between atoms: C2_2  and  N4_4 
REMARK    2  A    between atoms: C13_11  and  O15_12 
REMARK    3  A    between atoms: O15_12  and  C16_13 
REMARK    4  A    between atoms: C16_13  and  C18_15 
REMARK    5  A    between atoms: C18_15  and  C20_16 
REMARK    6  A    between atoms: C18_15  and  C22_18 
REMARK    7  A    between atoms: C20_16  and  O21_17 
ROOT
ATOM      1  O15 ZIN A   1      18.494  -0.107  11.499  0.00  0.00    -0.315 OA
ENDROOT
BRANCH   1   2
ATOM      2  C13 ZIN A   1      17.401  -1.030  11.247  0.00  0.00     0.136 C 
ATOM      3  C12 ZIN A   1      17.536  -2.243  12.172  0.00  0.00     0.066 C 
ATOM      4  C10 ZIN A   1      18.803  -3.023  11.788  0.00  0.00     0.193 C 
ATOM      5  N4  ZIN A   1      18.613  -3.548  10.409  0.00  0.00    -0.059 N 
ATOM      6  C9  ZIN A   1      19.961  -2.007  11.651  0.00  0.00     0.036 C 
ATOM      7  C5  ZIN A   1      19.660  -4.523  10.078  0.00  0.00     0.274 C 
ATOM      8  C6  ZIN A   1      18.736  -2.335   9.558  0.00  0.00     0.193 C 
ATOM      9  C28 ZIN A   1      17.453  -1.511   9.752  0.00  0.00     0.066 C 
ATOM     10  C8  ZIN A   1      19.915  -1.553  10.178  0.00  0.00     0.036 C 
BRANCH   5  11
ATOM     11  C2  ZIN A   1      17.281  -4.150  10.264  0.00  0.00     0.183 C 
ATOM     12  C1  ZIN A   1      17.104  -4.656   8.831  0.00  0.00     0.040 C 
ATOM     13  C3  ZIN A   1      17.142  -5.321  11.239  0.00  0.00     0.040 C 
ENDBRANCH   5  11
ENDBRANCH   1   2
BRANCH   1  14
ATOM     14  C16 ZIN A   1      18.212   0.990  12.220  0.00  0.00     0.270 C 
ATOM     15  O17 ZIN A   1      17.308   1.717  11.885  0.00  0.00    -0.264 OA
BRANCH  14  16
ATOM     16  C18 ZIN A   1      19.024   1.313  13.447  0.00  0.00     0.142 C 
BRANCH  16  17
ATOM     17  C20 ZIN A   1      18.778   2.768  13.853  0.00  0.00     0.183 C 
BRANCH  17  18
ATOM     18  O21 ZIN A   1      19.528   3.634  12.999  0.00  0.00    -0.400 OA
ATOM     19  H47 ZIN A   1      20.322   3.228  12.627  0.00  0.00     0.209 HD
ENDBRANCH  17  18
ENDBRANCH  16  17
BRANCH  16  20
ATOM     20  C22 ZIN A   1      18.616   0.400  14.575  0.00  0.00    -0.043 A 
ATOM     21  C27 ZIN A   1      17.449   0.644  15.274  0.00  0.00     0.008 A 
ATOM     22  C26 ZIN A   1      17.073  -0.195  16.307  0.00  0.00     0.001 A 
ATOM     23  C25 ZIN A   1      17.870  -1.272  16.646  0.00  0.00     0.000 A 
ATOM     24  C24 ZIN A   1      19.040  -1.513  15.950  0.00  0.00     0.001 A 
ATOM     25  C23 ZIN A   1      19.414  -0.677  14.915  0.00  0.00     0.008 A 
ENDBRANCH  16  20
ENDBRANCH  14  16
ENDBRANCH   1  14
TORSDOF 7
ENDMDL
MODEL 6
REMARK VINA RESULT:      -6.3      1.762      3.433
REMARK  7 active torsions:
REMARK  status: ('A' for Active; 'I' for Inactive)
REMARK    1  A    between atoms: C2_2  and  N4_4 
REMARK    2  A    between atoms: C13_11  and  O15_12 
REMARK    3  A    between atoms: O15_12  and  C16_13 
REMARK    4  A    between atoms: C16_13  and  C18_15 
REMARK    5  A    between atoms: C18_15  and  C20_16 
REMARK    6  A    between atoms: C18_15  and  C22_18 
REMARK    7  A    between atoms: C20_16  and  O21_17 
ROOT
ATOM      1  O15 ZIN A   1      18.776  -0.617  10.859  0.00  0.00    -0.315 OA
ENDROOT
BRANCH   1   2
ATOM      2  C13 ZIN A   1      18.345  -1.424   9.731  0.00  0.00     0.136 C 
ATOM      3  C12 ZIN A   1      19.500  -1.564   8.734  0.00  0.00     0.066 C 
ATOM      4  C10 ZIN A   1      19.806  -0.183   8.133  0.00  0.00     0.193 C 
ATOM      5  N4  ZIN A   1      18.613   0.250   7.357  0.00  0.00    -0.059 N 
ATOM      6  C9  ZIN A   1      19.892   0.831   9.296  0.00  0.00     0.036 C 
ATOM      7  C5  ZIN A   1      18.929   1.427   6.537  0.00  0.00     0.274 C 
ATOM      8  C6  ZIN A   1      17.622   0.594   8.411  0.00  0.00     0.193 C 
ATOM      9  C28 ZIN A   1      17.129  -0.728   9.020  0.00  0.00     0.066 C 
ATOM     10  C8  ZIN A   1      18.449   1.344   9.480  0.00  0.00     0.036 C 
BRANCH   5  11
ATOM     11  C2  ZIN A   1      18.116  -0.847   6.517  0.00  0.00     0.183 C 
ATOM     12  C1  ZIN A   1      16.880  -0.380   5.746  0.00  0.00     0.040 C 
ATOM     13  C3  ZIN A   1      19.206  -1.266   5.528  0.00  0.00     0.040 C 
ENDBRANCH   5  11
ENDBRANCH   1   2
BRANCH   1  14
ATOM     14  C16 ZIN A   1      18.747  -1.196  12.070  0.00  0.00     0.270 C 
ATOM     15  O17 ZIN A   1      17.964  -2.088  12.294  0.00  0.00    -0.264 OA
BRANCH  14  16
ATOM     16  C18 ZIN A   1      19.691  -0.733  13.148  0.00  0.00     0.142 C 
BRANCH  16  17
ATOM     17  C20 ZIN A   1      20.234   0.653  12.791  0.00  0.00     0.183 C 
BRANCH  17  18
ATOM     18  O21 ZIN A   1      21.542   0.520  12.229  0.00  0.00    -0.400 OA
ATOM     19  H47 ZIN A   1      22.073  -0.180  12.632  0.00  0.00     0.209 HD
ENDBRANCH  17  18
ENDBRANCH  16  17
BRANCH  16  20
ATOM     20  C22 ZIN A   1      18.955  -0.659  14.462  0.00  0.00    -0.043 A 
ATOM     21  C27 ZIN A   1      19.255  -1.552  15.473  0.00  0.00     0.008 A 
ATOM     22  C26 ZIN A   1      18.582  -1.482  16.679  0.00  0.00     0.001 A 
ATOM     23  C25 ZIN A   1      17.604  -0.525  16.870  0.00  0.00     0.000 A 
ATOM     24  C24 ZIN A   1      17.300   0.366  15.857  0.00  0.00     0.001 A 
ATOM     25  C23 ZIN A   1      17.976   0.298  14.652  0.00  0.00     0.008 A 
ENDBRANCH  16  20
ENDBRANCH  14  16
ENDBRANCH   1  14
TORSDOF 7
ENDMDL
MODEL 7
REMARK VINA RESULT:      -6.3      2.846      4.629
REMARK  7 active torsions:
REMARK  status: ('A' for Active; 'I' for Inactive)
REMARK    1  A    between atoms: C2_2  and  N4_4 
REMARK    2  A    between atoms: C13_11  and  O15_12 
REMARK    3  A    between atoms: O15_12  and  C16_13 
REMARK    4  A    between atoms: C16_13  and  C18_15 
REMARK    5  A    between atoms: C18_15  and  C20_16 
REMARK    6  A    between atoms: C18_15  and  C22_18 
REMARK    7  A    between atoms: C20_16  and  O21_17 
ROOT
ATOM      1  O15 ZIN A   1      17.971  -2.279  11.818  0.00  0.00    -0.315 OA
ENDROOT
BRANCH   1   2
ATOM      2  C13 ZIN A   1      18.826  -2.350  10.647  0.00  0.00     0.136 C 
ATOM      3  C12 ZIN A   1      17.973  -2.655   9.412  0.00  0.00     0.066 C 
ATOM      4  C10 ZIN A   1      17.384  -4.067   9.552  0.00  0.00     0.193 C 
ATOM      5  N4  ZIN A   1      18.514  -5.034   9.547  0.00  0.00    -0.059 N 
ATOM      6  C9  ZIN A   1      16.783  -4.191  10.971  0.00  0.00     0.036 C 
ATOM      7  C5  ZIN A   1      18.018  -6.409   9.405  0.00  0.00     0.274 C 
ATOM      8  C6  ZIN A   1      19.142  -4.836  10.880  0.00  0.00     0.193 C 
ATOM      9  C28 ZIN A   1      19.887  -3.493  10.837  0.00  0.00     0.066 C 
ATOM     10  C8  ZIN A   1      17.946  -4.699  11.848  0.00  0.00     0.036 C 
BRANCH   5  11
ATOM     11  C2  ZIN A   1      19.464  -4.714   8.474  0.00  0.00     0.183 C 
ATOM     12  C1  ZIN A   1      20.604  -5.734   8.481  0.00  0.00     0.040 C 
ATOM     13  C3  ZIN A   1      18.745  -4.762   7.125  0.00  0.00     0.040 C 
ENDBRANCH   5  11
ENDBRANCH   1   2
BRANCH   1  14
ATOM     14  C16 ZIN A   1      17.545  -1.061  12.190  0.00  0.00     0.270 C 
ATOM     15  O17 ZIN A   1      16.423  -0.706  11.920  0.00  0.00    -0.264 OA
BRANCH  14  16
ATOM     16  C18 ZIN A   1      18.468  -0.139  12.943  0.00  0.00     0.142 C 
BRANCH  16  17
ATOM     17  C20 ZIN A   1      18.094   1.314  12.641  0.00  0.00     0.183 C 
BRANCH  17  18
ATOM     18  O21 ZIN A   1      18.118   1.528  11.228  0.00  0.00    -0.400 OA
ATOM     19  H47 ZIN A   1      17.882   2.427  10.963  0.00  0.00     0.209 HD
ENDBRANCH  17  18
ENDBRANCH  16  17
BRANCH  16  20
ATOM     20  C22 ZIN A   1      18.336  -0.394  14.423  0.00  0.00    -0.043 A 
ATOM     21  C27 ZIN A   1      17.403   0.305  15.165  0.00  0.00     0.008 A 
ATOM     22  C26 ZIN A   1      17.280   0.069  16.522  0.00  0.00     0.001 A 
ATOM     23  C25 ZIN A   1      18.097  -0.860  17.137  0.00  0.00     0.000 A 
ATOM     24  C24 ZIN A   1      19.034  -1.556  16.397  0.00  0.00     0.001 A 
ATOM     25  C23 ZIN A   1      19.154  -1.323  15.039  0.00  0.00     0.008 A 
ENDBRANCH  16  20
ENDBRANCH  14  16
ENDBRANCH   1  14
TORSDOF 7
ENDMDL
MODEL 8
REMARK VINA RESULT:      -6.2      3.049      5.952
REMARK  7 active torsions:
REMARK  status: ('A' for Active; 'I' for Inactive)
REMARK    1  A    between atoms: C2_2  and  N4_4 
REMARK    2  A    between atoms: C13_11  and  O15_12 
REMARK    3  A    between atoms: O15_12  and  C16_13 
REMARK    4  A    between atoms: C16_13  and  C18_15 
REMARK    5  A    between atoms: C18_15  and  C20_16 
REMARK    6  A    between atoms: C18_15  and  C22_18 
REMARK    7  A    between atoms: C20_16  and  O21_17 
ROOT
ATOM      1  O15 ZIN A   1      19.438   0.871  10.692  0.00  0.00    -0.315 OA
ENDROOT
BRANCH   1   2
ATOM      2  C13 ZIN A   1      19.992   1.455  11.901  0.00  0.00     0.136 C 
ATOM      3  C12 ZIN A   1      18.954   1.377  13.025  0.00  0.00     0.066 C 
ATOM      4  C10 ZIN A   1      17.763   2.279  12.665  0.00  0.00     0.193 C 
ATOM      5  N4  ZIN A   1      18.253   3.683  12.623  0.00  0.00    -0.059 N 
ATOM      6  C9  ZIN A   1      17.361   1.972  11.205  0.00  0.00     0.036 C 
ATOM      7  C5  ZIN A   1      17.125   4.621  12.554  0.00  0.00     0.274 C 
ATOM      8  C6  ZIN A   1      19.055   3.731  11.373  0.00  0.00     0.193 C 
ATOM      9  C28 ZIN A   1      20.358   2.960  11.639  0.00  0.00     0.066 C 
ATOM     10  C8  ZIN A   1      18.216   2.932  10.351  0.00  0.00     0.036 C 
BRANCH   5  11
ATOM     11  C2  ZIN A   1      19.094   3.973  13.791  0.00  0.00     0.183 C 
ATOM     12  C1  ZIN A   1      19.682   5.379  13.660  0.00  0.00     0.040 C 
ATOM     13  C3  ZIN A   1      18.248   3.890  15.063  0.00  0.00     0.040 C 
ENDBRANCH   5  11
ENDBRANCH   1   2
BRANCH   1  14
ATOM     14  C16 ZIN A   1      19.996  -0.269  10.254  0.00  0.00     0.270 C 
ATOM     15  O17 ZIN A   1      21.133  -0.540  10.558  0.00  0.00    -0.264 OA
BRANCH  14  16
ATOM     16  C18 ZIN A   1      19.204  -1.208   9.383  0.00  0.00     0.142 C 
BRANCH  16  17
ATOM     17  C20 ZIN A   1      17.775  -1.319   9.920  0.00  0.00     0.183 C 
BRANCH  17  18
ATOM     18  O21 ZIN A   1      17.812  -1.524  11.334  0.00  0.00    -0.400 OA
ATOM     19  H47 ZIN A   1      18.689  -1.741  11.677  0.00  0.00     0.209 HD
ENDBRANCH  17  18
ENDBRANCH  16  17
BRANCH  16  20
ATOM     20  C22 ZIN A   1      19.170  -0.678   7.972  0.00  0.00    -0.043 A 
ATOM     21  C27 ZIN A   1      19.311  -1.545   6.905  0.00  0.00     0.008 A 
ATOM     22  C26 ZIN A   1      19.277  -1.059   5.611  0.00  0.00     0.001 A 
ATOM     23  C25 ZIN A   1      19.112   0.295   5.386  0.00  0.00     0.000 A 
ATOM     24  C24 ZIN A   1      18.976   1.163   6.454  0.00  0.00     0.001 A 
ATOM     25  C23 ZIN A   1      19.006   0.676   7.747  0.00  0.00     0.008 A 
ENDBRANCH  16  20
ENDBRANCH  14  16
ENDBRANCH   1  14
TORSDOF 7
ENDMDL
MODEL 9
REMARK VINA RESULT:      -6.1      2.608      4.511
REMARK  7 active torsions:
REMARK  status: ('A' for Active; 'I' for Inactive)
REMARK    1  A    between atoms: C2_2  and  N4_4 
REMARK    2  A    between atoms: C13_11  and  O15_12 
REMARK    3  A    between atoms: O15_12  and  C16_13 
REMARK    4  A    between atoms: C16_13  and  C18_15 
REMARK    5  A    between atoms: C18_15  and  C20_16 
REMARK    6  A    between atoms: C18_15  and  C22_18 
REMARK    7  A    between atoms: C20_16  and  O21_17 
ROOT
ATOM      1  O15 ZIN A   1      18.656  -2.510  12.632  0.00  0.00    -0.315 OA
ENDROOT
BRANCH   1   2
ATOM      2  C13 ZIN A   1      19.615  -2.632  11.548  0.00  0.00     0.136 C 
ATOM      3  C12 ZIN A   1      18.947  -2.227  10.230  0.00  0.00     0.066 C 
ATOM      4  C10 ZIN A   1      17.847  -3.247   9.896  0.00  0.00     0.193 C 
ATOM      5  N4  ZIN A   1      18.502  -4.562   9.665  0.00  0.00    -0.059 N 
ATOM      6  C9  ZIN A   1      17.000  -3.463  11.171  0.00  0.00     0.036 C 
ATOM      7  C5  ZIN A   1      17.551  -5.517   9.080  0.00  0.00     0.274 C 
ATOM      8  C6  ZIN A   1      18.906  -4.992  11.029  0.00  0.00     0.193 C 
ATOM      9  C28 ZIN A   1      20.104  -4.122  11.444  0.00  0.00     0.066 C 
ATOM     10  C8  ZIN A   1      17.700  -4.616  11.920  0.00  0.00     0.036 C 
BRANCH   5  11
ATOM     11  C2  ZIN A   1      19.679  -4.409   8.799  0.00  0.00     0.183 C 
ATOM     12  C1  ZIN A   1      20.387  -5.758   8.659  0.00  0.00     0.040 C 
ATOM     13  C3  ZIN A   1      19.237  -3.918   7.419  0.00  0.00     0.040 C 
ENDBRANCH   5  11
ENDBRANCH   1   2
BRANCH   1  14
ATOM     14  C16 ZIN A   1      18.827  -1.487  13.485  0.00  0.00     0.270 C 
ATOM     15  O17 ZIN A   1      19.770  -1.480  14.239  0.00  0.00    -0.264 OA
BRANCH  14  16
ATOM     16  C18 ZIN A   1      17.840  -0.348  13.501  0.00  0.00     0.142 C 
BRANCH  16  17
ATOM     17  C20 ZIN A   1      17.893   0.353  14.861  0.00  0.00     0.183 C 
BRANCH  17  18
ATOM     18  O21 ZIN A   1      17.399  -0.530  15.871  0.00  0.00    -0.400 OA
ATOM     19  H47 ZIN A   1      17.482  -1.467  15.648  0.00  0.00     0.209 HD
ENDBRANCH  17  18
ENDBRANCH  16  17
BRANCH  16  20
ATOM     20  C22 ZIN A   1      18.191   0.637  12.415  0.00  0.00    -0.043 A 
ATOM     21  C27 ZIN A   1      17.379   0.757  11.303  0.00  0.00     0.008 A 
ATOM     22  C26 ZIN A   1      17.700   1.663  10.308  0.00  0.00     0.001 A 
ATOM     23  C25 ZIN A   1      18.836   2.441  10.422  0.00  0.00     0.000 A 
ATOM     24  C24 ZIN A   1      19.651   2.317  11.532  0.00  0.00     0.001 A 
ATOM     25  C23 ZIN A   1      19.329   1.414  12.529  0.00  0.00     0.008 A 
ENDBRANCH  16  20
ENDBRANCH  14  16
ENDBRANCH   1  14
TORSDOF 7
ENDMDL
