MODEL 1
REMARK VINA RESULT:      -7.3      0.000      0.000
REMARK  4 active torsions:
REMARK  status: ('A' for Active; 'I' for Inactive)
REMARK    1  A    between atoms: C2_2  and  C3_3 
REMARK       I    between atoms: C3_3  and  N5_5 
REMARK    2  A    between atoms: N5_5  and  C6_6 
REMARK    3  A    between atoms: C6_6  and  C7_7 
REMARK    4  A    between atoms: C10_9  and  C12_10 
ROOT
ATOM      1  C7  <0> d   1      19.342   1.361  13.039  0.00  0.00     0.013 A 
ATOM      2  C9  <0> d   1      18.077   0.510  12.909  0.00  0.00     0.016 A 
ATOM      3  C10 <0> d   1      18.292   1.377  14.152  0.00  0.00     0.025 A 
ENDROOT
BRANCH   3   4
ATOM      4  C12 <0> d   1      18.632   0.675  15.440  0.00  0.00    -0.044 A 
ATOM      5  C17 <0> d   1      18.991   1.407  16.550  0.00  0.00    -0.016 A 
ATOM      6  C16 <0> d   1      19.311   0.775  17.745  0.00  0.00     0.075 A 
ATOM      7  C18 <0> d   1      19.106   2.899  16.792  0.00  0.00     0.068 C 
ATOM      8  C15 <0> d   1      19.262  -0.616  17.806  0.00  0.00     0.037 A 
ATOM      9  O20 <0> d   1      19.645   1.680  18.707  0.00  0.00    -0.350 OA
ATOM     10  C14 <0> d   1      18.904  -1.347  16.692  0.00  0.00     0.003 A 
ATOM     11  C13 <0> d   1      18.590  -0.707  15.507  0.00  0.00     0.008 A 
ATOM     12  C19 <0> d   1      19.133   2.972  18.337  0.00  0.00     0.180 C 
ENDBRANCH   3   4
BRANCH   1  13
ATOM     13  C6  <0> d   1      19.451   2.605  12.153  0.00  0.00     0.128 C 
BRANCH  13  14
ATOM     14  N5  <0> d   1      19.785   2.201  10.785  0.00  0.00    -0.361 N 
ATOM     15  C3  <0> d   1      18.877   2.346   9.799  0.00  0.00     0.217 C 
ATOM     16  O4  <0> d   1      17.784   2.811  10.044  0.00  0.00    -0.274 OA
ATOM     17  H26 <0> d   1      20.659   1.830  10.588  0.00  0.00     0.162 HD
BRANCH  15  18
ATOM     18  C2  <0> d   1      19.221   1.931   8.391  0.00  0.00     0.098 C 
ATOM     19  C1  <0> d   1      18.423   0.680   8.019  0.00  0.00     0.014 C 
ENDBRANCH  15  18
ENDBRANCH  13  14
ENDBRANCH   1  13
TORSDOF 4
ENDMDL
MODEL 2
REMARK VINA RESULT:      -7.0      4.702      8.717
REMARK  4 active torsions:
REMARK  status: ('A' for Active; 'I' for Inactive)
REMARK    1  A    between atoms: C2_2  and  C3_3 
REMARK       I    between atoms: C3_3  and  N5_5 
REMARK    2  A    between atoms: N5_5  and  C6_6 
REMARK    3  A    between atoms: C6_6  and  C7_7 
REMARK    4  A    between atoms: C10_9  and  C12_10 
ROOT
ATOM      1  C7  <0> d   1      19.281   0.616   9.837  0.00  0.00     0.013 A 
ATOM      2  C9  <0> d   1      18.607   1.857   9.249  0.00  0.00     0.016 A 
ATOM      3  C10 <0> d   1      18.200   0.464   8.765  0.00  0.00     0.025 A 
ENDROOT
BRANCH   3   4
ATOM      4  C12 <0> d   1      18.641   0.050   7.385  0.00  0.00    -0.044 A 
ATOM      5  C17 <0> d   1      18.955  -1.265   7.127  0.00  0.00    -0.016 A 
ATOM      6  C16 <0> d   1      19.366  -1.664   5.861  0.00  0.00     0.075 A 
ATOM      7  C18 <0> d   1      18.929  -2.508   7.996  0.00  0.00     0.068 C 
ATOM      8  C15 <0> d   1      19.455  -0.708   4.851  0.00  0.00     0.037 A 
ATOM      9  O20 <0> d   1      19.634  -2.998   5.827  0.00  0.00    -0.350 OA
ATOM     10  C14 <0> d   1      19.142   0.610   5.112  0.00  0.00     0.003 A 
ATOM     11  C13 <0> d   1      18.737   0.994   6.377  0.00  0.00     0.008 A 
ATOM     12  C19 <0> d   1      18.988  -3.638   6.942  0.00  0.00     0.180 C 
ENDBRANCH   3   4
BRANCH   1  13
ATOM     13  C6  <0> d   1      18.913   0.224  11.270  0.00  0.00     0.128 C 
BRANCH  13  14
ATOM     14  N5  <0> d   1      19.170  -1.206  11.465  0.00  0.00    -0.361 N 
ATOM     15  C3  <0> d   1      18.142  -2.052  11.678  0.00  0.00     0.217 C 
ATOM     16  O4  <0> d   1      17.005  -1.629  11.709  0.00  0.00    -0.274 OA
ATOM     17  H26 <0> d   1      20.078  -1.544  11.440  0.00  0.00     0.162 HD
BRANCH  15  18
ATOM     18  C2  <0> d   1      18.405  -3.522  11.879  0.00  0.00     0.098 C 
ATOM     19  C1  <0> d   1      19.868  -3.827  11.551  0.00  0.00     0.014 C 
ENDBRANCH  15  18
ENDBRANCH  13  14
ENDBRANCH   1  13
TORSDOF 4
ENDMDL
MODEL 3
REMARK VINA RESULT:      -6.9      4.614      8.543
REMARK  4 active torsions:
REMARK  status: ('A' for Active; 'I' for Inactive)
REMARK    1  A    between atoms: C2_2  and  C3_3 
REMARK       I    between atoms: C3_3  and  N5_5 
REMARK    2  A    between atoms: N5_5  and  C6_6 
REMARK    3  A    between atoms: C6_6  and  C7_7 
REMARK    4  A    between atoms: C10_9  and  C12_10 
ROOT
ATOM      1  C7  <0> d   1      19.641   1.164   9.146  0.00  0.00     0.013 A 
ATOM      2  C9  <0> d   1      18.881   2.206   8.323  0.00  0.00     0.016 A 
ATOM      3  C10 <0> d   1      18.455   0.737   8.278  0.00  0.00     0.025 A 
ENDROOT
BRANCH   3   4
ATOM      4  C12 <0> d   1      18.756  -0.036   7.020  0.00  0.00    -0.044 A 
ATOM      5  C17 <0> d   1      18.978  -1.394   7.082  0.00  0.00    -0.016 A 
ATOM      6  C16 <0> d   1      19.260  -2.121   5.933  0.00  0.00     0.075 A 
ATOM      7  C18 <0> d   1      18.963  -2.377   8.236  0.00  0.00     0.068 C 
ATOM      8  C15 <0> d   1      19.312  -1.455   4.710  0.00  0.00     0.037 A 
ATOM      9  O20 <0> d   1      19.456  -3.438   6.218  0.00  0.00    -0.350 OA
ATOM     10  C14 <0> d   1      19.090  -0.095   4.651  0.00  0.00     0.003 A 
ATOM     11  C13 <0> d   1      18.814   0.619   5.802  0.00  0.00     0.008 A 
ATOM     12  C19 <0> d   1      18.874  -3.734   7.501  0.00  0.00     0.180 C 
ENDBRANCH   3   4
BRANCH   1  13
ATOM     13  C6  <0> d   1      19.437   1.175  10.663  0.00  0.00     0.128 C 
BRANCH  13  14
ATOM     14  N5  <0> d   1      19.043   2.519  11.091  0.00  0.00    -0.361 N 
ATOM     15  C3  <0> d   1      17.779   2.753  11.499  0.00  0.00     0.217 C 
ATOM     16  O4  <0> d   1      16.969   1.850  11.511  0.00  0.00    -0.274 OA
ATOM     17  H26 <0> d   1      19.690   3.241  11.083  0.00  0.00     0.162 HD
BRANCH  15  18
ATOM     18  C2  <0> d   1      17.373   4.135  11.941  0.00  0.00     0.098 C 
ATOM     19  C1  <0> d   1      17.008   4.976  10.715  0.00  0.00     0.014 C 
ENDBRANCH  15  18
ENDBRANCH  13  14
ENDBRANCH   1  13
TORSDOF 4
ENDMDL
MODEL 4
REMARK VINA RESULT:      -6.8      3.049      5.623
REMARK  4 active torsions:
REMARK  status: ('A' for Active; 'I' for Inactive)
REMARK    1  A    between atoms: C2_2  and  C3_3 
REMARK       I    between atoms: C3_3  and  N5_5 
REMARK    2  A    between atoms: N5_5  and  C6_6 
REMARK    3  A    between atoms: C6_6  and  C7_7 
REMARK    4  A    between atoms: C10_9  and  C12_10 
ROOT
ATOM      1  C7  <0> d   1      18.599   0.996   9.000  0.00  0.00     0.013 A 
ATOM      2  C9  <0> d   1      18.932   2.163   8.068  0.00  0.00     0.016 A 
ATOM      3  C10 <0> d   1      19.296   2.241   9.552  0.00  0.00     0.025 A 
ENDROOT
BRANCH   3   4
ATOM      4  C12 <0> d   1      18.485   3.166  10.421  0.00  0.00    -0.044 A 
ATOM      5  C17 <0> d   1      18.389   2.934  11.775  0.00  0.00    -0.016 A 
ATOM      6  C16 <0> d   1      17.643   3.775  12.590  0.00  0.00     0.075 A 
ATOM      7  C18 <0> d   1      18.994   1.870  12.670  0.00  0.00     0.068 C 
ATOM      8  C15 <0> d   1      16.990   4.864  12.015  0.00  0.00     0.037 A 
ATOM      9  O20 <0> d   1      17.672   3.360  13.886  0.00  0.00    -0.350 OA
ATOM     10  C14 <0> d   1      17.087   5.094  10.658  0.00  0.00     0.003 A 
ATOM     11  C13 <0> d   1      17.830   4.248   9.857  0.00  0.00     0.008 A 
ATOM     12  C19 <0> d   1      18.800   2.487  14.076  0.00  0.00     0.180 C 
ENDBRANCH   3   4
BRANCH   1  13
ATOM     13  C6  <0> d   1      19.434  -0.279   8.862  0.00  0.00     0.128 C 
BRANCH  13  14
ATOM     14  N5  <0> d   1      19.069  -1.218   9.926  0.00  0.00    -0.361 N 
ATOM     15  C3  <0> d   1      19.880  -1.376  10.992  0.00  0.00     0.217 C 
ATOM     16  O4  <0> d   1      20.911  -0.742  11.069  0.00  0.00    -0.274 OA
ATOM     17  H26 <0> d   1      18.245  -1.725   9.866  0.00  0.00     0.162 HD
BRANCH  15  18
ATOM     18  C2  <0> d   1      19.505  -2.341  12.087  0.00  0.00     0.098 C 
ATOM     19  C1  <0> d   1      18.335  -1.770  12.892  0.00  0.00     0.014 C 
ENDBRANCH  15  18
ENDBRANCH  13  14
ENDBRANCH   1  13
TORSDOF 4
ENDMDL
MODEL 5
REMARK VINA RESULT:      -6.6      1.701      2.680
REMARK  4 active torsions:
REMARK  status: ('A' for Active; 'I' for Inactive)
REMARK    1  A    between atoms: C2_2  and  C3_3 
REMARK       I    between atoms: C3_3  and  N5_5 
REMARK    2  A    between atoms: N5_5  and  C6_6 
REMARK    3  A    between atoms: C6_6  and  C7_7 
REMARK    4  A    between atoms: C10_9  and  C12_10 
ROOT
ATOM      1  C7  <0> d   1      18.926   0.615  13.050  0.00  0.00     0.013 A 
ATOM      2  C9  <0> d   1      17.826  -0.443  13.152  0.00  0.00     0.016 A 
ATOM      3  C10 <0> d   1      17.917   0.669  14.199  0.00  0.00     0.025 A 
ENDROOT
BRANCH   3   4
ATOM      4  C12 <0> d   1      18.407   0.292  15.574  0.00  0.00    -0.044 A 
ATOM      5  C17 <0> d   1      18.848   1.267  16.440  0.00  0.00    -0.016 A 
ATOM      6  C16 <0> d   1      19.306   0.937  17.709  0.00  0.00     0.075 A 
ATOM      7  C18 <0> d   1      18.936   2.776  16.315  0.00  0.00     0.068 C 
ATOM      8  C15 <0> d   1      19.310  -0.401  18.095  0.00  0.00     0.037 A 
ATOM      9  O20 <0> d   1      19.703   2.045  18.393  0.00  0.00    -0.350 OA
ATOM     10  C14 <0> d   1      18.869  -1.377  17.226  0.00  0.00     0.003 A 
ATOM     11  C13 <0> d   1      18.419  -1.036  15.964  0.00  0.00     0.008 A 
ATOM     12  C19 <0> d   1      19.112   3.210  17.789  0.00  0.00     0.180 C 
ENDBRANCH   3   4
BRANCH   1  13
ATOM     13  C6  <0> d   1      18.795   1.667  11.946  0.00  0.00     0.128 C 
BRANCH  13  14
ATOM     14  N5  <0> d   1      19.633   2.824  12.273  0.00  0.00    -0.361 N 
ATOM     15  C3  <0> d   1      19.068   3.956  12.738  0.00  0.00     0.217 C 
ATOM     16  O4  <0> d   1      17.866   4.017  12.886  0.00  0.00    -0.274 OA
ATOM     17  H26 <0> d   1      20.595   2.776  12.156  0.00  0.00     0.162 HD
BRANCH  15  18
ATOM     18  C2  <0> d   1      19.930   5.145  13.075  0.00  0.00     0.098 C 
ATOM     19  C1  <0> d   1      19.423   5.794  14.365  0.00  0.00     0.014 C 
ENDBRANCH  15  18
ENDBRANCH  13  14
ENDBRANCH   1  13
TORSDOF 4
ENDMDL
MODEL 6
REMARK VINA RESULT:      -6.6      4.682      6.968
REMARK  4 active torsions:
REMARK  status: ('A' for Active; 'I' for Inactive)
REMARK    1  A    between atoms: C2_2  and  C3_3 
REMARK       I    between atoms: C3_3  and  N5_5 
REMARK    2  A    between atoms: N5_5  and  C6_6 
REMARK    3  A    between atoms: C6_6  and  C7_7 
REMARK    4  A    between atoms: C10_9  and  C12_10 
ROOT
ATOM      1  C7  <0> d   1      18.225   0.029   6.910  0.00  0.00     0.013 A 
ATOM      2  C9  <0> d   1      18.985   1.282   6.467  0.00  0.00     0.016 A 
ATOM      3  C10 <0> d   1      19.205   0.709   7.869  0.00  0.00     0.025 A 
ENDROOT
BRANCH   3   4
ATOM      4  C12 <0> d   1      18.625   1.471   9.032  0.00  0.00    -0.044 A 
ATOM      5  C17 <0> d   1      17.946   0.801  10.026  0.00  0.00    -0.016 A 
ATOM      6  C16 <0> d   1      17.402   1.489  11.103  0.00  0.00     0.075 A 
ATOM      7  C18 <0> d   1      17.646  -0.669  10.241  0.00  0.00     0.068 C 
ATOM      8  C15 <0> d   1      17.556   2.872  11.165  0.00  0.00     0.037 A 
ATOM      9  O20 <0> d   1      16.767   0.641  11.959  0.00  0.00    -0.350 OA
ATOM     10  C14 <0> d   1      18.235   3.541  10.168  0.00  0.00     0.003 A 
ATOM     11  C13 <0> d   1      18.769   2.846   9.099  0.00  0.00     0.008 A 
ATOM     12  C19 <0> d   1      17.240  -0.699  11.733  0.00  0.00     0.180 C 
ENDBRANCH   3   4
BRANCH   1  13
ATOM     13  C6  <0> d   1      18.650  -1.308   6.297  0.00  0.00     0.128 C 
BRANCH  13  14
ATOM     14  N5  <0> d   1      18.015  -2.404   7.033  0.00  0.00    -0.361 N 
ATOM     15  C3  <0> d   1      18.629  -3.602   7.119  0.00  0.00     0.217 C 
ATOM     16  O4  <0> d   1      19.706  -3.771   6.588  0.00  0.00    -0.274 OA
ATOM     17  H26 <0> d   1      17.155  -2.269   7.459  0.00  0.00     0.162 HD
BRANCH  15  18
ATOM     18  C2  <0> d   1      17.977  -4.730   7.877  0.00  0.00     0.098 C 
ATOM     19  C1  <0> d   1      17.376  -4.191   9.177  0.00  0.00     0.014 C 
ENDBRANCH  15  18
ENDBRANCH  13  14
ENDBRANCH   1  13
TORSDOF 4
ENDMDL
MODEL 7
REMARK VINA RESULT:      -6.5      3.269      5.433
REMARK  4 active torsions:
REMARK  status: ('A' for Active; 'I' for Inactive)
REMARK    1  A    between atoms: C2_2  and  C3_3 
REMARK       I    between atoms: C3_3  and  N5_5 
REMARK    2  A    between atoms: N5_5  and  C6_6 
REMARK    3  A    between atoms: C6_6  and  C7_7 
REMARK    4  A    between atoms: C10_9  and  C12_10 
ROOT
ATOM      1  C7  <0> d   1      18.595   0.692   9.607  0.00  0.00     0.013 A 
ATOM      2  C9  <0> d   1      19.292   1.694   8.684  0.00  0.00     0.016 A 
ATOM      3  C10 <0> d   1      19.337   1.891  10.202  0.00  0.00     0.025 A 
ENDROOT
BRANCH   3   4
ATOM      4  C12 <0> d   1      18.506   3.005  10.784  0.00  0.00    -0.044 A 
ATOM      5  C17 <0> d   1      18.321   3.086  12.146  0.00  0.00    -0.016 A 
ATOM      6  C16 <0> d   1      17.556   4.104  12.700  0.00  0.00     0.075 A 
ATOM      7  C18 <0> d   1      18.833   2.241  13.296  0.00  0.00     0.068 C 
ATOM      8  C15 <0> d   1      16.977   5.048  11.853  0.00  0.00     0.037 A 
ATOM      9  O20 <0> d   1      17.493   3.993  14.056  0.00  0.00    -0.350 OA
ATOM     10  C14 <0> d   1      17.163   4.963  10.489  0.00  0.00     0.003 A 
ATOM     11  C13 <0> d   1      17.924   3.943   9.950  0.00  0.00     0.008 A 
ATOM     12  C19 <0> d   1      18.577   3.163  14.511  0.00  0.00     0.180 C 
ENDBRANCH   3   4
BRANCH   1  13
ATOM     13  C6  <0> d   1      19.239  -0.687   9.767  0.00  0.00     0.128 C 
BRANCH  13  14
ATOM     14  N5  <0> d   1      19.696  -1.166   8.460  0.00  0.00    -0.361 N 
ATOM     15  C3  <0> d   1      18.976  -2.091   7.792  0.00  0.00     0.217 C 
ATOM     16  O4  <0> d   1      17.951  -2.525   8.272  0.00  0.00    -0.274 OA
ATOM     17  H26 <0> d   1      20.515  -0.819   8.074  0.00  0.00     0.162 HD
BRANCH  15  18
ATOM     18  C2  <0> d   1      19.446  -2.583   6.447  0.00  0.00     0.098 C 
ATOM     19  C1  <0> d   1      19.193  -1.505   5.391  0.00  0.00     0.014 C 
ENDBRANCH  15  18
ENDBRANCH  13  14
ENDBRANCH   1  13
TORSDOF 4
ENDMDL
MODEL 8
REMARK VINA RESULT:      -6.4      2.996      3.629
REMARK  4 active torsions:
REMARK  status: ('A' for Active; 'I' for Inactive)
REMARK    1  A    between atoms: C2_2  and  C3_3 
REMARK       I    between atoms: C3_3  and  N5_5 
REMARK    2  A    between atoms: N5_5  and  C6_6 
REMARK    3  A    between atoms: C6_6  and  C7_7 
REMARK    4  A    between atoms: C10_9  and  C12_10 
ROOT
ATOM      1  C7  <0> d   1      17.789  -0.599  13.259  0.00  0.00     0.013 A 
ATOM      2  C9  <0> d   1      17.435   0.870  13.500  0.00  0.00     0.016 A 
ATOM      3  C10 <0> d   1      18.777   0.317  13.986  0.00  0.00     0.025 A 
ENDROOT
BRANCH   3   4
ATOM      4  C12 <0> d   1      18.951   0.116  15.469  0.00  0.00    -0.044 A 
ATOM      5  C17 <0> d   1      19.159   1.200  16.292  0.00  0.00    -0.016 A 
ATOM      6  C16 <0> d   1      19.325   1.032  17.660  0.00  0.00     0.075 A 
ATOM      7  C18 <0> d   1      19.234   2.689  16.015  0.00  0.00     0.068 C 
ATOM      8  C15 <0> d   1      19.276  -0.255  18.191  0.00  0.00     0.037 A 
ATOM      9  O20 <0> d   1      19.527   2.226  18.283  0.00  0.00    -0.350 OA
ATOM     10  C14 <0> d   1      19.070  -1.340  17.364  0.00  0.00     0.003 A 
ATOM     11  C13 <0> d   1      18.909  -1.160  16.003  0.00  0.00     0.008 A 
ATOM     12  C19 <0> d   1      19.059   3.287  17.430  0.00  0.00     0.180 C 
ENDBRANCH   3   4
BRANCH   1  13
ATOM     13  C6  <0> d   1      18.136  -1.016  11.828  0.00  0.00     0.128 C 
BRANCH  13  14
ATOM     14  N5  <0> d   1      17.719  -2.404  11.611  0.00  0.00    -0.361 N 
ATOM     15  C3  <0> d   1      18.605  -3.407  11.777  0.00  0.00     0.217 C 
ATOM     16  O4  <0> d   1      19.746  -3.160  12.105  0.00  0.00    -0.274 OA
ATOM     17  H26 <0> d   1      16.807  -2.603  11.349  0.00  0.00     0.162 HD
BRANCH  15  18
ATOM     18  C2  <0> d   1      18.177  -4.835  11.554  0.00  0.00     0.098 C 
ATOM     19  C1  <0> d   1      16.656  -4.893  11.397  0.00  0.00     0.014 C 
ENDBRANCH  15  18
ENDBRANCH  13  14
ENDBRANCH   1  13
TORSDOF 4
ENDMDL
MODEL 9
REMARK VINA RESULT:      -6.3      4.894      7.840
REMARK  4 active torsions:
REMARK  status: ('A' for Active; 'I' for Inactive)
REMARK    1  A    between atoms: C2_2  and  C3_3 
REMARK       I    between atoms: C3_3  and  N5_5 
REMARK    2  A    between atoms: N5_5  and  C6_6 
REMARK    3  A    between atoms: C6_6  and  C7_7 
REMARK    4  A    between atoms: C10_9  and  C12_10 
ROOT
ATOM      1  C7  <0> d   1      17.980  -1.752  11.449  0.00  0.00     0.013 A 
ATOM      2  C9  <0> d   1      17.456  -0.695  12.424  0.00  0.00     0.016 A 
ATOM      3  C10 <0> d   1      17.119  -0.596  10.934  0.00  0.00     0.025 A 
ENDROOT
BRANCH   3   4
ATOM      4  C12 <0> d   1      17.804   0.482  10.135  0.00  0.00    -0.044 A 
ATOM      5  C17 <0> d   1      18.018   0.309   8.785  0.00  0.00    -0.016 A 
ATOM      6  C16 <0> d   1      18.651   1.290   8.034  0.00  0.00     0.075 A 
ATOM      7  C18 <0> d   1      17.661  -0.817   7.834  0.00  0.00     0.068 C 
ATOM      8  C15 <0> d   1      19.068   2.459   8.668  0.00  0.00     0.037 A 
ATOM      9  O20 <0> d   1      18.769   0.914   6.731  0.00  0.00    -0.350 OA
ATOM     10  C14 <0> d   1      18.854   2.629  10.020  0.00  0.00     0.003 A 
ATOM     11  C13 <0> d   1      18.226   1.643  10.758  0.00  0.00     0.008 A 
ATOM     12  C19 <0> d   1      17.824  -0.136   6.455  0.00  0.00     0.180 C 
ENDBRANCH   3   4
BRANCH   1  13
ATOM     13  C6  <0> d   1      17.340  -3.140  11.501  0.00  0.00     0.128 C 
BRANCH  13  14
ATOM     14  N5  <0> d   1      18.137  -4.075  10.702  0.00  0.00    -0.361 N 
ATOM     15  C3  <0> d   1      17.539  -5.115  10.086  0.00  0.00     0.217 C 
ATOM     16  O4  <0> d   1      16.342  -5.277  10.195  0.00  0.00    -0.274 OA
ATOM     17  H26 <0> d   1      19.094  -3.945  10.614  0.00  0.00     0.162 HD
BRANCH  15  18
ATOM     18  C2  <0> d   1      18.358  -6.076   9.264  0.00  0.00     0.098 C 
ATOM     19  C1  <0> d   1      19.809  -5.594   9.212  0.00  0.00     0.014 C 
ENDBRANCH  15  18
ENDBRANCH  13  14
ENDBRANCH   1  13
TORSDOF 4
ENDMDL
