MODEL 1
REMARK VINA RESULT:      -4.8      0.000      0.000
REMARK  7 active torsions:
REMARK  status: ('A' for Active; 'I' for Inactive)
REMARK    1  A    between atoms: N1_1  and  C5_5 
REMARK    2  A    between atoms: C5_5  and  C6_6 
REMARK    3  A    between atoms: C6_6  and  C7_7 
REMARK    4  A    between atoms: C7_7  and  C8_8 
REMARK    5  A    between atoms: C8_8  and  O9_9 
REMARK    6  A    between atoms: C8_8  and  P10_10 
REMARK    7  A    between atoms: C8_8  and  P14_14 
ROOT
ATOM      1  C8  ZIN A   1      18.648   2.471  10.634  0.00  0.00     0.285 C 
ENDROOT
BRANCH   1   2
ATOM      2  C7  ZIN A   1      18.236   1.872   9.289  0.00  0.00     0.069 C 
BRANCH   2   3
ATOM      3  C6  ZIN A   1      19.484   1.413   8.531  0.00  0.00     0.031 C 
BRANCH   3   4
ATOM      4  C5  ZIN A   1      19.654  -0.100   8.696  0.00  0.00     0.230 C 
BRANCH   4   5
ATOM      5  N1  ZIN A   1      20.686  -0.368   9.706  0.00  0.00    -0.079 N 
ATOM      6  H2  ZIN A   1      20.540  -1.285  10.101  0.00  0.00     0.274 HD
ATOM      7  H3  ZIN A   1      20.631   0.325  10.437  0.00  0.00     0.274 HD
ATOM      8  H4  ZIN A   1      21.597  -0.330   9.274  0.00  0.00     0.274 HD
ENDBRANCH   4   5
ENDBRANCH   3   4
ENDBRANCH   2   3
ENDBRANCH   1   2
BRANCH   1   9
ATOM      9  O9  ZIN A   1      20.073   2.553  10.703  0.00  0.00    -0.365 OA
ATOM     10  H24 ZIN A   1      20.511   2.521   9.840  0.00  0.00     0.212 HD
ENDBRANCH   1   9
BRANCH   1  11
ATOM     11  P10 ZIN A   1      17.935   4.141  10.799  0.00  0.00     0.310 P 
ATOM     12  O11 ZIN A   1      17.966   4.862   9.409  0.00  0.00    -0.637 OA
ATOM     13  O12 ZIN A   1      16.454   4.029  11.297  0.00  0.00    -0.637 OA
ATOM     14  O13 ZIN A   1      18.774   4.966  11.835  0.00  0.00    -0.637 OA
ENDBRANCH   1  11
BRANCH   1  15
ATOM     15  P14 ZIN A   1      18.034   1.412  11.985  0.00  0.00     0.310 P 
ATOM     16  O15 ZIN A   1      16.629   0.837  11.601  0.00  0.00    -0.637 OA
ATOM     17  O16 ZIN A   1      19.035   0.229  12.216  0.00  0.00    -0.637 OA
ATOM     18  O17 ZIN A   1      17.912   2.257  13.298  0.00  0.00    -0.637 OA
ENDBRANCH   1  15
TORSDOF 7
ENDMDL
MODEL 2
REMARK VINA RESULT:      -4.6      2.184      3.114
REMARK  7 active torsions:
REMARK  status: ('A' for Active; 'I' for Inactive)
REMARK    1  A    between atoms: N1_1  and  C5_5 
REMARK    2  A    between atoms: C5_5  and  C6_6 
REMARK    3  A    between atoms: C6_6  and  C7_7 
REMARK    4  A    between atoms: C7_7  and  C8_8 
REMARK    5  A    between atoms: C8_8  and  O9_9 
REMARK    6  A    between atoms: C8_8  and  P10_10 
REMARK    7  A    between atoms: C8_8  and  P14_14 
ROOT
ATOM      1  C8  ZIN A   1      19.385   2.435  12.087  0.00  0.00     0.285 C 
ENDROOT
BRANCH   1   2
ATOM      2  C7  ZIN A   1      19.064   1.131  12.820  0.00  0.00     0.069 C 
BRANCH   2   3
ATOM      3  C6  ZIN A   1      20.311   0.246  12.857  0.00  0.00     0.031 C 
BRANCH   3   4
ATOM      4  C5  ZIN A   1      20.246  -0.775  11.719  0.00  0.00     0.230 C 
BRANCH   4   5
ATOM      5  N1  ZIN A   1      21.314  -0.497  10.750  0.00  0.00    -0.079 N 
ATOM      6  H2  ZIN A   1      22.121  -0.132  11.234  0.00  0.00     0.274 HD
ATOM      7  H3  ZIN A   1      20.991   0.182  10.077  0.00  0.00     0.274 HD
ATOM      8  H4  ZIN A   1      21.566  -1.350  10.273  0.00  0.00     0.274 HD
ENDBRANCH   4   5
ENDBRANCH   3   4
ENDBRANCH   2   3
ENDBRANCH   1   2
BRANCH   1   9
ATOM      9  O9  ZIN A   1      20.793   2.520  11.862  0.00  0.00    -0.365 OA
ATOM     10  H24 ZIN A   1      21.079   3.359  11.472  0.00  0.00     0.212 HD
ENDBRANCH   1   9
BRANCH   1  11
ATOM     11  P10 ZIN A   1      18.511   2.464  10.487  0.00  0.00     0.310 P 
ATOM     12  O11 ZIN A   1      18.307   3.948  10.030  0.00  0.00    -0.637 OA
ATOM     13  O12 ZIN A   1      19.359   1.698   9.415  0.00  0.00    -0.637 OA
ATOM     14  O13 ZIN A   1      17.115   1.769  10.642  0.00  0.00    -0.637 OA
ENDBRANCH   1  11
BRANCH   1  15
ATOM     15  P14 ZIN A   1      18.844   3.851  13.100  0.00  0.00     0.310 P 
ATOM     16  O15 ZIN A   1      17.337   4.158  12.807  0.00  0.00    -0.637 OA
ATOM     17  O16 ZIN A   1      19.020   3.504  14.618  0.00  0.00    -0.637 OA
ATOM     18  O17 ZIN A   1      19.712   5.107  12.747  0.00  0.00    -0.637 OA
ENDBRANCH   1  15
TORSDOF 7
ENDMDL
MODEL 3
REMARK VINA RESULT:      -4.6      1.444      1.941
REMARK  7 active torsions:
REMARK  status: ('A' for Active; 'I' for Inactive)
REMARK    1  A    between atoms: N1_1  and  C5_5 
REMARK    2  A    between atoms: C5_5  and  C6_6 
REMARK    3  A    between atoms: C6_6  and  C7_7 
REMARK    4  A    between atoms: C7_7  and  C8_8 
REMARK    5  A    between atoms: C8_8  and  O9_9 
REMARK    6  A    between atoms: C8_8  and  P10_10 
REMARK    7  A    between atoms: C8_8  and  P14_14 
ROOT
ATOM      1  C8  ZIN A   1      18.520   1.062  10.734  0.00  0.00     0.285 C 
ENDROOT
BRANCH   1   2
ATOM      2  C7  ZIN A   1      18.111   1.242   9.272  0.00  0.00     0.069 C 
BRANCH   2   3
ATOM      3  C6  ZIN A   1      19.324   1.007   8.370  0.00  0.00     0.031 C 
BRANCH   3   4
ATOM      4  C5  ZIN A   1      19.154  -0.316   7.619  0.00  0.00     0.230 C 
BRANCH   4   5
ATOM      5  N1  ZIN A   1      19.708  -1.410   8.426  0.00  0.00    -0.079 N 
ATOM      6  H2  ZIN A   1      19.788  -2.241   7.858  0.00  0.00     0.274 HD
ATOM      7  H3  ZIN A   1      19.097  -1.596   9.208  0.00  0.00     0.274 HD
ATOM      8  H4  ZIN A   1      20.621  -1.148   8.768  0.00  0.00     0.274 HD
ENDBRANCH   4   5
ENDBRANCH   3   4
ENDBRANCH   2   3
ENDBRANCH   1   2
BRANCH   1   9
ATOM      9  O9  ZIN A   1      19.911   0.743  10.804  0.00  0.00    -0.365 OA
ATOM     10  H24 ZIN A   1      20.102  -0.079  11.277  0.00  0.00     0.212 HD
ENDBRANCH   1   9
BRANCH   1  11
ATOM     11  P10 ZIN A   1      18.205   2.608  11.648  0.00  0.00     0.310 P 
ATOM     12  O11 ZIN A   1      16.928   3.306  11.069  0.00  0.00    -0.637 OA
ATOM     13  O12 ZIN A   1      17.982   2.282  13.163  0.00  0.00    -0.637 OA
ATOM     14  O13 ZIN A   1      19.438   3.565  11.495  0.00  0.00    -0.637 OA
ENDBRANCH   1  11
BRANCH   1  15
ATOM     15  P14 ZIN A   1      17.549  -0.290  11.476  0.00  0.00     0.310 P 
ATOM     16  O15 ZIN A   1      16.061   0.168  11.647  0.00  0.00    -0.637 OA
ATOM     17  O16 ZIN A   1      17.603  -1.546  10.540  0.00  0.00    -0.637 OA
ATOM     18  O17 ZIN A   1      18.147  -0.656  12.877  0.00  0.00    -0.637 OA
ENDBRANCH   1  15
TORSDOF 7
ENDMDL
MODEL 4
REMARK VINA RESULT:      -4.6      2.243      3.978
REMARK  7 active torsions:
REMARK  status: ('A' for Active; 'I' for Inactive)
REMARK    1  A    between atoms: N1_1  and  C5_5 
REMARK    2  A    between atoms: C5_5  and  C6_6 
REMARK    3  A    between atoms: C6_6  and  C7_7 
REMARK    4  A    between atoms: C7_7  and  C8_8 
REMARK    5  A    between atoms: C8_8  and  O9_9 
REMARK    6  A    between atoms: C8_8  and  P10_10 
REMARK    7  A    between atoms: C8_8  and  P14_14 
ROOT
ATOM      1  C8  ZIN A   1      18.068   0.165   9.932  0.00  0.00     0.285 C 
ENDROOT
BRANCH   1   2
ATOM      2  C7  ZIN A   1      19.332  -0.644   9.636  0.00  0.00     0.069 C 
BRANCH   2   3
ATOM      3  C6  ZIN A   1      19.255  -1.212   8.218  0.00  0.00     0.031 C 
BRANCH   3   4
ATOM      4  C5  ZIN A   1      19.045  -2.727   8.285  0.00  0.00     0.230 C 
BRANCH   4   5
ATOM      5  N1  ZIN A   1      17.610  -3.018   8.393  0.00  0.00    -0.079 N 
ATOM      6  H2  ZIN A   1      17.271  -2.715   9.295  0.00  0.00     0.274 HD
ATOM      7  H3  ZIN A   1      17.458  -4.010   8.294  0.00  0.00     0.274 HD
ATOM      8  H4  ZIN A   1      17.111  -2.527   7.666  0.00  0.00     0.274 HD
ENDBRANCH   4   5
ENDBRANCH   3   4
ENDBRANCH   2   3
ENDBRANCH   1   2
BRANCH   1   9
ATOM      9  O9  ZIN A   1      17.168   0.063   8.826  0.00  0.00    -0.365 OA
ATOM     10  H24 ZIN A   1      16.991  -0.846   8.547  0.00  0.00     0.212 HD
ENDBRANCH   1   9
BRANCH   1  11
ATOM     11  P10 ZIN A   1      17.265  -0.488  11.432  0.00  0.00     0.310 P 
ATOM     12  O11 ZIN A   1      15.816   0.097  11.545  0.00  0.00    -0.637 OA
ATOM     13  O12 ZIN A   1      17.192  -2.051  11.347  0.00  0.00    -0.637 OA
ATOM     14  O13 ZIN A   1      18.097  -0.071  12.693  0.00  0.00    -0.637 OA
ENDBRANCH   1  11
BRANCH   1  15
ATOM     15  P14 ZIN A   1      18.513   1.914  10.193  0.00  0.00     0.310 P 
ATOM     16  O15 ZIN A   1      19.734   2.002  11.170  0.00  0.00    -0.637 OA
ATOM     17  O16 ZIN A   1      18.896   2.565   8.820  0.00  0.00    -0.637 OA
ATOM     18  O17 ZIN A   1      17.293   2.677  10.812  0.00  0.00    -0.637 OA
ENDBRANCH   1  15
TORSDOF 7
ENDMDL
MODEL 5
REMARK VINA RESULT:      -4.5      2.567      4.184
REMARK  7 active torsions:
REMARK  status: ('A' for Active; 'I' for Inactive)
REMARK    1  A    between atoms: N1_1  and  C5_5 
REMARK    2  A    between atoms: C5_5  and  C6_6 
REMARK    3  A    between atoms: C6_6  and  C7_7 
REMARK    4  A    between atoms: C7_7  and  C8_8 
REMARK    5  A    between atoms: C8_8  and  O9_9 
REMARK    6  A    between atoms: C8_8  and  P10_10 
REMARK    7  A    between atoms: C8_8  and  P14_14 
ROOT
ATOM      1  C8  ZIN A   1      18.757   1.051  11.435  0.00  0.00     0.285 C 
ENDROOT
BRANCH   1   2
ATOM      2  C7  ZIN A   1      18.647   1.083  12.960  0.00  0.00     0.069 C 
BRANCH   2   3
ATOM      3  C6  ZIN A   1      19.876   0.409  13.574  0.00  0.00     0.031 C 
BRANCH   3   4
ATOM      4  C5  ZIN A   1      19.493  -0.981  14.088  0.00  0.00     0.230 C 
BRANCH   4   5
ATOM      5  N1  ZIN A   1      19.880  -1.993  13.097  0.00  0.00    -0.079 N 
ATOM      6  H2  ZIN A   1      20.711  -1.689  12.612  0.00  0.00     0.274 HD
ATOM      7  H3  ZIN A   1      19.130  -2.117  12.432  0.00  0.00     0.274 HD
ATOM      8  H4  ZIN A   1      20.064  -2.868  13.563  0.00  0.00     0.274 HD
ENDBRANCH   4   5
ENDBRANCH   3   4
ENDBRANCH   2   3
ENDBRANCH   1   2
BRANCH   1   9
ATOM      9  O9  ZIN A   1      20.049   0.569  11.060  0.00  0.00    -0.365 OA
ATOM     10  H24 ZIN A   1      20.205   0.565  10.105  0.00  0.00     0.212 HD
ENDBRANCH   1   9
BRANCH   1  11
ATOM     11  P10 ZIN A   1      17.475  -0.054  10.757  0.00  0.00     0.310 P 
ATOM     12  O11 ZIN A   1      16.140   0.146  11.552  0.00  0.00    -0.637 OA
ATOM     13  O12 ZIN A   1      17.240   0.286   9.246  0.00  0.00    -0.637 OA
ATOM     14  O13 ZIN A   1      17.946  -1.543  10.891  0.00  0.00    -0.637 OA
ENDBRANCH   1  11
BRANCH   1  15
ATOM     15  P14 ZIN A   1      18.521   2.734  10.774  0.00  0.00     0.310 P 
ATOM     16  O15 ZIN A   1      19.425   3.738  11.565  0.00  0.00    -0.637 OA
ATOM     17  O16 ZIN A   1      18.917   2.759   9.258  0.00  0.00    -0.637 OA
ATOM     18  O17 ZIN A   1      17.019   3.150  10.928  0.00  0.00    -0.637 OA
ENDBRANCH   1  15
TORSDOF 7
ENDMDL
MODEL 6
REMARK VINA RESULT:      -4.5      2.567      4.101
REMARK  7 active torsions:
REMARK  status: ('A' for Active; 'I' for Inactive)
REMARK    1  A    between atoms: N1_1  and  C5_5 
REMARK    2  A    between atoms: C5_5  and  C6_6 
REMARK    3  A    between atoms: C6_6  and  C7_7 
REMARK    4  A    between atoms: C7_7  and  C8_8 
REMARK    5  A    between atoms: C8_8  and  O9_9 
REMARK    6  A    between atoms: C8_8  and  P10_10 
REMARK    7  A    between atoms: C8_8  and  P14_14 
ROOT
ATOM      1  C8  ZIN A   1      18.758   1.057  11.434  0.00  0.00     0.285 C 
ENDROOT
BRANCH   1   2
ATOM      2  C7  ZIN A   1      18.656   1.096  12.959  0.00  0.00     0.069 C 
BRANCH   2   3
ATOM      3  C6  ZIN A   1      19.883   0.417  13.571  0.00  0.00     0.031 C 
BRANCH   3   4
ATOM      4  C5  ZIN A   1      19.490  -0.963  14.102  0.00  0.00     0.230 C 
BRANCH   4   5
ATOM      5  N1  ZIN A   1      19.872  -1.991  13.125  0.00  0.00    -0.079 N 
ATOM      6  H2  ZIN A   1      19.928  -1.578  12.206  0.00  0.00     0.274 HD
ATOM      7  H3  ZIN A   1      19.181  -2.726  13.122  0.00  0.00     0.274 HD
ATOM      8  H4  ZIN A   1      20.771  -2.376  13.376  0.00  0.00     0.274 HD
ENDBRANCH   4   5
ENDBRANCH   3   4
ENDBRANCH   2   3
ENDBRANCH   1   2
BRANCH   1   9
ATOM      9  O9  ZIN A   1      20.048   0.572  11.055  0.00  0.00    -0.365 OA
ATOM     10  H24 ZIN A   1      20.519   1.150  10.438  0.00  0.00     0.212 HD
ENDBRANCH   1   9
BRANCH   1  11
ATOM     11  P10 ZIN A   1      17.473  -0.052  10.767  0.00  0.00     0.310 P 
ATOM     12  O11 ZIN A   1      17.228   0.282   9.256  0.00  0.00    -0.637 OA
ATOM     13  O12 ZIN A   1      17.944  -1.539  10.905  0.00  0.00    -0.637 OA
ATOM     14  O13 ZIN A   1      16.141   0.151  11.570  0.00  0.00    -0.637 OA
ENDBRANCH   1  11
BRANCH   1  15
ATOM     15  P14 ZIN A   1      18.519   2.736  10.764  0.00  0.00     0.310 P 
ATOM     16  O15 ZIN A   1      17.020   3.158  10.935  0.00  0.00    -0.637 OA
ATOM     17  O16 ZIN A   1      19.436   3.742  11.540  0.00  0.00    -0.637 OA
ATOM     18  O17 ZIN A   1      18.896   2.751   9.244  0.00  0.00    -0.637 OA
ENDBRANCH   1  15
TORSDOF 7
ENDMDL
MODEL 7
REMARK VINA RESULT:      -4.5      2.884      4.338
REMARK  7 active torsions:
REMARK  status: ('A' for Active; 'I' for Inactive)
REMARK    1  A    between atoms: N1_1  and  C5_5 
REMARK    2  A    between atoms: C5_5  and  C6_6 
REMARK    3  A    between atoms: C6_6  and  C7_7 
REMARK    4  A    between atoms: C7_7  and  C8_8 
REMARK    5  A    between atoms: C8_8  and  O9_9 
REMARK    6  A    between atoms: C8_8  and  P10_10 
REMARK    7  A    between atoms: C8_8  and  P14_14 
ROOT
ATOM      1  C8  ZIN A   1      18.573   0.952  10.269  0.00  0.00     0.285 C 
ENDROOT
BRANCH   1   2
ATOM      2  C7  ZIN A   1      17.915   2.332  10.310  0.00  0.00     0.069 C 
BRANCH   2   3
ATOM      3  C6  ZIN A   1      18.880   3.339  10.938  0.00  0.00     0.031 C 
BRANCH   3   4
ATOM      4  C5  ZIN A   1      18.485   3.584  12.397  0.00  0.00     0.230 C 
BRANCH   4   5
ATOM      5  N1  ZIN A   1      19.374   2.817  13.279  0.00  0.00    -0.079 N 
ATOM      6  H2  ZIN A   1      19.192   1.831  13.166  0.00  0.00     0.274 HD
ATOM      7  H3  ZIN A   1      19.206   3.081  14.239  0.00  0.00     0.274 HD
ATOM      8  H4  ZIN A   1      20.335   3.011  13.040  0.00  0.00     0.274 HD
ENDBRANCH   4   5
ENDBRANCH   3   4
ENDBRANCH   2   3
ENDBRANCH   1   2
BRANCH   1   9
ATOM      9  O9  ZIN A   1      19.931   1.059  10.702  0.00  0.00    -0.365 OA
ATOM     10  H24 ZIN A   1      20.426   1.767  10.269  0.00  0.00     0.212 HD
ENDBRANCH   1   9
BRANCH   1  11
ATOM     11  P10 ZIN A   1      17.671  -0.184  11.373  0.00  0.00     0.310 P 
ATOM     12  O11 ZIN A   1      16.137   0.128  11.303  0.00  0.00    -0.637 OA
ATOM     13  O12 ZIN A   1      17.925  -1.662  10.922  0.00  0.00    -0.637 OA
ATOM     14  O13 ZIN A   1      18.176   0.007  12.845  0.00  0.00    -0.637 OA
ENDBRANCH   1  11
BRANCH   1  15
ATOM     15  P14 ZIN A   1      18.527   0.307   8.565  0.00  0.00     0.310 P 
ATOM     16  O15 ZIN A   1      17.082  -0.200   8.236  0.00  0.00    -0.637 OA
ATOM     17  O16 ZIN A   1      18.920   1.448   7.564  0.00  0.00    -0.637 OA
ATOM     18  O17 ZIN A   1      19.540  -0.880   8.428  0.00  0.00    -0.637 OA
ENDBRANCH   1  15
TORSDOF 7
ENDMDL
MODEL 8
REMARK VINA RESULT:      -4.4      2.652      3.765
REMARK  7 active torsions:
REMARK  status: ('A' for Active; 'I' for Inactive)
REMARK    1  A    between atoms: N1_1  and  C5_5 
REMARK    2  A    between atoms: C5_5  and  C6_6 
REMARK    3  A    between atoms: C6_6  and  C7_7 
REMARK    4  A    between atoms: C7_7  and  C8_8 
REMARK    5  A    between atoms: C8_8  and  O9_9 
REMARK    6  A    between atoms: C8_8  and  P10_10 
REMARK    7  A    between atoms: C8_8  and  P14_14 
ROOT
ATOM      1  C8  ZIN A   1      19.181   0.703  11.178  0.00  0.00     0.285 C 
ENDROOT
BRANCH   1   2
ATOM      2  C7  ZIN A   1      18.370  -0.375  11.899  0.00  0.00     0.069 C 
BRANCH   2   3
ATOM      3  C6  ZIN A   1      19.311  -1.256  12.723  0.00  0.00     0.031 C 
BRANCH   3   4
ATOM      4  C5  ZIN A   1      19.453  -2.623  12.049  0.00  0.00     0.230 C 
BRANCH   4   5
ATOM      5  N1  ZIN A   1      20.670  -2.639  11.228  0.00  0.00    -0.079 N 
ATOM      6  H2  ZIN A   1      20.925  -3.594  11.023  0.00  0.00     0.274 HD
ATOM      7  H3  ZIN A   1      21.421  -2.191  11.730  0.00  0.00     0.274 HD
ATOM      8  H4  ZIN A   1      20.500  -2.145  10.364  0.00  0.00     0.274 HD
ENDBRANCH   4   5
ENDBRANCH   3   4
ENDBRANCH   2   3
ENDBRANCH   1   2
BRANCH   1   9
ATOM      9  O9  ZIN A   1      20.562   0.571  11.523  0.00  0.00    -0.365 OA
ATOM     10  H24 ZIN A   1      21.053   1.404  11.502  0.00  0.00     0.212 HD
ENDBRANCH   1   9
BRANCH   1  11
ATOM     11  P10 ZIN A   1      18.984   0.508   9.376  0.00  0.00     0.310 P 
ATOM     12  O11 ZIN A   1      19.459   1.815   8.655  0.00  0.00    -0.637 OA
ATOM     13  O12 ZIN A   1      19.848  -0.703   8.885  0.00  0.00    -0.637 OA
ATOM     14  O13 ZIN A   1      17.476   0.244   9.041  0.00  0.00    -0.637 OA
ENDBRANCH   1  11
BRANCH   1  15
ATOM     15  P14 ZIN A   1      18.583   2.350  11.680  0.00  0.00     0.310 P 
ATOM     16  O15 ZIN A   1      19.664   3.428  11.328  0.00  0.00    -0.637 OA
ATOM     17  O16 ZIN A   1      17.254   2.678  10.918  0.00  0.00    -0.637 OA
ATOM     18  O17 ZIN A   1      18.318   2.362  13.224  0.00  0.00    -0.637 OA
ENDBRANCH   1  15
TORSDOF 7
ENDMDL
MODEL 9
REMARK VINA RESULT:      -4.4      2.000      2.576
REMARK  7 active torsions:
REMARK  status: ('A' for Active; 'I' for Inactive)
REMARK    1  A    between atoms: N1_1  and  C5_5 
REMARK    2  A    between atoms: C5_5  and  C6_6 
REMARK    3  A    between atoms: C6_6  and  C7_7 
REMARK    4  A    between atoms: C7_7  and  C8_8 
REMARK    5  A    between atoms: C8_8  and  O9_9 
REMARK    6  A    between atoms: C8_8  and  P10_10 
REMARK    7  A    between atoms: C8_8  and  P14_14 
ROOT
ATOM      1  C8  ZIN A   1      19.433   1.644  11.701  0.00  0.00     0.285 C 
ENDROOT
BRANCH   1   2
ATOM      2  C7  ZIN A   1      19.297   0.444  10.762  0.00  0.00     0.069 C 
BRANCH   2   3
ATOM      3  C6  ZIN A   1      20.466  -0.516  10.988  0.00  0.00     0.031 C 
BRANCH   3   4
ATOM      4  C5  ZIN A   1      19.927  -1.928  11.232  0.00  0.00     0.230 C 
BRANCH   4   5
ATOM      5  N1  ZIN A   1      19.800  -2.159  12.676  0.00  0.00    -0.079 N 
ATOM      6  H2  ZIN A   1      20.538  -2.774  12.986  0.00  0.00     0.274 HD
ATOM      7  H3  ZIN A   1      18.905  -2.584  12.871  0.00  0.00     0.274 HD
ATOM      8  H4  ZIN A   1      19.867  -1.279  13.166  0.00  0.00     0.274 HD
ENDBRANCH   4   5
ENDBRANCH   3   4
ENDBRANCH   2   3
ENDBRANCH   1   2
BRANCH   1   9
ATOM      9  O9  ZIN A   1      20.812   1.992  11.833  0.00  0.00    -0.365 OA
ATOM     10  H24 ZIN A   1      20.987   2.656  12.514  0.00  0.00     0.212 HD
ENDBRANCH   1   9
BRANCH   1  11
ATOM     11  P10 ZIN A   1      18.511   3.059  11.016  0.00  0.00     0.310 P 
ATOM     12  O11 ZIN A   1      19.014   4.383  11.687  0.00  0.00    -0.637 OA
ATOM     13  O12 ZIN A   1      18.745   3.135   9.469  0.00  0.00    -0.637 OA
ATOM     14  O13 ZIN A   1      16.982   2.876  11.305  0.00  0.00    -0.637 OA
ENDBRANCH   1  11
BRANCH   1  15
ATOM     15  P14 ZIN A   1      18.756   1.213  13.338  0.00  0.00     0.310 P 
ATOM     16  O15 ZIN A   1      18.226   2.508  14.042  0.00  0.00    -0.637 OA
ATOM     17  O16 ZIN A   1      17.578   0.194  13.165  0.00  0.00    -0.637 OA
ATOM     18  O17 ZIN A   1      19.882   0.566  14.215  0.00  0.00    -0.637 OA
ENDBRANCH   1  15
TORSDOF 7
ENDMDL
