MODEL 1
REMARK VINA RESULT:      -4.4      0.000      0.000
REMARK  0 active torsions:
REMARK  status: ('A' for Active; 'I' for Inactive)
ROOT
ATOM      1  O1  <0> d   1      19.690   2.007  18.771  0.00  0.00    -0.247 OA
ATOM      2  C2  <0> d   1      19.339   1.158  17.974  0.00  0.00     0.327 A 
ATOM      3  N3  <0> d   1      19.628  -0.135  18.212  0.00  0.00    -0.316 N 
ATOM      4  C4  <0> d   1      19.243  -1.109  17.328  0.00  0.00     0.140 A 
ATOM      5  C5  <0> d   1      18.567  -0.769  16.210  0.00  0.00     0.199 A 
ATOM      6  F6  <0> d   1      18.180  -1.716  15.329  0.00  0.00    -0.199 F 
ATOM      7  C7  <0> d   1      18.270   0.597  15.973  0.00  0.00     0.289 A 
ATOM      8  O8  <0> d   1      17.663   0.929  14.971  0.00  0.00    -0.265 OA
ATOM      9  N9  <0> d   1      18.663   1.525  16.870  0.00  0.00    -0.273 N 
ATOM     10  H10 <0> d   1      20.113  -0.378  19.016  0.00  0.00     0.170 HD
ATOM     11  H12 <0> d   1      18.463   2.461  16.715  0.00  0.00     0.173 HD
ENDROOT
TORSDOF 0
ENDMDL
MODEL 2
REMARK VINA RESULT:      -4.3      7.647      8.418
REMARK  0 active torsions:
REMARK  status: ('A' for Active; 'I' for Inactive)
ROOT
ATOM      1  O1  <0> d   1      20.771  -0.718  10.832  0.00  0.00    -0.247 OA
ATOM      2  C2  <0> d   1      20.192  -0.328   9.837  0.00  0.00     0.327 A 
ATOM      3  N3  <0> d   1      19.849  -1.211   8.881  0.00  0.00    -0.316 N 
ATOM      4  C4  <0> d   1      19.195  -0.796   7.750  0.00  0.00     0.140 A 
ATOM      5  C5  <0> d   1      18.893   0.511   7.594  0.00  0.00     0.199 A 
ATOM      6  F6  <0> d   1      18.249   0.938   6.487  0.00  0.00    -0.199 F 
ATOM      7  C7  <0> d   1      19.260   1.429   8.610  0.00  0.00     0.289 A 
ATOM      8  O8  <0> d   1      18.999   2.613   8.492  0.00  0.00    -0.265 OA
ATOM      9  N9  <0> d   1      19.898   0.980   9.709  0.00  0.00    -0.273 N 
ATOM     10  H10 <0> d   1      20.066  -2.149   8.994  0.00  0.00     0.170 HD
ATOM     11  H12 <0> d   1      20.153   1.602  10.408  0.00  0.00     0.173 HD
ENDROOT
TORSDOF 0
ENDMDL
MODEL 3
REMARK VINA RESULT:      -4.2      2.329      3.576
REMARK  0 active torsions:
REMARK  status: ('A' for Active; 'I' for Inactive)
ROOT
ATOM      1  O1  <0> d   1      16.840  -1.153  16.752  0.00  0.00    -0.247 OA
ATOM      2  C2  <0> d   1      17.551  -0.167  16.713  0.00  0.00     0.327 A 
ATOM      3  N3  <0> d   1      17.507   0.639  15.636  0.00  0.00    -0.316 N 
ATOM      4  C4  <0> d   1      18.299   1.756  15.568  0.00  0.00     0.140 A 
ATOM      5  C5  <0> d   1      19.129   2.050  16.591  0.00  0.00     0.199 A 
ATOM      6  F6  <0> d   1      19.916   3.146  16.541  0.00  0.00    -0.199 F 
ATOM      7  C7  <0> d   1      19.164   1.191  17.719  0.00  0.00     0.289 A 
ATOM      8  O8  <0> d   1      19.906   1.435  18.653  0.00  0.00    -0.265 OA
ATOM      9  N9  <0> d   1      18.366   0.105  17.748  0.00  0.00    -0.273 N 
ATOM     10  H10 <0> d   1      16.910   0.428  14.901  0.00  0.00     0.170 HD
ATOM     11  H12 <0> d   1      18.384  -0.487  18.516  0.00  0.00     0.173 HD
ENDROOT
TORSDOF 0
ENDMDL
MODEL 4
REMARK VINA RESULT:      -4.2      8.089      8.922
REMARK  0 active torsions:
REMARK  status: ('A' for Active; 'I' for Inactive)
ROOT
ATOM      1  O1  <0> d   1      20.684  -0.564  10.600  0.00  0.00    -0.247 OA
ATOM      2  C2  <0> d   1      20.137  -0.206   9.575  0.00  0.00     0.327 A 
ATOM      3  N3  <0> d   1      19.916   1.104   9.364  0.00  0.00    -0.316 N 
ATOM      4  C4  <0> d   1      19.301   1.532   8.215  0.00  0.00     0.140 A 
ATOM      5  C5  <0> d   1      18.915   0.629   7.288  0.00  0.00     0.199 A 
ATOM      6  F6  <0> d   1      18.309   1.033   6.151  0.00  0.00    -0.199 F 
ATOM      7  C7  <0> d   1      19.155  -0.748   7.525  0.00  0.00     0.289 A 
ATOM      8  O8  <0> d   1      18.815  -1.580   6.703  0.00  0.00    -0.265 OA
ATOM      9  N9  <0> d   1      19.766  -1.127   8.665  0.00  0.00    -0.273 N 
ATOM     10  H10 <0> d   1      20.194   1.751  10.030  0.00  0.00     0.170 HD
ATOM     11  H12 <0> d   1      19.934  -2.067   8.834  0.00  0.00     0.173 HD
ENDROOT
TORSDOF 0
ENDMDL
MODEL 5
REMARK VINA RESULT:      -4.2      9.784     10.843
REMARK  0 active torsions:
REMARK  status: ('A' for Active; 'I' for Inactive)
ROOT
ATOM      1  O1  <0> d   1      19.784  -1.532   4.303  0.00  0.00    -0.247 OA
ATOM      2  C2  <0> d   1      19.307  -0.998   5.286  0.00  0.00     0.327 A 
ATOM      3  N3  <0> d   1      19.235   0.345   5.341  0.00  0.00    -0.316 N 
ATOM      4  C4  <0> d   1      18.701   0.970   6.437  0.00  0.00     0.140 A 
ATOM      5  C5  <0> d   1      18.243   0.232   7.471  0.00  0.00     0.199 A 
ATOM      6  F6  <0> d   1      17.713   0.832   8.559  0.00  0.00    -0.199 F 
ATOM      7  C7  <0> d   1      18.325  -1.181   7.398  0.00  0.00     0.289 A 
ATOM      8  O8  <0> d   1      17.919  -1.868   8.318  0.00  0.00    -0.265 OA
ATOM      9  N9  <0> d   1      18.854  -1.758   6.300  0.00  0.00    -0.273 N 
ATOM     10  H10 <0> d   1      19.564   0.874   4.598  0.00  0.00     0.170 HD
ATOM     11  H12 <0> d   1      18.913  -2.724   6.243  0.00  0.00     0.173 HD
ENDROOT
TORSDOF 0
ENDMDL
MODEL 6
REMARK VINA RESULT:      -4.2     10.124     10.894
REMARK  0 active torsions:
REMARK  status: ('A' for Active; 'I' for Inactive)
ROOT
ATOM      1  O1  <0> d   1      18.459  -3.879   7.540  0.00  0.00    -0.247 OA
ATOM      2  C2  <0> d   1      18.493  -2.730   7.144  0.00  0.00     0.327 A 
ATOM      3  N3  <0> d   1      17.783  -1.785   7.788  0.00  0.00    -0.316 N 
ATOM      4  C4  <0> d   1      17.806  -0.483   7.361  0.00  0.00     0.140 A 
ATOM      5  C5  <0> d   1      18.548  -0.145   6.285  0.00  0.00     0.199 A 
ATOM      6  F6  <0> d   1      18.581   1.133   5.850  0.00  0.00    -0.199 F 
ATOM      7  C7  <0> d   1      19.290  -1.151   5.616  0.00  0.00     0.289 A 
ATOM      8  O8  <0> d   1      19.966  -0.871   4.643  0.00  0.00    -0.265 OA
ATOM      9  N9  <0> d   1      19.244  -2.420   6.071  0.00  0.00    -0.273 N 
ATOM     10  H10 <0> d   1      17.251  -2.029   8.562  0.00  0.00     0.170 HD
ATOM     11  H12 <0> d   1      19.750  -3.113   5.619  0.00  0.00     0.173 HD
ENDROOT
TORSDOF 0
ENDMDL
MODEL 7
REMARK VINA RESULT:      -4.2      2.051      3.190
REMARK  0 active torsions:
REMARK  status: ('A' for Active; 'I' for Inactive)
ROOT
ATOM      1  O1  <0> d   1      18.403   2.251  14.497  0.00  0.00    -0.247 OA
ATOM      2  C2  <0> d   1      18.333   1.717  15.588  0.00  0.00     0.327 A 
ATOM      3  N3  <0> d   1      17.427   0.743  15.791  0.00  0.00    -0.316 N 
ATOM      4  C4  <0> d   1      17.329   0.126  17.012  0.00  0.00     0.140 A 
ATOM      5  C5  <0> d   1      18.149   0.499  18.017  0.00  0.00     0.199 A 
ATOM      6  F6  <0> d   1      18.066  -0.099  19.225  0.00  0.00    -0.199 F 
ATOM      7  C7  <0> d   1      19.099   1.526  17.787  0.00  0.00     0.289 A 
ATOM      8  O8  <0> d   1      19.849   1.880  18.678  0.00  0.00    -0.265 OA
ATOM      9  N9  <0> d   1      19.166   2.105  16.571  0.00  0.00    -0.273 N 
ATOM     10  H10 <0> d   1      16.838   0.476  15.069  0.00  0.00     0.170 HD
ATOM     11  H12 <0> d   1      19.814   2.808  16.406  0.00  0.00     0.173 HD
ENDROOT
TORSDOF 0
ENDMDL
MODEL 8
REMARK VINA RESULT:      -4.1      5.785      6.203
REMARK  0 active torsions:
REMARK  status: ('A' for Active; 'I' for Inactive)
ROOT
ATOM      1  O1  <0> d   1      21.126   0.611  12.234  0.00  0.00    -0.247 OA
ATOM      2  C2  <0> d   1      20.181   1.294  11.888  0.00  0.00     0.327 A 
ATOM      3  N3  <0> d   1      20.371   2.597  11.612  0.00  0.00    -0.316 N 
ATOM      4  C4  <0> d   1      19.322   3.388  11.221  0.00  0.00     0.140 A 
ATOM      5  C5  <0> d   1      18.086   2.853  11.113  0.00  0.00     0.199 A 
ATOM      6  F6  <0> d   1      17.041   3.617  10.729  0.00  0.00    -0.199 F 
ATOM      7  C7  <0> d   1      17.902   1.479  11.408  0.00  0.00     0.289 A 
ATOM      8  O8  <0> d   1      16.797   0.974  11.318  0.00  0.00    -0.265 OA
ATOM      9  N9  <0> d   1      18.961   0.735  11.784  0.00  0.00    -0.273 N 
ATOM     10  H10 <0> d   1      21.259   2.980  11.690  0.00  0.00     0.170 HD
ATOM     11  H12 <0> d   1      18.843  -0.206  11.987  0.00  0.00     0.173 HD
ENDROOT
TORSDOF 0
ENDMDL
MODEL 9
REMARK VINA RESULT:      -4.0      1.517      2.033
REMARK  0 active torsions:
REMARK  status: ('A' for Active; 'I' for Inactive)
ROOT
ATOM      1  O1  <0> d   1      19.629   1.798  18.609  0.00  0.00    -0.247 OA
ATOM      2  C2  <0> d   1      19.106   1.332  17.615  0.00  0.00     0.327 A 
ATOM      3  N3  <0> d   1      19.323   1.911  16.419  0.00  0.00    -0.316 N 
ATOM      4  C4  <0> d   1      18.745   1.405  15.285  0.00  0.00     0.140 A 
ATOM      5  C5  <0> d   1      17.951   0.315  15.367  0.00  0.00     0.199 A 
ATOM      6  F6  <0> d   1      17.374  -0.197  14.260  0.00  0.00    -0.199 F 
ATOM      7  C7  <0> d   1      17.732  -0.283  16.634  0.00  0.00     0.289 A 
ATOM      8  O8  <0> d   1      17.020  -1.265  16.734  0.00  0.00    -0.265 OA
ATOM      9  N9  <0> d   1      18.323   0.243  17.725  0.00  0.00    -0.273 N 
ATOM     10  H10 <0> d   1      19.893   2.693  16.361  0.00  0.00     0.170 HD
ATOM     11  H12 <0> d   1      18.178  -0.161  18.595  0.00  0.00     0.173 HD
ENDROOT
TORSDOF 0
ENDMDL
