MODEL 1
REMARK VINA RESULT:      -8.7      0.000      0.000
REMARK  12 active torsions:
REMARK  status: ('A' for Active; 'I' for Inactive)
REMARK    1  A    between atoms: C2_2  and  C4_4 
REMARK    2  A    between atoms: C6_6  and  N7_7 
REMARK    3  A    between atoms: N7_7  and  S9_9 
REMARK    4  A    between atoms: C14_14  and  C15_15 
REMARK    5  A    between atoms: C22_22  and  C23_23 
REMARK    6  A    between atoms: C24_24  and  C25_25 
REMARK    7  A    between atoms: C25_25  and  O27_26 
REMARK    8  A    between atoms: C25_25  and  C28_27 
REMARK    9  A    between atoms: C28_27  and  C29_28 
REMARK   10  A    between atoms: C29_28  and  O31_29 
REMARK   11  A    between atoms: C29_28  and  C32_30 
REMARK   12  A    between atoms: C32_30  and  C33_31 
ROOT
ATOM      1  C4  <0> d   1      18.036  -2.720  10.165  0.00  0.00     0.069 A 
ATOM      2  N5  <0> d   1      18.420  -2.904   8.914  0.00  0.00    -0.065 NA
ATOM      3  C6  <0> d   1      18.856  -1.892   8.176  0.00  0.00     0.738 A 
ATOM      4  N13 <0> d   1      18.929  -0.658   8.648  0.00  0.00    -0.060 NA
ATOM      5  C14 <0> d   1      18.562  -0.385   9.897  0.00  0.00     0.098 A 
ATOM      6  C22 <0> d   1      18.087  -1.434  10.711  0.00  0.00     0.020 A 
ENDROOT
BRANCH   6   7
ATOM      7  C23 <0> d   1      17.667  -1.184  12.103  0.00  0.00     0.014 C 
ATOM      8  C24 <0> d   1      18.553  -1.272  13.089  0.00  0.00     0.006 C 
BRANCH   8   9
ATOM      9  C25 <0> d   1      18.124  -1.017  14.511  0.00  0.00     0.143 C 
BRANCH   9  10
ATOM     10  O27 <0> d   1      19.148  -1.460  15.404  0.00  0.00    -0.392 OA
ATOM     11  H55 <0> d   1      19.392  -2.389  15.294  0.00  0.00     0.210 HD
ENDBRANCH   9  10
BRANCH   9  12
ATOM     12  C28 <0> d   1      17.885   0.481  14.711  0.00  0.00     0.068 C 
BRANCH  12  13
ATOM     13  C29 <0> d   1      19.061   1.085  15.481  0.00  0.00     0.130 C 
BRANCH  13  14
ATOM     14  O31 <0> d   1      19.682   2.096  14.683  0.00  0.00    -0.395 OA
ATOM     15  H58 <0> d   1      19.086   2.520  14.051  0.00  0.00     0.210 HD
ENDBRANCH  13  14
BRANCH  13  16
ATOM     16  C32 <0> d   1      18.552   1.705  16.784  0.00  0.00     0.144 C 
BRANCH  16  17
ATOM     17  C33 <0> d   1      19.315   1.126  17.947  0.00  0.00     0.175 C 
ATOM     18  O34 <0> d   1      19.768   1.863  18.807  0.00  0.00    -0.648 OA
ATOM     19  O35 <0> d   1      19.482  -0.079  18.027  0.00  0.00    -0.648 OA
ENDBRANCH  16  17
ENDBRANCH  13  16
ENDBRANCH  12  13
ENDBRANCH   9  12
ENDBRANCH   8   9
ENDBRANCH   6   7
BRANCH   1  20
ATOM     20  C2  <0> d   1      17.542  -3.881  10.990  0.00  0.00     0.031 C 
ATOM     21  C1  <0> d   1      16.707  -4.814  10.110  0.00  0.00     0.016 C 
ATOM     22  C3  <0> d   1      18.738  -4.648  11.557  0.00  0.00     0.016 C 
ENDBRANCH   1  20
BRANCH   5  23
ATOM     23  C15 <0> d   1      18.645   0.998  10.422  0.00  0.00    -0.006 A 
ATOM     24  C21 <0> d   1      19.820   1.449  11.022  0.00  0.00     0.017 A 
ATOM     25  C20 <0> d   1      19.893   2.739  11.506  0.00  0.00     0.043 A 
ATOM     26  C18 <0> d   1      18.798   3.582  11.405  0.00  0.00     0.116 A 
ATOM     27  C17 <0> d   1      17.627   3.137  10.813  0.00  0.00     0.043 A 
ATOM     28  F19 <0> d   1      18.872   4.842  11.884  0.00  0.00    -0.206 F 
ATOM     29  C16 <0> d   1      17.545   1.850  10.323  0.00  0.00     0.017 A 
ENDBRANCH   5  23
BRANCH   3  30
ATOM     30  N7  <0> d   1      19.248  -2.135   6.871  0.00  0.00    -0.109 N 
ATOM     31  C8  <0> d   1      19.852  -3.421   6.514  0.00  0.00     0.189 C 
BRANCH  30  32
ATOM     32  S9  <0> d   1      19.031  -0.972   5.712  0.00  0.00     0.242 S 
ATOM     33  C10 <0> d   1      17.326  -1.216   5.141  0.00  0.00     0.186 C 
ATOM     34  O11 <0> d   1      19.149   0.254   6.419  0.00  0.00    -0.205 OA
ATOM     35  O12 <0> d   1      19.954  -1.321   4.689  0.00  0.00    -0.205 OA
ENDBRANCH  30  32
ENDBRANCH   3  30
TORSDOF 12
ENDMDL
MODEL 2
REMARK VINA RESULT:      -8.6      3.819      8.885
REMARK  12 active torsions:
REMARK  status: ('A' for Active; 'I' for Inactive)
REMARK    1  A    between atoms: C2_2  and  C4_4 
REMARK    2  A    between atoms: C6_6  and  N7_7 
REMARK    3  A    between atoms: N7_7  and  S9_9 
REMARK    4  A    between atoms: C14_14  and  C15_15 
REMARK    5  A    between atoms: C22_22  and  C23_23 
REMARK    6  A    between atoms: C24_24  and  C25_25 
REMARK    7  A    between atoms: C25_25  and  O27_26 
REMARK    8  A    between atoms: C25_25  and  C28_27 
REMARK    9  A    between atoms: C28_27  and  C29_28 
REMARK   10  A    between atoms: C29_28  and  O31_29 
REMARK   11  A    between atoms: C29_28  and  C32_30 
REMARK   12  A    between atoms: C32_30  and  C33_31 
ROOT
ATOM      1  C4  <0> d   1      18.896   2.574  13.378  0.00  0.00     0.069 A 
ATOM      2  N5  <0> d   1      18.698   2.544  14.684  0.00  0.00    -0.065 NA
ATOM      3  C6  <0> d   1      18.511   1.396  15.322  0.00  0.00     0.738 A 
ATOM      4  N13 <0> d   1      18.514   0.233  14.691  0.00  0.00    -0.060 NA
ATOM      5  C14 <0> d   1      18.706   0.173  13.376  0.00  0.00     0.098 A 
ATOM      6  C22 <0> d   1      18.902   1.373  12.662  0.00  0.00     0.020 A 
ENDROOT
BRANCH   6   7
ATOM      7  C23 <0> d   1      19.119   1.361  11.203  0.00  0.00     0.014 C 
ATOM      8  C24 <0> d   1      18.088   1.495  10.378  0.00  0.00     0.006 C 
BRANCH   8   9
ATOM      9  C25 <0> d   1      18.310   1.483   8.887  0.00  0.00     0.143 C 
BRANCH   9  10
ATOM     10  O27 <0> d   1      19.706   1.612   8.612  0.00  0.00    -0.392 OA
ATOM     11  H55 <0> d   1      20.185   2.156   9.252  0.00  0.00     0.210 HD
ENDBRANCH   9  10
BRANCH   9  12
ATOM     12  C28 <0> d   1      17.795   0.165   8.305  0.00  0.00     0.068 C 
BRANCH  12  13
ATOM     13  C29 <0> d   1      18.916  -0.517   7.519  0.00  0.00     0.130 C 
BRANCH  13  14
ATOM     14  O31 <0> d   1      19.680  -1.344   8.398  0.00  0.00    -0.395 OA
ATOM     15  H58 <0> d   1      20.119  -2.085   7.959  0.00  0.00     0.210 HD
ENDBRANCH  13  14
BRANCH  13  16
ATOM     16  C32 <0> d   1      18.308  -1.377   6.409  0.00  0.00     0.144 C 
BRANCH  16  17
ATOM     17  C33 <0> d   1      19.412  -1.949   5.555  0.00  0.00     0.175 C 
ATOM     18  O34 <0> d   1      19.938  -3.004   5.866  0.00  0.00    -0.648 OA
ATOM     19  O35 <0> d   1      19.779  -1.355   4.557  0.00  0.00    -0.648 OA
ENDBRANCH  16  17
ENDBRANCH  13  16
ENDBRANCH  12  13
ENDBRANCH   9  12
ENDBRANCH   8   9
ENDBRANCH   6   7
BRANCH   1  20
ATOM     20  C2  <0> d   1      19.106   3.887  12.668  0.00  0.00     0.031 C 
ATOM     21  C1  <0> d   1      17.749   4.524  12.362  0.00  0.00     0.016 C 
ATOM     22  C3  <0> d   1      19.921   4.825  13.561  0.00  0.00     0.016 C 
ENDBRANCH   1  20
BRANCH   5  23
ATOM     23  C15 <0> d   1      18.707  -1.131  12.673  0.00  0.00    -0.006 A 
ATOM     24  C21 <0> d   1      17.535  -1.611  12.088  0.00  0.00     0.017 A 
ATOM     25  C20 <0> d   1      17.542  -2.824  11.430  0.00  0.00     0.043 A 
ATOM     26  C18 <0> d   1      18.708  -3.570  11.361  0.00  0.00     0.116 A 
ATOM     27  C17 <0> d   1      19.873  -3.099  11.945  0.00  0.00     0.043 A 
ATOM     28  F19 <0> d   1      18.708  -4.759  10.721  0.00  0.00    -0.206 F 
ATOM     29  C16 <0> d   1      19.878  -1.886  12.600  0.00  0.00     0.017 A 
ENDBRANCH   5  23
BRANCH   3  30
ATOM     30  N7  <0> d   1      18.307   1.416  16.691  0.00  0.00    -0.109 N 
ATOM     31  C8  <0> d   1      17.319   0.520  17.297  0.00  0.00     0.189 C 
BRANCH  30  32
ATOM     32  S9  <0> d   1      19.181   2.451  17.643  0.00  0.00     0.242 S 
ATOM     33  C10 <0> d   1      17.943   3.586  18.329  0.00  0.00     0.186 C 
ATOM     34  O11 <0> d   1      19.716   1.622  18.664  0.00  0.00    -0.205 OA
ATOM     35  O12 <0> d   1      20.031   3.133  16.731  0.00  0.00    -0.205 OA
ENDBRANCH  30  32
ENDBRANCH   3  30
TORSDOF 12
ENDMDL
MODEL 3
REMARK VINA RESULT:      -8.6      3.589      8.774
REMARK  12 active torsions:
REMARK  status: ('A' for Active; 'I' for Inactive)
REMARK    1  A    between atoms: C2_2  and  C4_4 
REMARK    2  A    between atoms: C6_6  and  N7_7 
REMARK    3  A    between atoms: N7_7  and  S9_9 
REMARK    4  A    between atoms: C14_14  and  C15_15 
REMARK    5  A    between atoms: C22_22  and  C23_23 
REMARK    6  A    between atoms: C24_24  and  C25_25 
REMARK    7  A    between atoms: C25_25  and  O27_26 
REMARK    8  A    between atoms: C25_25  and  C28_27 
REMARK    9  A    between atoms: C28_27  and  C29_28 
REMARK   10  A    between atoms: C29_28  and  O31_29 
REMARK   11  A    between atoms: C29_28  and  C32_30 
REMARK   12  A    between atoms: C32_30  and  C33_31 
ROOT
ATOM      1  C4  <0> d   1      18.846   2.124  12.548  0.00  0.00     0.069 A 
ATOM      2  N5  <0> d   1      18.819   2.212  13.866  0.00  0.00    -0.065 NA
ATOM      3  C6  <0> d   1      18.769   1.124  14.624  0.00  0.00     0.738 A 
ATOM      4  N13 <0> d   1      18.744  -0.093  14.106  0.00  0.00    -0.060 NA
ATOM      5  C14 <0> d   1      18.768  -0.272  12.788  0.00  0.00     0.098 A 
ATOM      6  C22 <0> d   1      18.815   0.860  11.949  0.00  0.00     0.020 A 
ENDROOT
BRANCH   6   7
ATOM      7  C23 <0> d   1      18.843   0.717  10.481  0.00  0.00     0.014 C 
ATOM      8  C24 <0> d   1      17.705   0.685   9.796  0.00  0.00     0.006 C 
BRANCH   8   9
ATOM      9  C25 <0> d   1      17.733   0.538   8.296  0.00  0.00     0.143 C 
BRANCH   9  10
ATOM     10  O27 <0> d   1      18.930   1.128   7.782  0.00  0.00    -0.392 OA
ATOM     11  H55 <0> d   1      19.740   0.674   8.052  0.00  0.00     0.210 HD
ENDBRANCH   9  10
BRANCH   9  12
ATOM     12  C28 <0> d   1      17.698  -0.946   7.929  0.00  0.00     0.068 C 
BRANCH  12  13
ATOM     13  C29 <0> d   1      19.053  -1.361   7.352  0.00  0.00     0.130 C 
BRANCH  13  14
ATOM     14  O31 <0> d   1      19.845  -1.959   8.381  0.00  0.00    -0.395 OA
ATOM     15  H58 <0> d   1      19.912  -2.921   8.316  0.00  0.00     0.210 HD
ENDBRANCH  13  14
BRANCH  13  16
ATOM     16  C32 <0> d   1      18.839  -2.370   6.221  0.00  0.00     0.144 C 
BRANCH  16  17
ATOM     17  C33 <0> d   1      18.831  -1.647   4.899  0.00  0.00     0.175 C 
ATOM     18  O34 <0> d   1      17.778  -1.469   4.308  0.00  0.00    -0.648 OA
ATOM     19  O35 <0> d   1      19.875  -1.242   4.419  0.00  0.00    -0.648 OA
ENDBRANCH  16  17
ENDBRANCH  13  16
ENDBRANCH  12  13
ENDBRANCH   9  12
ENDBRANCH   8   9
ENDBRANCH   6   7
BRANCH   1  20
ATOM     20  C2  <0> d   1      18.902   3.369  11.701  0.00  0.00     0.031 C 
ATOM     21  C1  <0> d   1      17.490   3.935  11.532  0.00  0.00     0.016 C 
ATOM     22  C3  <0> d   1      19.791   4.410  12.383  0.00  0.00     0.016 C 
ENDBRANCH   1  20
BRANCH   5  23
ATOM     23  C15 <0> d   1      18.739  -1.636  12.212  0.00  0.00    -0.006 A 
ATOM     24  C21 <0> d   1      17.525  -2.209  11.832  0.00  0.00     0.017 A 
ATOM     25  C20 <0> d   1      17.503  -3.478  11.292  0.00  0.00     0.043 A 
ATOM     26  C18 <0> d   1      18.683  -4.188  11.137  0.00  0.00     0.116 A 
ATOM     27  C17 <0> d   1      19.891  -3.624  11.517  0.00  0.00     0.043 A 
ATOM     28  F19 <0> d   1      18.656  -5.432  10.612  0.00  0.00    -0.206 F 
ATOM     29  C16 <0> d   1      19.924  -2.355  12.053  0.00  0.00     0.017 A 
ENDBRANCH   5  23
BRANCH   3  30
ATOM     30  N7  <0> d   1      18.743   1.268  16.000  0.00  0.00    -0.109 N 
ATOM     31  C8  <0> d   1      19.229   2.505  16.618  0.00  0.00     0.189 C 
BRANCH  30  32
ATOM     32  S9  <0> d   1      18.160   0.043  16.949  0.00  0.00     0.242 S 
ATOM     33  C10 <0> d   1      18.180   0.725  18.630  0.00  0.00     0.186 C 
ATOM     34  O11 <0> d   1      16.825  -0.142  16.503  0.00  0.00    -0.205 OA
ATOM     35  O12 <0> d   1      19.126  -0.991  16.819  0.00  0.00    -0.205 OA
ENDBRANCH  30  32
ENDBRANCH   3  30
TORSDOF 12
ENDMDL
MODEL 4
REMARK VINA RESULT:      -8.5      3.863      7.514
REMARK  12 active torsions:
REMARK  status: ('A' for Active; 'I' for Inactive)
REMARK    1  A    between atoms: C2_2  and  C4_4 
REMARK    2  A    between atoms: C6_6  and  N7_7 
REMARK    3  A    between atoms: N7_7  and  S9_9 
REMARK    4  A    between atoms: C14_14  and  C15_15 
REMARK    5  A    between atoms: C22_22  and  C23_23 
REMARK    6  A    between atoms: C24_24  and  C25_25 
REMARK    7  A    between atoms: C25_25  and  O27_26 
REMARK    8  A    between atoms: C25_25  and  C28_27 
REMARK    9  A    between atoms: C28_27  and  C29_28 
REMARK   10  A    between atoms: C29_28  and  O31_29 
REMARK   11  A    between atoms: C29_28  and  C32_30 
REMARK   12  A    between atoms: C32_30  and  C33_31 
ROOT
ATOM      1  C4  <0> d   1      18.124   0.277  14.749  0.00  0.00     0.069 A 
ATOM      2  N5  <0> d   1      18.428   1.454  15.267  0.00  0.00    -0.065 NA
ATOM      3  C6  <0> d   1      18.699   2.495  14.490  0.00  0.00     0.738 A 
ATOM      4  N13 <0> d   1      18.679   2.410  13.170  0.00  0.00    -0.060 NA
ATOM      5  C14 <0> d   1      18.383   1.262  12.566  0.00  0.00     0.098 A 
ATOM      6  C22 <0> d   1      18.095   0.132  13.359  0.00  0.00     0.020 A 
ENDROOT
BRANCH   6   7
ATOM      7  C23 <0> d   1      17.761  -1.165  12.739  0.00  0.00     0.014 C 
ATOM      8  C24 <0> d   1      18.706  -2.084  12.573  0.00  0.00     0.006 C 
BRANCH   8   9
ATOM      9  C25 <0> d   1      18.365  -3.408  11.940  0.00  0.00     0.143 C 
BRANCH   9  10
ATOM     10  O27 <0> d   1      17.032  -3.361  11.425  0.00  0.00    -0.392 OA
ATOM     11  H55 <0> d   1      16.555  -2.548  11.642  0.00  0.00     0.210 HD
ENDBRANCH   9  10
BRANCH   9  12
ATOM     12  C28 <0> d   1      19.343  -3.694  10.799  0.00  0.00     0.068 C 
BRANCH  12  13
ATOM     13  C29 <0> d   1      18.918  -2.910   9.556  0.00  0.00     0.130 C 
BRANCH  13  14
ATOM     14  O31 <0> d   1      19.900  -1.913   9.264  0.00  0.00    -0.395 OA
ATOM     15  H58 <0> d   1      20.044  -1.281   9.982  0.00  0.00     0.210 HD
ENDBRANCH  13  14
BRANCH  13  16
ATOM     16  C32 <0> d   1      18.794  -3.867   8.368  0.00  0.00     0.144 C 
BRANCH  16  17
ATOM     17  C33 <0> d   1      19.201  -3.153   7.104  0.00  0.00     0.175 C 
ATOM     18  O34 <0> d   1      18.505  -2.254   6.661  0.00  0.00    -0.648 OA
ATOM     19  O35 <0> d   1      20.223  -3.475   6.524  0.00  0.00    -0.648 OA
ENDBRANCH  16  17
ENDBRANCH  13  16
ENDBRANCH  12  13
ENDBRANCH   9  12
ENDBRANCH   8   9
ENDBRANCH   6   7
BRANCH   1  20
ATOM     20  C2  <0> d   1      17.819  -0.895  15.646  0.00  0.00     0.031 C 
ATOM     21  C1  <0> d   1      19.123  -1.443  16.230  0.00  0.00     0.016 C 
ATOM     22  C3  <0> d   1      16.900  -0.442  16.782  0.00  0.00     0.016 C 
ENDBRANCH   1  20
BRANCH   5  23
ATOM     23  C15 <0> d   1      18.364   1.171  11.088  0.00  0.00    -0.006 A 
ATOM     24  C21 <0> d   1      19.360   1.792  10.335  0.00  0.00     0.017 A 
ATOM     25  C20 <0> d   1      19.340   1.701   8.959  0.00  0.00     0.043 A 
ATOM     26  C18 <0> d   1      18.326   1.002   8.324  0.00  0.00     0.116 A 
ATOM     27  C17 <0> d   1      17.331   0.387   9.067  0.00  0.00     0.043 A 
ATOM     28  F19 <0> d   1      18.307   0.920   6.976  0.00  0.00    -0.206 F 
ATOM     29  C16 <0> d   1      17.345   0.468  10.444  0.00  0.00     0.017 A 
ENDBRANCH   5  23
BRANCH   3  30
ATOM     30  N7  <0> d   1      19.012   3.707  15.080  0.00  0.00    -0.109 N 
ATOM     31  C8  <0> d   1      19.665   3.737  16.391  0.00  0.00     0.189 C 
BRANCH  30  32
ATOM     32  S9  <0> d   1      18.650   5.123  14.302  0.00  0.00     0.242 S 
ATOM     33  C10 <0> d   1      18.921   6.408  15.555  0.00  0.00     0.186 C 
ATOM     34  O11 <0> d   1      19.624   5.218  13.273  0.00  0.00    -0.205 OA
ATOM     35  O12 <0> d   1      17.267   5.011  13.995  0.00  0.00    -0.205 OA
ENDBRANCH  30  32
ENDBRANCH   3  30
TORSDOF 12
ENDMDL
MODEL 5
REMARK VINA RESULT:      -8.3      2.785      4.569
REMARK  12 active torsions:
REMARK  status: ('A' for Active; 'I' for Inactive)
REMARK    1  A    between atoms: C2_2  and  C4_4 
REMARK    2  A    between atoms: C6_6  and  N7_7 
REMARK    3  A    between atoms: N7_7  and  S9_9 
REMARK    4  A    between atoms: C14_14  and  C15_15 
REMARK    5  A    between atoms: C22_22  and  C23_23 
REMARK    6  A    between atoms: C24_24  and  C25_25 
REMARK    7  A    between atoms: C25_25  and  O27_26 
REMARK    8  A    between atoms: C25_25  and  C28_27 
REMARK    9  A    between atoms: C28_27  and  C29_28 
REMARK   10  A    between atoms: C29_28  and  O31_29 
REMARK   11  A    between atoms: C29_28  and  C32_30 
REMARK   12  A    between atoms: C32_30  and  C33_31 
ROOT
ATOM      1  C4  <0> d   1      18.202  -0.497   8.150  0.00  0.00     0.069 A 
ATOM      2  N5  <0> d   1      18.546  -1.719   7.784  0.00  0.00    -0.065 NA
ATOM      3  C6  <0> d   1      18.976  -2.605   8.674  0.00  0.00     0.738 A 
ATOM      4  N13 <0> d   1      19.082  -2.313   9.960  0.00  0.00    -0.060 NA
ATOM      5  C14 <0> d   1      18.757  -1.106  10.413  0.00  0.00     0.098 A 
ATOM      6  C22 <0> d   1      18.301  -0.136   9.497  0.00  0.00     0.020 A 
ENDROOT
BRANCH   6   7
ATOM      7  C23 <0> d   1      17.927   1.218   9.948  0.00  0.00     0.014 C 
ATOM      8  C24 <0> d   1      18.836   2.186   9.965  0.00  0.00     0.006 C 
BRANCH   8   9
ATOM      9  C25 <0> d   1      18.455   3.570  10.426  0.00  0.00     0.143 C 
BRANCH   9  10
ATOM     10  O27 <0> d   1      17.057   3.604  10.723  0.00  0.00    -0.392 OA
ATOM     11  H55 <0> d   1      16.737   2.826  11.200  0.00  0.00     0.210 HD
ENDBRANCH   9  10
BRANCH   9  12
ATOM     12  C28 <0> d   1      19.253   3.927  11.681  0.00  0.00     0.068 C 
BRANCH  12  13
ATOM     13  C29 <0> d   1      18.291   4.153  12.849  0.00  0.00     0.130 C 
BRANCH  13  14
ATOM     14  O31 <0> d   1      17.835   2.891  13.341  0.00  0.00    -0.395 OA
ATOM     15  H58 <0> d   1      17.878   2.177  12.691  0.00  0.00     0.210 HD
ENDBRANCH  13  14
BRANCH  13  16
ATOM     16  C32 <0> d   1      19.015   4.905  13.967  0.00  0.00     0.144 C 
BRANCH  16  17
ATOM     17  C33 <0> d   1      18.720   4.245  15.290  0.00  0.00     0.175 C 
ATOM     18  O34 <0> d   1      17.793   4.643  15.976  0.00  0.00    -0.648 OA
ATOM     19  O35 <0> d   1      19.407   3.315  15.673  0.00  0.00    -0.648 OA
ENDBRANCH  16  17
ENDBRANCH  13  16
ENDBRANCH  12  13
ENDBRANCH   9  12
ENDBRANCH   8   9
ENDBRANCH   6   7
BRANCH   1  20
ATOM     20  C2  <0> d   1      17.716   0.497   7.126  0.00  0.00     0.031 C 
ATOM     21  C1  <0> d   1      18.915   1.110   6.400  0.00  0.00     0.016 C 
ATOM     22  C3  <0> d   1      16.814  -0.214   6.114  0.00  0.00     0.016 C 
ENDBRANCH   1  20
BRANCH   5  23
ATOM     23  C15 <0> d   1      18.877  -0.783  11.854  0.00  0.00    -0.006 A 
ATOM     24  C21 <0> d   1      20.027  -0.158  12.336  0.00  0.00     0.017 A 
ATOM     25  C20 <0> d   1      20.134   0.145  13.678  0.00  0.00     0.043 A 
ATOM     26  C18 <0> d   1      19.105  -0.182  14.548  0.00  0.00     0.116 A 
ATOM     27  C17 <0> d   1      17.963  -0.807  14.073  0.00  0.00     0.043 A 
ATOM     28  F19 <0> d   1      19.216   0.111  15.861  0.00  0.00    -0.206 F 
ATOM     29  C16 <0> d   1      17.845  -1.110  12.733  0.00  0.00     0.017 A 
ENDBRANCH   5  23
BRANCH   3  30
ATOM     30  N7  <0> d   1      19.326  -3.872   8.242  0.00  0.00    -0.109 N 
ATOM     31  C8  <0> d   1      19.953  -4.053   6.931  0.00  0.00     0.189 C 
BRANCH  30  32
ATOM     32  S9  <0> d   1      19.035  -5.185   9.209  0.00  0.00     0.242 S 
ATOM     33  C10 <0> d   1      17.262  -5.089   9.579  0.00  0.00     0.186 C 
ATOM     34  O11 <0> d   1      19.310  -6.302   8.376  0.00  0.00    -0.205 OA
ATOM     35  O12 <0> d   1      19.803  -4.936  10.379  0.00  0.00    -0.205 OA
ENDBRANCH  30  32
ENDBRANCH   3  30
TORSDOF 12
ENDMDL
MODEL 6
REMARK VINA RESULT:      -8.3      3.962      7.415
REMARK  12 active torsions:
REMARK  status: ('A' for Active; 'I' for Inactive)
REMARK    1  A    between atoms: C2_2  and  C4_4 
REMARK    2  A    between atoms: C6_6  and  N7_7 
REMARK    3  A    between atoms: N7_7  and  S9_9 
REMARK    4  A    between atoms: C14_14  and  C15_15 
REMARK    5  A    between atoms: C22_22  and  C23_23 
REMARK    6  A    between atoms: C24_24  and  C25_25 
REMARK    7  A    between atoms: C25_25  and  O27_26 
REMARK    8  A    between atoms: C25_25  and  C28_27 
REMARK    9  A    between atoms: C28_27  and  C29_28 
REMARK   10  A    between atoms: C29_28  and  O31_29 
REMARK   11  A    between atoms: C29_28  and  C32_30 
REMARK   12  A    between atoms: C32_30  and  C33_31 
ROOT
ATOM      1  C4  <0> d   1      17.998   0.752  13.198  0.00  0.00     0.069 A 
ATOM      2  N5  <0> d   1      17.885   2.028  13.522  0.00  0.00    -0.065 NA
ATOM      3  C6  <0> d   1      17.850   2.971  12.590  0.00  0.00     0.738 A 
ATOM      4  N13 <0> d   1      17.924   2.686  11.299  0.00  0.00    -0.060 NA
ATOM      5  C14 <0> d   1      18.039   1.427  10.886  0.00  0.00     0.098 A 
ATOM      6  C22 <0> d   1      18.086   0.398  11.848  0.00  0.00     0.020 A 
ENDROOT
BRANCH   6   7
ATOM      7  C23 <0> d   1      18.213  -1.015  11.442  0.00  0.00     0.014 C 
ATOM      8  C24 <0> d   1      19.411  -1.525  11.179  0.00  0.00     0.006 C 
BRANCH   8   9
ATOM      9  C25 <0> d   1      19.541  -2.968  10.765  0.00  0.00     0.143 C 
BRANCH   9  10
ATOM     10  O27 <0> d   1      20.695  -3.539  11.385  0.00  0.00    -0.392 OA
ATOM     11  H55 <0> d   1      20.937  -3.124  12.224  0.00  0.00     0.210 HD
ENDBRANCH   9  10
BRANCH   9  12
ATOM     12  C28 <0> d   1      18.293  -3.738  11.201  0.00  0.00     0.068 C 
BRANCH  12  13
ATOM     13  C29 <0> d   1      17.655  -4.406   9.982  0.00  0.00     0.130 C 
BRANCH  13  14
ATOM     14  O31 <0> d   1      18.151  -3.794   8.789  0.00  0.00    -0.395 OA
ATOM     15  H58 <0> d   1      18.880  -3.177   8.938  0.00  0.00     0.210 HD
ENDBRANCH  13  14
BRANCH  13  16
ATOM     16  C32 <0> d   1      18.006  -5.896   9.975  0.00  0.00     0.144 C 
BRANCH  16  17
ATOM     17  C33 <0> d   1      19.086  -6.152   8.955  0.00  0.00     0.175 C 
ATOM     18  O34 <0> d   1      20.247  -5.885   9.217  0.00  0.00    -0.648 OA
ATOM     19  O35 <0> d   1      18.799  -6.624   7.869  0.00  0.00    -0.648 OA
ENDBRANCH  16  17
ENDBRANCH  13  16
ENDBRANCH  12  13
ENDBRANCH   9  12
ENDBRANCH   8   9
ENDBRANCH   6   7
BRANCH   1  20
ATOM     20  C2  <0> d   1      18.037  -0.307  14.270  0.00  0.00     0.031 C 
ATOM     21  C1  <0> d   1      19.492  -0.609  14.635  0.00  0.00     0.016 C 
ATOM     22  C3  <0> d   1      17.292   0.195  15.509  0.00  0.00     0.016 C 
ENDBRANCH   1  20
BRANCH   5  23
ATOM     23  C15 <0> d   1      18.123   1.113   9.441  0.00  0.00    -0.006 A 
ATOM     24  C21 <0> d   1      17.252   0.182   8.876  0.00  0.00     0.017 A 
ATOM     25  C20 <0> d   1      17.331  -0.105   7.529  0.00  0.00     0.043 A 
ATOM     26  C18 <0> d   1      18.282   0.523   6.740  0.00  0.00     0.116 A 
ATOM     27  C17 <0> d   1      19.153   1.445   7.298  0.00  0.00     0.043 A 
ATOM     28  F19 <0> d   1      18.360   0.235   5.423  0.00  0.00    -0.206 F 
ATOM     29  C16 <0> d   1      19.078   1.742   8.642  0.00  0.00     0.017 A 
ENDBRANCH   5  23
BRANCH   3  30
ATOM     30  N7  <0> d   1      17.731   4.294  12.979  0.00  0.00    -0.109 N 
ATOM     31  C8  <0> d   1      16.521   5.050  12.645  0.00  0.00     0.189 C 
BRANCH  30  32
ATOM     32  S9  <0> d   1      18.956   5.021  13.822  0.00  0.00     0.242 S 
ATOM     33  C10 <0> d   1      19.139   4.008  15.316  0.00  0.00     0.186 C 
ATOM     34  O11 <0> d   1      20.093   4.880  12.983  0.00  0.00    -0.205 OA
ATOM     35  O12 <0> d   1      18.442   6.305  14.150  0.00  0.00    -0.205 OA
ENDBRANCH  30  32
ENDBRANCH   3  30
TORSDOF 12
ENDMDL
MODEL 7
REMARK VINA RESULT:      -8.2      3.750      8.784
REMARK  12 active torsions:
REMARK  status: ('A' for Active; 'I' for Inactive)
REMARK    1  A    between atoms: C2_2  and  C4_4 
REMARK    2  A    between atoms: C6_6  and  N7_7 
REMARK    3  A    between atoms: N7_7  and  S9_9 
REMARK    4  A    between atoms: C14_14  and  C15_15 
REMARK    5  A    between atoms: C22_22  and  C23_23 
REMARK    6  A    between atoms: C24_24  and  C25_25 
REMARK    7  A    between atoms: C25_25  and  O27_26 
REMARK    8  A    between atoms: C25_25  and  C28_27 
REMARK    9  A    between atoms: C28_27  and  C29_28 
REMARK   10  A    between atoms: C29_28  and  O31_29 
REMARK   11  A    between atoms: C29_28  and  C32_30 
REMARK   12  A    between atoms: C32_30  and  C33_31 
ROOT
ATOM      1  C4  <0> d   1      18.483   0.872  12.962  0.00  0.00     0.069 A 
ATOM      2  N5  <0> d   1      18.563   0.747  14.275  0.00  0.00    -0.065 NA
ATOM      3  C6  <0> d   1      18.625  -0.449  14.847  0.00  0.00     0.738 A 
ATOM      4  N13 <0> d   1      18.610  -1.567  14.139  0.00  0.00    -0.060 NA
ATOM      5  C14 <0> d   1      18.531  -1.531  12.812  0.00  0.00     0.098 A 
ATOM      6  C22 <0> d   1      18.458  -0.279  12.169  0.00  0.00     0.020 A 
ENDROOT
BRANCH   6   7
ATOM      7  C23 <0> d   1      18.368  -0.184  10.699  0.00  0.00     0.014 C 
ATOM      8  C24 <0> d   1      19.436  -0.439   9.952  0.00  0.00     0.006 C 
BRANCH   8   9
ATOM      9  C25 <0> d   1      19.345  -0.342   8.450  0.00  0.00     0.143 C 
BRANCH   9  10
ATOM     10  O27 <0> d   1      19.839  -1.549   7.865  0.00  0.00    -0.392 OA
ATOM     11  H55 <0> d   1      20.346  -2.103   8.473  0.00  0.00     0.210 HD
ENDBRANCH   9  10
BRANCH   9  12
ATOM     12  C28 <0> d   1      17.886  -0.136   8.040  0.00  0.00     0.068 C 
BRANCH  12  13
ATOM     13  C29 <0> d   1      17.832   0.466   6.635  0.00  0.00     0.130 C 
BRANCH  13  14
ATOM     14  O31 <0> d   1      19.040   1.186   6.378  0.00  0.00    -0.395 OA
ATOM     15  H58 <0> d   1      18.901   2.109   6.127  0.00  0.00     0.210 HD
ENDBRANCH  13  14
BRANCH  13  16
ATOM     16  C32 <0> d   1      17.680  -0.657   5.606  0.00  0.00     0.144 C 
BRANCH  16  17
ATOM     17  C33 <0> d   1      18.789  -0.560   4.589  0.00  0.00     0.175 C 
ATOM     18  O34 <0> d   1      18.676   0.189   3.634  0.00  0.00    -0.648 OA
ATOM     19  O35 <0> d   1      19.797  -1.232   4.722  0.00  0.00    -0.648 OA
ENDBRANCH  16  17
ENDBRANCH  13  16
ENDBRANCH  12  13
ENDBRANCH   9  12
ENDBRANCH   8   9
ENDBRANCH   6   7
BRANCH   1  20
ATOM     20  C2  <0> d   1      18.414   2.238  12.329  0.00  0.00     0.031 C 
ATOM     21  C1  <0> d   1      17.839   3.238  13.334  0.00  0.00     0.016 C 
ATOM     22  C3  <0> d   1      19.819   2.680  11.915  0.00  0.00     0.016 C 
ENDBRANCH   1  20
BRANCH   5  23
ATOM     23  C15 <0> d   1      18.513  -2.785  12.024  0.00  0.00    -0.006 A 
ATOM     24  C21 <0> d   1      19.704  -3.460  11.756  0.00  0.00     0.017 A 
ATOM     25  C20 <0> d   1      19.682  -4.630  11.025  0.00  0.00     0.043 A 
ATOM     26  C18 <0> d   1      18.480  -5.128  10.548  0.00  0.00     0.116 A 
ATOM     27  C17 <0> d   1      17.295  -4.459  10.807  0.00  0.00     0.043 A 
ATOM     28  F19 <0> d   1      18.464  -6.271   9.828  0.00  0.00    -0.206 F 
ATOM     29  C16 <0> d   1      17.306  -3.291  11.541  0.00  0.00     0.017 A 
ENDBRANCH   5  23
BRANCH   3  30
ATOM     30  N7  <0> d   1      18.708  -0.528  16.226  0.00  0.00    -0.109 N 
ATOM     31  C8  <0> d   1      19.583  -1.524  16.851  0.00  0.00     0.189 C 
BRANCH  30  32
ATOM     32  S9  <0> d   1      17.819   0.502  17.169  0.00  0.00     0.242 S 
ATOM     33  C10 <0> d   1      18.382   0.163  18.861  0.00  0.00     0.186 C 
ATOM     34  O11 <0> d   1      18.231   1.797  16.758  0.00  0.00    -0.205 OA
ATOM     35  O12 <0> d   1      16.477   0.069  16.994  0.00  0.00    -0.205 OA
ENDBRANCH  30  32
ENDBRANCH   3  30
TORSDOF 12
ENDMDL
MODEL 8
REMARK VINA RESULT:      -8.0      3.531      5.321
REMARK  12 active torsions:
REMARK  status: ('A' for Active; 'I' for Inactive)
REMARK    1  A    between atoms: C2_2  and  C4_4 
REMARK    2  A    between atoms: C6_6  and  N7_7 
REMARK    3  A    between atoms: N7_7  and  S9_9 
REMARK    4  A    between atoms: C14_14  and  C15_15 
REMARK    5  A    between atoms: C22_22  and  C23_23 
REMARK    6  A    between atoms: C24_24  and  C25_25 
REMARK    7  A    between atoms: C25_25  and  O27_26 
REMARK    8  A    between atoms: C25_25  and  C28_27 
REMARK    9  A    between atoms: C28_27  and  C29_28 
REMARK   10  A    between atoms: C29_28  and  O31_29 
REMARK   11  A    between atoms: C29_28  and  C32_30 
REMARK   12  A    between atoms: C32_30  and  C33_31 
ROOT
ATOM      1  C4  <0> d   1      18.309  -0.630  10.937  0.00  0.00     0.069 A 
ATOM      2  N5  <0> d   1      18.411  -1.911  10.630  0.00  0.00    -0.065 NA
ATOM      3  C6  <0> d   1      18.474  -2.839  11.576  0.00  0.00     0.738 A 
ATOM      4  N13 <0> d   1      18.440  -2.533  12.863  0.00  0.00    -0.060 NA
ATOM      5  C14 <0> d   1      18.339  -1.267  13.259  0.00  0.00     0.098 A 
ATOM      6  C22 <0> d   1      18.275  -0.253  12.283  0.00  0.00     0.020 A 
ENDROOT
BRANCH   6   7
ATOM      7  C23 <0> d   1      18.163   1.167  12.669  0.00  0.00     0.014 C 
ATOM      8  C24 <0> d   1      19.253   1.921  12.749  0.00  0.00     0.006 C 
BRANCH   8   9
ATOM      9  C25 <0> d   1      19.138   3.371  13.144  0.00  0.00     0.143 C 
BRANCH   9  10
ATOM     10  O27 <0> d   1      19.341   4.195  11.994  0.00  0.00    -0.392 OA
ATOM     11  H55 <0> d   1      20.266   4.274  11.724  0.00  0.00     0.210 HD
ENDBRANCH   9  10
BRANCH   9  12
ATOM     12  C28 <0> d   1      17.746   3.634  13.721  0.00  0.00     0.068 C 
BRANCH  12  13
ATOM     13  C29 <0> d   1      17.800   4.852  14.645  0.00  0.00     0.130 C 
BRANCH  13  14
ATOM     14  O31 <0> d   1      16.561   4.971  15.348  0.00  0.00    -0.395 OA
ATOM     15  H58 <0> d   1      16.588   5.593  16.088  0.00  0.00     0.210 HD
ENDBRANCH  13  14
BRANCH  13  16
ATOM     16  C32 <0> d   1      18.942   4.680  15.650  0.00  0.00     0.144 C 
BRANCH  16  17
ATOM     17  C33 <0> d   1      18.376   4.615  17.046  0.00  0.00     0.175 C 
ATOM     18  O34 <0> d   1      18.139   5.644  17.655  0.00  0.00    -0.648 OA
ATOM     19  O35 <0> d   1      18.158   3.534  17.565  0.00  0.00    -0.648 OA
ENDBRANCH  16  17
ENDBRANCH  13  16
ENDBRANCH  12  13
ENDBRANCH   9  12
ENDBRANCH   8   9
ENDBRANCH   6   7
BRANCH   1  20
ATOM     20  C2  <0> d   1      18.238   0.412   9.850  0.00  0.00     0.031 C 
ATOM     21  C1  <0> d   1      19.630   0.618   9.250  0.00  0.00     0.016 C 
ATOM     22  C3  <0> d   1      17.275  -0.058   8.757  0.00  0.00     0.016 C 
ENDBRANCH   1  20
BRANCH   5  23
ATOM     23  C15 <0> d   1      18.302  -0.929  14.701  0.00  0.00    -0.006 A 
ATOM     24  C21 <0> d   1      17.272  -0.137  15.207  0.00  0.00     0.017 A 
ATOM     25  C20 <0> d   1      17.239   0.172  16.551  0.00  0.00     0.043 A 
ATOM     26  C18 <0> d   1      18.234  -0.295  17.396  0.00  0.00     0.116 A 
ATOM     27  C17 <0> d   1      19.261  -1.079  16.897  0.00  0.00     0.043 A 
ATOM     28  F19 <0> d   1      18.201   0.014  18.710  0.00  0.00    -0.206 F 
ATOM     29  C16 <0> d   1      19.301  -1.397  15.556  0.00  0.00     0.017 A 
ENDBRANCH   5  23
BRANCH   3  30
ATOM     30  N7  <0> d   1      18.580  -4.168  11.205  0.00  0.00    -0.109 N 
ATOM     31  C8  <0> d   1      19.827  -4.668  10.620  0.00  0.00     0.189 C 
BRANCH  30  32
ATOM     32  S9  <0> d   1      17.299  -5.193  11.423  0.00  0.00     0.242 S 
ATOM     33  C10 <0> d   1      17.370  -6.314   9.998  0.00  0.00     0.186 C 
ATOM     34  O11 <0> d   1      17.608  -5.891  12.621  0.00  0.00    -0.205 OA
ATOM     35  O12 <0> d   1      16.157  -4.350  11.339  0.00  0.00    -0.205 OA
ENDBRANCH  30  32
ENDBRANCH   3  30
TORSDOF 12
ENDMDL
MODEL 9
REMARK VINA RESULT:      -8.0      2.409      4.552
REMARK  12 active torsions:
REMARK  status: ('A' for Active; 'I' for Inactive)
REMARK    1  A    between atoms: C2_2  and  C4_4 
REMARK    2  A    between atoms: C6_6  and  N7_7 
REMARK    3  A    between atoms: N7_7  and  S9_9 
REMARK    4  A    between atoms: C14_14  and  C15_15 
REMARK    5  A    between atoms: C22_22  and  C23_23 
REMARK    6  A    between atoms: C24_24  and  C25_25 
REMARK    7  A    between atoms: C25_25  and  O27_26 
REMARK    8  A    between atoms: C25_25  and  C28_27 
REMARK    9  A    between atoms: C28_27  and  C29_28 
REMARK   10  A    between atoms: C29_28  and  O31_29 
REMARK   11  A    between atoms: C29_28  and  C32_30 
REMARK   12  A    between atoms: C32_30  and  C33_31 
ROOT
ATOM      1  C4  <0> d   1      18.557   0.501   9.481  0.00  0.00     0.069 A 
ATOM      2  N5  <0> d   1      18.540   0.371   8.167  0.00  0.00    -0.065 NA
ATOM      3  C6  <0> d   1      18.397  -0.819   7.598  0.00  0.00     0.738 A 
ATOM      4  N13 <0> d   1      18.267  -1.927   8.310  0.00  0.00    -0.060 NA
ATOM      5  C14 <0> d   1      18.273  -1.886   9.639  0.00  0.00     0.098 A 
ATOM      6  C22 <0> d   1      18.429  -0.640  10.280  0.00  0.00     0.020 A 
ENDROOT
BRANCH   6   7
ATOM      7  C23 <0> d   1      18.443  -0.539  11.752  0.00  0.00     0.014 C 
ATOM      8  C24 <0> d   1      19.599  -0.555  12.406  0.00  0.00     0.006 C 
BRANCH   8   9
ATOM      9  C25 <0> d   1      19.614  -0.453  13.910  0.00  0.00     0.143 C 
BRANCH   9  10
ATOM     10  O27 <0> d   1      20.142   0.818  14.296  0.00  0.00    -0.392 OA
ATOM     11  H55 <0> d   1      20.686   1.240  13.617  0.00  0.00     0.210 HD
ENDBRANCH   9  10
BRANCH   9  12
ATOM     12  C28 <0> d   1      18.188  -0.597  14.445  0.00  0.00     0.068 C 
BRANCH  12  13
ATOM     13  C29 <0> d   1      18.232  -1.163  15.866  0.00  0.00     0.130 C 
BRANCH  13  14
ATOM     14  O31 <0> d   1      19.579  -1.505  16.200  0.00  0.00    -0.395 OA
ATOM     15  H58 <0> d   1      20.085  -0.777  16.586  0.00  0.00     0.210 HD
ENDBRANCH  13  14
BRANCH  13  16
ATOM     16  C32 <0> d   1      17.713  -0.112  16.850  0.00  0.00     0.144 C 
BRANCH  16  17
ATOM     17  C33 <0> d   1      18.878   0.643  17.438  0.00  0.00     0.175 C 
ATOM     18  O34 <0> d   1      19.402   0.250  18.466  0.00  0.00    -0.648 OA
ATOM     19  O35 <0> d   1      19.294   1.647  16.886  0.00  0.00    -0.648 OA
ENDBRANCH  16  17
ENDBRANCH  13  16
ENDBRANCH  12  13
ENDBRANCH   9  12
ENDBRANCH   8   9
ENDBRANCH   6   7
BRANCH   1  20
ATOM     20  C2  <0> d   1      18.720   1.860  10.111  0.00  0.00     0.031 C 
ATOM     21  C1  <0> d   1      19.017   2.895   9.024  0.00  0.00     0.016 C 
ATOM     22  C3  <0> d   1      17.429   2.242  10.840  0.00  0.00     0.016 C 
ENDBRANCH   1  20
BRANCH   5  23
ATOM     23  C15 <0> d   1      18.128  -3.128  10.433  0.00  0.00    -0.006 A 
ATOM     24  C21 <0> d   1      19.246  -3.914  10.712  0.00  0.00     0.017 A 
ATOM     25  C20 <0> d   1      19.106  -5.068  11.455  0.00  0.00     0.043 A 
ATOM     26  C18 <0> d   1      17.856  -5.452  11.914  0.00  0.00     0.116 A 
ATOM     27  C17 <0> d   1      16.742  -4.676  11.635  0.00  0.00     0.043 A 
ATOM     28  F19 <0> d   1      17.723  -6.585  12.637  0.00  0.00    -0.206 F 
ATOM     29  C16 <0> d   1      16.872  -3.519  10.898  0.00  0.00     0.017 A 
ENDBRANCH   5  23
BRANCH   3  30
ATOM     30  N7  <0> d   1      18.386  -0.905   6.216  0.00  0.00    -0.109 N 
ATOM     31  C8  <0> d   1      17.648   0.085   5.427  0.00  0.00     0.189 C 
BRANCH  30  32
ATOM     32  S9  <0> d   1      19.206  -2.125   5.456  0.00  0.00     0.242 S 
ATOM     33  C10 <0> d   1      17.912  -3.288   4.942  0.00  0.00     0.186 C 
ATOM     34  O11 <0> d   1      19.792  -1.500   4.322  0.00  0.00    -0.205 OA
ATOM     35  O12 <0> d   1      20.013  -2.695   6.477  0.00  0.00    -0.205 OA
ENDBRANCH  30  32
ENDBRANCH   3  30
TORSDOF 12
ENDMDL
