MODEL 1
REMARK VINA RESULT:      -8.1      0.000      0.000
REMARK  13 active torsions:
REMARK  status: ('A' for Active; 'I' for Inactive)
REMARK    1  A    between atoms: C2_2  and  O4_4 
REMARK    2  A    between atoms: O4_4  and  C5_5 
REMARK    3  A    between atoms: C5_5  and  C7_7 
REMARK    4  A    between atoms: C7_7  and  N10_9 
REMARK    5  A    between atoms: N10_9  and  P11_10 
REMARK    6  A    between atoms: P11_10  and  C13_12 
REMARK    7  A    between atoms: P11_10  and  O29_27 
REMARK    8  A    between atoms: C13_12  and  O14_13 
REMARK    9  A    between atoms: O14_13  and  C15_14 
REMARK   10  A    between atoms: C15_14  and  C18_16 
REMARK   11  A    between atoms: C18_16  and  N19_17 
REMARK   12  A    between atoms: C23_21  and  N24_22 
REMARK   13  A    between atoms: O29_27  and  C30_28 
ROOT
ATOM      1  P11 ZIN A   1      17.316  -0.829  11.594  0.00  0.00     0.296 P 
ATOM      2  O12 ZIN A   1      16.059  -0.047  11.565  0.00  0.00    -0.271 OA
ENDROOT
BRANCH   1   3
ATOM      3  N10 ZIN A   1      18.092  -0.697  10.106  0.00  0.00    -0.234 NA
ATOM      4  H46 ZIN A   1      17.434  -0.479   9.373  0.00  0.00     0.132 HD
BRANCH   3   5
ATOM      5  C7  ZIN A   1      19.168   0.301  10.162  0.00  0.00     0.160 C 
ATOM      6  C9  ZIN A   1      20.520  -0.410  10.263  0.00  0.00     0.037 C 
BRANCH   5   7
ATOM      7  C5  ZIN A   1      19.137   1.143   8.912  0.00  0.00     0.277 C 
ATOM      8  O6  ZIN A   1      18.794   2.300   8.971  0.00  0.00    -0.263 OA
BRANCH   7   9
ATOM      9  O4  ZIN A   1      19.491   0.608   7.733  0.00  0.00    -0.316 OA
BRANCH   9  10
ATOM     10  C2  ZIN A   1      18.592   0.824   6.613  0.00  0.00     0.123 C 
ATOM     11  C1  ZIN A   1      19.300   0.447   5.311  0.00  0.00     0.040 C 
ATOM     12  C3  ZIN A   1      17.344  -0.042   6.787  0.00  0.00     0.040 C 
ENDBRANCH   9  10
ENDBRANCH   7   9
ENDBRANCH   5   7
ENDBRANCH   3   5
ENDBRANCH   1   3
BRANCH   1  13
ATOM     13  C13 ZIN A   1      18.403  -0.182  12.906  0.00  0.00     0.286 C 
BRANCH  13  14
ATOM     14  O14 ZIN A   1      18.414  -1.091  14.008  0.00  0.00    -0.374 OA
BRANCH  14  15
ATOM     15  C15 ZIN A   1      18.817  -0.500  15.245  0.00  0.00     0.136 C 
ATOM     16  C17 ZIN A   1      18.826  -1.568  16.341  0.00  0.00     0.041 C 
BRANCH  15  17
ATOM     17  C18 ZIN A   1      17.834   0.610  15.623  0.00  0.00     0.163 C 
BRANCH  17  18
ATOM     18  N19 ZIN A   1      18.579   1.804  16.031  0.00  0.00    -0.322 N 
ATOM     19  C28 ZIN A   1      18.810   2.918  15.263  0.00  0.00     0.165 A 
ATOM     20  C22 ZIN A   1      19.559   3.794  16.069  0.00  0.00     0.149 A 
ATOM     21  N27 ZIN A   1      18.478   3.295  14.033  0.00  0.00    -0.222 NA
ATOM     22  N21 ZIN A   1      19.750   3.177  17.259  0.00  0.00    -0.236 NA
ATOM     23  C23 ZIN A   1      19.935   5.034  15.525  0.00  0.00     0.155 A 
ATOM     24  C20 ZIN A   1      19.176   2.009  17.239  0.00  0.00     0.212 A 
ATOM     25  N25 ZIN A   1      19.562   5.322  14.283  0.00  0.00    -0.222 NA
ATOM     26  C26 ZIN A   1      18.854   4.467  13.567  0.00  0.00     0.237 A 
BRANCH  23  27
ATOM     27  N24 ZIN A   1      20.677   5.935  16.269  0.00  0.00    -0.382 N 
ATOM     28  H55 ZIN A   1      21.543   5.676  16.622  0.00  0.00     0.157 HD
ATOM     29  H56 ZIN A   1      20.333   6.827  16.435  0.00  0.00     0.157 HD
ENDBRANCH  23  27
ENDBRANCH  17  18
ENDBRANCH  15  17
ENDBRANCH  14  15
ENDBRANCH  13  14
ENDBRANCH   1  13
BRANCH   1  30
ATOM     30  O29 ZIN A   1      16.979  -2.375  11.889  0.00  0.00    -0.279 OA
BRANCH  30  31
ATOM     31  C30 ZIN A   1      17.817  -3.250  11.274  0.00  0.00     0.078 A 
ATOM     32  C35 ZIN A   1      17.418  -3.895  10.112  0.00  0.00     0.037 A 
ATOM     33  C34 ZIN A   1      18.274  -4.780   9.485  0.00  0.00     0.003 A 
ATOM     34  C33 ZIN A   1      19.523  -5.032  10.022  0.00  0.00     0.000 A 
ATOM     35  C32 ZIN A   1      19.921  -4.395  11.182  0.00  0.00     0.003 A 
ATOM     36  C31 ZIN A   1      19.071  -3.505  11.810  0.00  0.00     0.037 A 
ENDBRANCH  30  31
ENDBRANCH   1  30
TORSDOF 13
ENDMDL
MODEL 2
REMARK VINA RESULT:      -8.1      1.558      3.990
REMARK  13 active torsions:
REMARK  status: ('A' for Active; 'I' for Inactive)
REMARK    1  A    between atoms: C2_2  and  O4_4 
REMARK    2  A    between atoms: O4_4  and  C5_5 
REMARK    3  A    between atoms: C5_5  and  C7_7 
REMARK    4  A    between atoms: C7_7  and  N10_9 
REMARK    5  A    between atoms: N10_9  and  P11_10 
REMARK    6  A    between atoms: P11_10  and  C13_12 
REMARK    7  A    between atoms: P11_10  and  O29_27 
REMARK    8  A    between atoms: C13_12  and  O14_13 
REMARK    9  A    between atoms: O14_13  and  C15_14 
REMARK   10  A    between atoms: C15_14  and  C18_16 
REMARK   11  A    between atoms: C18_16  and  N19_17 
REMARK   12  A    between atoms: C23_21  and  N24_22 
REMARK   13  A    between atoms: O29_27  and  C30_28 
ROOT
ATOM      1  P11 ZIN A   1      17.751  -0.840  11.563  0.00  0.00     0.296 P 
ATOM      2  O12 ZIN A   1      19.186  -0.762  11.209  0.00  0.00    -0.271 OA
ENDROOT
BRANCH   1   3
ATOM      3  N10 ZIN A   1      17.218  -2.427  11.391  0.00  0.00    -0.234 NA
ATOM      4  H46 ZIN A   1      16.314  -2.458  10.943  0.00  0.00     0.132 HD
BRANCH   3   5
ATOM      5  C7  ZIN A   1      18.199  -3.235  10.654  0.00  0.00     0.160 C 
ATOM      6  C9  ZIN A   1      18.726  -4.349  11.560  0.00  0.00     0.037 C 
BRANCH   5   7
ATOM      7  C5  ZIN A   1      17.540  -3.842   9.442  0.00  0.00     0.277 C 
ATOM      8  O6  ZIN A   1      17.948  -3.578   8.336  0.00  0.00    -0.263 OA
BRANCH   7   9
ATOM      9  O4  ZIN A   1      16.501  -4.679   9.591  0.00  0.00    -0.316 OA
BRANCH   9  10
ATOM     10  C2  ZIN A   1      16.275  -5.646   8.532  0.00  0.00     0.123 C 
ATOM     11  C1  ZIN A   1      17.006  -6.948   8.866  0.00  0.00     0.040 C 
ATOM     12  C3  ZIN A   1      14.776  -5.921   8.403  0.00  0.00     0.040 C 
ENDBRANCH   9  10
ENDBRANCH   7   9
ENDBRANCH   5   7
ENDBRANCH   3   5
ENDBRANCH   1   3
BRANCH   1  13
ATOM     13  C13 ZIN A   1      17.522  -0.306  13.291  0.00  0.00     0.286 C 
BRANCH  13  14
ATOM     14  O14 ZIN A   1      18.202  -1.210  14.163  0.00  0.00    -0.374 OA
BRANCH  14  15
ATOM     15  C15 ZIN A   1      18.794  -0.582  15.303  0.00  0.00     0.136 C 
ATOM     16  C17 ZIN A   1      19.107  -1.641  16.362  0.00  0.00     0.041 C 
BRANCH  15  17
ATOM     17  C18 ZIN A   1      17.821   0.446  15.882  0.00  0.00     0.163 C 
BRANCH  17  18
ATOM     18  N19 ZIN A   1      18.553   1.663  16.241  0.00  0.00    -0.322 N 
ATOM     19  C28 ZIN A   1      18.744   2.761  15.440  0.00  0.00     0.165 A 
ATOM     20  C22 ZIN A   1      19.495   3.672  16.204  0.00  0.00     0.149 A 
ATOM     21  N27 ZIN A   1      18.375   3.100  14.209  0.00  0.00    -0.222 NA
ATOM     22  N21 ZIN A   1      19.726   3.089  17.405  0.00  0.00    -0.236 NA
ATOM     23  C23 ZIN A   1      19.834   4.904  15.621  0.00  0.00     0.155 A 
ATOM     24  C20 ZIN A   1      19.174   1.911  17.429  0.00  0.00     0.212 A 
ATOM     25  N25 ZIN A   1      19.427   5.152  14.381  0.00  0.00    -0.222 NA
ATOM     26  C26 ZIN A   1      18.718   4.267  13.704  0.00  0.00     0.237 A 
BRANCH  23  27
ATOM     27  N24 ZIN A   1      20.577   5.837  16.323  0.00  0.00    -0.382 N 
ATOM     28  H55 ZIN A   1      20.135   6.586  16.752  0.00  0.00     0.157 HD
ATOM     29  H56 ZIN A   1      21.541   5.742  16.386  0.00  0.00     0.157 HD
ENDBRANCH  23  27
ENDBRANCH  17  18
ENDBRANCH  15  17
ENDBRANCH  14  15
ENDBRANCH  13  14
ENDBRANCH   1  13
BRANCH   1  30
ATOM     30  O29 ZIN A   1      16.904   0.120  10.587  0.00  0.00    -0.279 OA
BRANCH  30  31
ATOM     31  C30 ZIN A   1      17.579   0.512   9.475  0.00  0.00     0.078 A 
ATOM     32  C35 ZIN A   1      17.441  -0.199   8.292  0.00  0.00     0.037 A 
ATOM     33  C34 ZIN A   1      18.124   0.205   7.160  0.00  0.00     0.003 A 
ATOM     34  C33 ZIN A   1      18.955   1.309   7.211  0.00  0.00     0.000 A 
ATOM     35  C32 ZIN A   1      19.099   2.016   8.391  0.00  0.00     0.003 A 
ATOM     36  C31 ZIN A   1      18.414   1.620   9.523  0.00  0.00     0.037 A 
ENDBRANCH  30  31
ENDBRANCH   1  30
TORSDOF 13
ENDMDL
MODEL 3
REMARK VINA RESULT:      -8.1      1.283      2.893
REMARK  13 active torsions:
REMARK  status: ('A' for Active; 'I' for Inactive)
REMARK    1  A    between atoms: C2_2  and  O4_4 
REMARK    2  A    between atoms: O4_4  and  C5_5 
REMARK    3  A    between atoms: C5_5  and  C7_7 
REMARK    4  A    between atoms: C7_7  and  N10_9 
REMARK    5  A    between atoms: N10_9  and  P11_10 
REMARK    6  A    between atoms: P11_10  and  C13_12 
REMARK    7  A    between atoms: P11_10  and  O29_27 
REMARK    8  A    between atoms: C13_12  and  O14_13 
REMARK    9  A    between atoms: O14_13  and  C15_14 
REMARK   10  A    between atoms: C15_14  and  C18_16 
REMARK   11  A    between atoms: C18_16  and  N19_17 
REMARK   12  A    between atoms: C23_21  and  N24_22 
REMARK   13  A    between atoms: O29_27  and  C30_28 
ROOT
ATOM      1  P11 ZIN A   1      17.430  -0.087  11.714  0.00  0.00     0.296 P 
ATOM      2  O12 ZIN A   1      15.965   0.068  11.571  0.00  0.00    -0.271 OA
ENDROOT
BRANCH   1   3
ATOM      3  N10 ZIN A   1      18.108  -0.417  10.209  0.00  0.00    -0.234 NA
ATOM      4  H46 ZIN A   1      17.418  -0.337   9.477  0.00  0.00     0.132 HD
BRANCH   3   5
ATOM      5  C7  ZIN A   1      19.258   0.459   9.947  0.00  0.00     0.160 C 
ATOM      6  C9  ZIN A   1      20.553  -0.344  10.083  0.00  0.00     0.037 C 
BRANCH   5   7
ATOM      7  C5  ZIN A   1      19.157   1.015   8.550  0.00  0.00     0.277 C 
ATOM      8  O6  ZIN A   1      19.035   2.205   8.381  0.00  0.00    -0.263 OA
BRANCH   7   9
ATOM      9  O4  ZIN A   1      19.204   0.189   7.493  0.00  0.00    -0.316 OA
BRANCH   9  10
ATOM     10  C2  ZIN A   1      18.480   0.598   6.303  0.00  0.00     0.123 C 
ATOM     11  C1  ZIN A   1      19.247   0.147   5.059  0.00  0.00     0.040 C 
ATOM     12  C3  ZIN A   1      17.091  -0.042   6.306  0.00  0.00     0.040 C 
ENDBRANCH   9  10
ENDBRANCH   7   9
ENDBRANCH   5   7
ENDBRANCH   3   5
ENDBRANCH   1   3
BRANCH   1  13
ATOM     13  C13 ZIN A   1      18.142   1.454  12.376  0.00  0.00     0.286 C 
BRANCH  13  14
ATOM     14  O14 ZIN A   1      17.344   2.565  11.962  0.00  0.00    -0.374 OA
BRANCH  14  15
ATOM     15  C15 ZIN A   1      17.377   3.673  12.865  0.00  0.00     0.136 C 
ATOM     16  C17 ZIN A   1      16.964   4.946  12.124  0.00  0.00     0.041 C 
BRANCH  15  17
ATOM     17  C18 ZIN A   1      18.795   3.840  13.415  0.00  0.00     0.163 C 
BRANCH  17  18
ATOM     18  N19 ZIN A   1      18.732   4.084  14.859  0.00  0.00    -0.322 N 
ATOM     19  C28 ZIN A   1      18.896   3.148  15.848  0.00  0.00     0.165 A 
ATOM     20  C22 ZIN A   1      18.755   3.841  17.064  0.00  0.00     0.149 A 
ATOM     21  N27 ZIN A   1      19.155   1.845  15.873  0.00  0.00    -0.222 NA
ATOM     22  N21 ZIN A   1      18.508   5.137  16.758  0.00  0.00    -0.236 NA
ATOM     23  C23 ZIN A   1      18.883   3.114  18.259  0.00  0.00     0.155 A 
ATOM     24  C20 ZIN A   1      18.494   5.282  15.465  0.00  0.00     0.212 A 
ATOM     25  N25 ZIN A   1      19.136   1.811  18.185  0.00  0.00    -0.222 NA
ATOM     26  C26 ZIN A   1      19.265   1.205  17.019  0.00  0.00     0.237 A 
BRANCH  23  27
ATOM     27  N24 ZIN A   1      18.748   3.741  19.485  0.00  0.00    -0.382 N 
ATOM     28  H55 ZIN A   1      19.109   4.631  19.618  0.00  0.00     0.157 HD
ATOM     29  H56 ZIN A   1      18.291   3.290  20.213  0.00  0.00     0.157 HD
ENDBRANCH  23  27
ENDBRANCH  17  18
ENDBRANCH  15  17
ENDBRANCH  14  15
ENDBRANCH  13  14
ENDBRANCH   1  13
BRANCH   1  30
ATOM     30  O29 ZIN A   1      17.744  -1.301  12.723  0.00  0.00    -0.279 OA
BRANCH  30  31
ATOM     31  C30 ZIN A   1      18.184  -2.431  12.108  0.00  0.00     0.078 A 
ATOM     32  C35 ZIN A   1      19.523  -2.785  12.180  0.00  0.00     0.037 A 
ATOM     33  C34 ZIN A   1      19.966  -3.937  11.559  0.00  0.00     0.003 A 
ATOM     34  C33 ZIN A   1      19.078  -4.730  10.856  0.00  0.00     0.000 A 
ATOM     35  C32 ZIN A   1      17.744  -4.376  10.778  0.00  0.00     0.003 A 
ATOM     36  C31 ZIN A   1      17.294  -3.229  11.402  0.00  0.00     0.037 A 
ENDBRANCH  30  31
ENDBRANCH   1  30
TORSDOF 13
ENDMDL
MODEL 4
REMARK VINA RESULT:      -8.0      1.859      5.051
REMARK  13 active torsions:
REMARK  status: ('A' for Active; 'I' for Inactive)
REMARK    1  A    between atoms: C2_2  and  O4_4 
REMARK    2  A    between atoms: O4_4  and  C5_5 
REMARK    3  A    between atoms: C5_5  and  C7_7 
REMARK    4  A    between atoms: C7_7  and  N10_9 
REMARK    5  A    between atoms: N10_9  and  P11_10 
REMARK    6  A    between atoms: P11_10  and  C13_12 
REMARK    7  A    between atoms: P11_10  and  O29_27 
REMARK    8  A    between atoms: C13_12  and  O14_13 
REMARK    9  A    between atoms: O14_13  and  C15_14 
REMARK   10  A    between atoms: C15_14  and  C18_16 
REMARK   11  A    between atoms: C18_16  and  N19_17 
REMARK   12  A    between atoms: C23_21  and  N24_22 
REMARK   13  A    between atoms: O29_27  and  C30_28 
ROOT
ATOM      1  P11 ZIN A   1      18.586   0.290   9.517  0.00  0.00     0.296 P 
ATOM      2  O12 ZIN A   1      19.954   0.325   8.955  0.00  0.00    -0.271 OA
ENDROOT
BRANCH   1   3
ATOM      3  N10 ZIN A   1      18.560  -0.721  10.864  0.00  0.00    -0.234 NA
ATOM      4  H46 ZIN A   1      17.665  -0.679  11.329  0.00  0.00     0.132 HD
BRANCH   3   5
ATOM      5  C7  ZIN A   1      18.895  -2.102  10.491  0.00  0.00     0.160 C 
ATOM      6  C9  ZIN A   1      20.017  -2.616  11.396  0.00  0.00     0.037 C 
BRANCH   5   7
ATOM      7  C5  ZIN A   1      17.678  -2.975  10.654  0.00  0.00     0.277 C 
ATOM      8  O6  ZIN A   1      16.930  -2.801  11.587  0.00  0.00    -0.263 OA
BRANCH   7   9
ATOM      9  O4  ZIN A   1      17.423  -3.946   9.763  0.00  0.00    -0.316 OA
BRANCH   9  10
ATOM     10  C2  ZIN A   1      16.540  -5.017  10.188  0.00  0.00     0.123 C 
ATOM     11  C1  ZIN A   1      15.731  -5.516   8.990  0.00  0.00     0.040 C 
ATOM     12  C3  ZIN A   1      17.371  -6.168  10.758  0.00  0.00     0.040 C 
ENDBRANCH   9  10
ENDBRANCH   7   9
ENDBRANCH   5   7
ENDBRANCH   3   5
ENDBRANCH   1   3
BRANCH   1  13
ATOM     13  C13 ZIN A   1      18.089   1.972  10.011  0.00  0.00     0.286 C 
BRANCH  13  14
ATOM     14  O14 ZIN A   1      17.281   1.905  11.187  0.00  0.00    -0.374 OA
BRANCH  14  15
ATOM     15  C15 ZIN A   1      17.539   2.949  12.130  0.00  0.00     0.136 C 
ATOM     16  C17 ZIN A   1      17.361   4.306  11.448  0.00  0.00     0.041 C 
BRANCH  15  17
ATOM     17  C18 ZIN A   1      18.973   2.823  12.649  0.00  0.00     0.163 C 
BRANCH  17  18
ATOM     18  N19 ZIN A   1      18.950   2.388  14.048  0.00  0.00    -0.322 N 
ATOM     19  C28 ZIN A   1      18.956   1.091  14.494  0.00  0.00     0.165 A 
ATOM     20  C22 ZIN A   1      18.930   1.164  15.898  0.00  0.00     0.149 A 
ATOM     21  N27 ZIN A   1      18.997  -0.102  13.910  0.00  0.00    -0.222 NA
ATOM     22  N21 ZIN A   1      18.900   2.477  16.228  0.00  0.00    -0.236 NA
ATOM     23  C23 ZIN A   1      18.935  -0.039  16.624  0.00  0.00     0.155 A 
ATOM     24  C20 ZIN A   1      18.912   3.197  15.144  0.00  0.00     0.212 A 
ATOM     25  N25 ZIN A   1      18.969  -1.185  15.953  0.00  0.00    -0.222 NA
ATOM     26  C26 ZIN A   1      18.999  -1.203  14.632  0.00  0.00     0.237 A 
BRANCH  23  27
ATOM     27  N24 ZIN A   1      18.904  -0.029  18.008  0.00  0.00    -0.382 N 
ATOM     28  H55 ZIN A   1      18.239   0.502  18.475  0.00  0.00     0.157 HD
ATOM     29  H56 ZIN A   1      19.546  -0.554  18.511  0.00  0.00     0.157 HD
ENDBRANCH  23  27
ENDBRANCH  17  18
ENDBRANCH  15  17
ENDBRANCH  14  15
ENDBRANCH  13  14
ENDBRANCH   1  13
BRANCH   1  30
ATOM     30  O29 ZIN A   1      17.563  -0.269   8.406  0.00  0.00    -0.279 OA
BRANCH  30  31
ATOM     31  C30 ZIN A   1      18.135  -0.500   7.196  0.00  0.00     0.078 A 
ATOM     32  C35 ZIN A   1      18.272   0.534   6.282  0.00  0.00     0.037 A 
ATOM     33  C34 ZIN A   1      18.860   0.297   5.054  0.00  0.00     0.003 A 
ATOM     34  C33 ZIN A   1      19.300  -0.973   4.731  0.00  0.00     0.000 A 
ATOM     35  C32 ZIN A   1      19.159  -2.007   5.638  0.00  0.00     0.003 A 
ATOM     36  C31 ZIN A   1      18.578  -1.775   6.869  0.00  0.00     0.037 A 
ENDBRANCH  30  31
ENDBRANCH   1  30
TORSDOF 13
ENDMDL
MODEL 5
REMARK VINA RESULT:      -8.0      1.108      2.079
REMARK  13 active torsions:
REMARK  status: ('A' for Active; 'I' for Inactive)
REMARK    1  A    between atoms: C2_2  and  O4_4 
REMARK    2  A    between atoms: O4_4  and  C5_5 
REMARK    3  A    between atoms: C5_5  and  C7_7 
REMARK    4  A    between atoms: C7_7  and  N10_9 
REMARK    5  A    between atoms: N10_9  and  P11_10 
REMARK    6  A    between atoms: P11_10  and  C13_12 
REMARK    7  A    between atoms: P11_10  and  O29_27 
REMARK    8  A    between atoms: C13_12  and  O14_13 
REMARK    9  A    between atoms: O14_13  and  C15_14 
REMARK   10  A    between atoms: C15_14  and  C18_16 
REMARK   11  A    between atoms: C18_16  and  N19_17 
REMARK   12  A    between atoms: C23_21  and  N24_22 
REMARK   13  A    between atoms: O29_27  and  C30_28 
ROOT
ATOM      1  P11 ZIN A   1      17.231  -0.676  11.403  0.00  0.00     0.296 P 
ATOM      2  O12 ZIN A   1      15.965   0.089  11.346  0.00  0.00    -0.271 OA
ENDROOT
BRANCH   1   3
ATOM      3  N10 ZIN A   1      18.047  -0.519   9.939  0.00  0.00    -0.234 NA
ATOM      4  H46 ZIN A   1      17.433  -0.168   9.219  0.00  0.00     0.132 HD
BRANCH   3   5
ATOM      5  C7  ZIN A   1      19.229   0.341  10.087  0.00  0.00     0.160 C 
ATOM      6  C9  ZIN A   1      20.496  -0.512   9.984  0.00  0.00     0.037 C 
BRANCH   5   7
ATOM      7  C5  ZIN A   1      19.234   1.379   8.995  0.00  0.00     0.277 C 
ATOM      8  O6  ZIN A   1      19.230   1.038   7.836  0.00  0.00    -0.263 OA
BRANCH   7   9
ATOM      9  O4  ZIN A   1      19.242   2.685   9.309  0.00  0.00    -0.316 OA
BRANCH   9  10
ATOM     10  C2  ZIN A   1      18.777   3.048  10.635  0.00  0.00     0.123 C 
ATOM     11  C1  ZIN A   1      19.973   3.438  11.505  0.00  0.00     0.040 C 
ATOM     12  C3  ZIN A   1      17.813   4.230  10.533  0.00  0.00     0.040 C 
ENDBRANCH   9  10
ENDBRANCH   7   9
ENDBRANCH   5   7
ENDBRANCH   3   5
ENDBRANCH   1   3
BRANCH   1  13
ATOM     13  C13 ZIN A   1      18.272  -0.029  12.751  0.00  0.00     0.286 C 
BRANCH  13  14
ATOM     14  O14 ZIN A   1      17.670  -0.338  14.009  0.00  0.00    -0.374 OA
BRANCH  14  15
ATOM     15  C15 ZIN A   1      18.573  -0.282  15.116  0.00  0.00     0.136 C 
ATOM     16  C17 ZIN A   1      18.988  -1.702  15.507  0.00  0.00     0.041 C 
BRANCH  15  17
ATOM     17  C18 ZIN A   1      17.885   0.394  16.303  0.00  0.00     0.163 C 
BRANCH  17  18
ATOM     18  N19 ZIN A   1      18.562   1.657  16.606  0.00  0.00    -0.322 N 
ATOM     19  C28 ZIN A   1      18.530   2.798  15.845  0.00  0.00     0.165 A 
ATOM     20  C22 ZIN A   1      19.317   3.742  16.528  0.00  0.00     0.149 A 
ATOM     21  N27 ZIN A   1      17.940   3.151  14.708  0.00  0.00    -0.222 NA
ATOM     22  N21 ZIN A   1      19.787   3.136  17.645  0.00  0.00    -0.236 NA
ATOM     23  C23 ZIN A   1      19.454   5.022  15.965  0.00  0.00     0.155 A 
ATOM     24  C20 ZIN A   1      19.345   1.913  17.693  0.00  0.00     0.212 A 
ATOM     25  N25 ZIN A   1      18.833   5.281  14.820  0.00  0.00    -0.222 NA
ATOM     26  C26 ZIN A   1      18.099   4.363  14.217  0.00  0.00     0.237 A 
BRANCH  23  27
ATOM     27  N24 ZIN A   1      20.222   5.990  16.590  0.00  0.00    -0.382 N 
ATOM     28  H55 ZIN A   1      20.834   6.534  16.070  0.00  0.00     0.157 HD
ATOM     29  H56 ZIN A   1      20.146   6.126  17.548  0.00  0.00     0.157 HD
ENDBRANCH  23  27
ENDBRANCH  17  18
ENDBRANCH  15  17
ENDBRANCH  14  15
ENDBRANCH  13  14
ENDBRANCH   1  13
BRANCH   1  30
ATOM     30  O29 ZIN A   1      16.907  -2.230  11.673  0.00  0.00    -0.279 OA
BRANCH  30  31
ATOM     31  C30 ZIN A   1      17.861  -3.081  11.213  0.00  0.00     0.078 A 
ATOM     32  C35 ZIN A   1      19.035  -3.262  11.929  0.00  0.00     0.037 A 
ATOM     33  C34 ZIN A   1      20.001  -4.133  11.463  0.00  0.00     0.003 A 
ATOM     34  C33 ZIN A   1      19.803  -4.814  10.276  0.00  0.00     0.000 A 
ATOM     35  C32 ZIN A   1      18.637  -4.631   9.557  0.00  0.00     0.003 A 
ATOM     36  C31 ZIN A   1      17.665  -3.766  10.022  0.00  0.00     0.037 A 
ENDBRANCH  30  31
ENDBRANCH   1  30
TORSDOF 13
ENDMDL
MODEL 6
REMARK VINA RESULT:      -8.0      3.173      6.744
REMARK  13 active torsions:
REMARK  status: ('A' for Active; 'I' for Inactive)
REMARK    1  A    between atoms: C2_2  and  O4_4 
REMARK    2  A    between atoms: O4_4  and  C5_5 
REMARK    3  A    between atoms: C5_5  and  C7_7 
REMARK    4  A    between atoms: C7_7  and  N10_9 
REMARK    5  A    between atoms: N10_9  and  P11_10 
REMARK    6  A    between atoms: P11_10  and  C13_12 
REMARK    7  A    between atoms: P11_10  and  O29_27 
REMARK    8  A    between atoms: C13_12  and  O14_13 
REMARK    9  A    between atoms: O14_13  and  C15_14 
REMARK   10  A    between atoms: C15_14  and  C18_16 
REMARK   11  A    between atoms: C18_16  and  N19_17 
REMARK   12  A    between atoms: C23_21  and  N24_22 
REMARK   13  A    between atoms: O29_27  and  C30_28 
ROOT
ATOM      1  P11 ZIN A   1      19.706   1.546  11.612  0.00  0.00     0.296 P 
ATOM      2  O12 ZIN A   1      20.335   2.885  11.577  0.00  0.00    -0.271 OA
ENDROOT
BRANCH   1   3
ATOM      3  N10 ZIN A   1      20.119   0.697  10.218  0.00  0.00    -0.234 NA
ATOM      4  H46 ZIN A   1      20.347  -0.262  10.433  0.00  0.00     0.132 HD
BRANCH   3   5
ATOM      5  C7  ZIN A   1      19.043   0.771   9.220  0.00  0.00     0.160 C 
ATOM      6  C9  ZIN A   1      19.209   2.042   8.384  0.00  0.00     0.037 C 
BRANCH   5   7
ATOM      7  C5  ZIN A   1      19.111  -0.434   8.318  0.00  0.00     0.277 C 
ATOM      8  O6  ZIN A   1      19.767  -1.396   8.643  0.00  0.00    -0.263 OA
BRANCH   7   9
ATOM      9  O4  ZIN A   1      18.442  -0.442   7.154  0.00  0.00    -0.316 OA
BRANCH   9  10
ATOM     10  C2  ZIN A   1      19.152  -0.934   5.988  0.00  0.00     0.123 C 
ATOM     11  C1  ZIN A   1      18.439  -2.172   5.441  0.00  0.00     0.040 C 
ATOM     12  C3  ZIN A   1      19.183   0.153   4.913  0.00  0.00     0.040 C 
ENDBRANCH   9  10
ENDBRANCH   7   9
ENDBRANCH   5   7
ENDBRANCH   3   5
ENDBRANCH   1   3
BRANCH   1  13
ATOM     13  C13 ZIN A   1      20.299   0.635  13.075  0.00  0.00     0.286 C 
BRANCH  13  14
ATOM     14  O14 ZIN A   1      19.291   0.650  14.087  0.00  0.00    -0.374 OA
BRANCH  14  15
ATOM     15  C15 ZIN A   1      18.682  -0.622  14.321  0.00  0.00     0.136 C 
ATOM     16  C17 ZIN A   1      18.716  -0.936  15.818  0.00  0.00     0.041 C 
BRANCH  15  17
ATOM     17  C18 ZIN A   1      19.450  -1.703  13.556  0.00  0.00     0.163 C 
BRANCH  17  18
ATOM     18  N19 ZIN A   1      18.653  -2.150  12.411  0.00  0.00    -0.322 N 
ATOM     19  C28 ZIN A   1      18.969  -3.172  11.552  0.00  0.00     0.165 A 
ATOM     20  C22 ZIN A   1      17.917  -3.234  10.621  0.00  0.00     0.149 A 
ATOM     21  N27 ZIN A   1      19.971  -4.038  11.453  0.00  0.00    -0.222 NA
ATOM     22  N21 ZIN A   1      17.035  -2.260  10.950  0.00  0.00    -0.236 NA
ATOM     23  C23 ZIN A   1      17.981  -4.212   9.614  0.00  0.00     0.155 A 
ATOM     24  C20 ZIN A   1      17.465  -1.622  12.000  0.00  0.00     0.212 A 
ATOM     25  N25 ZIN A   1      19.026  -5.031   9.591  0.00  0.00    -0.222 NA
ATOM     26  C26 ZIN A   1      19.989  -4.937  10.491  0.00  0.00     0.237 A 
BRANCH  23  27
ATOM     27  N24 ZIN A   1      16.977  -4.317   8.667  0.00  0.00    -0.382 N 
ATOM     28  H55 ZIN A   1      16.842  -5.153   8.193  0.00  0.00     0.157 HD
ATOM     29  H56 ZIN A   1      16.407  -3.555   8.477  0.00  0.00     0.157 HD
ENDBRANCH  23  27
ENDBRANCH  17  18
ENDBRANCH  15  17
ENDBRANCH  14  15
ENDBRANCH  13  14
ENDBRANCH   1  13
BRANCH   1  30
ATOM     30  O29 ZIN A   1      18.106   1.705  11.690  0.00  0.00    -0.279 OA
BRANCH  30  31
ATOM     31  C30 ZIN A   1      17.687   2.984  11.879  0.00  0.00     0.078 A 
ATOM     32  C35 ZIN A   1      17.630   3.514  13.160  0.00  0.00     0.037 A 
ATOM     33  C34 ZIN A   1      17.210   4.817  13.349  0.00  0.00     0.003 A 
ATOM     34  C33 ZIN A   1      16.834   5.587  12.264  0.00  0.00     0.000 A 
ATOM     35  C32 ZIN A   1      16.885   5.059  10.988  0.00  0.00     0.003 A 
ATOM     36  C31 ZIN A   1      17.310   3.760  10.792  0.00  0.00     0.037 A 
ENDBRANCH  30  31
ENDBRANCH   1  30
TORSDOF 13
ENDMDL
MODEL 7
REMARK VINA RESULT:      -8.0      2.623      8.188
REMARK  13 active torsions:
REMARK  status: ('A' for Active; 'I' for Inactive)
REMARK    1  A    between atoms: C2_2  and  O4_4 
REMARK    2  A    between atoms: O4_4  and  C5_5 
REMARK    3  A    between atoms: C5_5  and  C7_7 
REMARK    4  A    between atoms: C7_7  and  N10_9 
REMARK    5  A    between atoms: N10_9  and  P11_10 
REMARK    6  A    between atoms: P11_10  and  C13_12 
REMARK    7  A    between atoms: P11_10  and  O29_27 
REMARK    8  A    between atoms: C13_12  and  O14_13 
REMARK    9  A    between atoms: O14_13  and  C15_14 
REMARK   10  A    between atoms: C15_14  and  C18_16 
REMARK   11  A    between atoms: C18_16  and  N19_17 
REMARK   12  A    between atoms: C23_21  and  N24_22 
REMARK   13  A    between atoms: O29_27  and  C30_28 
ROOT
ATOM      1  P11 ZIN A   1      18.643   2.035  13.930  0.00  0.00     0.296 P 
ATOM      2  O12 ZIN A   1      17.427   1.614  13.199  0.00  0.00    -0.271 OA
ENDROOT
BRANCH   1   3
ATOM      3  N10 ZIN A   1      18.216   2.580  15.464  0.00  0.00    -0.234 NA
ATOM      4  H46 ZIN A   1      17.483   2.009  15.858  0.00  0.00     0.132 HD
BRANCH   3   5
ATOM      5  C7  ZIN A   1      19.385   2.622  16.352  0.00  0.00     0.160 C 
ATOM      6  C9  ZIN A   1      19.762   4.078  16.631  0.00  0.00     0.037 C 
BRANCH   5   7
ATOM      7  C5  ZIN A   1      19.055   1.932  17.650  0.00  0.00     0.277 C 
ATOM      8  O6  ZIN A   1      19.675   2.199  18.652  0.00  0.00    -0.263 OA
BRANCH   7   9
ATOM      9  O4  ZIN A   1      18.070   1.021  17.695  0.00  0.00    -0.316 OA
BRANCH   9  10
ATOM     10  C2  ZIN A   1      18.305  -0.240  17.015  0.00  0.00     0.123 C 
ATOM     11  C1  ZIN A   1      19.363  -1.041  17.775  0.00  0.00     0.040 C 
ATOM     12  C3  ZIN A   1      17.002  -1.040  16.959  0.00  0.00     0.040 C 
ENDBRANCH   9  10
ENDBRANCH   7   9
ENDBRANCH   5   7
ENDBRANCH   3   5
ENDBRANCH   1   3
BRANCH   1  13
ATOM     13  C13 ZIN A   1      19.779   0.617  14.084  0.00  0.00     0.286 C 
BRANCH  13  14
ATOM     14  O14 ZIN A   1      20.224   0.219  12.786  0.00  0.00    -0.374 OA
BRANCH  14  15
ATOM     15  C15 ZIN A   1      19.407  -0.783  12.174  0.00  0.00     0.136 C 
ATOM     16  C17 ZIN A   1      19.010  -1.825  13.221  0.00  0.00     0.041 C 
BRANCH  15  17
ATOM     17  C18 ZIN A   1      20.192  -1.463  11.050  0.00  0.00     0.163 C 
BRANCH  17  18
ATOM     18  N19 ZIN A   1      19.355  -1.542   9.850  0.00  0.00    -0.322 N 
ATOM     19  C28 ZIN A   1      19.160  -0.544   8.928  0.00  0.00     0.165 A 
ATOM     20  C22 ZIN A   1      18.291  -1.076   7.960  0.00  0.00     0.149 A 
ATOM     21  N27 ZIN A   1      19.608   0.698   8.783  0.00  0.00    -0.222 NA
ATOM     22  N21 ZIN A   1      17.999  -2.343   8.339  0.00  0.00    -0.236 NA
ATOM     23  C23 ZIN A   1      17.922  -0.256   6.880  0.00  0.00     0.155 A 
ATOM     24  C20 ZIN A   1      18.622  -2.619   9.447  0.00  0.00     0.212 A 
ATOM     25  N25 ZIN A   1      18.415   0.976   6.822  0.00  0.00    -0.222 NA
ATOM     26  C26 ZIN A   1      19.234   1.430   7.754  0.00  0.00     0.237 A 
BRANCH  23  27
ATOM     27  N24 ZIN A   1      17.065  -0.723   5.899  0.00  0.00    -0.382 N 
ATOM     28  H55 ZIN A   1      16.138  -0.436   5.887  0.00  0.00     0.157 HD
ATOM     29  H56 ZIN A   1      17.390  -1.338   5.222  0.00  0.00     0.157 HD
ENDBRANCH  23  27
ENDBRANCH  17  18
ENDBRANCH  15  17
ENDBRANCH  14  15
ENDBRANCH  13  14
ENDBRANCH   1  13
BRANCH   1  30
ATOM     30  O29 ZIN A   1      19.372   3.221  13.122  0.00  0.00    -0.279 OA
BRANCH  30  31
ATOM     31  C30 ZIN A   1      18.558   3.881  12.257  0.00  0.00     0.078 A 
ATOM     32  C35 ZIN A   1      18.653   3.645  10.894  0.00  0.00     0.037 A 
ATOM     33  C34 ZIN A   1      17.820   4.313  10.017  0.00  0.00     0.003 A 
ATOM     34  C33 ZIN A   1      16.900   5.226  10.497  0.00  0.00     0.000 A 
ATOM     35  C32 ZIN A   1      16.807   5.468  11.855  0.00  0.00     0.003 A 
ATOM     36  C31 ZIN A   1      17.633   4.799  12.736  0.00  0.00     0.037 A 
ENDBRANCH  30  31
ENDBRANCH   1  30
TORSDOF 13
ENDMDL
MODEL 8
REMARK VINA RESULT:      -7.9      2.721      7.479
REMARK  13 active torsions:
REMARK  status: ('A' for Active; 'I' for Inactive)
REMARK    1  A    between atoms: C2_2  and  O4_4 
REMARK    2  A    between atoms: O4_4  and  C5_5 
REMARK    3  A    between atoms: C5_5  and  C7_7 
REMARK    4  A    between atoms: C7_7  and  N10_9 
REMARK    5  A    between atoms: N10_9  and  P11_10 
REMARK    6  A    between atoms: P11_10  and  C13_12 
REMARK    7  A    between atoms: P11_10  and  O29_27 
REMARK    8  A    between atoms: C13_12  and  O14_13 
REMARK    9  A    between atoms: O14_13  and  C15_14 
REMARK   10  A    between atoms: C15_14  and  C18_16 
REMARK   11  A    between atoms: C18_16  and  N19_17 
REMARK   12  A    between atoms: C23_21  and  N24_22 
REMARK   13  A    between atoms: O29_27  and  C30_28 
ROOT
ATOM      1  P11 ZIN A   1      19.115   0.018  13.062  0.00  0.00     0.296 P 
ATOM      2  O12 ZIN A   1      20.430   0.268  13.692  0.00  0.00    -0.271 OA
ENDROOT
BRANCH   1   3
ATOM      3  N10 ZIN A   1      18.852   1.151  11.845  0.00  0.00    -0.234 NA
ATOM      4  H46 ZIN A   1      17.922   1.062  11.463  0.00  0.00     0.132 HD
BRANCH   3   5
ATOM      5  C7  ZIN A   1      19.090   2.515  12.337  0.00  0.00     0.160 C 
ATOM      6  C9  ZIN A   1      20.037   3.244  11.382  0.00  0.00     0.037 C 
BRANCH   5   7
ATOM      7  C5  ZIN A   1      17.781   3.258  12.409  0.00  0.00     0.277 C 
ATOM      8  O6  ZIN A   1      17.039   3.269  11.455  0.00  0.00    -0.263 OA
BRANCH   7   9
ATOM      9  O4  ZIN A   1      17.437   3.907  13.533  0.00  0.00    -0.316 OA
BRANCH   9  10
ATOM     10  C2  ZIN A   1      17.362   5.355  13.464  0.00  0.00     0.123 C 
ATOM     11  C1  ZIN A   1      15.961   5.813  13.868  0.00  0.00     0.040 C 
ATOM     12  C3  ZIN A   1      18.394   5.965  14.414  0.00  0.00     0.040 C 
ENDBRANCH   9  10
ENDBRANCH   7   9
ENDBRANCH   5   7
ENDBRANCH   3   5
ENDBRANCH   1   3
BRANCH   1  13
ATOM     13  C13 ZIN A   1      19.094  -1.658  12.345  0.00  0.00     0.286 C 
BRANCH  13  14
ATOM     14  O14 ZIN A   1      17.762  -1.991  11.950  0.00  0.00    -0.374 OA
BRANCH  14  15
ATOM     15  C15 ZIN A   1      17.688  -2.762  10.748  0.00  0.00     0.136 C 
ATOM     16  C17 ZIN A   1      17.160  -4.161  11.073  0.00  0.00     0.041 C 
BRANCH  15  17
ATOM     17  C18 ZIN A   1      19.082  -2.875  10.128  0.00  0.00     0.163 C 
BRANCH  17  18
ATOM     18  N19 ZIN A   1      19.037  -2.413   8.738  0.00  0.00    -0.322 N 
ATOM     19  C28 ZIN A   1      19.063  -1.109   8.315  0.00  0.00     0.165 A 
ATOM     20  C22 ZIN A   1      19.003  -1.156   6.911  0.00  0.00     0.149 A 
ATOM     21  N27 ZIN A   1      19.145   0.072   8.919  0.00  0.00    -0.222 NA
ATOM     22  N21 ZIN A   1      18.934  -2.462   6.559  0.00  0.00    -0.236 NA
ATOM     23  C23 ZIN A   1      19.019   0.060   6.206  0.00  0.00     0.155 A 
ATOM     24  C20 ZIN A   1      18.954  -3.201   7.629  0.00  0.00     0.212 A 
ATOM     25  N25 ZIN A   1      19.096   1.192   6.897  0.00  0.00    -0.222 NA
ATOM     26  C26 ZIN A   1      19.157   1.186   8.216  0.00  0.00     0.237 A 
BRANCH  23  27
ATOM     27  N24 ZIN A   1      18.956   0.076   4.824  0.00  0.00    -0.382 N 
ATOM     28  H55 ZIN A   1      19.580   0.617   4.315  0.00  0.00     0.157 HD
ATOM     29  H56 ZIN A   1      18.288  -0.456   4.362  0.00  0.00     0.157 HD
ENDBRANCH  23  27
ENDBRANCH  17  18
ENDBRANCH  15  17
ENDBRANCH  14  15
ENDBRANCH  13  14
ENDBRANCH   1  13
BRANCH   1  30
ATOM     30  O29 ZIN A   1      17.955   0.142  14.172  0.00  0.00    -0.279 OA
BRANCH  30  31
ATOM     31  C30 ZIN A   1      18.413   0.135  15.451  0.00  0.00     0.078 A 
ATOM     32  C35 ZIN A   1      18.655   1.332  16.109  0.00  0.00     0.037 A 
ATOM     33  C34 ZIN A   1      19.114   1.322  17.413  0.00  0.00     0.003 A 
ATOM     34  C33 ZIN A   1      19.344   0.120  18.056  0.00  0.00     0.000 A 
ATOM     35  C32 ZIN A   1      19.108  -1.074  17.401  0.00  0.00     0.003 A 
ATOM     36  C31 ZIN A   1      18.644  -1.070  16.100  0.00  0.00     0.037 A 
ENDBRANCH  30  31
ENDBRANCH   1  30
TORSDOF 13
ENDMDL
MODEL 9
REMARK VINA RESULT:      -7.9      3.086      7.675
REMARK  13 active torsions:
REMARK  status: ('A' for Active; 'I' for Inactive)
REMARK    1  A    between atoms: C2_2  and  O4_4 
REMARK    2  A    between atoms: O4_4  and  C5_5 
REMARK    3  A    between atoms: C5_5  and  C7_7 
REMARK    4  A    between atoms: C7_7  and  N10_9 
REMARK    5  A    between atoms: N10_9  and  P11_10 
REMARK    6  A    between atoms: P11_10  and  C13_12 
REMARK    7  A    between atoms: P11_10  and  O29_27 
REMARK    8  A    between atoms: C13_12  and  O14_13 
REMARK    9  A    between atoms: O14_13  and  C15_14 
REMARK   10  A    between atoms: C15_14  and  C18_16 
REMARK   11  A    between atoms: C18_16  and  N19_17 
REMARK   12  A    between atoms: C23_21  and  N24_22 
REMARK   13  A    between atoms: O29_27  and  C30_28 
ROOT
ATOM      1  P11 ZIN A   1      19.795  -0.482  11.558  0.00  0.00     0.296 P 
ATOM      2  O12 ZIN A   1      21.047  -0.670  10.791  0.00  0.00    -0.271 OA
ENDROOT
BRANCH   1   3
ATOM      3  N10 ZIN A   1      18.707   0.419  10.642  0.00  0.00    -0.234 NA
ATOM      4  H46 ZIN A   1      17.771   0.336  11.008  0.00  0.00     0.132 HD
BRANCH   3   5
ATOM      5  C7  ZIN A   1      19.121   1.827  10.570  0.00  0.00     0.160 C 
ATOM      6  C9  ZIN A   1      19.268   2.241   9.104  0.00  0.00     0.037 C 
BRANCH   5   7
ATOM      7  C5  ZIN A   1      18.079   2.690  11.233  0.00  0.00     0.277 C 
ATOM      8  O6  ZIN A   1      16.950   2.281  11.366  0.00  0.00    -0.263 OA
BRANCH   7   9
ATOM      9  O4  ZIN A   1      18.405   3.914  11.678  0.00  0.00    -0.316 OA
BRANCH   9  10
ATOM     10  C2  ZIN A   1      18.874   4.016  13.048  0.00  0.00     0.123 C 
ATOM     11  C1  ZIN A   1      19.924   5.124  13.148  0.00  0.00     0.040 C 
ATOM     12  C3  ZIN A   1      17.697   4.343  13.968  0.00  0.00     0.040 C 
ENDBRANCH   9  10
ENDBRANCH   7   9
ENDBRANCH   5   7
ENDBRANCH   3   5
ENDBRANCH   1   3
BRANCH   1  13
ATOM     13  C13 ZIN A   1      19.066  -2.109  11.939  0.00  0.00     0.286 C 
BRANCH  13  14
ATOM     14  O14 ZIN A   1      17.783  -2.213  11.319  0.00  0.00    -0.374 OA
BRANCH  14  15
ATOM     15  C15 ZIN A   1      17.616  -3.390  10.524  0.00  0.00     0.136 C 
ATOM     16  C17 ZIN A   1      16.994  -4.497  11.377  0.00  0.00     0.041 C 
BRANCH  15  17
ATOM     17  C18 ZIN A   1      18.979  -3.852  10.004  0.00  0.00     0.163 C 
BRANCH  17  18
ATOM     18  N19 ZIN A   1      18.974  -3.836   8.539  0.00  0.00    -0.322 N 
ATOM     19  C28 ZIN A   1      19.008  -2.723   7.739  0.00  0.00     0.165 A 
ATOM     20  C22 ZIN A   1      18.990  -3.196   6.415  0.00  0.00     0.149 A 
ATOM     21  N27 ZIN A   1      19.068  -1.413   7.956  0.00  0.00    -0.222 NA
ATOM     22  N21 ZIN A   1      18.937  -4.548   6.476  0.00  0.00    -0.236 NA
ATOM     23  C23 ZIN A   1      19.023  -2.254   5.374  0.00  0.00     0.155 A 
ATOM     24  C20 ZIN A   1      18.927  -4.926   7.721  0.00  0.00     0.212 A 
ATOM     25  N25 ZIN A   1      19.076  -0.964   5.688  0.00  0.00    -0.222 NA
ATOM     26  C26 ZIN A   1      19.097  -0.567   6.948  0.00  0.00     0.237 A 
BRANCH  23  27
ATOM     27  N24 ZIN A   1      19.001  -2.661   4.051  0.00  0.00    -0.382 N 
ATOM     28  H55 ZIN A   1      19.023  -2.001   3.340  0.00  0.00     0.157 HD
ATOM     29  H56 ZIN A   1      18.965  -3.606   3.835  0.00  0.00     0.157 HD
ENDBRANCH  23  27
ENDBRANCH  17  18
ENDBRANCH  15  17
ENDBRANCH  14  15
ENDBRANCH  13  14
ENDBRANCH   1  13
BRANCH   1  30
ATOM     30  O29 ZIN A   1      20.117   0.297  12.929  0.00  0.00    -0.279 OA
BRANCH  30  31
ATOM     31  C30 ZIN A   1      19.332  -0.076  13.974  0.00  0.00     0.078 A 
ATOM     32  C35 ZIN A   1      19.718  -1.127  14.793  0.00  0.00     0.037 A 
ATOM     33  C34 ZIN A   1      18.921  -1.500  15.858  0.00  0.00     0.003 A 
ATOM     34  C33 ZIN A   1      17.734  -0.835  16.100  0.00  0.00     0.000 A 
ATOM     35  C32 ZIN A   1      17.344   0.209  15.282  0.00  0.00     0.003 A 
ATOM     36  C31 ZIN A   1      18.139   0.590  14.220  0.00  0.00     0.037 A 
ENDBRANCH  30  31
ENDBRANCH   1  30
TORSDOF 13
ENDMDL
