MODEL 1
REMARK VINA RESULT:      -6.6      0.000      0.000
REMARK  13 active torsions:
REMARK  status: ('A' for Active; 'I' for Inactive)
REMARK    1  A    between atoms: C2_2  and  C3_3 
REMARK    2  A    between atoms: C4_4  and  C5_5 
REMARK    3  A    between atoms: C5_5  and  C6_6 
REMARK    4  A    between atoms: C7_7  and  C8_8 
REMARK    5  A    between atoms: C8_8  and  C9_9 
REMARK    6  A    between atoms: C10_10  and  C11_11 
REMARK    7  A    between atoms: C11_11  and  C12_12 
REMARK    8  A    between atoms: C13_13  and  C14_14 
REMARK    9  A    between atoms: C14_14  and  C15_15 
REMARK   10  A    between atoms: C16_16  and  C17_17 
REMARK   11  A    between atoms: C17_17  and  C18_18 
REMARK   12  A    between atoms: C18_18  and  C19_19 
REMARK   13  A    between atoms: C19_19  and  C20_20 
ROOT
ATOM      1  C11 <0> d   1      17.778  -1.142  10.705  0.00  0.00     0.053 C 
ENDROOT
BRANCH   1   2
ATOM      2  C10 <0> d   1      16.889  -0.025  11.186  0.00  0.00    -0.027 C 
ATOM      3  C9  <0> d   1      17.376   1.183  11.334  0.00  0.00    -0.027 C 
BRANCH   3   4
ATOM      4  C8  <0> d   1      18.772   1.495  10.860  0.00  0.00     0.053 C 
BRANCH   4   5
ATOM      5  C7  <0> d   1      18.726   2.636   9.877  0.00  0.00    -0.027 C 
ATOM      6  C6  <0> d   1      19.005   2.425   8.615  0.00  0.00    -0.027 C 
BRANCH   6   7
ATOM      7  C5  <0> d   1      19.214   1.019   8.114  0.00  0.00     0.053 C 
BRANCH   7   8
ATOM      8  C4  <0> d   1      17.924   0.494   7.538  0.00  0.00    -0.027 C 
ATOM      9  C3  <0> d   1      17.854   0.185   6.266  0.00  0.00    -0.031 C 
BRANCH   9  10
ATOM     10  C2  <0> d   1      19.097   0.199   5.417  0.00  0.00     0.022 C 
ATOM     11  C1  <0> d   1      19.146  -1.068   4.561  0.00  0.00     0.009 C 
ENDBRANCH   9  10
ENDBRANCH   7   8
ENDBRANCH   6   7
ENDBRANCH   4   5
ENDBRANCH   3   4
ENDBRANCH   1   2
BRANCH   1  12
ATOM     12  C12 <0> d   1      17.519  -2.379  11.525  0.00  0.00    -0.027 C 
ATOM     13  C13 <0> d   1      18.259  -2.634  12.576  0.00  0.00    -0.027 C 
BRANCH  13  14
ATOM     14  C14 <0> d   1      19.259  -1.616  13.059  0.00  0.00     0.053 C 
BRANCH  14  15
ATOM     15  C15 <0> d   1      19.446  -1.760  14.547  0.00  0.00    -0.027 C 
ATOM     16  C16 <0> d   1      18.758  -1.008  15.370  0.00  0.00    -0.030 C 
BRANCH  16  17
ATOM     17  C17 <0> d   1      17.915   0.119  14.833  0.00  0.00     0.027 C 
BRANCH  17  18
ATOM     18  C18 <0> d   1      18.356   1.436  15.476  0.00  0.00     0.014 C 
BRANCH  18  19
ATOM     19  C19 <0> d   1      18.167   1.351  16.992  0.00  0.00     0.113 C 
BRANCH  19  20
ATOM     20  C20 <0> d   1      19.334   2.010  17.682  0.00  0.00     0.172 C 
ATOM     21  O21 <0> d   1      19.799   3.045  17.236  0.00  0.00    -0.648 OA
ATOM     22  O22 <0> d   1      19.812   1.508  18.685  0.00  0.00    -0.648 OA
ENDBRANCH  19  20
ENDBRANCH  18  19
ENDBRANCH  17  18
ENDBRANCH  16  17
ENDBRANCH  14  15
ENDBRANCH  13  14
ENDBRANCH   1  12
TORSDOF 13
ENDMDL
MODEL 2
REMARK VINA RESULT:      -6.6      4.407      9.004
REMARK  13 active torsions:
REMARK  status: ('A' for Active; 'I' for Inactive)
REMARK    1  A    between atoms: C2_2  and  C3_3 
REMARK    2  A    between atoms: C4_4  and  C5_5 
REMARK    3  A    between atoms: C5_5  and  C6_6 
REMARK    4  A    between atoms: C7_7  and  C8_8 
REMARK    5  A    between atoms: C8_8  and  C9_9 
REMARK    6  A    between atoms: C10_10  and  C11_11 
REMARK    7  A    between atoms: C11_11  and  C12_12 
REMARK    8  A    between atoms: C13_13  and  C14_14 
REMARK    9  A    between atoms: C14_14  and  C15_15 
REMARK   10  A    between atoms: C16_16  and  C17_17 
REMARK   11  A    between atoms: C17_17  and  C18_18 
REMARK   12  A    between atoms: C18_18  and  C19_19 
REMARK   13  A    between atoms: C19_19  and  C20_20 
ROOT
ATOM      1  C11 <0> d   1      18.998   3.591  12.349  0.00  0.00     0.053 C 
ENDROOT
BRANCH   1   2
ATOM      2  C10 <0> d   1      18.287   3.617  13.677  0.00  0.00    -0.027 C 
ATOM      3  C9  <0> d   1      18.288   2.553  14.442  0.00  0.00    -0.027 C 
BRANCH   3   4
ATOM      4  C8  <0> d   1      19.142   1.366  14.079  0.00  0.00     0.053 C 
BRANCH   4   5
ATOM      5  C7  <0> d   1      18.280   0.297  13.459  0.00  0.00    -0.027 C 
ATOM      6  C6  <0> d   1      18.130  -0.856  14.061  0.00  0.00    -0.027 C 
BRANCH   6   7
ATOM      7  C5  <0> d   1      18.686  -1.060  15.447  0.00  0.00     0.053 C 
BRANCH   7   8
ATOM      8  C4  <0> d   1      17.586  -0.877  16.461  0.00  0.00    -0.027 C 
ATOM      9  C3  <0> d   1      17.858  -0.369  17.638  0.00  0.00    -0.031 C 
BRANCH   9  10
ATOM     10  C2  <0> d   1      19.231   0.181  17.922  0.00  0.00     0.022 C 
ATOM     11  C1  <0> d   1      19.153   1.703  18.058  0.00  0.00     0.009 C 
ENDBRANCH   9  10
ENDBRANCH   7   8
ENDBRANCH   6   7
ENDBRANCH   4   5
ENDBRANCH   3   4
ENDBRANCH   1   2
BRANCH   1  12
ATOM     12  C12 <0> d   1      18.134   4.247  11.304  0.00  0.00    -0.027 C 
ATOM     13  C13 <0> d   1      17.836   3.603  10.202  0.00  0.00    -0.027 C 
BRANCH  13  14
ATOM     14  C14 <0> d   1      18.221   2.155  10.048  0.00  0.00     0.053 C 
BRANCH  14  15
ATOM     15  C15 <0> d   1      19.349   2.037   9.056  0.00  0.00    -0.027 C 
ATOM     16  C16 <0> d   1      19.305   1.123   8.119  0.00  0.00    -0.030 C 
BRANCH  16  17
ATOM     17  C17 <0> d   1      18.219   0.077   8.137  0.00  0.00     0.027 C 
BRANCH  17  18
ATOM     18  C18 <0> d   1      17.478   0.089   6.798  0.00  0.00     0.014 C 
BRANCH  18  19
ATOM     19  C19 <0> d   1      18.428   0.556   5.694  0.00  0.00     0.113 C 
BRANCH  19  20
ATOM     20  C20 <0> d   1      18.716  -0.591   4.760  0.00  0.00     0.172 C 
ATOM     21  O21 <0> d   1      17.811  -1.096   4.118  0.00  0.00    -0.648 OA
ATOM     22  O22 <0> d   1      19.854  -1.014   4.648  0.00  0.00    -0.648 OA
ENDBRANCH  19  20
ENDBRANCH  18  19
ENDBRANCH  17  18
ENDBRANCH  16  17
ENDBRANCH  14  15
ENDBRANCH  13  14
ENDBRANCH   1  12
TORSDOF 13
ENDMDL
MODEL 3
REMARK VINA RESULT:      -6.5      4.410      8.075
REMARK  13 active torsions:
REMARK  status: ('A' for Active; 'I' for Inactive)
REMARK    1  A    between atoms: C2_2  and  C3_3 
REMARK    2  A    between atoms: C4_4  and  C5_5 
REMARK    3  A    between atoms: C5_5  and  C6_6 
REMARK    4  A    between atoms: C7_7  and  C8_8 
REMARK    5  A    between atoms: C8_8  and  C9_9 
REMARK    6  A    between atoms: C10_10  and  C11_11 
REMARK    7  A    between atoms: C11_11  and  C12_12 
REMARK    8  A    between atoms: C13_13  and  C14_14 
REMARK    9  A    between atoms: C14_14  and  C15_15 
REMARK   10  A    between atoms: C16_16  and  C17_17 
REMARK   11  A    between atoms: C17_17  and  C18_18 
REMARK   12  A    between atoms: C18_18  and  C19_19 
REMARK   13  A    between atoms: C19_19  and  C20_20 
ROOT
ATOM      1  C11 <0> d   1      17.159   4.316  12.106  0.00  0.00     0.053 C 
ENDROOT
BRANCH   1   2
ATOM      2  C10 <0> d   1      18.190   4.933  13.016  0.00  0.00    -0.027 C 
ATOM      3  C9  <0> d   1      18.949   4.167  13.760  0.00  0.00    -0.027 C 
BRANCH   3   4
ATOM      4  C8  <0> d   1      18.915   2.671  13.582  0.00  0.00     0.053 C 
BRANCH   4   5
ATOM      5  C7  <0> d   1      18.399   2.026  14.842  0.00  0.00    -0.027 C 
ATOM      6  C6  <0> d   1      18.663   0.767  15.089  0.00  0.00    -0.027 C 
BRANCH   6   7
ATOM      7  C5  <0> d   1      19.612   0.007  14.199  0.00  0.00     0.053 C 
BRANCH   7   8
ATOM      8  C4  <0> d   1      19.126  -1.411  14.041  0.00  0.00    -0.027 C 
ATOM      9  C3  <0> d   1      18.443  -1.754  12.976  0.00  0.00    -0.031 C 
BRANCH   9  10
ATOM     10  C2  <0> d   1      18.282  -0.780  11.839  0.00  0.00     0.022 C 
ATOM     11  C1  <0> d   1      16.876  -0.176  11.880  0.00  0.00     0.009 C 
ENDBRANCH   9  10
ENDBRANCH   7   8
ENDBRANCH   6   7
ENDBRANCH   4   5
ENDBRANCH   3   4
ENDBRANCH   1   2
BRANCH   1  12
ATOM     12  C12 <0> d   1      17.338   4.850  10.709  0.00  0.00    -0.027 C 
ATOM     13  C13 <0> d   1      17.877   4.096   9.784  0.00  0.00    -0.027 C 
BRANCH  13  14
ATOM     14  C14 <0> d   1      18.172   2.647  10.069  0.00  0.00     0.053 C 
BRANCH  14  15
ATOM     15  C15 <0> d   1      19.412   2.229   9.322  0.00  0.00    -0.027 C 
ATOM     16  C16 <0> d   1      19.346   1.277   8.424  0.00  0.00    -0.030 C 
BRANCH  16  17
ATOM     17  C17 <0> d   1      18.077   0.480   8.263  0.00  0.00     0.027 C 
BRANCH  17  18
ATOM     18  C18 <0> d   1      17.712   0.396   6.779  0.00  0.00     0.014 C 
BRANCH  18  19
ATOM     19  C19 <0> d   1      18.969   0.607   5.933  0.00  0.00     0.113 C 
BRANCH  19  20
ATOM     20  C20 <0> d   1      18.998  -0.403   4.815  0.00  0.00     0.172 C 
ATOM     21  O21 <0> d   1      18.041  -0.512   4.067  0.00  0.00    -0.648 OA
ATOM     22  O22 <0> d   1      19.978  -1.111   4.658  0.00  0.00    -0.648 OA
ENDBRANCH  19  20
ENDBRANCH  18  19
ENDBRANCH  17  18
ENDBRANCH  16  17
ENDBRANCH  14  15
ENDBRANCH  13  14
ENDBRANCH   1  12
TORSDOF 13
ENDMDL
MODEL 4
REMARK VINA RESULT:      -6.4      1.490      3.710
REMARK  13 active torsions:
REMARK  status: ('A' for Active; 'I' for Inactive)
REMARK    1  A    between atoms: C2_2  and  C3_3 
REMARK    2  A    between atoms: C4_4  and  C5_5 
REMARK    3  A    between atoms: C5_5  and  C6_6 
REMARK    4  A    between atoms: C7_7  and  C8_8 
REMARK    5  A    between atoms: C8_8  and  C9_9 
REMARK    6  A    between atoms: C10_10  and  C11_11 
REMARK    7  A    between atoms: C11_11  and  C12_12 
REMARK    8  A    between atoms: C13_13  and  C14_14 
REMARK    9  A    between atoms: C14_14  and  C15_15 
REMARK   10  A    between atoms: C16_16  and  C17_17 
REMARK   11  A    between atoms: C17_17  and  C18_18 
REMARK   12  A    between atoms: C18_18  and  C19_19 
REMARK   13  A    between atoms: C19_19  and  C20_20 
ROOT
ATOM      1  C11 <0> d   1      18.369  -1.546   9.795  0.00  0.00     0.053 C 
ENDROOT
BRANCH   1   2
ATOM      2  C10 <0> d   1      18.727  -1.989   8.400  0.00  0.00    -0.027 C 
ATOM      3  C9  <0> d   1      18.447  -1.220   7.376  0.00  0.00    -0.027 C 
BRANCH   3   4
ATOM      4  C8  <0> d   1      17.927   0.176   7.602  0.00  0.00     0.053 C 
BRANCH   4   5
ATOM      5  C7  <0> d   1      19.077   1.150   7.587  0.00  0.00    -0.027 C 
ATOM      6  C6  <0> d   1      19.156   2.084   8.501  0.00  0.00    -0.027 C 
BRANCH   6   7
ATOM      7  C5  <0> d   1      18.191   2.089   9.659  0.00  0.00     0.053 C 
BRANCH   7   8
ATOM      8  C4  <0> d   1      18.906   2.544  10.905  0.00  0.00    -0.027 C 
ATOM      9  C3  <0> d   1      18.780   3.782  11.317  0.00  0.00    -0.031 C 
BRANCH   9  10
ATOM     10  C2  <0> d   1      17.800   4.705  10.641  0.00  0.00     0.022 C 
ATOM     11  C1  <0> d   1      16.627   4.982  11.584  0.00  0.00     0.009 C 
ENDBRANCH   9  10
ENDBRANCH   7   8
ENDBRANCH   6   7
ENDBRANCH   4   5
ENDBRANCH   3   4
ENDBRANCH   1   2
BRANCH   1  12
ATOM     12  C12 <0> d   1      19.625  -1.201  10.551  0.00  0.00    -0.027 C 
ATOM     13  C13 <0> d   1      19.596  -1.098  11.857  0.00  0.00    -0.027 C 
BRANCH  13  14
ATOM     14  C14 <0> d   1      18.351  -1.478  12.616  0.00  0.00     0.053 C 
BRANCH  14  15
ATOM     15  C15 <0> d   1      17.780  -0.256  13.289  0.00  0.00    -0.027 C 
ATOM     16  C16 <0> d   1      17.859  -0.128  14.590  0.00  0.00    -0.030 C 
BRANCH  16  17
ATOM     17  C17 <0> d   1      18.357  -1.276  15.431  0.00  0.00     0.027 C 
BRANCH  17  18
ATOM     18  C18 <0> d   1      18.502  -0.817  16.884  0.00  0.00     0.014 C 
BRANCH  18  19
ATOM     19  C19 <0> d   1      18.119   0.661  16.993  0.00  0.00     0.113 C 
BRANCH  19  20
ATOM     20  C20 <0> d   1      19.280   1.440  17.556  0.00  0.00     0.172 C 
ATOM     21  O21 <0> d   1      19.879   1.020  18.532  0.00  0.00    -0.648 OA
ATOM     22  O22 <0> d   1      19.619   2.489  17.037  0.00  0.00    -0.648 OA
ENDBRANCH  19  20
ENDBRANCH  18  19
ENDBRANCH  17  18
ENDBRANCH  16  17
ENDBRANCH  14  15
ENDBRANCH  13  14
ENDBRANCH   1  12
TORSDOF 13
ENDMDL
MODEL 5
REMARK VINA RESULT:      -6.4      2.464      4.687
REMARK  13 active torsions:
REMARK  status: ('A' for Active; 'I' for Inactive)
REMARK    1  A    between atoms: C2_2  and  C3_3 
REMARK    2  A    between atoms: C4_4  and  C5_5 
REMARK    3  A    between atoms: C5_5  and  C6_6 
REMARK    4  A    between atoms: C7_7  and  C8_8 
REMARK    5  A    between atoms: C8_8  and  C9_9 
REMARK    6  A    between atoms: C10_10  and  C11_11 
REMARK    7  A    between atoms: C11_11  and  C12_12 
REMARK    8  A    between atoms: C13_13  and  C14_14 
REMARK    9  A    between atoms: C14_14  and  C15_15 
REMARK   10  A    between atoms: C16_16  and  C17_17 
REMARK   11  A    between atoms: C17_17  and  C18_18 
REMARK   12  A    between atoms: C18_18  and  C19_19 
REMARK   13  A    between atoms: C19_19  and  C20_20 
ROOT
ATOM      1  C11 <0> d   1      17.334   1.136  11.339  0.00  0.00     0.053 C 
ENDROOT
BRANCH   1   2
ATOM      2  C10 <0> d   1      17.992   1.217   9.985  0.00  0.00    -0.027 C 
ATOM      3  C9  <0> d   1      18.509   2.349   9.575  0.00  0.00    -0.027 C 
BRANCH   3   4
ATOM      4  C8  <0> d   1      18.602   3.521  10.519  0.00  0.00     0.053 C 
BRANCH   4   5
ATOM      5  C7  <0> d   1      17.816   4.679   9.961  0.00  0.00    -0.027 C 
ATOM      6  C6  <0> d   1      16.862   5.226  10.671  0.00  0.00    -0.027 C 
BRANCH   6   7
ATOM      7  C5  <0> d   1      16.653   4.806  12.103  0.00  0.00     0.053 C 
BRANCH   7   8
ATOM      8  C4  <0> d   1      16.745   6.015  12.998  0.00  0.00    -0.027 C 
ATOM      9  C3  <0> d   1      17.592   6.026  13.998  0.00  0.00    -0.031 C 
BRANCH   9  10
ATOM     10  C2  <0> d   1      18.584   4.904  14.158  0.00  0.00     0.022 C 
ATOM     11  C1  <0> d   1      19.950   5.352  13.634  0.00  0.00     0.009 C 
ENDBRANCH   9  10
ENDBRANCH   7   8
ENDBRANCH   6   7
ENDBRANCH   4   5
ENDBRANCH   3   4
ENDBRANCH   1   2
BRANCH   1  12
ATOM     12  C12 <0> d   1      16.901  -0.283  11.602  0.00  0.00    -0.027 C 
ATOM     13  C13 <0> d   1      17.686  -1.094  12.268  0.00  0.00    -0.027 C 
BRANCH  13  14
ATOM     14  C14 <0> d   1      18.945  -0.569  12.907  0.00  0.00     0.053 C 
BRANCH  14  15
ATOM     15  C15 <0> d   1      19.340  -1.465  14.053  0.00  0.00    -0.027 C 
ATOM     16  C16 <0> d   1      18.920  -1.200  15.265  0.00  0.00    -0.030 C 
BRANCH  16  17
ATOM     17  C17 <0> d   1      18.195   0.091  15.546  0.00  0.00     0.027 C 
BRANCH  17  18
ATOM     18  C18 <0> d   1      17.286  -0.090  16.764  0.00  0.00     0.014 C 
BRANCH  18  19
ATOM     19  C19 <0> d   1      18.142  -0.191  18.029  0.00  0.00     0.113 C 
BRANCH  19  20
ATOM     20  C20 <0> d   1      18.660   1.176  18.394  0.00  0.00     0.172 C 
ATOM     21  O21 <0> d   1      17.883   2.108  18.524  0.00  0.00    -0.648 OA
ATOM     22  O22 <0> d   1      19.855   1.351  18.560  0.00  0.00    -0.648 OA
ENDBRANCH  19  20
ENDBRANCH  18  19
ENDBRANCH  17  18
ENDBRANCH  16  17
ENDBRANCH  14  15
ENDBRANCH  13  14
ENDBRANCH   1  12
TORSDOF 13
ENDMDL
MODEL 6
REMARK VINA RESULT:      -6.3      4.132      7.605
REMARK  13 active torsions:
REMARK  status: ('A' for Active; 'I' for Inactive)
REMARK    1  A    between atoms: C2_2  and  C3_3 
REMARK    2  A    between atoms: C4_4  and  C5_5 
REMARK    3  A    between atoms: C5_5  and  C6_6 
REMARK    4  A    between atoms: C7_7  and  C8_8 
REMARK    5  A    between atoms: C8_8  and  C9_9 
REMARK    6  A    between atoms: C10_10  and  C11_11 
REMARK    7  A    between atoms: C11_11  and  C12_12 
REMARK    8  A    between atoms: C13_13  and  C14_14 
REMARK    9  A    between atoms: C14_14  and  C15_15 
REMARK   10  A    between atoms: C16_16  and  C17_17 
REMARK   11  A    between atoms: C17_17  and  C18_18 
REMARK   12  A    between atoms: C18_18  and  C19_19 
REMARK   13  A    between atoms: C19_19  and  C20_20 
ROOT
ATOM      1  C11 <0> d   1      18.178   2.749  13.052  0.00  0.00     0.053 C 
ENDROOT
BRANCH   1   2
ATOM      2  C10 <0> d   1      18.475   2.743  14.530  0.00  0.00    -0.027 C 
ATOM      3  C9  <0> d   1      19.087   1.718  15.071  0.00  0.00    -0.027 C 
BRANCH   3   4
ATOM      4  C8  <0> d   1      19.646   0.627  14.195  0.00  0.00     0.053 C 
BRANCH   4   5
ATOM      5  C7  <0> d   1      19.126  -0.708  14.662  0.00  0.00    -0.027 C 
ATOM      6  C6  <0> d   1      18.354  -1.420  13.880  0.00  0.00    -0.027 C 
BRANCH   6   7
ATOM      7  C5  <0> d   1      18.115  -0.985  12.457  0.00  0.00     0.053 C 
BRANCH   7   8
ATOM      8  C4  <0> d   1      17.404  -2.083  11.709  0.00  0.00    -0.027 C 
ATOM      9  C3  <0> d   1      18.071  -2.845  10.877  0.00  0.00    -0.031 C 
BRANCH   9  10
ATOM     10  C2  <0> d   1      19.570  -2.732  10.787  0.00  0.00     0.022 C 
ATOM     11  C1  <0> d   1      20.215  -3.907  11.526  0.00  0.00     0.009 C 
ENDBRANCH   9  10
ENDBRANCH   7   8
ENDBRANCH   6   7
ENDBRANCH   4   5
ENDBRANCH   3   4
ENDBRANCH   1   2
BRANCH   1  12
ATOM     12  C12 <0> d   1      19.203   3.590  12.337  0.00  0.00    -0.027 C 
ATOM     13  C13 <0> d   1      19.570   3.279  11.118  0.00  0.00    -0.027 C 
BRANCH  13  14
ATOM     14  C14 <0> d   1      18.856   2.182  10.373  0.00  0.00     0.053 C 
BRANCH  14  15
ATOM     15  C15 <0> d   1      19.268   2.207   8.923  0.00  0.00    -0.027 C 
ATOM     16  C16 <0> d   1      18.759   1.341   8.082  0.00  0.00    -0.030 C 
BRANCH  16  17
ATOM     17  C17 <0> d   1      17.901   0.211   8.591  0.00  0.00     0.027 C 
BRANCH  17  18
ATOM     18  C18 <0> d   1      18.003  -0.978   7.632  0.00  0.00     0.014 C 
BRANCH  18  19
ATOM     19  C19 <0> d   1      18.232  -0.466   6.209  0.00  0.00     0.113 C 
BRANCH  19  20
ATOM     20  C20 <0> d   1      19.333  -1.263   5.559  0.00  0.00     0.172 C 
ATOM     21  O21 <0> d   1      19.640  -2.355   6.007  0.00  0.00    -0.648 OA
ATOM     22  O22 <0> d   1      19.918  -0.816   4.587  0.00  0.00    -0.648 OA
ENDBRANCH  19  20
ENDBRANCH  18  19
ENDBRANCH  17  18
ENDBRANCH  16  17
ENDBRANCH  14  15
ENDBRANCH  13  14
ENDBRANCH   1  12
TORSDOF 13
ENDMDL
MODEL 7
REMARK VINA RESULT:      -6.3      3.418      8.147
REMARK  13 active torsions:
REMARK  status: ('A' for Active; 'I' for Inactive)
REMARK    1  A    between atoms: C2_2  and  C3_3 
REMARK    2  A    between atoms: C4_4  and  C5_5 
REMARK    3  A    between atoms: C5_5  and  C6_6 
REMARK    4  A    between atoms: C7_7  and  C8_8 
REMARK    5  A    between atoms: C8_8  and  C9_9 
REMARK    6  A    between atoms: C10_10  and  C11_11 
REMARK    7  A    between atoms: C11_11  and  C12_12 
REMARK    8  A    between atoms: C13_13  and  C14_14 
REMARK    9  A    between atoms: C14_14  and  C15_15 
REMARK   10  A    between atoms: C16_16  and  C17_17 
REMARK   11  A    between atoms: C17_17  and  C18_18 
REMARK   12  A    between atoms: C18_18  and  C19_19 
REMARK   13  A    between atoms: C19_19  and  C20_20 
ROOT
ATOM      1  C11 <0> d   1      19.113   2.832  14.345  0.00  0.00     0.053 C 
ENDROOT
BRANCH   1   2
ATOM      2  C10 <0> d   1      17.773   2.144  14.399  0.00  0.00    -0.027 C 
ATOM      3  C9  <0> d   1      17.710   0.835  14.431  0.00  0.00    -0.027 C 
BRANCH   3   4
ATOM      4  C8  <0> d   1      18.970   0.024  14.589  0.00  0.00     0.053 C 
BRANCH   4   5
ATOM      5  C7  <0> d   1      18.631  -1.321  15.180  0.00  0.00    -0.027 C 
ATOM      6  C6  <0> d   1      18.799  -1.534  16.461  0.00  0.00    -0.027 C 
BRANCH   6   7
ATOM      7  C5  <0> d   1      19.176  -0.395  17.372  0.00  0.00     0.053 C 
BRANCH   7   8
ATOM      8  C4  <0> d   1      17.950   0.092  18.100  0.00  0.00    -0.027 C 
ATOM      9  C3  <0> d   1      17.878   1.339  18.497  0.00  0.00    -0.031 C 
BRANCH   9  10
ATOM     10  C2  <0> d   1      18.942   2.324  18.088  0.00  0.00     0.022 C 
ATOM     11  C1  <0> d   1      18.366   3.741  18.121  0.00  0.00     0.009 C 
ENDBRANCH   9  10
ENDBRANCH   7   8
ENDBRANCH   6   7
ENDBRANCH   4   5
ENDBRANCH   3   4
ENDBRANCH   1   2
BRANCH   1  12
ATOM     12  C12 <0> d   1      18.922   4.317  14.513  0.00  0.00    -0.027 C 
ATOM     13  C13 <0> d   1      19.141   5.124  13.504  0.00  0.00    -0.027 C 
BRANCH  13  14
ATOM     14  C14 <0> d   1      19.428   4.560  12.137  0.00  0.00     0.053 C 
BRANCH  14  15
ATOM     15  C15 <0> d   1      18.143   4.457  11.355  0.00  0.00    -0.027 C 
ATOM     16  C16 <0> d   1      17.961   3.462  10.523  0.00  0.00    -0.030 C 
BRANCH  16  17
ATOM     17  C17 <0> d   1      19.098   2.523  10.211  0.00  0.00     0.027 C 
BRANCH  17  18
ATOM     18  C18 <0> d   1      18.882   1.200  10.951  0.00  0.00     0.014 C 
BRANCH  18  19
ATOM     19  C19 <0> d   1      17.438   0.735  10.752  0.00  0.00     0.113 C 
BRANCH  19  20
ATOM     20  C20 <0> d   1      17.375  -0.767  10.864  0.00  0.00     0.172 C 
ATOM     21  O21 <0> d   1      16.810  -1.285  11.812  0.00  0.00    -0.648 OA
ATOM     22  O22 <0> d   1      17.889  -1.464  10.005  0.00  0.00    -0.648 OA
ENDBRANCH  19  20
ENDBRANCH  18  19
ENDBRANCH  17  18
ENDBRANCH  16  17
ENDBRANCH  14  15
ENDBRANCH  13  14
ENDBRANCH   1  12
TORSDOF 13
ENDMDL
MODEL 8
REMARK VINA RESULT:      -6.2      4.688      7.650
REMARK  13 active torsions:
REMARK  status: ('A' for Active; 'I' for Inactive)
REMARK    1  A    between atoms: C2_2  and  C3_3 
REMARK    2  A    between atoms: C4_4  and  C5_5 
REMARK    3  A    between atoms: C5_5  and  C6_6 
REMARK    4  A    between atoms: C7_7  and  C8_8 
REMARK    5  A    between atoms: C8_8  and  C9_9 
REMARK    6  A    between atoms: C10_10  and  C11_11 
REMARK    7  A    between atoms: C11_11  and  C12_12 
REMARK    8  A    between atoms: C13_13  and  C14_14 
REMARK    9  A    between atoms: C14_14  and  C15_15 
REMARK   10  A    between atoms: C16_16  and  C17_17 
REMARK   11  A    between atoms: C17_17  and  C18_18 
REMARK   12  A    between atoms: C18_18  and  C19_19 
REMARK   13  A    between atoms: C19_19  and  C20_20 
ROOT
ATOM      1  C11 <0> d   1      17.702   1.328  12.168  0.00  0.00     0.053 C 
ENDROOT
BRANCH   1   2
ATOM      2  C10 <0> d   1      16.844   0.228  11.597  0.00  0.00    -0.027 C 
ATOM      3  C9  <0> d   1      17.214  -1.023  11.721  0.00  0.00    -0.027 C 
BRANCH   3   4
ATOM      4  C8  <0> d   1      18.401  -1.376  12.580  0.00  0.00     0.053 C 
BRANCH   4   5
ATOM      5  C7  <0> d   1      19.642  -1.428  11.727  0.00  0.00    -0.027 C 
ATOM      6  C6  <0> d   1      20.080  -2.577  11.278  0.00  0.00    -0.027 C 
BRANCH   6   7
ATOM      7  C5  <0> d   1      19.261  -3.826  11.477  0.00  0.00     0.053 C 
BRANCH   7   8
ATOM      8  C4  <0> d   1      19.640  -4.846  10.435  0.00  0.00    -0.027 C 
ATOM      9  C3  <0> d   1      18.804  -5.135   9.467  0.00  0.00    -0.031 C 
BRANCH   9  10
ATOM     10  C2  <0> d   1      17.537  -4.338   9.303  0.00  0.00     0.022 C 
ATOM     11  C1  <0> d   1      16.346  -5.165   9.792  0.00  0.00     0.009 C 
ENDBRANCH   9  10
ENDBRANCH   7   8
ENDBRANCH   6   7
ENDBRANCH   4   5
ENDBRANCH   3   4
ENDBRANCH   1   2
BRANCH   1  12
ATOM     12  C12 <0> d   1      17.397   2.622  11.459  0.00  0.00    -0.027 C 
ATOM     13  C13 <0> d   1      18.142   3.007  10.452  0.00  0.00    -0.027 C 
BRANCH  13  14
ATOM     14  C14 <0> d   1      19.199   2.087   9.900  0.00  0.00     0.053 C 
BRANCH  14  15
ATOM     15  C15 <0> d   1      19.156   2.117   8.394  0.00  0.00    -0.027 C 
ATOM     16  C16 <0> d   1      18.937   1.013   7.723  0.00  0.00    -0.030 C 
BRANCH  16  17
ATOM     17  C17 <0> d   1      18.904  -0.311   8.441  0.00  0.00     0.027 C 
BRANCH  17  18
ATOM     18  C18 <0> d   1      19.053  -1.446   7.425  0.00  0.00     0.014 C 
BRANCH  18  19
ATOM     19  C19 <0> d   1      18.288  -1.090   6.148  0.00  0.00     0.113 C 
BRANCH  19  20
ATOM     20  C20 <0> d   1      19.234  -1.107   4.975  0.00  0.00     0.172 C 
ATOM     21  O21 <0> d   1      19.690  -2.165   4.575  0.00  0.00    -0.648 OA
ATOM     22  O22 <0> d   1      19.543  -0.063   4.426  0.00  0.00    -0.648 OA
ENDBRANCH  19  20
ENDBRANCH  18  19
ENDBRANCH  17  18
ENDBRANCH  16  17
ENDBRANCH  14  15
ENDBRANCH  13  14
ENDBRANCH   1  12
TORSDOF 13
ENDMDL
MODEL 9
REMARK VINA RESULT:      -6.2      3.199      7.830
REMARK  13 active torsions:
REMARK  status: ('A' for Active; 'I' for Inactive)
REMARK    1  A    between atoms: C2_2  and  C3_3 
REMARK    2  A    between atoms: C4_4  and  C5_5 
REMARK    3  A    between atoms: C5_5  and  C6_6 
REMARK    4  A    between atoms: C7_7  and  C8_8 
REMARK    5  A    between atoms: C8_8  and  C9_9 
REMARK    6  A    between atoms: C10_10  and  C11_11 
REMARK    7  A    between atoms: C11_11  and  C12_12 
REMARK    8  A    between atoms: C13_13  and  C14_14 
REMARK    9  A    between atoms: C14_14  and  C15_15 
REMARK   10  A    between atoms: C16_16  and  C17_17 
REMARK   11  A    between atoms: C17_17  and  C18_18 
REMARK   12  A    between atoms: C18_18  and  C19_19 
REMARK   13  A    between atoms: C19_19  and  C20_20 
ROOT
ATOM      1  C11 <0> d   1      19.390   3.640  12.247  0.00  0.00     0.053 C 
ENDROOT
BRANCH   1   2
ATOM      2  C10 <0> d   1      18.744   3.674  13.608  0.00  0.00    -0.027 C 
ATOM      3  C9  <0> d   1      18.564   2.562  14.276  0.00  0.00    -0.027 C 
BRANCH   3   4
ATOM      4  C8  <0> d   1      19.157   1.273  13.766  0.00  0.00     0.053 C 
BRANCH   4   5
ATOM      5  C7  <0> d   1      18.051   0.356  13.313  0.00  0.00    -0.027 C 
ATOM      6  C6  <0> d   1      17.811  -0.754  13.965  0.00  0.00    -0.027 C 
BRANCH   6   7
ATOM      7  C5  <0> d   1      18.530  -1.038  15.259  0.00  0.00     0.053 C 
BRANCH   7   8
ATOM      8  C4  <0> d   1      17.564  -0.906  16.409  0.00  0.00    -0.027 C 
ATOM      9  C3  <0> d   1      17.918  -0.253  17.489  0.00  0.00    -0.031 C 
BRANCH   9  10
ATOM     10  C2  <0> d   1      19.221   0.501  17.521  0.00  0.00     0.022 C 
ATOM     11  C1  <0> d   1      19.078   1.728  18.423  0.00  0.00     0.009 C 
ENDBRANCH   9  10
ENDBRANCH   7   8
ENDBRANCH   6   7
ENDBRANCH   4   5
ENDBRANCH   3   4
ENDBRANCH   1   2
BRANCH   1  12
ATOM     12  C12 <0> d   1      18.374   4.014  11.199  0.00  0.00    -0.027 C 
ATOM     13  C13 <0> d   1      18.312   3.340  10.077  0.00  0.00    -0.027 C 
BRANCH  13  14
ATOM     14  C14 <0> d   1      19.142   2.096   9.898  0.00  0.00     0.053 C 
BRANCH  14  15
ATOM     15  C15 <0> d   1      19.233   1.758   8.432  0.00  0.00    -0.027 C 
ATOM     16  C16 <0> d   1      18.460   0.829   7.925  0.00  0.00    -0.030 C 
BRANCH  16  17
ATOM     17  C17 <0> d   1      17.611  -0.023   8.833  0.00  0.00     0.027 C 
BRANCH  17  18
ATOM     18  C18 <0> d   1      18.222  -1.422   8.936  0.00  0.00     0.014 C 
BRANCH  18  19
ATOM     19  C19 <0> d   1      18.594  -1.710  10.392  0.00  0.00     0.113 C 
BRANCH  19  20
ATOM     20  C20 <0> d   1      18.046  -3.055  10.794  0.00  0.00     0.172 C 
ATOM     21  O21 <0> d   1      18.619  -4.075  10.448  0.00  0.00    -0.648 OA
ATOM     22  O22 <0> d   1      17.030  -3.124  11.464  0.00  0.00    -0.648 OA
ENDBRANCH  19  20
ENDBRANCH  18  19
ENDBRANCH  17  18
ENDBRANCH  16  17
ENDBRANCH  14  15
ENDBRANCH  13  14
ENDBRANCH   1  12
TORSDOF 13
ENDMDL
