MODEL 1
REMARK VINA RESULT:      -4.5      0.000      0.000
REMARK  2 active torsions:
REMARK  status: ('A' for Active; 'I' for Inactive)
REMARK    1  A    between atoms: N1_1  and  C5_5 
REMARK    2  A    between atoms: C5_5  and  C6_6 
ROOT
ATOM      1  C5  <0> d   1      18.239  -0.448   6.217  0.00  0.00     0.215 C 
ATOM      2  C9  <0> d   1      18.305  -0.348   7.749  0.00  0.00     0.087 C 
ATOM      3  C10 <0> d   1      19.199   0.887   7.553  0.00  0.00     0.176 C 
ATOM      4  F12 <0> d   1      18.930   1.923   8.453  0.00  0.00    -0.249 F 
ATOM      5  C13 <0> d   1      18.519   1.064   6.185  0.00  0.00     0.087 C 
ENDROOT
BRANCH   1   6
ATOM      6  N1  <0> d   1      16.911  -0.811   5.707  0.00  0.00    -0.060 N 
ATOM      7  H2  <0> d   1      16.978  -1.045   4.728  0.00  0.00     0.275 HD
ATOM      8  H3  <0> d   1      16.280  -0.032   5.824  0.00  0.00     0.275 HD
ATOM      9  H4  <0> d   1      16.560  -1.607   6.219  0.00  0.00     0.275 HD
ENDBRANCH   1   6
BRANCH   1  10
ATOM     10  C6  <0> d   1      19.344  -1.277   5.615  0.00  0.00     0.210 C 
ATOM     11  O7  <0> d   1      19.668  -2.332   6.137  0.00  0.00    -0.646 OA
ATOM     12  O8  <0> d   1      19.914  -0.896   4.608  0.00  0.00    -0.646 OA
ENDBRANCH   1  10
TORSDOF 2
ENDMDL
MODEL 2
REMARK VINA RESULT:      -4.4      9.985     10.760
REMARK  2 active torsions:
REMARK  status: ('A' for Active; 'I' for Inactive)
REMARK    1  A    between atoms: N1_1  and  C5_5 
REMARK    2  A    between atoms: C5_5  and  C6_6 
ROOT
ATOM      1  C5  <0> d   1      18.054   0.555  17.010  0.00  0.00     0.215 C 
ATOM      2  C9  <0> d   1      17.924   0.619  15.480  0.00  0.00     0.087 C 
ATOM      3  C10 <0> d   1      18.776  -0.660  15.431  0.00  0.00     0.176 C 
ATOM      4  F12 <0> d   1      18.348  -1.583  14.472  0.00  0.00    -0.249 F 
ATOM      5  C13 <0> d   1      18.264  -0.960  16.850  0.00  0.00     0.087 C 
ENDROOT
BRANCH   1   6
ATOM      6  N1  <0> d   1      16.818   0.906  17.721  0.00  0.00    -0.060 N 
ATOM      7  H2  <0> d   1      16.700   1.909  17.716  0.00  0.00     0.275 HD
ATOM      8  H3  <0> d   1      16.874   0.580  18.674  0.00  0.00     0.275 HD
ATOM      9  H4  <0> d   1      16.031   0.473  17.262  0.00  0.00     0.275 HD
ENDBRANCH   1   6
BRANCH   1  10
ATOM     10  C6  <0> d   1      19.263   1.277  17.546  0.00  0.00     0.210 C 
ATOM     11  O7  <0> d   1      19.584   2.358  17.080  0.00  0.00    -0.646 OA
ATOM     12  O8  <0> d   1      19.921   0.782  18.445  0.00  0.00    -0.646 OA
ENDBRANCH   1  10
TORSDOF 2
ENDMDL
MODEL 3
REMARK VINA RESULT:      -4.1      4.742      5.402
REMARK  2 active torsions:
REMARK  status: ('A' for Active; 'I' for Inactive)
REMARK    1  A    between atoms: N1_1  and  C5_5 
REMARK    2  A    between atoms: C5_5  and  C6_6 
ROOT
ATOM      1  C5  <0> d   1      18.977   2.090  10.311  0.00  0.00     0.215 C 
ATOM      2  C9  <0> d   1      19.239   0.625   9.926  0.00  0.00     0.087 C 
ATOM      3  C10 <0> d   1      18.607   0.951   8.563  0.00  0.00     0.176 C 
ATOM      4  F12 <0> d   1      19.263   0.353   7.482  0.00  0.00    -0.249 F 
ATOM      5  C13 <0> d   1      19.023   2.411   8.808  0.00  0.00     0.087 C 
ENDROOT
BRANCH   1   6
ATOM      6  N1  <0> d   1      20.069   2.702  11.077  0.00  0.00    -0.060 N 
ATOM      7  H2  <0> d   1      19.895   2.586  12.065  0.00  0.00     0.275 HD
ATOM      8  H3  <0> d   1      20.124   3.686  10.859  0.00  0.00     0.275 HD
ATOM      9  H4  <0> d   1      20.942   2.255  10.836  0.00  0.00     0.275 HD
ENDBRANCH   1   6
BRANCH   1  10
ATOM     10  C6  <0> d   1      17.624   2.319  10.934  0.00  0.00     0.210 C 
ATOM     11  O7  <0> d   1      17.077   3.403  10.821  0.00  0.00    -0.646 OA
ATOM     12  O8  <0> d   1      17.077   1.421  11.551  0.00  0.00    -0.646 OA
ENDBRANCH   1  10
TORSDOF 2
ENDMDL
MODEL 4
REMARK VINA RESULT:      -4.0      5.719      6.472
REMARK  2 active torsions:
REMARK  status: ('A' for Active; 'I' for Inactive)
REMARK    1  A    between atoms: N1_1  and  C5_5 
REMARK    2  A    between atoms: C5_5  and  C6_6 
ROOT
ATOM      1  C5  <0> d   1      20.149   1.096  12.016  0.00  0.00     0.215 C 
ATOM      2  C9  <0> d   1      19.494   0.803  10.657  0.00  0.00     0.087 C 
ATOM      3  C10 <0> d   1      18.834   2.188  10.764  0.00  0.00     0.176 C 
ATOM      4  F12 <0> d   1      18.798   2.887   9.554  0.00  0.00    -0.249 F 
ATOM      5  C13 <0> d   1      20.006   2.589  11.675  0.00  0.00     0.087 C 
ENDROOT
BRANCH   1   6
ATOM      6  N1  <0> d   1      21.543   0.644  12.107  0.00  0.00    -0.060 N 
ATOM      7  H2  <0> d   1      21.981   1.063  12.914  0.00  0.00     0.275 HD
ATOM      8  H3  <0> d   1      22.042   0.918  11.274  0.00  0.00     0.275 HD
ATOM      9  H4  <0> d   1      21.566  -0.361  12.197  0.00  0.00     0.275 HD
ENDBRANCH   1   6
BRANCH   1  10
ATOM     10  C6  <0> d   1      19.316   0.665  13.195  0.00  0.00     0.210 C 
ATOM     11  O7  <0> d   1      18.678  -0.374  13.144  0.00  0.00    -0.646 OA
ATOM     12  O8  <0> d   1      19.279   1.354  14.200  0.00  0.00    -0.646 OA
ENDBRANCH   1  10
TORSDOF 2
ENDMDL
MODEL 5
REMARK VINA RESULT:      -4.0      6.267      6.941
REMARK  2 active torsions:
REMARK  status: ('A' for Active; 'I' for Inactive)
REMARK    1  A    between atoms: N1_1  and  C5_5 
REMARK    2  A    between atoms: C5_5  and  C6_6 
ROOT
ATOM      1  C5  <0> d   1      20.183   0.546  12.432  0.00  0.00     0.215 C 
ATOM      2  C9  <0> d   1      19.856   0.301  13.914  0.00  0.00     0.087 C 
ATOM      3  C10 <0> d   1      18.723  -0.620  13.432  0.00  0.00     0.176 C 
ATOM      4  F12 <0> d   1      18.580  -1.782  14.197  0.00  0.00    -0.249 F 
ATOM      5  C13 <0> d   1      19.542  -0.823  12.147  0.00  0.00     0.087 C 
ENDROOT
BRANCH   1   6
ATOM      6  N1  <0> d   1      21.622   0.592  12.147  0.00  0.00    -0.060 N 
ATOM      7  H2  <0> d   1      22.013  -0.335  12.229  0.00  0.00     0.275 HD
ATOM      8  H3  <0> d   1      22.076   1.208  12.805  0.00  0.00     0.275 HD
ATOM      9  H4  <0> d   1      21.769   0.936  11.209  0.00  0.00     0.275 HD
ENDBRANCH   1   6
BRANCH   1  10
ATOM     10  C6  <0> d   1      19.429   1.702  11.828  0.00  0.00     0.210 C 
ATOM     11  O7  <0> d   1      18.982   1.614  10.696  0.00  0.00    -0.646 OA
ATOM     12  O8  <0> d   1      19.264   2.725  12.470  0.00  0.00    -0.646 OA
ENDBRANCH   1  10
TORSDOF 2
ENDMDL
MODEL 6
REMARK VINA RESULT:      -3.9      4.619      5.274
REMARK  2 active torsions:
REMARK  status: ('A' for Active; 'I' for Inactive)
REMARK    1  A    between atoms: N1_1  and  C5_5 
REMARK    2  A    between atoms: C5_5  and  C6_6 
ROOT
ATOM      1  C5  <0> d   1      20.205  -0.812  10.835  0.00  0.00     0.215 C 
ATOM      2  C9  <0> d   1      19.387  -0.347  12.051  0.00  0.00     0.087 C 
ATOM      3  C10 <0> d   1      18.546  -1.622  11.874  0.00  0.00     0.176 C 
ATOM      4  F12 <0> d   1      18.199  -2.238  13.080  0.00  0.00    -0.249 F 
ATOM      5  C13 <0> d   1      19.775  -2.244  11.192  0.00  0.00     0.087 C 
ENDROOT
BRANCH   1   6
ATOM      6  N1  <0> d   1      21.648  -0.579  10.973  0.00  0.00    -0.060 N 
ATOM      7  H2  <0> d   1      21.806   0.328  11.388  0.00  0.00     0.275 HD
ATOM      8  H3  <0> d   1      22.083  -0.611  10.063  0.00  0.00     0.275 HD
ATOM      9  H4  <0> d   1      22.050  -1.292  11.563  0.00  0.00     0.275 HD
ENDBRANCH   1   6
BRANCH   1  10
ATOM     10  C6  <0> d   1      19.658  -0.329   9.517  0.00  0.00     0.210 C 
ATOM     11  O7  <0> d   1      19.275   0.824   9.401  0.00  0.00    -0.646 OA
ATOM     12  O8  <0> d   1      19.596  -1.090   8.567  0.00  0.00    -0.646 OA
ENDBRANCH   1  10
TORSDOF 2
ENDMDL
MODEL 7
REMARK VINA RESULT:      -3.9      4.098      4.831
REMARK  2 active torsions:
REMARK  status: ('A' for Active; 'I' for Inactive)
REMARK    1  A    between atoms: N1_1  and  C5_5 
REMARK    2  A    between atoms: C5_5  and  C6_6 
ROOT
ATOM      1  C5  <0> d   1      20.154  -0.430  10.602  0.00  0.00     0.215 C 
ATOM      2  C9  <0> d   1      19.923  -0.075   9.124  0.00  0.00     0.087 C 
ATOM      3  C10 <0> d   1      18.818   0.879   9.607  0.00  0.00     0.176 C 
ATOM      4  F12 <0> d   1      18.782   2.093   8.914  0.00  0.00    -0.249 F 
ATOM      5  C13 <0> d   1      19.575   0.952  10.943  0.00  0.00     0.087 C 
ENDROOT
BRANCH   1   6
ATOM      6  N1  <0> d   1      21.571  -0.579  10.957  0.00  0.00    -0.060 N 
ATOM      7  H2  <0> d   1      22.063   0.277  10.748  0.00  0.00     0.275 HD
ATOM      8  H3  <0> d   1      21.974  -1.336  10.425  0.00  0.00     0.275 HD
ATOM      9  H4  <0> d   1      21.652  -0.781  11.942  0.00  0.00     0.275 HD
ENDBRANCH   1   6
BRANCH   1  10
ATOM     10  C6  <0> d   1      19.306  -1.577  11.088  0.00  0.00     0.210 C 
ATOM     11  O7  <0> d   1      18.773  -1.518  12.184  0.00  0.00    -0.646 OA
ATOM     12  O8  <0> d   1      19.152  -2.562  10.388  0.00  0.00    -0.646 OA
ENDBRANCH   1  10
TORSDOF 2
ENDMDL
MODEL 8
REMARK VINA RESULT:      -3.9      8.927      9.617
REMARK  2 active torsions:
REMARK  status: ('A' for Active; 'I' for Inactive)
REMARK    1  A    between atoms: N1_1  and  C5_5 
REMARK    2  A    between atoms: C5_5  and  C6_6 
ROOT
ATOM      1  C5  <0> d   1      18.331   0.177  15.670  0.00  0.00     0.215 C 
ATOM      2  C9  <0> d   1      17.913  -0.887  16.697  0.00  0.00     0.087 C 
ATOM      3  C10 <0> d   1      19.130  -0.451  17.528  0.00  0.00     0.176 C 
ATOM      4  F12 <0> d   1      18.882  -0.402  18.904  0.00  0.00    -0.249 F 
ATOM      5  C13 <0> d   1      19.018   0.915  16.831  0.00  0.00     0.087 C 
ENDROOT
BRANCH   1   6
ATOM      6  N1  <0> d   1      17.200   0.914  15.092  0.00  0.00    -0.060 N 
ATOM      7  H2  <0> d   1      17.314   0.976  14.091  0.00  0.00     0.275 HD
ATOM      8  H3  <0> d   1      17.167   1.843  15.485  0.00  0.00     0.275 HD
ATOM      9  H4  <0> d   1      16.340   0.430  15.302  0.00  0.00     0.275 HD
ENDBRANCH   1   6
BRANCH   1  10
ATOM     10  C6  <0> d   1      19.291  -0.332  14.626  0.00  0.00     0.210 C 
ATOM     11  O7  <0> d   1      19.307  -1.518  14.339  0.00  0.00    -0.646 OA
ATOM     12  O8  <0> d   1      20.053   0.439  14.069  0.00  0.00    -0.646 OA
ENDBRANCH   1  10
TORSDOF 2
ENDMDL
MODEL 9
REMARK VINA RESULT:      -3.8      5.972      6.722
REMARK  2 active torsions:
REMARK  status: ('A' for Active; 'I' for Inactive)
REMARK    1  A    between atoms: N1_1  and  C5_5 
REMARK    2  A    between atoms: C5_5  and  C6_6 
ROOT
ATOM      1  C5  <0> d   1      19.287   3.123  11.592  0.00  0.00     0.215 C 
ATOM      2  C9  <0> d   1      18.590   3.092  10.222  0.00  0.00     0.087 C 
ATOM      3  C10 <0> d   1      17.503   3.986  10.842  0.00  0.00     0.176 C 
ATOM      4  F12 <0> d   1      17.045   4.990   9.983  0.00  0.00    -0.249 F 
ATOM      5  C13 <0> d   1      18.574   4.463  11.836  0.00  0.00     0.087 C 
ENDROOT
BRANCH   1   6
ATOM      6  N1  <0> d   1      20.748   3.240  11.506  0.00  0.00    -0.060 N 
ATOM      7  H2  <0> d   1      21.010   4.214  11.519  0.00  0.00     0.275 HD
ATOM      8  H3  <0> d   1      21.070   2.817  10.648  0.00  0.00     0.275 HD
ATOM      9  H4  <0> d   1      21.170   2.768  12.292  0.00  0.00     0.275 HD
ENDBRANCH   1   6
BRANCH   1  10
ATOM     10  C6  <0> d   1      18.842   2.025  12.523  0.00  0.00     0.210 C 
ATOM     11  O7  <0> d   1      18.722   2.248  13.716  0.00  0.00    -0.646 OA
ATOM     12  O8  <0> d   1      18.600   0.913  12.084  0.00  0.00    -0.646 OA
ENDBRANCH   1  10
TORSDOF 2
ENDMDL
