MODEL 1
REMARK VINA RESULT:      -6.6      0.000      0.000
REMARK  4 active torsions:
REMARK  status: ('A' for Active; 'I' for Inactive)
REMARK    1  A    between atoms: C2_2  and  C4_4 
REMARK    2  A    between atoms: C4_4  and  C5_5 
REMARK    3  A    between atoms: C8_8  and  C9_9 
REMARK    4  A    between atoms: C9_9  and  C12_11 
ROOT
ATOM      1  C5  <0> d   1      18.425   1.593   9.664  0.00  0.00    -0.058 A 
ATOM      2  C6  <0> d   1      19.242   2.077   8.658  0.00  0.00     0.007 A 
ATOM      3  C7  <0> d   1      19.162   1.543   7.386  0.00  0.00     0.008 A 
ATOM      4  C8  <0> d   1      18.264   0.525   7.119  0.00  0.00    -0.044 A 
ATOM      5  C15 <0> d   1      17.449   0.041   8.124  0.00  0.00     0.008 A 
ATOM      6  C16 <0> d   1      17.532   0.573   9.397  0.00  0.00     0.007 A 
ENDROOT
BRANCH   4   7
ATOM      7  C9  <0> d   1      18.177  -0.056   5.731  0.00  0.00     0.115 C 
ATOM      8  C11 <0> d   1      16.835  -0.772   5.563  0.00  0.00     0.026 C 
BRANCH   7   9
ATOM      9  C12 <0> d   1      19.301  -1.039   5.527  0.00  0.00     0.181 C 
ATOM     10  O13 <0> d   1      20.010  -0.958   4.538  0.00  0.00    -0.647 OA
ATOM     11  O14 <0> d   1      19.500  -1.917   6.349  0.00  0.00    -0.647 OA
ENDBRANCH   7   9
ENDBRANCH   4   7
BRANCH   1  12
ATOM     12  C4  <0> d   1      18.513   2.175  11.051  0.00  0.00     0.042 C 
BRANCH  12  13
ATOM     13  C2  <0> d   1      18.654   3.695  10.960  0.00  0.00    -0.019 C 
ATOM     14  C1  <0> d   1      17.264   4.334  10.913  0.00  0.00     0.010 C 
ATOM     15  C3  <0> d   1      19.413   4.212  12.184  0.00  0.00     0.010 C 
ENDBRANCH  12  13
ENDBRANCH   1  12
TORSDOF 4
ENDMDL
MODEL 2
REMARK VINA RESULT:      -6.5      3.135      6.107
REMARK  4 active torsions:
REMARK  status: ('A' for Active; 'I' for Inactive)
REMARK    1  A    between atoms: C2_2  and  C4_4 
REMARK    2  A    between atoms: C4_4  and  C5_5 
REMARK    3  A    between atoms: C8_8  and  C9_9 
REMARK    4  A    between atoms: C9_9  and  C12_11 
ROOT
ATOM      1  C5  <0> d   1      18.103   0.145   7.819  0.00  0.00    -0.058 A 
ATOM      2  C6  <0> d   1      18.929   1.203   7.485  0.00  0.00     0.007 A 
ATOM      3  C7  <0> d   1      19.124   2.236   8.382  0.00  0.00     0.008 A 
ATOM      4  C8  <0> d   1      18.494   2.213   9.613  0.00  0.00    -0.044 A 
ATOM      5  C15 <0> d   1      17.667   1.157   9.945  0.00  0.00     0.008 A 
ATOM      6  C16 <0> d   1      17.469   0.124   9.048  0.00  0.00     0.007 A 
ENDROOT
BRANCH   4   7
ATOM      7  C9  <0> d   1      18.708   3.340  10.590  0.00  0.00     0.115 C 
ATOM      8  C11 <0> d   1      18.781   2.775  12.010  0.00  0.00     0.026 C 
BRANCH   7   9
ATOM      9  C12 <0> d   1      17.561   4.313  10.494  0.00  0.00     0.181 C 
ATOM     10  O13 <0> d   1      16.618   4.222  11.262  0.00  0.00    -0.647 OA
ATOM     11  O14 <0> d   1      17.574   5.189   9.646  0.00  0.00    -0.647 OA
ENDBRANCH   7   9
ENDBRANCH   4   7
BRANCH   1  12
ATOM     12  C4  <0> d   1      17.889  -0.981   6.842  0.00  0.00     0.042 C 
BRANCH  12  13
ATOM     13  C2  <0> d   1      19.233  -1.399   6.242  0.00  0.00    -0.019 C 
ATOM     14  C1  <0> d   1      19.534  -2.850   6.625  0.00  0.00     0.010 C 
ATOM     15  C3  <0> d   1      19.171  -1.276   4.718  0.00  0.00     0.010 C 
ENDBRANCH  12  13
ENDBRANCH   1  12
TORSDOF 4
ENDMDL
MODEL 3
REMARK VINA RESULT:      -6.5      3.383      6.074
REMARK  4 active torsions:
REMARK  status: ('A' for Active; 'I' for Inactive)
REMARK    1  A    between atoms: C2_2  and  C4_4 
REMARK    2  A    between atoms: C4_4  and  C5_5 
REMARK    3  A    between atoms: C8_8  and  C9_9 
REMARK    4  A    between atoms: C9_9  and  C12_11 
ROOT
ATOM      1  C5  <0> d   1      18.661   0.694   8.440  0.00  0.00    -0.058 A 
ATOM      2  C6  <0> d   1      19.137   1.992   8.406  0.00  0.00     0.007 A 
ATOM      3  C7  <0> d   1      18.779   2.885   9.399  0.00  0.00     0.008 A 
ATOM      4  C8  <0> d   1      17.945   2.480  10.425  0.00  0.00    -0.044 A 
ATOM      5  C15 <0> d   1      17.468   1.183  10.457  0.00  0.00     0.008 A 
ATOM      6  C16 <0> d   1      17.823   0.291   9.463  0.00  0.00     0.007 A 
ENDROOT
BRANCH   4   7
ATOM      7  C9  <0> d   1      17.556   3.454  11.507  0.00  0.00     0.115 C 
ATOM      8  C11 <0> d   1      17.094   4.765  10.869  0.00  0.00     0.026 C 
BRANCH   7   9
ATOM      9  C12 <0> d   1      18.744   3.719  12.396  0.00  0.00     0.181 C 
ATOM     10  O13 <0> d   1      19.340   4.780  12.318  0.00  0.00    -0.647 OA
ATOM     11  O14 <0> d   1      19.111   2.871  13.192  0.00  0.00    -0.647 OA
ENDBRANCH   7   9
ENDBRANCH   4   7
BRANCH   1  12
ATOM     12  C4  <0> d   1      19.051  -0.280   7.358  0.00  0.00     0.042 C 
BRANCH  12  13
ATOM     13  C2  <0> d   1      18.544   0.228   6.007  0.00  0.00    -0.019 C 
ATOM     14  C1  <0> d   1      19.341  -0.433   4.881  0.00  0.00     0.010 C 
ATOM     15  C3  <0> d   1      17.061  -0.121   5.855  0.00  0.00     0.010 C 
ENDBRANCH  12  13
ENDBRANCH   1  12
TORSDOF 4
ENDMDL
MODEL 4
REMARK VINA RESULT:      -6.4      1.105      1.472
REMARK  4 active torsions:
REMARK  status: ('A' for Active; 'I' for Inactive)
REMARK    1  A    between atoms: C2_2  and  C4_4 
REMARK    2  A    between atoms: C4_4  and  C5_5 
REMARK    3  A    between atoms: C8_8  and  C9_9 
REMARK    4  A    between atoms: C9_9  and  C12_11 
ROOT
ATOM      1  C5  <0> d   1      18.716   1.811   9.047  0.00  0.00    -0.058 A 
ATOM      2  C6  <0> d   1      19.404   1.876   7.850  0.00  0.00     0.007 A 
ATOM      3  C7  <0> d   1      19.186   0.919   6.876  0.00  0.00     0.008 A 
ATOM      4  C8  <0> d   1      18.280  -0.101   7.099  0.00  0.00    -0.044 A 
ATOM      5  C15 <0> d   1      17.594  -0.166   8.297  0.00  0.00     0.008 A 
ATOM      6  C16 <0> d   1      17.814   0.788   9.272  0.00  0.00     0.007 A 
ENDROOT
BRANCH   4   7
ATOM      7  C9  <0> d   1      18.043  -1.143   6.037  0.00  0.00     0.115 C 
ATOM      8  C11 <0> d   1      18.494  -2.510   6.555  0.00  0.00     0.026 C 
BRANCH   7   9
ATOM      9  C12 <0> d   1      18.831  -0.789   4.801  0.00  0.00     0.181 C 
ATOM     10  O13 <0> d   1      18.401   0.043   4.021  0.00  0.00    -0.647 OA
ATOM     11  O14 <0> d   1      19.898  -1.336   4.581  0.00  0.00    -0.647 OA
ENDBRANCH   7   9
ENDBRANCH   4   7
BRANCH   1  12
ATOM     12  C4  <0> d   1      18.954   2.854  10.109  0.00  0.00     0.042 C 
BRANCH  12  13
ATOM     13  C2  <0> d   1      17.611   3.390  10.609  0.00  0.00    -0.019 C 
ATOM     14  C1  <0> d   1      17.549   3.271  12.133  0.00  0.00     0.010 C 
ATOM     15  C3  <0> d   1      17.467   4.859  10.205  0.00  0.00     0.010 C 
ENDBRANCH  12  13
ENDBRANCH   1  12
TORSDOF 4
ENDMDL
MODEL 5
REMARK VINA RESULT:      -6.2      3.074      6.146
REMARK  4 active torsions:
REMARK  status: ('A' for Active; 'I' for Inactive)
REMARK    1  A    between atoms: C2_2  and  C4_4 
REMARK    2  A    between atoms: C4_4  and  C5_5 
REMARK    3  A    between atoms: C8_8  and  C9_9 
REMARK    4  A    between atoms: C9_9  and  C12_11 
ROOT
ATOM      1  C5  <0> d   1      18.270   0.604   7.185  0.00  0.00    -0.058 A 
ATOM      2  C6  <0> d   1      17.429  -0.022   8.087  0.00  0.00     0.007 A 
ATOM      3  C7  <0> d   1      17.450   0.345   9.420  0.00  0.00     0.008 A 
ATOM      4  C8  <0> d   1      18.312   1.338   9.850  0.00  0.00    -0.044 A 
ATOM      5  C15 <0> d   1      19.153   1.962   8.948  0.00  0.00     0.008 A 
ATOM      6  C16 <0> d   1      19.134   1.593   7.616  0.00  0.00     0.007 A 
ENDROOT
BRANCH   4   7
ATOM      7  C9  <0> d   1      18.333   1.738  11.303  0.00  0.00     0.115 C 
ATOM      8  C11 <0> d   1      17.338   0.877  12.082  0.00  0.00     0.026 C 
BRANCH   7   9
ATOM      9  C12 <0> d   1      17.949   3.190  11.430  0.00  0.00     0.181 C 
ATOM     10  O13 <0> d   1      18.725   3.985  11.933  0.00  0.00    -0.647 OA
ATOM     11  O14 <0> d   1      16.862   3.570  11.031  0.00  0.00    -0.647 OA
ENDBRANCH   7   9
ENDBRANCH   4   7
BRANCH   1  12
ATOM     12  C4  <0> d   1      18.247   0.203   5.732  0.00  0.00     0.042 C 
BRANCH  12  13
ATOM     13  C2  <0> d   1      18.014  -1.305   5.622  0.00  0.00    -0.019 C 
ATOM     14  C1  <0> d   1      17.334  -1.620   4.288  0.00  0.00     0.010 C 
ATOM     15  C3  <0> d   1      19.358  -2.035   5.695  0.00  0.00     0.010 C 
ENDBRANCH  12  13
ENDBRANCH   1  12
TORSDOF 4
ENDMDL
MODEL 6
REMARK VINA RESULT:      -5.9      2.663      5.861
REMARK  4 active torsions:
REMARK  status: ('A' for Active; 'I' for Inactive)
REMARK    1  A    between atoms: C2_2  and  C4_4 
REMARK    2  A    between atoms: C4_4  and  C5_5 
REMARK    3  A    between atoms: C8_8  and  C9_9 
REMARK    4  A    between atoms: C9_9  and  C12_11 
ROOT
ATOM      1  C5  <0> d   1      18.310   0.367   6.723  0.00  0.00    -0.058 A 
ATOM      2  C6  <0> d   1      19.097   1.445   7.085  0.00  0.00     0.007 A 
ATOM      3  C7  <0> d   1      19.045   1.937   8.375  0.00  0.00     0.008 A 
ATOM      4  C8  <0> d   1      18.204   1.351   9.305  0.00  0.00    -0.044 A 
ATOM      5  C15 <0> d   1      17.416   0.275   8.943  0.00  0.00     0.008 A 
ATOM      6  C16 <0> d   1      17.467  -0.215   7.651  0.00  0.00     0.007 A 
ENDROOT
BRANCH   4   7
ATOM      7  C9  <0> d   1      18.148   1.888  10.712  0.00  0.00     0.115 C 
ATOM      8  C11 <0> d   1      18.699   3.315  10.734  0.00  0.00     0.026 C 
BRANCH   7   9
ATOM      9  C12 <0> d   1      18.979   1.014  11.616  0.00  0.00     0.181 C 
ATOM     10  O13 <0> d   1      20.186   1.172  11.676  0.00  0.00    -0.647 OA
ATOM     11  O14 <0> d   1      18.443   0.149  12.288  0.00  0.00    -0.647 OA
ENDBRANCH   7   9
ENDBRANCH   4   7
BRANCH   1  12
ATOM     12  C4  <0> d   1      18.367  -0.169   5.316  0.00  0.00     0.042 C 
BRANCH  12  13
ATOM     13  C2  <0> d   1      18.019  -1.659   5.323  0.00  0.00    -0.019 C 
ATOM     14  C1  <0> d   1      17.160  -1.988   4.100  0.00  0.00     0.010 C 
ATOM     15  C3  <0> d   1      19.308  -2.483   5.278  0.00  0.00     0.010 C 
ENDBRANCH  12  13
ENDBRANCH   1  12
TORSDOF 4
ENDMDL
MODEL 7
REMARK VINA RESULT:      -5.9      4.646      5.991
REMARK  4 active torsions:
REMARK  status: ('A' for Active; 'I' for Inactive)
REMARK    1  A    between atoms: C2_2  and  C4_4 
REMARK    2  A    between atoms: C4_4  and  C5_5 
REMARK    3  A    between atoms: C8_8  and  C9_9 
REMARK    4  A    between atoms: C9_9  and  C12_11 
ROOT
ATOM      1  C5  <0> d   1      18.844  -0.549  14.057  0.00  0.00    -0.058 A 
ATOM      2  C6  <0> d   1      17.757  -0.950  13.302  0.00  0.00     0.007 A 
ATOM      3  C7  <0> d   1      17.508  -0.355  12.079  0.00  0.00     0.008 A 
ATOM      4  C8  <0> d   1      18.345   0.641  11.612  0.00  0.00    -0.044 A 
ATOM      5  C15 <0> d   1      19.431   1.043  12.367  0.00  0.00     0.008 A 
ATOM      6  C16 <0> d   1      19.678   0.450  13.591  0.00  0.00     0.007 A 
ENDROOT
BRANCH   4   7
ATOM      7  C9  <0> d   1      18.073   1.289  10.279  0.00  0.00     0.115 C 
ATOM      8  C11 <0> d   1      19.288   1.107   9.367  0.00  0.00     0.026 C 
BRANCH   7   9
ATOM      9  C12 <0> d   1      17.812   2.761  10.479  0.00  0.00     0.181 C 
ATOM     10  O13 <0> d   1      18.452   3.585   9.850  0.00  0.00    -0.647 OA
ATOM     11  O14 <0> d   1      16.961   3.126  11.273  0.00  0.00    -0.647 OA
ENDBRANCH   7   9
ENDBRANCH   4   7
BRANCH   1  12
ATOM     12  C4  <0> d   1      19.116  -1.198  15.390  0.00  0.00     0.042 C 
BRANCH  12  13
ATOM     13  C2  <0> d   1      18.492  -0.355  16.504  0.00  0.00    -0.019 C 
ATOM     14  C1  <0> d   1      17.084  -0.872  16.807  0.00  0.00     0.010 C 
ATOM     15  C3  <0> d   1      19.355  -0.457  17.763  0.00  0.00     0.010 C 
ENDBRANCH  12  13
ENDBRANCH   1  12
TORSDOF 4
ENDMDL
MODEL 8
REMARK VINA RESULT:      -5.8      4.665      5.862
REMARK  4 active torsions:
REMARK  status: ('A' for Active; 'I' for Inactive)
REMARK    1  A    between atoms: C2_2  and  C4_4 
REMARK    2  A    between atoms: C4_4  and  C5_5 
REMARK    3  A    between atoms: C8_8  and  C9_9 
REMARK    4  A    between atoms: C9_9  and  C12_11 
ROOT
ATOM      1  C5  <0> d   1      18.589  -0.209  14.416  0.00  0.00    -0.058 A 
ATOM      2  C6  <0> d   1      17.625   0.251  13.539  0.00  0.00     0.007 A 
ATOM      3  C7  <0> d   1      17.306  -0.487  12.414  0.00  0.00     0.008 A 
ATOM      4  C8  <0> d   1      17.951  -1.685  12.167  0.00  0.00    -0.044 A 
ATOM      5  C15 <0> d   1      18.917  -2.143  13.043  0.00  0.00     0.008 A 
ATOM      6  C16 <0> d   1      19.238  -1.404  14.167  0.00  0.00     0.007 A 
ENDROOT
BRANCH   4   7
ATOM      7  C9  <0> d   1      17.603  -2.489  10.941  0.00  0.00     0.115 C 
ATOM      8  C11 <0> d   1      17.262  -3.922  11.353  0.00  0.00     0.026 C 
BRANCH   7   9
ATOM      9  C12 <0> d   1      18.779  -2.503   9.999  0.00  0.00     0.181 C 
ATOM     10  O13 <0> d   1      19.311  -1.456   9.671  0.00  0.00    -0.647 OA
ATOM     11  O14 <0> d   1      19.198  -3.562   9.562  0.00  0.00    -0.647 OA
ENDBRANCH   7   9
ENDBRANCH   4   7
BRANCH   1  12
ATOM     12  C4  <0> d   1      18.937   0.596  15.642  0.00  0.00     0.042 C 
BRANCH  12  13
ATOM     13  C2  <0> d   1      18.687  -0.247  16.894  0.00  0.00    -0.019 C 
ATOM     14  C1  <0> d   1      19.305   0.448  18.109  0.00  0.00     0.010 C 
ATOM     15  C3  <0> d   1      17.179  -0.404  17.109  0.00  0.00     0.010 C 
ENDBRANCH  12  13
ENDBRANCH   1  12
TORSDOF 4
ENDMDL
MODEL 9
REMARK VINA RESULT:      -5.7      6.089      8.364
REMARK  4 active torsions:
REMARK  status: ('A' for Active; 'I' for Inactive)
REMARK    1  A    between atoms: C2_2  and  C4_4 
REMARK    2  A    between atoms: C4_4  and  C5_5 
REMARK    3  A    between atoms: C8_8  and  C9_9 
REMARK    4  A    between atoms: C9_9  and  C12_11 
ROOT
ATOM      1  C5  <0> d   1      19.216   0.539  13.023  0.00  0.00    -0.058 A 
ATOM      2  C6  <0> d   1      18.511   1.357  13.886  0.00  0.00     0.007 A 
ATOM      3  C7  <0> d   1      18.224   0.926  15.168  0.00  0.00     0.008 A 
ATOM      4  C8  <0> d   1      18.642  -0.324  15.586  0.00  0.00    -0.044 A 
ATOM      5  C15 <0> d   1      19.345  -1.143  14.723  0.00  0.00     0.008 A 
ATOM      6  C16 <0> d   1      19.630  -0.712  13.440  0.00  0.00     0.007 A 
ENDROOT
BRANCH   4   7
ATOM      7  C9  <0> d   1      18.329  -0.794  16.983  0.00  0.00     0.115 C 
ATOM      8  C11 <0> d   1      16.829  -1.069  17.103  0.00  0.00     0.026 C 
BRANCH   7   9
ATOM      9  C12 <0> d   1      18.725   0.273  17.972  0.00  0.00     0.181 C 
ATOM     10  O13 <0> d   1      19.902   0.457  18.233  0.00  0.00    -0.647 OA
ATOM     11  O14 <0> d   1      17.868   0.952  18.513  0.00  0.00    -0.647 OA
ENDBRANCH   7   9
ENDBRANCH   4   7
BRANCH   1  12
ATOM     12  C4  <0> d   1      19.529   1.009  11.626  0.00  0.00     0.042 C 
BRANCH  12  13
ATOM     13  C2  <0> d   1      18.245   1.498  10.952  0.00  0.00    -0.019 C 
ATOM     14  C1  <0> d   1      18.601   2.398   9.767  0.00  0.00     0.010 C 
ATOM     15  C3  <0> d   1      17.439   0.295  10.457  0.00  0.00     0.010 C 
ENDBRANCH  12  13
ENDBRANCH   1  12
TORSDOF 4
ENDMDL
