MODEL 1
REMARK VINA RESULT:      -7.7      0.000      0.000
REMARK  6 active torsions:
REMARK  status: ('A' for Active; 'I' for Inactive)
REMARK    1  A    between atoms: N2_2  and  C3_3 
REMARK    2  A    between atoms: N2_2  and  C12_12 
REMARK    3  A    between atoms: C3_3  and  C4_4 
REMARK    4  A    between atoms: C5_5  and  C6_6 
REMARK    5  A    between atoms: C7_7  and  C8_8 
REMARK    6  A    between atoms: C12_12  and  C13_13 
ROOT
ATOM      1  C1  ZIN A   1      17.372   4.048  13.649  0.00  0.00     0.310 C 
ATOM      2  N2  ZIN A   1      18.078   3.164  12.712  0.00  0.00     0.091 N 
ENDROOT
BRANCH   2   3
ATOM      3  C3  ZIN A   1      18.390   3.864  11.460  0.00  0.00     0.300 C 
BRANCH   3   4
ATOM      4  C4  ZIN A   1      18.157   2.939  10.294  0.00  0.00     0.012 C 
ATOM      5  C5  ZIN A   1      19.191   2.444   9.622  0.00  0.00     0.062 C 
BRANCH   5   6
ATOM      6  C6  ZIN A   1      18.970   1.564   8.513  0.00  0.00    -0.078 C 
ATOM      7  C7  ZIN A   1      18.788   0.844   7.605  0.00  0.00    -0.093 C 
BRANCH   7   8
ATOM      8  C8  ZIN A   1      18.560  -0.061   6.466  0.00  0.00     0.013 C 
ATOM      9  C9  ZIN A   1      17.061  -0.133   6.165  0.00  0.00     0.028 C 
ATOM     10  C10 ZIN A   1      19.301   0.470   5.237  0.00  0.00     0.028 C 
ATOM     11  C11 ZIN A   1      19.078  -1.458   6.811  0.00  0.00     0.028 C 
ENDBRANCH   7   8
ENDBRANCH   5   6
ENDBRANCH   3   4
ENDBRANCH   2   3
BRANCH   2  12
ATOM     12  C12 ZIN A   1      19.295   2.612  13.324  0.00  0.00     0.311 C 
BRANCH  12  13
ATOM     13  C13 ZIN A   1      19.113   1.135  13.561  0.00  0.00    -0.019 A 
ATOM     14  C22 ZIN A   1      19.043   0.276  12.507  0.00  0.00     0.010 A 
ATOM     15  C21 ZIN A   1      18.880  -1.093  12.707  0.00  0.00     0.002 A 
ATOM     16  C20 ZIN A   1      18.776  -1.611  13.962  0.00  0.00     0.012 A 
ATOM     17  C19 ZIN A   1      18.838  -0.754  15.075  0.00  0.00    -0.025 A 
ATOM     18  C14 ZIN A   1      19.009   0.638  14.871  0.00  0.00    -0.018 A 
ATOM     19  C18 ZIN A   1      18.734  -1.252  16.385  0.00  0.00     0.012 A 
ATOM     20  C15 ZIN A   1      19.070   1.495  15.984  0.00  0.00     0.013 A 
ATOM     21  C16 ZIN A   1      18.964   0.977  17.238  0.00  0.00     0.001 A 
ATOM     22  C17 ZIN A   1      18.796  -0.392  17.438  0.00  0.00     0.001 A 
ENDBRANCH  12  13
ENDBRANCH   2  12
TORSDOF 6
ENDMDL
MODEL 2
REMARK VINA RESULT:      -7.6      0.859      2.763
REMARK  6 active torsions:
REMARK  status: ('A' for Active; 'I' for Inactive)
REMARK    1  A    between atoms: N2_2  and  C3_3 
REMARK    2  A    between atoms: N2_2  and  C12_12 
REMARK    3  A    between atoms: C3_3  and  C4_4 
REMARK    4  A    between atoms: C5_5  and  C6_6 
REMARK    5  A    between atoms: C7_7  and  C8_8 
REMARK    6  A    between atoms: C12_12  and  C13_13 
ROOT
ATOM      1  C1  ZIN A   1      17.768   4.159  13.844  0.00  0.00     0.310 C 
ATOM      2  N2  ZIN A   1      18.174   3.201  12.807  0.00  0.00     0.091 N 
ENDROOT
BRANCH   2   3
ATOM      3  C3  ZIN A   1      18.300   3.861  11.501  0.00  0.00     0.300 C 
BRANCH   3   4
ATOM      4  C4  ZIN A   1      18.120   2.843  10.404  0.00  0.00     0.012 C 
ATOM      5  C5  ZIN A   1      19.045   2.716   9.459  0.00  0.00     0.062 C 
BRANCH   5   6
ATOM      6  C6  ZIN A   1      18.874   1.749   8.415  0.00  0.00    -0.078 C 
ATOM      7  C7  ZIN A   1      18.734   0.957   7.561  0.00  0.00    -0.093 C 
BRANCH   7   8
ATOM      8  C8  ZIN A   1      18.559  -0.036   6.488  0.00  0.00     0.013 C 
ATOM      9  C9  ZIN A   1      19.088  -1.393   6.959  0.00  0.00     0.028 C 
ATOM     10  C10 ZIN A   1      17.073  -0.160   6.146  0.00  0.00     0.028 C 
ATOM     11  C11 ZIN A   1      19.334   0.410   5.247  0.00  0.00     0.028 C 
ENDBRANCH   7   8
ENDBRANCH   5   6
ENDBRANCH   3   4
ENDBRANCH   2   3
BRANCH   2  12
ATOM     12  C12 ZIN A   1      19.425   2.523  13.177  0.00  0.00     0.311 C 
BRANCH  12  13
ATOM     13  C13 ZIN A   1      19.114   1.140  13.687  0.00  0.00    -0.019 A 
ATOM     14  C22 ZIN A   1      18.587   0.971  14.931  0.00  0.00     0.010 A 
ATOM     15  C21 ZIN A   1      18.289  -0.300  15.418  0.00  0.00     0.002 A 
ATOM     16  C20 ZIN A   1      18.525  -1.411  14.667  0.00  0.00     0.012 A 
ATOM     17  C19 ZIN A   1      19.074  -1.277  13.380  0.00  0.00    -0.025 A 
ATOM     18  C14 ZIN A   1      19.372   0.017  12.884  0.00  0.00    -0.018 A 
ATOM     19  C18 ZIN A   1      19.332  -2.401  12.577  0.00  0.00     0.012 A 
ATOM     20  C15 ZIN A   1      19.922   0.151  11.597  0.00  0.00     0.013 A 
ATOM     21  C16 ZIN A   1      20.160  -0.961  10.848  0.00  0.00     0.001 A 
ATOM     22  C17 ZIN A   1      19.866  -2.232  11.336  0.00  0.00     0.001 A 
ENDBRANCH  12  13
ENDBRANCH   2  12
TORSDOF 6
ENDMDL
MODEL 3
REMARK VINA RESULT:      -7.6      2.371      8.657
REMARK  6 active torsions:
REMARK  status: ('A' for Active; 'I' for Inactive)
REMARK    1  A    between atoms: N2_2  and  C3_3 
REMARK    2  A    between atoms: N2_2  and  C12_12 
REMARK    3  A    between atoms: C3_3  and  C4_4 
REMARK    4  A    between atoms: C5_5  and  C6_6 
REMARK    5  A    between atoms: C7_7  and  C8_8 
REMARK    6  A    between atoms: C12_12  and  C13_13 
ROOT
ATOM      1  C1  ZIN A   1      17.405  -3.962   9.790  0.00  0.00     0.310 C 
ATOM      2  N2  ZIN A   1      18.622  -3.161   9.978  0.00  0.00     0.091 N 
ENDROOT
BRANCH   2   3
ATOM      3  C3  ZIN A   1      19.553  -3.827  10.898  0.00  0.00     0.300 C 
BRANCH   3   4
ATOM      4  C4  ZIN A   1      19.523  -3.132  12.235  0.00  0.00     0.012 C 
ATOM      5  C5  ZIN A   1      18.541  -2.284  12.520  0.00  0.00     0.062 C 
BRANCH   5   6
ATOM      6  C6  ZIN A   1      18.512  -1.623  13.791  0.00  0.00    -0.078 C 
ATOM      7  C7  ZIN A   1      18.488  -1.082  14.831  0.00  0.00    -0.093 C 
BRANCH   7   8
ATOM      8  C8  ZIN A   1      18.458  -0.403  16.137  0.00  0.00     0.013 C 
ATOM      9  C9  ZIN A   1      19.330  -1.173  17.132  0.00  0.00     0.028 C 
ATOM     10  C10 ZIN A   1      18.996   1.021  15.984  0.00  0.00     0.028 C 
ATOM     11  C11 ZIN A   1      17.019  -0.353  16.654  0.00  0.00     0.028 C 
ENDBRANCH   7   8
ENDBRANCH   5   6
ENDBRANCH   3   4
ENDBRANCH   2   3
BRANCH   2  12
ATOM     12  C12 ZIN A   1      19.269  -2.875   8.690  0.00  0.00     0.311 C 
BRANCH  12  13
ATOM     13  C13 ZIN A   1      19.178  -1.399   8.400  0.00  0.00    -0.019 A 
ATOM     14  C22 ZIN A   1      19.143  -0.501   9.423  0.00  0.00     0.010 A 
ATOM     15  C21 ZIN A   1      19.065   0.868   9.173  0.00  0.00     0.002 A 
ATOM     16  C20 ZIN A   1      19.011   1.346   7.900  0.00  0.00     0.012 A 
ATOM     17  C19 ZIN A   1      19.039   0.449   6.818  0.00  0.00    -0.025 A 
ATOM     18  C14 ZIN A   1      19.124  -0.943   7.073  0.00  0.00    -0.018 A 
ATOM     19  C18 ZIN A   1      18.984   0.906   5.490  0.00  0.00     0.012 A 
ATOM     20  C15 ZIN A   1      19.151  -1.840   5.991  0.00  0.00     0.013 A 
ATOM     21  C16 ZIN A   1      19.095  -1.361   4.718  0.00  0.00     0.001 A 
ATOM     22  C17 ZIN A   1      19.011   0.007   4.468  0.00  0.00     0.001 A 
ENDBRANCH  12  13
ENDBRANCH   2  12
TORSDOF 6
ENDMDL
MODEL 4
REMARK VINA RESULT:      -7.5      2.269      5.483
REMARK  6 active torsions:
REMARK  status: ('A' for Active; 'I' for Inactive)
REMARK    1  A    between atoms: N2_2  and  C3_3 
REMARK    2  A    between atoms: N2_2  and  C12_12 
REMARK    3  A    between atoms: C3_3  and  C4_4 
REMARK    4  A    between atoms: C5_5  and  C6_6 
REMARK    5  A    between atoms: C7_7  and  C8_8 
REMARK    6  A    between atoms: C12_12  and  C13_13 
ROOT
ATOM      1  C1  ZIN A   1      19.199   2.657  16.692  0.00  0.00     0.310 C 
ATOM      2  N2  ZIN A   1      19.008   1.676  15.616  0.00  0.00     0.091 N 
ENDROOT
BRANCH   2   3
ATOM      3  C3  ZIN A   1      18.917   0.314  16.156  0.00  0.00     0.300 C 
BRANCH   3   4
ATOM      4  C4  ZIN A   1      18.603  -0.650  15.040  0.00  0.00     0.012 C 
ATOM      5  C5  ZIN A   1      19.585  -1.135  14.287  0.00  0.00     0.062 C 
BRANCH   5   6
ATOM      6  C6  ZIN A   1      19.287  -2.050  13.225  0.00  0.00    -0.078 C 
ATOM      7  C7  ZIN A   1      19.043  -2.800  12.356  0.00  0.00    -0.093 C 
BRANCH   7   8
ATOM      8  C8  ZIN A   1      18.737  -3.739  11.265  0.00  0.00     0.013 C 
ATOM      9  C9  ZIN A   1      19.936  -4.663  11.036  0.00  0.00     0.028 C 
ATOM     10  C10 ZIN A   1      17.513  -4.577  11.642  0.00  0.00     0.028 C 
ATOM     11  C11 ZIN A   1      18.445  -2.957   9.984  0.00  0.00     0.028 C 
ENDBRANCH   7   8
ENDBRANCH   5   6
ENDBRANCH   3   4
ENDBRANCH   2   3
BRANCH   2  12
ATOM     12  C12 ZIN A   1      17.825   2.004  14.808  0.00  0.00     0.311 C 
BRANCH  12  13
ATOM     13  C13 ZIN A   1      18.262   2.506  13.457  0.00  0.00    -0.019 A 
ATOM     14  C22 ZIN A   1      19.010   3.640  13.356  0.00  0.00     0.010 A 
ATOM     15  C21 ZIN A   1      19.428   4.116  12.115  0.00  0.00     0.002 A 
ATOM     16  C20 ZIN A   1      19.092   3.467  10.966  0.00  0.00     0.012 A 
ATOM     17  C19 ZIN A   1      18.317   2.296  11.030  0.00  0.00    -0.025 A 
ATOM     18  C14 ZIN A   1      17.896   1.809  12.293  0.00  0.00    -0.018 A 
ATOM     19  C18 ZIN A   1      17.951   1.600   9.865  0.00  0.00     0.012 A 
ATOM     20  C15 ZIN A   1      17.121   0.639  12.356  0.00  0.00     0.013 A 
ATOM     21  C16 ZIN A   1      16.784  -0.008  11.207  0.00  0.00     0.001 A 
ATOM     22  C17 ZIN A   1      17.198   0.471   9.966  0.00  0.00     0.001 A 
ENDBRANCH  12  13
ENDBRANCH   2  12
TORSDOF 6
ENDMDL
MODEL 5
REMARK VINA RESULT:      -7.5      2.596      5.699
REMARK  6 active torsions:
REMARK  status: ('A' for Active; 'I' for Inactive)
REMARK    1  A    between atoms: N2_2  and  C3_3 
REMARK    2  A    between atoms: N2_2  and  C12_12 
REMARK    3  A    between atoms: C3_3  and  C4_4 
REMARK    4  A    between atoms: C5_5  and  C6_6 
REMARK    5  A    between atoms: C7_7  and  C8_8 
REMARK    6  A    between atoms: C12_12  and  C13_13 
ROOT
ATOM      1  C1  ZIN A   1      19.139  -2.091   6.172  0.00  0.00     0.310 C 
ATOM      2  N2  ZIN A   1      18.998  -1.254   7.372  0.00  0.00     0.091 N 
ENDROOT
BRANCH   2   3
ATOM      3  C3  ZIN A   1      18.848   0.161   7.012  0.00  0.00     0.300 C 
BRANCH   3   4
ATOM      4  C4  ZIN A   1      18.498   0.959   8.243  0.00  0.00     0.012 C 
ATOM      5  C5  ZIN A   1      19.331   1.894   8.686  0.00  0.00     0.062 C 
BRANCH   5   6
ATOM      6  C6  ZIN A   1      18.999   2.652   9.856  0.00  0.00    -0.078 C 
ATOM      7  C7  ZIN A   1      18.727   3.273  10.813  0.00  0.00    -0.093 C 
BRANCH   7   8
ATOM      8  C8  ZIN A   1      18.387   4.051  12.016  0.00  0.00     0.013 C 
ATOM      9  C9  ZIN A   1      17.901   3.104  13.115  0.00  0.00     0.028 C 
ATOM     10  C10 ZIN A   1      19.627   4.804  12.503  0.00  0.00     0.028 C 
ATOM     11  C11 ZIN A   1      17.280   5.053  11.680  0.00  0.00     0.028 C 
ENDBRANCH   7   8
ENDBRANCH   5   6
ENDBRANCH   3   4
ENDBRANCH   2   3
BRANCH   2  12
ATOM     12  C12 ZIN A   1      17.875  -1.709   8.203  0.00  0.00     0.311 C 
BRANCH  12  13
ATOM     13  C13 ZIN A   1      18.406  -2.388   9.439  0.00  0.00    -0.019 A 
ATOM     14  C22 ZIN A   1      19.118  -3.544   9.333  0.00  0.00     0.010 A 
ATOM     15  C21 ZIN A   1      19.622  -4.182  10.464  0.00  0.00     0.002 A 
ATOM     16  C20 ZIN A   1      19.408  -3.674  11.709  0.00  0.00     0.012 A 
ATOM     17  C19 ZIN A   1      18.673  -2.486  11.859  0.00  0.00    -0.025 A 
ATOM     18  C14 ZIN A   1      18.165  -1.834  10.707  0.00  0.00    -0.018 A 
ATOM     19  C18 ZIN A   1      18.433  -1.932  13.128  0.00  0.00     0.012 A 
ATOM     20  C15 ZIN A   1      17.430  -0.645  10.856  0.00  0.00     0.013 A 
ATOM     21  C16 ZIN A   1      17.215  -0.139  12.102  0.00  0.00     0.001 A 
ATOM     22  C17 ZIN A   1      17.715  -0.780  13.233  0.00  0.00     0.001 A 
ENDBRANCH  12  13
ENDBRANCH   2  12
TORSDOF 6
ENDMDL
MODEL 6
REMARK VINA RESULT:      -7.5      1.908      7.507
REMARK  6 active torsions:
REMARK  status: ('A' for Active; 'I' for Inactive)
REMARK    1  A    between atoms: N2_2  and  C3_3 
REMARK    2  A    between atoms: N2_2  and  C12_12 
REMARK    3  A    between atoms: C3_3  and  C4_4 
REMARK    4  A    between atoms: C5_5  and  C6_6 
REMARK    5  A    between atoms: C7_7  and  C8_8 
REMARK    6  A    between atoms: C12_12  and  C13_13 
ROOT
ATOM      1  C1  ZIN A   1      19.918  -3.239  11.654  0.00  0.00     0.310 C 
ATOM      2  N2  ZIN A   1      19.211  -2.070  11.113  0.00  0.00     0.091 N 
ENDROOT
BRANCH   2   3
ATOM      3  C3  ZIN A   1      17.966  -1.820  11.851  0.00  0.00     0.300 C 
BRANCH   3   4
ATOM      4  C4  ZIN A   1      18.293  -1.367  13.250  0.00  0.00     0.012 C 
ATOM      5  C5  ZIN A   1      17.628  -0.352  13.792  0.00  0.00     0.062 C 
BRANCH   5   6
ATOM      6  C6  ZIN A   1      17.939   0.080  15.122  0.00  0.00    -0.078 C 
ATOM      7  C7  ZIN A   1      18.194   0.433  16.211  0.00  0.00    -0.093 C 
BRANCH   7   8
ATOM      8  C8  ZIN A   1      18.513   0.876  17.579  0.00  0.00     0.013 C 
ATOM      9  C9  ZIN A   1      19.304   2.185  17.519  0.00  0.00     0.028 C 
ATOM     10  C10 ZIN A   1      17.216   1.100  18.358  0.00  0.00     0.028 C 
ATOM     11  C11 ZIN A   1      19.352  -0.195  18.279  0.00  0.00     0.028 C 
ENDBRANCH   7   8
ENDBRANCH   5   6
ENDBRANCH   3   4
ENDBRANCH   2   3
BRANCH   2  12
ATOM     12  C12 ZIN A   1      20.076  -0.882  11.120  0.00  0.00     0.311 C 
BRANCH  12  13
ATOM     13  C13 ZIN A   1      19.625   0.074  10.046  0.00  0.00    -0.019 A 
ATOM     14  C22 ZIN A   1      19.603  -0.321   8.743  0.00  0.00     0.010 A 
ATOM     15  C21 ZIN A   1      19.184   0.547   7.738  0.00  0.00     0.002 A 
ATOM     16  C20 ZIN A   1      18.795   1.819   8.027  0.00  0.00     0.012 A 
ATOM     17  C19 ZIN A   1      18.810   2.265   9.360  0.00  0.00    -0.025 A 
ATOM     18  C14 ZIN A   1      19.231   1.379  10.384  0.00  0.00    -0.018 A 
ATOM     19  C18 ZIN A   1      18.416   3.571   9.697  0.00  0.00     0.012 A 
ATOM     20  C15 ZIN A   1      19.247   1.825  11.716  0.00  0.00     0.013 A 
ATOM     21  C16 ZIN A   1      18.860   3.098  12.005  0.00  0.00     0.001 A 
ATOM     22  C17 ZIN A   1      18.446   3.968  10.999  0.00  0.00     0.001 A 
ENDBRANCH  12  13
ENDBRANCH   2  12
TORSDOF 6
ENDMDL
MODEL 7
REMARK VINA RESULT:      -7.4      2.677      7.997
REMARK  6 active torsions:
REMARK  status: ('A' for Active; 'I' for Inactive)
REMARK    1  A    between atoms: N2_2  and  C3_3 
REMARK    2  A    between atoms: N2_2  and  C12_12 
REMARK    3  A    between atoms: C3_3  and  C4_4 
REMARK    4  A    between atoms: C5_5  and  C6_6 
REMARK    5  A    between atoms: C7_7  and  C8_8 
REMARK    6  A    between atoms: C12_12  and  C13_13 
ROOT
ATOM      1  C1  ZIN A   1      18.059  -5.143   6.938  0.00  0.00     0.310 C 
ATOM      2  N2  ZIN A   1      18.086  -4.107   7.980  0.00  0.00     0.091 N 
ENDROOT
BRANCH   2   3
ATOM      3  C3  ZIN A   1      17.846  -4.690   9.307  0.00  0.00     0.300 C 
BRANCH   3   4
ATOM      4  C4  ZIN A   1      18.331  -3.736  10.369  0.00  0.00     0.012 C 
ATOM      5  C5  ZIN A   1      17.454  -3.059  11.102  0.00  0.00     0.062 C 
BRANCH   5   6
ATOM      6  C6  ZIN A   1      17.914  -2.152  12.112  0.00  0.00    -0.078 C 
ATOM      7  C7  ZIN A   1      18.290  -1.410  12.939  0.00  0.00    -0.093 C 
BRANCH   7   8
ATOM      8  C8  ZIN A   1      18.763  -0.478  13.976  0.00  0.00     0.013 C 
ATOM      9  C9  ZIN A   1      19.156  -1.266  15.228  0.00  0.00     0.028 C 
ATOM     10  C10 ZIN A   1      19.980   0.289  13.455  0.00  0.00     0.028 C 
ATOM     11  C11 ZIN A   1      17.648   0.508  14.324  0.00  0.00     0.028 C 
ENDBRANCH   7   8
ENDBRANCH   5   6
ENDBRANCH   3   4
ENDBRANCH   2   3
BRANCH   2  12
ATOM     12  C12 ZIN A   1      19.353  -3.364   7.952  0.00  0.00     0.311 C 
BRANCH  12  13
ATOM     13  C13 ZIN A   1      19.196  -2.136   7.092  0.00  0.00    -0.019 A 
ATOM     14  C22 ZIN A   1      19.043  -2.260   5.744  0.00  0.00     0.010 A 
ATOM     15  C21 ZIN A   1      18.891  -1.137   4.934  0.00  0.00     0.002 A 
ATOM     16  C20 ZIN A   1      18.902   0.117   5.464  0.00  0.00     0.012 A 
ATOM     17  C19 ZIN A   1      19.064   0.284   6.850  0.00  0.00    -0.025 A 
ATOM     18  C14 ZIN A   1      19.213  -0.859   7.675  0.00  0.00    -0.018 A 
ATOM     19  C18 ZIN A   1      19.081   1.563   7.434  0.00  0.00     0.012 A 
ATOM     20  C15 ZIN A   1      19.375  -0.692   9.061  0.00  0.00     0.013 A 
ATOM     21  C16 ZIN A   1      19.388   0.562   9.591  0.00  0.00     0.001 A 
ATOM     22  C17 ZIN A   1      19.241   1.686   8.780  0.00  0.00     0.001 A 
ENDBRANCH  12  13
ENDBRANCH   2  12
TORSDOF 6
ENDMDL
MODEL 8
REMARK VINA RESULT:      -7.4      2.642      5.942
REMARK  6 active torsions:
REMARK  status: ('A' for Active; 'I' for Inactive)
REMARK    1  A    between atoms: N2_2  and  C3_3 
REMARK    2  A    between atoms: N2_2  and  C12_12 
REMARK    3  A    between atoms: C3_3  and  C4_4 
REMARK    4  A    between atoms: C5_5  and  C6_6 
REMARK    5  A    between atoms: C7_7  and  C8_8 
REMARK    6  A    between atoms: C12_12  and  C13_13 
ROOT
ATOM      1  C1  ZIN A   1      17.440   0.727  14.948  0.00  0.00     0.310 C 
ATOM      2  N2  ZIN A   1      18.230   0.330  13.775  0.00  0.00     0.091 N 
ENDROOT
BRANCH   2   3
ATOM      3  C3  ZIN A   1      18.913  -0.949  14.009  0.00  0.00     0.300 C 
BRANCH   3   4
ATOM      4  C4  ZIN A   1      18.565  -1.914  12.904  0.00  0.00     0.012 C 
ATOM      5  C5  ZIN A   1      19.523  -2.625  12.318  0.00  0.00     0.062 C 
BRANCH   5   6
ATOM      6  C6  ZIN A   1      19.193  -3.542  11.268  0.00  0.00    -0.078 C 
ATOM      7  C7  ZIN A   1      18.923  -4.293  10.408  0.00  0.00    -0.093 C 
BRANCH   7   8
ATOM      8  C8  ZIN A   1      18.584  -5.236   9.329  0.00  0.00     0.013 C 
ATOM      9  C9  ZIN A   1      18.070  -4.458   8.115  0.00  0.00     0.028 C 
ATOM     10  C10 ZIN A   1      19.831  -6.029   8.935  0.00  0.00     0.028 C 
ATOM     11  C11 ZIN A   1      17.498  -6.198   9.815  0.00  0.00     0.028 C 
ENDBRANCH   7   8
ENDBRANCH   5   6
ENDBRANCH   3   4
ENDBRANCH   2   3
BRANCH   2  12
ATOM     12  C12 ZIN A   1      17.390   0.266  12.570  0.00  0.00     0.311 C 
BRANCH  12  13
ATOM     13  C13 ZIN A   1      17.752   1.400  11.646  0.00  0.00    -0.019 A 
ATOM     14  C22 ZIN A   1      17.654   2.690  12.073  0.00  0.00     0.010 A 
ATOM     15  C21 ZIN A   1      17.989   3.750  11.234  0.00  0.00     0.002 A 
ATOM     16  C20 ZIN A   1      18.414   3.529   9.959  0.00  0.00     0.012 A 
ATOM     17  C19 ZIN A   1      18.521   2.211   9.481  0.00  0.00    -0.025 A 
ATOM     18  C14 ZIN A   1      18.186   1.132  10.337  0.00  0.00    -0.018 A 
ATOM     19  C18 ZIN A   1      18.956   1.944   8.172  0.00  0.00     0.012 A 
ATOM     20  C15 ZIN A   1      18.294  -0.185   9.859  0.00  0.00     0.013 A 
ATOM     21  C16 ZIN A   1      18.717  -0.406   8.584  0.00  0.00     0.001 A 
ATOM     22  C17 ZIN A   1      19.047   0.655   7.743  0.00  0.00     0.001 A 
ENDBRANCH  12  13
ENDBRANCH   2  12
TORSDOF 6
ENDMDL
MODEL 9
REMARK VINA RESULT:      -7.3      3.124      7.179
REMARK  6 active torsions:
REMARK  status: ('A' for Active; 'I' for Inactive)
REMARK    1  A    between atoms: N2_2  and  C3_3 
REMARK    2  A    between atoms: N2_2  and  C12_12 
REMARK    3  A    between atoms: C3_3  and  C4_4 
REMARK    4  A    between atoms: C5_5  and  C6_6 
REMARK    5  A    between atoms: C7_7  and  C8_8 
REMARK    6  A    between atoms: C12_12  and  C13_13 
ROOT
ATOM      1  C1  ZIN A   1      19.175  -4.174  11.367  0.00  0.00     0.310 C 
ATOM      2  N2  ZIN A   1      18.470  -3.021  10.791  0.00  0.00     0.091 N 
ENDROOT
BRANCH   2   3
ATOM      3  C3  ZIN A   1      17.695  -2.312  11.818  0.00  0.00     0.300 C 
BRANCH   3   4
ATOM      4  C4  ZIN A   1      18.022  -0.842  11.769  0.00  0.00     0.012 C 
ATOM      5  C5  ZIN A   1      17.053   0.048  11.586  0.00  0.00     0.062 C 
BRANCH   5   6
ATOM      6  C6  ZIN A   1      17.364   1.446  11.540  0.00  0.00    -0.078 C 
ATOM      7  C7  ZIN A   1      17.618   2.591  11.501  0.00  0.00    -0.093 C 
BRANCH   7   8
ATOM      8  C8  ZIN A   1      17.939   4.027  11.453  0.00  0.00     0.013 C 
ATOM      9  C9  ZIN A   1      16.856   4.816  12.193  0.00  0.00     0.028 C 
ATOM     10  C10 ZIN A   1      19.293   4.270  12.124  0.00  0.00     0.028 C 
ATOM     11  C11 ZIN A   1      18.000   4.488   9.996  0.00  0.00     0.028 C 
ENDBRANCH   7   8
ENDBRANCH   5   6
ENDBRANCH   3   4
ENDBRANCH   2   3
BRANCH   2  12
ATOM     12  C12 ZIN A   1      19.408  -2.112  10.118  0.00  0.00     0.311 C 
BRANCH  12  13
ATOM     13  C13 ZIN A   1      19.095  -2.068   8.645  0.00  0.00    -0.019 A 
ATOM     14  C22 ZIN A   1      18.887  -3.224   7.954  0.00  0.00     0.010 A 
ATOM     15  C21 ZIN A   1      18.591  -3.203   6.593  0.00  0.00     0.002 A 
ATOM     16  C20 ZIN A   1      18.512  -2.027   5.911  0.00  0.00     0.012 A 
ATOM     17  C19 ZIN A   1      18.727  -0.814   6.588  0.00  0.00    -0.025 A 
ATOM     18  C14 ZIN A   1      19.022  -0.836   7.975  0.00  0.00    -0.018 A 
ATOM     19  C18 ZIN A   1      18.654   0.419   5.918  0.00  0.00     0.012 A 
ATOM     20  C15 ZIN A   1      19.237   0.377   8.652  0.00  0.00     0.013 A 
ATOM     21  C16 ZIN A   1      19.160   1.552   7.969  0.00  0.00     0.001 A 
ATOM     22  C17 ZIN A   1      18.869   1.573   6.607  0.00  0.00     0.001 A 
ENDBRANCH  12  13
ENDBRANCH   2  12
TORSDOF 6
ENDMDL
