MODEL 1
REMARK VINA RESULT:      -5.0      0.000      0.000
REMARK  14 active torsions:
REMARK  status: ('A' for Active; 'I' for Inactive)
REMARK    1  A    between atoms: C2_2  and  C3_3 
REMARK    2  A    between atoms: C3_3  and  C4_4 
REMARK    3  A    between atoms: C4_4  and  C5_5 
REMARK    4  A    between atoms: C5_5  and  C6_6 
REMARK    5  A    between atoms: C6_6  and  C7_7 
REMARK    6  A    between atoms: C7_7  and  C8_8 
REMARK    7  A    between atoms: C8_8  and  C9_9 
REMARK    8  A    between atoms: C9_9  and  C10_10 
REMARK    9  A    between atoms: C10_10  and  C11_11 
REMARK   10  A    between atoms: C11_11  and  C12_12 
REMARK   11  A    between atoms: C12_12  and  O13_13 
REMARK   12  A    between atoms: O13_13  and  C14_14 
REMARK   13  A    between atoms: C14_14  and  C15_15 
REMARK   14  A    between atoms: C15_15  and  O16_16 
ROOT
ATOM      1  C9  ZIN A   1      19.300  -1.239  15.079  0.00  0.00     0.000 C 
ENDROOT
BRANCH   1   2
ATOM      2  C8  ZIN A   1      18.016  -0.678  14.466  0.00  0.00     0.000 C 
BRANCH   2   3
ATOM      3  C7  ZIN A   1      18.132  -0.687  12.940  0.00  0.00     0.000 C 
BRANCH   3   4
ATOM      4  C6  ZIN A   1      16.985   0.128  12.338  0.00  0.00     0.000 C 
BRANCH   4   5
ATOM      5  C5  ZIN A   1      17.495   1.518  11.953  0.00  0.00     0.000 C 
BRANCH   5   6
ATOM      6  C4  ZIN A   1      17.690   1.588  10.437  0.00  0.00     0.000 C 
BRANCH   6   7
ATOM      7  C3  ZIN A   1      18.708   2.679  10.103  0.00  0.00    -0.000 C 
BRANCH   7   8
ATOM      8  C2  ZIN A   1      18.441   3.910  10.970  0.00  0.00    -0.005 C 
ATOM      9  C1  ZIN A   1      17.488   4.856  10.236  0.00  0.00     0.005 C 
ENDBRANCH   7   8
ENDBRANCH   6   7
ENDBRANCH   5   6
ENDBRANCH   4   5
ENDBRANCH   3   4
ENDBRANCH   2   3
ENDBRANCH   1   2
BRANCH   1  10
ATOM     10  C10 ZIN A   1      19.052  -1.601  16.545  0.00  0.00     0.002 C 
BRANCH  10  11
ATOM     11  C11 ZIN A   1      18.290  -0.464  17.229  0.00  0.00     0.026 C 
BRANCH  11  12
ATOM     12  C12 ZIN A   1      19.096   0.040  18.427  0.00  0.00     0.167 C 
BRANCH  12  13
ATOM     13  O13 ZIN A   1      19.771   1.250  18.073  0.00  0.00    -0.389 OA
BRANCH  13  14
ATOM     14  C14 ZIN A   1      19.108   2.009  17.060  0.00  0.00     0.193 C 
BRANCH  14  15
ATOM     15  C15 ZIN A   1      19.415   3.495  17.255  0.00  0.00     0.190 C 
BRANCH  15  16
ATOM     16  O16 ZIN A   1      20.542   3.858  16.457  0.00  0.00    -0.399 OA
ATOM     17  H46 ZIN A   1      21.273   3.225  16.496  0.00  0.00     0.209 HD
ENDBRANCH  15  16
ENDBRANCH  14  15
ENDBRANCH  13  14
ENDBRANCH  12  13
ENDBRANCH  11  12
ENDBRANCH  10  11
ENDBRANCH   1  10
TORSDOF 14
ENDMDL
MODEL 2
REMARK VINA RESULT:      -5.0      1.029      1.420
REMARK  14 active torsions:
REMARK  status: ('A' for Active; 'I' for Inactive)
REMARK    1  A    between atoms: C2_2  and  C3_3 
REMARK    2  A    between atoms: C3_3  and  C4_4 
REMARK    3  A    between atoms: C4_4  and  C5_5 
REMARK    4  A    between atoms: C5_5  and  C6_6 
REMARK    5  A    between atoms: C6_6  and  C7_7 
REMARK    6  A    between atoms: C7_7  and  C8_8 
REMARK    7  A    between atoms: C8_8  and  C9_9 
REMARK    8  A    between atoms: C9_9  and  C10_10 
REMARK    9  A    between atoms: C10_10  and  C11_11 
REMARK   10  A    between atoms: C11_11  and  C12_12 
REMARK   11  A    between atoms: C12_12  and  O13_13 
REMARK   12  A    between atoms: O13_13  and  C14_14 
REMARK   13  A    between atoms: C14_14  and  C15_15 
REMARK   14  A    between atoms: C15_15  and  O16_16 
ROOT
ATOM      1  C9  ZIN A   1      19.477  -1.286  15.035  0.00  0.00     0.000 C 
ENDROOT
BRANCH   1   2
ATOM      2  C8  ZIN A   1      18.272  -1.060  14.120  0.00  0.00     0.000 C 
BRANCH   2   3
ATOM      3  C7  ZIN A   1      18.655  -1.401  12.679  0.00  0.00     0.000 C 
BRANCH   3   4
ATOM      4  C6  ZIN A   1      17.413  -1.318  11.788  0.00  0.00     0.000 C 
BRANCH   4   5
ATOM      5  C5  ZIN A   1      16.944   0.136  11.704  0.00  0.00     0.000 C 
BRANCH   5   6
ATOM      6  C4  ZIN A   1      17.323   0.716  10.340  0.00  0.00     0.000 C 
BRANCH   6   7
ATOM      7  C3  ZIN A   1      17.811   2.155  10.514  0.00  0.00    -0.000 C 
BRANCH   7   8
ATOM      8  C2  ZIN A   1      18.737   2.525   9.354  0.00  0.00    -0.005 C 
ATOM      9  C1  ZIN A   1      19.216   1.250   8.657  0.00  0.00     0.005 C 
ENDBRANCH   7   8
ENDBRANCH   6   7
ENDBRANCH   5   6
ENDBRANCH   4   5
ENDBRANCH   3   4
ENDBRANCH   2   3
ENDBRANCH   1   2
BRANCH   1  10
ATOM     10  C10 ZIN A   1      18.997  -1.470  16.477  0.00  0.00     0.002 C 
BRANCH  10  11
ATOM     11  C11 ZIN A   1      18.209  -0.234  16.913  0.00  0.00     0.026 C 
BRANCH  11  12
ATOM     12  C12 ZIN A   1      18.844   0.356  18.174  0.00  0.00     0.167 C 
BRANCH  12  13
ATOM     13  O13 ZIN A   1      19.723   1.422  17.810  0.00  0.00    -0.389 OA
BRANCH  13  14
ATOM     14  C14 ZIN A   1      19.277   2.185  16.686  0.00  0.00     0.193 C 
BRANCH  14  15
ATOM     15  C15 ZIN A   1      19.463   3.676  16.977  0.00  0.00     0.190 C 
BRANCH  15  16
ATOM     16  O16 ZIN A   1      20.791   4.068  16.629  0.00  0.00    -0.399 OA
ATOM     17  H46 ZIN A   1      21.327   4.357  17.381  0.00  0.00     0.209 HD
ENDBRANCH  15  16
ENDBRANCH  14  15
ENDBRANCH  13  14
ENDBRANCH  12  13
ENDBRANCH  11  12
ENDBRANCH  10  11
ENDBRANCH   1  10
TORSDOF 14
ENDMDL
MODEL 3
REMARK VINA RESULT:      -4.9      4.836      8.465
REMARK  14 active torsions:
REMARK  status: ('A' for Active; 'I' for Inactive)
REMARK    1  A    between atoms: C2_2  and  C3_3 
REMARK    2  A    between atoms: C3_3  and  C4_4 
REMARK    3  A    between atoms: C4_4  and  C5_5 
REMARK    4  A    between atoms: C5_5  and  C6_6 
REMARK    5  A    between atoms: C6_6  and  C7_7 
REMARK    6  A    between atoms: C7_7  and  C8_8 
REMARK    7  A    between atoms: C8_8  and  C9_9 
REMARK    8  A    between atoms: C9_9  and  C10_10 
REMARK    9  A    between atoms: C10_10  and  C11_11 
REMARK   10  A    between atoms: C11_11  and  C12_12 
REMARK   11  A    between atoms: C12_12  and  O13_13 
REMARK   12  A    between atoms: O13_13  and  C14_14 
REMARK   13  A    between atoms: C14_14  and  C15_15 
REMARK   14  A    between atoms: C15_15  and  O16_16 
ROOT
ATOM      1  C9  ZIN A   1      17.741   1.405  10.209  0.00  0.00     0.000 C 
ENDROOT
BRANCH   1   2
ATOM      2  C8  ZIN A   1      18.435   0.074  10.505  0.00  0.00     0.000 C 
BRANCH   2   3
ATOM      3  C7  ZIN A   1      17.415  -0.919  11.067  0.00  0.00     0.000 C 
BRANCH   3   4
ATOM      4  C6  ZIN A   1      17.500  -0.926  12.595  0.00  0.00     0.000 C 
BRANCH   4   5
ATOM      5  C5  ZIN A   1      18.711  -1.752  13.034  0.00  0.00     0.000 C 
BRANCH   5   6
ATOM      6  C4  ZIN A   1      19.156  -1.304  14.428  0.00  0.00     0.000 C 
BRANCH   6   7
ATOM      7  C3  ZIN A   1      18.075  -0.418  15.049  0.00  0.00    -0.000 C 
BRANCH   7   8
ATOM      8  C2  ZIN A   1      17.654  -0.998  16.400  0.00  0.00    -0.005 C 
ATOM      9  C1  ZIN A   1      17.407   0.143  17.390  0.00  0.00     0.005 C 
ENDBRANCH   7   8
ENDBRANCH   6   7
ENDBRANCH   5   6
ENDBRANCH   4   5
ENDBRANCH   3   4
ENDBRANCH   2   3
ENDBRANCH   1   2
BRANCH   1  10
ATOM     10  C10 ZIN A   1      18.619   2.243   9.278  0.00  0.00     0.002 C 
BRANCH  10  11
ATOM     11  C11 ZIN A   1      19.496   1.317   8.433  0.00  0.00     0.026 C 
BRANCH  11  12
ATOM     12  C12 ZIN A   1      19.013   1.343   6.981  0.00  0.00     0.167 C 
BRANCH  12  13
ATOM     13  O13 ZIN A   1      17.960   0.391   6.813  0.00  0.00    -0.389 OA
BRANCH  13  14
ATOM     14  C14 ZIN A   1      17.947  -0.241   5.531  0.00  0.00     0.193 C 
BRANCH  14  15
ATOM     15  C15 ZIN A   1      19.296  -0.024   4.844  0.00  0.00     0.190 C 
BRANCH  15  16
ATOM     16  O16 ZIN A   1      19.850  -1.286   4.470  0.00  0.00    -0.399 OA
ATOM     17  H46 ZIN A   1      19.837  -1.455   3.517  0.00  0.00     0.209 HD
ENDBRANCH  15  16
ENDBRANCH  14  15
ENDBRANCH  13  14
ENDBRANCH  12  13
ENDBRANCH  11  12
ENDBRANCH  10  11
ENDBRANCH   1  10
TORSDOF 14
ENDMDL
MODEL 4
REMARK VINA RESULT:      -4.9      2.802      4.626
REMARK  14 active torsions:
REMARK  status: ('A' for Active; 'I' for Inactive)
REMARK    1  A    between atoms: C2_2  and  C3_3 
REMARK    2  A    between atoms: C3_3  and  C4_4 
REMARK    3  A    between atoms: C4_4  and  C5_5 
REMARK    4  A    between atoms: C5_5  and  C6_6 
REMARK    5  A    between atoms: C6_6  and  C7_7 
REMARK    6  A    between atoms: C7_7  and  C8_8 
REMARK    7  A    between atoms: C8_8  and  C9_9 
REMARK    8  A    between atoms: C9_9  and  C10_10 
REMARK    9  A    between atoms: C10_10  and  C11_11 
REMARK   10  A    between atoms: C11_11  and  C12_12 
REMARK   11  A    between atoms: C12_12  and  O13_13 
REMARK   12  A    between atoms: O13_13  and  C14_14 
REMARK   13  A    between atoms: C14_14  and  C15_15 
REMARK   14  A    between atoms: C15_15  and  O16_16 
ROOT
ATOM      1  C9  ZIN A   1      16.745   0.119  11.261  0.00  0.00     0.000 C 
ENDROOT
BRANCH   1   2
ATOM      2  C8  ZIN A   1      17.607   1.329  11.624  0.00  0.00     0.000 C 
BRANCH   2   3
ATOM      3  C7  ZIN A   1      17.671   2.287  10.432  0.00  0.00     0.000 C 
BRANCH   3   4
ATOM      4  C6  ZIN A   1      19.116   2.392   9.940  0.00  0.00     0.000 C 
BRANCH   4   5
ATOM      5  C5  ZIN A   1      19.191   1.935   8.481  0.00  0.00     0.000 C 
BRANCH   5   6
ATOM      6  C4  ZIN A   1      19.259   0.407   8.428  0.00  0.00     0.000 C 
BRANCH   6   7
ATOM      7  C3  ZIN A   1      18.282  -0.111   7.372  0.00  0.00    -0.000 C 
BRANCH   7   8
ATOM      8  C2  ZIN A   1      18.349   0.782   6.132  0.00  0.00    -0.005 C 
ATOM      9  C1  ZIN A   1      19.253   0.132   5.082  0.00  0.00     0.005 C 
ENDBRANCH   7   8
ENDBRANCH   6   7
ENDBRANCH   5   6
ENDBRANCH   4   5
ENDBRANCH   3   4
ENDBRANCH   2   3
ENDBRANCH   1   2
BRANCH   1  10
ATOM     10  C10 ZIN A   1      17.573  -1.160  11.403  0.00  0.00     0.002 C 
BRANCH  10  11
ATOM     11  C11 ZIN A   1      18.953  -0.814  11.965  0.00  0.00     0.026 C 
BRANCH  11  12
ATOM     12  C12 ZIN A   1      19.226  -1.665  13.207  0.00  0.00     0.167 C 
BRANCH  12  13
ATOM     13  O13 ZIN A   1      18.251  -1.370  14.210  0.00  0.00    -0.389 OA
BRANCH  13  14
ATOM     14  C14 ZIN A   1      18.799  -0.810  15.405  0.00  0.00     0.193 C 
BRANCH  14  15
ATOM     15  C15 ZIN A   1      18.747   0.717  15.323  0.00  0.00     0.190 C 
BRANCH  15  16
ATOM     16  O16 ZIN A   1      17.386   1.146  15.279  0.00  0.00    -0.399 OA
ATOM     17  H46 ZIN A   1      17.183   1.738  14.541  0.00  0.00     0.209 HD
ENDBRANCH  15  16
ENDBRANCH  14  15
ENDBRANCH  13  14
ENDBRANCH  12  13
ENDBRANCH  11  12
ENDBRANCH  10  11
ENDBRANCH   1  10
TORSDOF 14
ENDMDL
MODEL 5
REMARK VINA RESULT:      -4.9      4.479      6.885
REMARK  14 active torsions:
REMARK  status: ('A' for Active; 'I' for Inactive)
REMARK    1  A    between atoms: C2_2  and  C3_3 
REMARK    2  A    between atoms: C3_3  and  C4_4 
REMARK    3  A    between atoms: C4_4  and  C5_5 
REMARK    4  A    between atoms: C5_5  and  C6_6 
REMARK    5  A    between atoms: C6_6  and  C7_7 
REMARK    6  A    between atoms: C7_7  and  C8_8 
REMARK    7  A    between atoms: C8_8  and  C9_9 
REMARK    8  A    between atoms: C9_9  and  C10_10 
REMARK    9  A    between atoms: C10_10  and  C11_11 
REMARK   10  A    between atoms: C11_11  and  C12_12 
REMARK   11  A    between atoms: C12_12  and  O13_13 
REMARK   12  A    between atoms: O13_13  and  C14_14 
REMARK   13  A    between atoms: C14_14  and  C15_15 
REMARK   14  A    between atoms: C15_15  and  O16_16 
ROOT
ATOM      1  C9  ZIN A   1      19.632   1.127   9.002  0.00  0.00     0.000 C 
ENDROOT
BRANCH   1   2
ATOM      2  C8  ZIN A   1      19.066   0.009   8.125  0.00  0.00     0.000 C 
BRANCH   2   3
ATOM      3  C7  ZIN A   1      17.554   0.192   7.978  0.00  0.00     0.000 C 
BRANCH   3   4
ATOM      4  C6  ZIN A   1      17.166   0.055   6.504  0.00  0.00     0.000 C 
BRANCH   4   5
ATOM      5  C5  ZIN A   1      18.377   0.381   5.626  0.00  0.00     0.000 C 
BRANCH   5   6
ATOM      6  C4  ZIN A   1      18.279  -0.396   4.312  0.00  0.00     0.000 C 
BRANCH   6   7
ATOM      7  C3  ZIN A   1      17.884  -1.844   4.604  0.00  0.00    -0.000 C 
BRANCH   7   8
ATOM      8  C2  ZIN A   1      19.067  -2.580   5.234  0.00  0.00    -0.005 C 
ATOM      9  C1  ZIN A   1      18.725  -4.064   5.382  0.00  0.00     0.005 C 
ENDBRANCH   7   8
ENDBRANCH   6   7
ENDBRANCH   5   6
ENDBRANCH   4   5
ENDBRANCH   3   4
ENDBRANCH   2   3
ENDBRANCH   1   2
BRANCH   1  10
ATOM     10  C10 ZIN A   1      18.708   2.345   8.938  0.00  0.00     0.002 C 
BRANCH  10  11
ATOM     11  C11 ZIN A   1      18.621   2.993  10.321  0.00  0.00     0.026 C 
BRANCH  11  12
ATOM     12  C12 ZIN A   1      18.375   1.912  11.376  0.00  0.00     0.167 C 
BRANCH  12  13
ATOM     13  O13 ZIN A   1      19.114   2.224  12.559  0.00  0.00    -0.389 OA
BRANCH  13  14
ATOM     14  C14 ZIN A   1      19.535   1.078  13.300  0.00  0.00     0.193 C 
BRANCH  14  15
ATOM     15  C15 ZIN A   1      20.353   0.157  12.391  0.00  0.00     0.190 C 
BRANCH  15  16
ATOM     16  O16 ZIN A   1      21.674   0.678  12.249  0.00  0.00    -0.399 OA
ATOM     17  H46 ZIN A   1      21.937   1.285  12.955  0.00  0.00     0.209 HD
ENDBRANCH  15  16
ENDBRANCH  14  15
ENDBRANCH  13  14
ENDBRANCH  12  13
ENDBRANCH  11  12
ENDBRANCH  10  11
ENDBRANCH   1  10
TORSDOF 14
ENDMDL
MODEL 6
REMARK VINA RESULT:      -4.8      1.704      2.832
REMARK  14 active torsions:
REMARK  status: ('A' for Active; 'I' for Inactive)
REMARK    1  A    between atoms: C2_2  and  C3_3 
REMARK    2  A    between atoms: C3_3  and  C4_4 
REMARK    3  A    between atoms: C4_4  and  C5_5 
REMARK    4  A    between atoms: C5_5  and  C6_6 
REMARK    5  A    between atoms: C6_6  and  C7_7 
REMARK    6  A    between atoms: C7_7  and  C8_8 
REMARK    7  A    between atoms: C8_8  and  C9_9 
REMARK    8  A    between atoms: C9_9  and  C10_10 
REMARK    9  A    between atoms: C10_10  and  C11_11 
REMARK   10  A    between atoms: C11_11  and  C12_12 
REMARK   11  A    between atoms: C12_12  and  O13_13 
REMARK   12  A    between atoms: O13_13  and  C14_14 
REMARK   13  A    between atoms: C14_14  and  C15_15 
REMARK   14  A    between atoms: C15_15  and  O16_16 
ROOT
ATOM      1  C9  ZIN A   1      18.262  -0.287  12.604  0.00  0.00     0.000 C 
ENDROOT
BRANCH   1   2
ATOM      2  C8  ZIN A   1      19.396  -0.302  11.578  0.00  0.00     0.000 C 
BRANCH   2   3
ATOM      3  C7  ZIN A   1      18.838  -0.686  10.206  0.00  0.00     0.000 C 
BRANCH   3   4
ATOM      4  C6  ZIN A   1      17.917   0.426   9.700  0.00  0.00     0.000 C 
BRANCH   4   5
ATOM      5  C5  ZIN A   1      18.663   1.277   8.670  0.00  0.00     0.000 C 
BRANCH   5   6
ATOM      6  C4  ZIN A   1      18.803   2.707   9.194  0.00  0.00     0.000 C 
BRANCH   6   7
ATOM      7  C3  ZIN A   1      17.858   2.912  10.379  0.00  0.00    -0.000 C 
BRANCH   7   8
ATOM      8  C2  ZIN A   1      18.464   3.931  11.345  0.00  0.00    -0.005 C 
ATOM      9  C1  ZIN A   1      19.852   3.458  11.782  0.00  0.00     0.005 C 
ENDBRANCH   7   8
ENDBRANCH   6   7
ENDBRANCH   5   6
ENDBRANCH   4   5
ENDBRANCH   3   4
ENDBRANCH   2   3
ENDBRANCH   1   2
BRANCH   1  10
ATOM     10  C10 ZIN A   1      18.399  -1.493  13.535  0.00  0.00     0.002 C 
BRANCH  10  11
ATOM     11  C11 ZIN A   1      19.453  -1.196  14.603  0.00  0.00     0.026 C 
BRANCH  11  12
ATOM     12  C12 ZIN A   1      18.827  -1.340  15.991  0.00  0.00     0.167 C 
BRANCH  12  13
ATOM     13  O13 ZIN A   1      17.909  -0.266  16.213  0.00  0.00    -0.389 OA
BRANCH  13  14
ATOM     14  C14 ZIN A   1      17.838   0.166  17.573  0.00  0.00     0.193 C 
BRANCH  14  15
ATOM     15  C15 ZIN A   1      19.172  -0.116  18.267  0.00  0.00     0.190 C 
BRANCH  15  16
ATOM     16  O16 ZIN A   1      19.880   1.110  18.454  0.00  0.00    -0.399 OA
ATOM     17  H46 ZIN A   1      20.755   1.002  18.855  0.00  0.00     0.209 HD
ENDBRANCH  15  16
ENDBRANCH  14  15
ENDBRANCH  13  14
ENDBRANCH  12  13
ENDBRANCH  11  12
ENDBRANCH  10  11
ENDBRANCH   1  10
TORSDOF 14
ENDMDL
MODEL 7
REMARK VINA RESULT:      -4.8      1.524      3.068
REMARK  14 active torsions:
REMARK  status: ('A' for Active; 'I' for Inactive)
REMARK    1  A    between atoms: C2_2  and  C3_3 
REMARK    2  A    between atoms: C3_3  and  C4_4 
REMARK    3  A    between atoms: C4_4  and  C5_5 
REMARK    4  A    between atoms: C5_5  and  C6_6 
REMARK    5  A    between atoms: C6_6  and  C7_7 
REMARK    6  A    between atoms: C7_7  and  C8_8 
REMARK    7  A    between atoms: C8_8  and  C9_9 
REMARK    8  A    between atoms: C9_9  and  C10_10 
REMARK    9  A    between atoms: C10_10  and  C11_11 
REMARK   10  A    between atoms: C11_11  and  C12_12 
REMARK   11  A    between atoms: C12_12  and  O13_13 
REMARK   12  A    between atoms: O13_13  and  C14_14 
REMARK   13  A    between atoms: C14_14  and  C15_15 
REMARK   14  A    between atoms: C15_15  and  O16_16 
ROOT
ATOM      1  C9  ZIN A   1      17.714   0.804  14.118  0.00  0.00     0.000 C 
ENDROOT
BRANCH   1   2
ATOM      2  C8  ZIN A   1      18.680   1.990  14.099  0.00  0.00     0.000 C 
BRANCH   2   3
ATOM      3  C7  ZIN A   1      18.066   3.136  13.292  0.00  0.00     0.000 C 
BRANCH   3   4
ATOM      4  C6  ZIN A   1      19.181   3.940  12.620  0.00  0.00     0.000 C 
BRANCH   4   5
ATOM      5  C5  ZIN A   1      19.672   3.192  11.379  0.00  0.00     0.000 C 
BRANCH   5   6
ATOM      6  C4  ZIN A   1      18.560   3.163  10.328  0.00  0.00     0.000 C 
BRANCH   6   7
ATOM      7  C3  ZIN A   1      18.730   1.931   9.439  0.00  0.00    -0.000 C 
BRANCH   7   8
ATOM      8  C2  ZIN A   1      17.751   0.842   9.883  0.00  0.00    -0.005 C 
ATOM      9  C1  ZIN A   1      17.363  -0.017   8.678  0.00  0.00     0.005 C 
ENDBRANCH   7   8
ENDBRANCH   6   7
ENDBRANCH   5   6
ENDBRANCH   4   5
ENDBRANCH   3   4
ENDBRANCH   2   3
ENDBRANCH   1   2
BRANCH   1  10
ATOM     10  C10 ZIN A   1      18.416  -0.435  13.558  0.00  0.00     0.002 C 
BRANCH  10  11
ATOM     11  C11 ZIN A   1      19.158  -1.154  14.686  0.00  0.00     0.026 C 
BRANCH  11  12
ATOM     12  C12 ZIN A   1      18.261  -1.224  15.923  0.00  0.00     0.167 C 
BRANCH  12  13
ATOM     13  O13 ZIN A   1      18.998  -0.800  17.072  0.00  0.00    -0.389 OA
BRANCH  13  14
ATOM     14  C14 ZIN A   1      18.363   0.241  17.818  0.00  0.00     0.193 C 
BRANCH  14  15
ATOM     15  C15 ZIN A   1      19.165   1.535  17.670  0.00  0.00     0.190 C 
BRANCH  15  16
ATOM     16  O16 ZIN A   1      19.682   1.924  18.943  0.00  0.00    -0.399 OA
ATOM     17  H46 ZIN A   1      20.646   1.865  19.011  0.00  0.00     0.209 HD
ENDBRANCH  15  16
ENDBRANCH  14  15
ENDBRANCH  13  14
ENDBRANCH  12  13
ENDBRANCH  11  12
ENDBRANCH  10  11
ENDBRANCH   1  10
TORSDOF 14
ENDMDL
MODEL 8
REMARK VINA RESULT:      -4.8      5.336      8.337
REMARK  14 active torsions:
REMARK  status: ('A' for Active; 'I' for Inactive)
REMARK    1  A    between atoms: C2_2  and  C3_3 
REMARK    2  A    between atoms: C3_3  and  C4_4 
REMARK    3  A    between atoms: C4_4  and  C5_5 
REMARK    4  A    between atoms: C5_5  and  C6_6 
REMARK    5  A    between atoms: C6_6  and  C7_7 
REMARK    6  A    between atoms: C7_7  and  C8_8 
REMARK    7  A    between atoms: C8_8  and  C9_9 
REMARK    8  A    between atoms: C9_9  and  C10_10 
REMARK    9  A    between atoms: C10_10  and  C11_11 
REMARK   10  A    between atoms: C11_11  and  C12_12 
REMARK   11  A    between atoms: C12_12  and  O13_13 
REMARK   12  A    between atoms: O13_13  and  C14_14 
REMARK   13  A    between atoms: C14_14  and  C15_15 
REMARK   14  A    between atoms: C15_15  and  O16_16 
ROOT
ATOM      1  C9  ZIN A   1      18.339   0.580   8.588  0.00  0.00     0.000 C 
ENDROOT
BRANCH   1   2
ATOM      2  C8  ZIN A   1      19.314   1.755   8.682  0.00  0.00     0.000 C 
BRANCH   2   3
ATOM      3  C7  ZIN A   1      18.645   2.916   9.421  0.00  0.00     0.000 C 
BRANCH   3   4
ATOM      4  C6  ZIN A   1      18.271   2.471  10.837  0.00  0.00     0.000 C 
BRANCH   4   5
ATOM      5  C5  ZIN A   1      19.546   2.187  11.634  0.00  0.00     0.000 C 
BRANCH   5   6
ATOM      6  C4  ZIN A   1      19.255   1.129  12.700  0.00  0.00     0.000 C 
BRANCH   6   7
ATOM      7  C3  ZIN A   1      19.808  -0.222  12.243  0.00  0.00    -0.000 C 
BRANCH   7   8
ATOM      8  C2  ZIN A   1      18.819  -1.330  12.611  0.00  0.00    -0.005 C 
ATOM      9  C1  ZIN A   1      17.403  -0.899  12.223  0.00  0.00     0.005 C 
ENDBRANCH   7   8
ENDBRANCH   6   7
ENDBRANCH   5   6
ENDBRANCH   4   5
ENDBRANCH   3   4
ENDBRANCH   2   3
ENDBRANCH   1   2
BRANCH   1  10
ATOM     10  C10 ZIN A   1      19.115  -0.737   8.662  0.00  0.00     0.002 C 
BRANCH  10  11
ATOM     11  C11 ZIN A   1      18.132  -1.908   8.687  0.00  0.00     0.026 C 
BRANCH  11  12
ATOM     12  C12 ZIN A   1      18.592  -2.980   7.697  0.00  0.00     0.167 C 
BRANCH  12  13
ATOM     13  O13 ZIN A   1      19.532  -2.412   6.783  0.00  0.00    -0.389 OA
BRANCH  13  14
ATOM     14  C14 ZIN A   1      19.153  -2.532   5.410  0.00  0.00     0.193 C 
BRANCH  14  15
ATOM     15  C15 ZIN A   1      18.861  -1.142   4.841  0.00  0.00     0.190 C 
BRANCH  15  16
ATOM     16  O16 ZIN A   1      20.090  -0.463   4.584  0.00  0.00    -0.399 OA
ATOM     17  H46 ZIN A   1      20.078   0.476   4.815  0.00  0.00     0.209 HD
ENDBRANCH  15  16
ENDBRANCH  14  15
ENDBRANCH  13  14
ENDBRANCH  12  13
ENDBRANCH  11  12
ENDBRANCH  10  11
ENDBRANCH   1  10
TORSDOF 14
ENDMDL
MODEL 9
REMARK VINA RESULT:      -4.7      5.720      7.886
REMARK  14 active torsions:
REMARK  status: ('A' for Active; 'I' for Inactive)
REMARK    1  A    between atoms: C2_2  and  C3_3 
REMARK    2  A    between atoms: C3_3  and  C4_4 
REMARK    3  A    between atoms: C4_4  and  C5_5 
REMARK    4  A    between atoms: C5_5  and  C6_6 
REMARK    5  A    between atoms: C6_6  and  C7_7 
REMARK    6  A    between atoms: C7_7  and  C8_8 
REMARK    7  A    between atoms: C8_8  and  C9_9 
REMARK    8  A    between atoms: C9_9  and  C10_10 
REMARK    9  A    between atoms: C10_10  and  C11_11 
REMARK   10  A    between atoms: C11_11  and  C12_12 
REMARK   11  A    between atoms: C12_12  and  O13_13 
REMARK   12  A    between atoms: O13_13  and  C14_14 
REMARK   13  A    between atoms: C14_14  and  C15_15 
REMARK   14  A    between atoms: C15_15  and  O16_16 
ROOT
ATOM      1  C9  ZIN A   1      19.782  -3.556   6.522  0.00  0.00     0.000 C 
ENDROOT
BRANCH   1   2
ATOM      2  C8  ZIN A   1      18.578  -2.937   5.809  0.00  0.00     0.000 C 
BRANCH   2   3
ATOM      3  C7  ZIN A   1      19.050  -2.204   4.552  0.00  0.00     0.000 C 
BRANCH   3   4
ATOM      4  C6  ZIN A   1      19.269  -0.725   4.877  0.00  0.00     0.000 C 
BRANCH   4   5
ATOM      5  C5  ZIN A   1      17.989  -0.142   5.480  0.00  0.00     0.000 C 
BRANCH   5   6
ATOM      6  C4  ZIN A   1      18.330   0.613   6.766  0.00  0.00     0.000 C 
BRANCH   6   7
ATOM      7  C3  ZIN A   1      17.524   0.031   7.929  0.00  0.00    -0.000 C 
BRANCH   7   8
ATOM      8  C2  ZIN A   1      18.360   0.087   9.209  0.00  0.00    -0.005 C 
ATOM      9  C1  ZIN A   1      19.763  -0.456   8.926  0.00  0.00     0.005 C 
ENDBRANCH   7   8
ENDBRANCH   6   7
ENDBRANCH   5   6
ENDBRANCH   4   5
ENDBRANCH   3   4
ENDBRANCH   2   3
ENDBRANCH   1   2
BRANCH   1  10
ATOM     10  C10 ZIN A   1      19.343  -4.114   7.877  0.00  0.00     0.002 C 
BRANCH  10  11
ATOM     11  C11 ZIN A   1      17.920  -3.645   8.185  0.00  0.00     0.026 C 
BRANCH  11  12
ATOM     12  C12 ZIN A   1      17.540  -4.069   9.606  0.00  0.00     0.167 C 
BRANCH  12  13
ATOM     13  O13 ZIN A   1      18.005  -3.088  10.536  0.00  0.00    -0.389 OA
BRANCH  13  14
ATOM     14  C14 ZIN A   1      18.550  -3.638  11.737  0.00  0.00     0.193 C 
BRANCH  14  15
ATOM     15  C15 ZIN A   1      19.984  -4.105  11.478  0.00  0.00     0.190 C 
BRANCH  15  16
ATOM     16  O16 ZIN A   1      20.826  -2.969  11.275  0.00  0.00    -0.399 OA
ATOM     17  H46 ZIN A   1      20.425  -2.129  11.541  0.00  0.00     0.209 HD
ENDBRANCH  15  16
ENDBRANCH  14  15
ENDBRANCH  13  14
ENDBRANCH  12  13
ENDBRANCH  11  12
ENDBRANCH  10  11
ENDBRANCH   1  10
TORSDOF 14
ENDMDL
