MODEL 1
REMARK VINA RESULT:      -7.2      0.000      0.000
REMARK  9 active torsions:
REMARK  status: ('A' for Active; 'I' for Inactive)
REMARK    1  A    between atoms: C2_2  and  O4_3 
REMARK    2  A    between atoms: C2_2  and  C5_4 
REMARK    3  A    between atoms: C5_4  and  N6_5 
REMARK    4  A    between atoms: N10_9  and  C11_10 
REMARK    5  A    between atoms: C11_10  and  C12_11 
REMARK    6  A    between atoms: N17_16  and  C19_18 
REMARK    7  A    between atoms: C19_18  and  C20_19 
REMARK    8  A    between atoms: N25_24  and  C26_25 
REMARK    9  A    between atoms: C26_25  and  C27_26 
ROOT
ATOM      1  N6  ZIN A   1      19.044   2.822  10.021  0.00  0.00    -0.065 N 
ATOM      2  H7  ZIN A   1      19.551   3.682   9.756  0.00  0.00     0.280 HD
ATOM      3  C8  ZIN A   1      19.785   2.225  11.128  0.00  0.00     0.265 C 
ATOM      4  C9  ZIN A   1      18.958   1.231  11.929  0.00  0.00     0.300 C 
ATOM      5  N10 ZIN A   1      19.818   0.029  12.211  0.00  0.00     0.101 N 
ATOM      6  C15 ZIN A   1      18.855  -1.125  12.276  0.00  0.00     0.300 C 
ATOM      7  C16 ZIN A   1      19.549  -2.345  11.689  0.00  0.00     0.265 C 
ATOM      8  N17 ZIN A   1      18.708  -3.114  10.779  0.00  0.00    -0.058 N 
ATOM      9  H18 ZIN A   1      19.118  -4.062  10.730  0.00  0.00     0.280 HD
ATOM     10  C23 ZIN A   1      18.753  -2.576   9.421  0.00  0.00     0.265 C 
ATOM     11  C24 ZIN A   1      17.787  -1.421   9.202  0.00  0.00     0.300 C 
ATOM     12  N25 ZIN A   1      18.496  -0.379   8.379  0.00  0.00     0.101 N 
ATOM     13  C30 ZIN A   1      17.925   0.932   8.844  0.00  0.00     0.300 C 
ATOM     14  C31 ZIN A   1      19.048   1.959   8.844  0.00  0.00     0.265 C 
ENDROOT
BRANCH   1  15
ATOM     15  C5  ZIN A   1      17.699   3.241  10.410  0.00  0.00     0.266 C 
BRANCH  15  16
ATOM     16  C2  ZIN A   1      17.710   4.730  10.761  0.00  0.00     0.140 C 
ATOM     17  C1  ZIN A   1      16.582   5.030  11.750  0.00  0.00     0.041 C 
BRANCH  16  18
ATOM     18  O4  ZIN A   1      17.519   5.501   9.573  0.00  0.00    -0.394 OA
ATOM     19  H35 ZIN A   1      17.722   6.441   9.676  0.00  0.00     0.210 HD
ENDBRANCH  16  18
ENDBRANCH  15  16
ENDBRANCH   1  15
BRANCH  12  20
ATOM     20  C26 ZIN A   1      17.943  -0.559   6.992  0.00  0.00     0.385 C 
BRANCH  20  21
ATOM     21  C27 ZIN A   1      19.076  -0.584   5.999  0.00  0.00     0.202 C 
ATOM     22  O28 ZIN A   1      19.390   0.435   5.406  0.00  0.00    -0.647 OA
ATOM     23  O29 ZIN A   1      19.679  -1.622   5.788  0.00  0.00    -0.647 OA
ENDBRANCH  20  21
ENDBRANCH  12  20
BRANCH   5  24
ATOM     24  C11 ZIN A   1      20.272   0.216  13.631  0.00  0.00     0.385 C 
BRANCH  24  25
ATOM     25  C12 ZIN A   1      19.135  -0.099  14.568  0.00  0.00     0.202 C 
ATOM     26  O13 ZIN A   1      19.057  -1.202  15.081  0.00  0.00    -0.647 OA
ATOM     27  O14 ZIN A   1      18.294   0.749  14.814  0.00  0.00    -0.647 OA
ENDBRANCH  24  25
ENDBRANCH   5  24
BRANCH   8  28
ATOM     28  C19 ZIN A   1      17.343  -3.279  11.271  0.00  0.00     0.347 C 
BRANCH  28  29
ATOM     29  C20 ZIN A   1      16.984  -4.742  11.277  0.00  0.00     0.199 C 
ATOM     30  O21 ZIN A   1      17.357  -5.458  12.191  0.00  0.00    -0.647 OA
ATOM     31  O22 ZIN A   1      16.323  -5.212  10.368  0.00  0.00    -0.647 OA
ENDBRANCH  28  29
ENDBRANCH   8  28
TORSDOF 9
ENDMDL
MODEL 2
REMARK VINA RESULT:      -7.1      3.199      7.198
REMARK  9 active torsions:
REMARK  status: ('A' for Active; 'I' for Inactive)
REMARK    1  A    between atoms: C2_2  and  O4_3 
REMARK    2  A    between atoms: C2_2  and  C5_4 
REMARK    3  A    between atoms: C5_4  and  N6_5 
REMARK    4  A    between atoms: N10_9  and  C11_10 
REMARK    5  A    between atoms: C11_10  and  C12_11 
REMARK    6  A    between atoms: N17_16  and  C19_18 
REMARK    7  A    between atoms: C19_18  and  C20_19 
REMARK    8  A    between atoms: N25_24  and  C26_25 
REMARK    9  A    between atoms: C26_25  and  C27_26 
ROOT
ATOM      1  N6  ZIN A   1      18.202  -0.807  12.387  0.00  0.00    -0.065 N 
ATOM      2  H7  ZIN A   1      17.644  -1.634  12.121  0.00  0.00     0.280 HD
ATOM      3  C8  ZIN A   1      18.043  -0.643  13.829  0.00  0.00     0.265 C 
ATOM      4  C9  ZIN A   1      19.130   0.220  14.452  0.00  0.00     0.300 C 
ATOM      5  N10 ZIN A   1      18.477   1.159  15.430  0.00  0.00     0.101 N 
ATOM      6  C15 ZIN A   1      19.343   2.389  15.418  0.00  0.00     0.300 C 
ATOM      7  C16 ZIN A   1      18.437   3.599  15.593  0.00  0.00     0.265 C 
ATOM      8  N17 ZIN A   1      18.754   4.700  14.690  0.00  0.00    -0.058 N 
ATOM      9  H18 ZIN A   1      18.351   5.553  15.115  0.00  0.00     0.280 HD
ATOM     10  C23 ZIN A   1      18.097   4.537  13.395  0.00  0.00     0.265 C 
ATOM     11  C24 ZIN A   1      18.873   3.643  12.438  0.00  0.00     0.300 C 
ATOM     12  N25 ZIN A   1      17.882   2.758  11.730  0.00  0.00     0.101 N 
ATOM     13  C30 ZIN A   1      18.624   1.475  11.479  0.00  0.00     0.300 C 
ATOM     14  C31 ZIN A   1      17.643   0.325  11.653  0.00  0.00     0.265 C 
ENDROOT
BRANCH   1  15
ATOM     15  C5  ZIN A   1      19.582  -1.101  12.007  0.00  0.00     0.266 C 
BRANCH  15  16
ATOM     16  C2  ZIN A   1      19.621  -2.398  11.194  0.00  0.00     0.140 C 
ATOM     17  C1  ZIN A   1      18.518  -3.339  11.683  0.00  0.00     0.041 C 
BRANCH  16  18
ATOM     18  O4  ZIN A   1      20.892  -3.027  11.362  0.00  0.00    -0.394 OA
ATOM     19  H35 ZIN A   1      21.209  -3.038  12.276  0.00  0.00     0.210 HD
ENDBRANCH  16  18
ENDBRANCH  15  16
ENDBRANCH   1  15
BRANCH  12  20
ATOM     20  C26 ZIN A   1      17.732   3.379  10.370  0.00  0.00     0.385 C 
BRANCH  20  21
ATOM     21  C27 ZIN A   1      17.003   4.692  10.494  0.00  0.00     0.202 C 
ATOM     22  O28 ZIN A   1      17.460   5.695   9.970  0.00  0.00    -0.647 OA
ATOM     23  O29 ZIN A   1      15.957   4.753  11.116  0.00  0.00    -0.647 OA
ENDBRANCH  20  21
ENDBRANCH  12  20
BRANCH   5  24
ATOM     24  C11 ZIN A   1      18.730   0.537  16.774  0.00  0.00     0.385 C 
BRANCH  24  25
ATOM     25  C12 ZIN A   1      17.438   0.467  17.547  0.00  0.00     0.202 C 
ATOM     26  O13 ZIN A   1      16.508  -0.194  17.119  0.00  0.00    -0.647 OA
ATOM     27  O14 ZIN A   1      17.323   1.070  18.600  0.00  0.00    -0.647 OA
ENDBRANCH  24  25
ENDBRANCH   5  24
BRANCH   8  28
ATOM     28  C19 ZIN A   1      20.189   4.937  14.566  0.00  0.00     0.347 C 
BRANCH  28  29
ATOM     29  C20 ZIN A   1      20.604   6.022  15.525  0.00  0.00     0.199 C 
ATOM     30  O21 ZIN A   1      21.782   6.313  15.644  0.00  0.00    -0.647 OA
ATOM     31  O22 ZIN A   1      19.763   6.609  16.183  0.00  0.00    -0.647 OA
ENDBRANCH  28  29
ENDBRANCH   8  28
TORSDOF 9
ENDMDL
MODEL 3
REMARK VINA RESULT:      -6.9      0.767      7.595
REMARK  9 active torsions:
REMARK  status: ('A' for Active; 'I' for Inactive)
REMARK    1  A    between atoms: C2_2  and  O4_3 
REMARK    2  A    between atoms: C2_2  and  C5_4 
REMARK    3  A    between atoms: C5_4  and  N6_5 
REMARK    4  A    between atoms: N10_9  and  C11_10 
REMARK    5  A    between atoms: C11_10  and  C12_11 
REMARK    6  A    between atoms: N17_16  and  C19_18 
REMARK    7  A    between atoms: C19_18  and  C20_19 
REMARK    8  A    between atoms: N25_24  and  C26_25 
REMARK    9  A    between atoms: C26_25  and  C27_26 
ROOT
ATOM      1  N6  ZIN A   1      18.776  -3.234  10.186  0.00  0.00    -0.065 N 
ATOM      2  H7  ZIN A   1      19.200  -4.167  10.057  0.00  0.00     0.280 HD
ATOM      3  C8  ZIN A   1      18.798  -2.582   8.879  0.00  0.00     0.265 C 
ATOM      4  C9  ZIN A   1      17.823  -1.419   8.779  0.00  0.00     0.300 C 
ATOM      5  N10 ZIN A   1      18.521  -0.284   8.081  0.00  0.00     0.101 N 
ATOM      6  C15 ZIN A   1      17.900   0.960   8.655  0.00  0.00     0.300 C 
ATOM      7  C16 ZIN A   1      18.984   2.023   8.750  0.00  0.00     0.265 C 
ATOM      8  N17 ZIN A   1      18.976   2.754  10.012  0.00  0.00    -0.058 N 
ATOM      9  H18 ZIN A   1      19.477   3.643   9.839  0.00  0.00     0.280 HD
ATOM     10  C23 ZIN A   1      19.734   2.050  11.045  0.00  0.00     0.265 C 
ATOM     11  C24 ZIN A   1      18.922   0.980  11.758  0.00  0.00     0.300 C 
ATOM     12  N25 ZIN A   1      19.809  -0.221  11.946  0.00  0.00     0.101 N 
ATOM     13  C30 ZIN A   1      18.879  -1.401  11.870  0.00  0.00     0.300 C 
ATOM     14  C31 ZIN A   1      19.609  -2.527  11.153  0.00  0.00     0.265 C 
ENDROOT
BRANCH   1  15
ATOM     15  C5  ZIN A   1      17.417  -3.465  10.672  0.00  0.00     0.266 C 
BRANCH  15  16
ATOM     16  C2  ZIN A   1      17.162  -4.970  10.779  0.00  0.00     0.140 C 
ATOM     17  C1  ZIN A   1      17.408  -5.427  12.217  0.00  0.00     0.041 C 
BRANCH  16  18
ATOM     18  O4  ZIN A   1      18.047  -5.666   9.900  0.00  0.00    -0.394 OA
ATOM     19  H35 ZIN A   1      17.604  -6.280   9.298  0.00  0.00     0.210 HD
ENDBRANCH  16  18
ENDBRANCH  15  16
ENDBRANCH   1  15
BRANCH  12  20
ATOM     20  C26 ZIN A   1      20.221  -0.160  13.390  0.00  0.00     0.385 C 
BRANCH  20  21
ATOM     21  C27 ZIN A   1      19.013   0.122  14.247  0.00  0.00     0.202 C 
ATOM     22  O28 ZIN A   1      18.762   1.265  14.589  0.00  0.00    -0.647 OA
ATOM     23  O29 ZIN A   1      18.287  -0.793  14.597  0.00  0.00    -0.647 OA
ENDBRANCH  20  21
ENDBRANCH  12  20
BRANCH   5  24
ATOM     24  C11 ZIN A   1      18.010  -0.339   6.669  0.00  0.00     0.385 C 
BRANCH  24  25
ATOM     25  C12 ZIN A   1      19.172  -0.475   5.719  0.00  0.00     0.202 C 
ATOM     26  O13 ZIN A   1      19.620   0.511   5.160  0.00  0.00    -0.647 OA
ATOM     27  O14 ZIN A   1      19.663  -1.571   5.509  0.00  0.00    -0.647 OA
ENDBRANCH  24  25
ENDBRANCH   5  24
BRANCH   8  28
ATOM     28  C19 ZIN A   1      17.631   3.114  10.450  0.00  0.00     0.347 C 
BRANCH  28  29
ATOM     29  C20 ZIN A   1      17.568   4.597  10.710  0.00  0.00     0.199 C 
ATOM     30  O21 ZIN A   1      17.732   5.026  11.839  0.00  0.00    -0.647 OA
ATOM     31  O22 ZIN A   1      17.351   5.368   9.791  0.00  0.00    -0.647 OA
ENDBRANCH  28  29
ENDBRANCH   8  28
TORSDOF 9
ENDMDL
MODEL 4
REMARK VINA RESULT:      -6.7      3.362      7.855
REMARK  9 active torsions:
REMARK  status: ('A' for Active; 'I' for Inactive)
REMARK    1  A    between atoms: C2_2  and  O4_3 
REMARK    2  A    between atoms: C2_2  and  C5_4 
REMARK    3  A    between atoms: C5_4  and  N6_5 
REMARK    4  A    between atoms: N10_9  and  C11_10 
REMARK    5  A    between atoms: C11_10  and  C12_11 
REMARK    6  A    between atoms: N17_16  and  C19_18 
REMARK    7  A    between atoms: C19_18  and  C20_19 
REMARK    8  A    between atoms: N25_24  and  C26_25 
REMARK    9  A    between atoms: C26_25  and  C27_26 
ROOT
ATOM      1  N6  ZIN A   1      19.022   0.806  16.375  0.00  0.00    -0.065 N 
ATOM      2  H7  ZIN A   1      19.502   0.324  17.152  0.00  0.00     0.280 HD
ATOM      3  C8  ZIN A   1      19.345   0.063  15.160  0.00  0.00     0.265 C 
ATOM      4  C9  ZIN A   1      18.380   0.344  14.018  0.00  0.00     0.300 C 
ATOM      5  N10 ZIN A   1      19.185   0.510  12.758  0.00  0.00     0.101 N 
ATOM      6  C15 ZIN A   1      18.389   1.473  11.919  0.00  0.00     0.300 C 
ATOM      7  C16 ZIN A   1      19.372   2.349  11.156  0.00  0.00     0.265 C 
ATOM      8  N17 ZIN A   1      19.018   3.764  11.162  0.00  0.00    -0.058 N 
ATOM      9  H18 ZIN A   1      19.509   4.193  10.359  0.00  0.00     0.280 HD
ATOM     10  C23 ZIN A   1      19.520   4.438  12.357  0.00  0.00     0.265 C 
ATOM     11  C24 ZIN A   1      18.598   4.291  13.559  0.00  0.00     0.300 C 
ATOM     12  N25 ZIN A   1      19.458   4.043  14.770  0.00  0.00     0.101 N 
ATOM     13  C30 ZIN A   1      18.625   3.159  15.657  0.00  0.00     0.300 C 
ATOM     14  C31 ZIN A   1      19.556   2.164  16.333  0.00  0.00     0.265 C 
ENDROOT
BRANCH   1  15
ATOM     15  C5  ZIN A   1      17.594   0.770  16.689  0.00  0.00     0.266 C 
BRANCH  15  16
ATOM     16  C2  ZIN A   1      17.408   0.507  18.185  0.00  0.00     0.140 C 
ATOM     17  C1  ZIN A   1      17.144   1.830  18.906  0.00  0.00     0.041 C 
BRANCH  16  18
ATOM     18  O4  ZIN A   1      18.591  -0.095  18.713  0.00  0.00    -0.394 OA
ATOM     19  H35 ZIN A   1      19.268   0.540  18.986  0.00  0.00     0.210 HD
ENDBRANCH  16  18
ENDBRANCH  15  16
ENDBRANCH   1  15
BRANCH  12  20
ATOM     20  C26 ZIN A   1      19.492   5.366  15.482  0.00  0.00     0.385 C 
BRANCH  20  21
ATOM     21  C27 ZIN A   1      20.767   6.091  15.136  0.00  0.00     0.202 C 
ATOM     22  O28 ZIN A   1      20.735   7.061  14.397  0.00  0.00    -0.647 OA
ATOM     23  O29 ZIN A   1      21.830   5.708  15.593  0.00  0.00    -0.647 OA
ENDBRANCH  20  21
ENDBRANCH  12  20
BRANCH   5  24
ATOM     24  C11 ZIN A   1      19.047  -0.806  12.047  0.00  0.00     0.385 C 
BRANCH  24  25
ATOM     25  C12 ZIN A   1      20.036  -0.871  10.912  0.00  0.00     0.202 C 
ATOM     26  O13 ZIN A   1      21.199  -0.557  11.098  0.00  0.00    -0.647 OA
ATOM     27  O14 ZIN A   1      19.673  -1.238   9.807  0.00  0.00    -0.647 OA
ENDBRANCH  24  25
ENDBRANCH   5  24
BRANCH   8  28
ATOM     28  C19 ZIN A   1      17.593   3.993  10.946  0.00  0.00     0.347 C 
BRANCH  28  29
ATOM     29  C20 ZIN A   1      17.405   5.209  10.075  0.00  0.00     0.199 C 
ATOM     30  O21 ZIN A   1      17.786   5.194   8.917  0.00  0.00    -0.647 OA
ATOM     31  O22 ZIN A   1      16.874   6.207  10.528  0.00  0.00    -0.647 OA
ENDBRANCH  28  29
ENDBRANCH   8  28
TORSDOF 9
ENDMDL
MODEL 5
REMARK VINA RESULT:      -6.5      1.958      5.842
REMARK  9 active torsions:
REMARK  status: ('A' for Active; 'I' for Inactive)
REMARK    1  A    between atoms: C2_2  and  O4_3 
REMARK    2  A    between atoms: C2_2  and  C5_4 
REMARK    3  A    between atoms: C5_4  and  N6_5 
REMARK    4  A    between atoms: N10_9  and  C11_10 
REMARK    5  A    between atoms: C11_10  and  C12_11 
REMARK    6  A    between atoms: N17_16  and  C19_18 
REMARK    7  A    between atoms: C19_18  and  C20_19 
REMARK    8  A    between atoms: N25_24  and  C26_25 
REMARK    9  A    between atoms: C26_25  and  C27_26 
ROOT
ATOM      1  N6  ZIN A   1      19.174  -0.365  14.454  0.00  0.00    -0.065 N 
ATOM      2  H7  ZIN A   1      19.669  -0.516  15.348  0.00  0.00     0.280 HD
ATOM      3  C8  ZIN A   1      19.282  -1.612  13.702  0.00  0.00     0.265 C 
ATOM      4  C9  ZIN A   1      18.248  -1.729  12.592  0.00  0.00     0.300 C 
ATOM      5  N10 ZIN A   1      18.937  -2.269  11.368  0.00  0.00     0.101 N 
ATOM      6  C15 ZIN A   1      18.183  -1.674  10.210  0.00  0.00     0.300 C 
ATOM      7  C16 ZIN A   1      19.182  -1.393   9.098  0.00  0.00     0.265 C 
ATOM      8  N17 ZIN A   1      19.003  -0.090   8.469  0.00  0.00    -0.058 N 
ATOM      9  H18 ZIN A   1      19.460  -0.146   7.542  0.00  0.00     0.280 HD
ATOM     10  C23 ZIN A   1      19.700   0.962   9.206  0.00  0.00     0.265 C 
ATOM     11  C24 ZIN A   1      18.893   1.511  10.373  0.00  0.00     0.300 C 
ATOM     12  N25 ZIN A   1      19.833   1.702  11.532  0.00  0.00     0.101 N 
ATOM     13  C30 ZIN A   1      18.993   1.448  12.754  0.00  0.00     0.300 C 
ATOM     14  C31 ZIN A   1      19.861   0.731  13.778  0.00  0.00     0.265 C 
ENDROOT
BRANCH   1  15
ATOM     15  C5  ZIN A   1      17.792  -0.039  14.798  0.00  0.00     0.266 C 
BRANCH  15  16
ATOM     16  C2  ZIN A   1      17.716   0.366  16.272  0.00  0.00     0.140 C 
ATOM     17  C1  ZIN A   1      18.681  -0.497  17.088  0.00  0.00     0.041 C 
BRANCH  16  18
ATOM     18  O4  ZIN A   1      16.384   0.173  16.751  0.00  0.00    -0.394 OA
ATOM     19  H35 ZIN A   1      15.864   0.986  16.808  0.00  0.00     0.210 HD
ENDBRANCH  16  18
ENDBRANCH  15  16
ENDBRANCH   1  15
BRANCH  12  20
ATOM     20  C26 ZIN A   1      20.097   3.182  11.559  0.00  0.00     0.385 C 
BRANCH  20  21
ATOM     21  C27 ZIN A   1      18.788   3.925  11.645  0.00  0.00     0.202 C 
ATOM     22  O28 ZIN A   1      18.337   4.240  12.733  0.00  0.00    -0.647 OA
ATOM     23  O29 ZIN A   1      18.181   4.210  10.627  0.00  0.00    -0.647 OA
ENDBRANCH  20  21
ENDBRANCH  12  20
BRANCH   5  24
ATOM     24  C11 ZIN A   1      18.571  -3.726  11.343  0.00  0.00     0.385 C 
BRANCH  24  25
ATOM     25  C12 ZIN A   1      19.773  -4.539  10.936  0.00  0.00     0.202 C 
ATOM     26  O13 ZIN A   1      19.699  -5.299   9.985  0.00  0.00    -0.647 OA
ATOM     27  O14 ZIN A   1      20.817  -4.438  11.556  0.00  0.00    -0.647 OA
ENDBRANCH  24  25
ENDBRANCH   5  24
BRANCH   8  28
ATOM     28  C19 ZIN A   1      17.601   0.233   8.221  0.00  0.00     0.347 C 
BRANCH  28  29
ATOM     29  C20 ZIN A   1      17.351   0.279   6.735  0.00  0.00     0.199 C 
ATOM     30  O21 ZIN A   1      18.200   0.734   5.988  0.00  0.00    -0.647 OA
ATOM     31  O22 ZIN A   1      16.300  -0.137   6.281  0.00  0.00    -0.647 OA
ENDBRANCH  28  29
ENDBRANCH   8  28
TORSDOF 9
ENDMDL
MODEL 6
REMARK VINA RESULT:      -6.5      1.925      5.856
REMARK  9 active torsions:
REMARK  status: ('A' for Active; 'I' for Inactive)
REMARK    1  A    between atoms: C2_2  and  O4_3 
REMARK    2  A    between atoms: C2_2  and  C5_4 
REMARK    3  A    between atoms: C5_4  and  N6_5 
REMARK    4  A    between atoms: N10_9  and  C11_10 
REMARK    5  A    between atoms: C11_10  and  C12_11 
REMARK    6  A    between atoms: N17_16  and  C19_18 
REMARK    7  A    between atoms: C19_18  and  C20_19 
REMARK    8  A    between atoms: N25_24  and  C26_25 
REMARK    9  A    between atoms: C26_25  and  C27_26 
ROOT
ATOM      1  N6  ZIN A   1      18.090  -1.771  12.894  0.00  0.00    -0.065 N 
ATOM      2  H7  ZIN A   1      17.624  -1.825  13.814  0.00  0.00     0.280 HD
ATOM      3  C8  ZIN A   1      17.560  -0.585  12.227  0.00  0.00     0.265 C 
ATOM      4  C9  ZIN A   1      18.443  -0.099  11.088  0.00  0.00     0.300 C 
ATOM      5  N10 ZIN A   1      17.553   0.258   9.928  0.00  0.00     0.101 N 
ATOM      6  C15 ZIN A   1      18.388  -0.016   8.706  0.00  0.00     0.300 C 
ATOM      7  C16 ZIN A   1      17.464  -0.540   7.618  0.00  0.00     0.265 C 
ATOM      8  N17 ZIN A   1      18.001  -1.692   6.901  0.00  0.00    -0.058 N 
ATOM      9  H18 ZIN A   1      17.498  -1.736   5.998  0.00  0.00     0.280 HD
ATOM     10  C23 ZIN A   1      17.705  -2.942   7.597  0.00  0.00     0.265 C 
ATOM     11  C24 ZIN A   1      18.707  -3.267   8.695  0.00  0.00     0.300 C 
ATOM     12  N25 ZIN A   1      17.939  -3.798   9.875  0.00  0.00     0.101 N 
ATOM     13  C30 ZIN A   1      18.726  -3.353  11.077  0.00  0.00     0.300 C 
ATOM     14  C31 ZIN A   1      17.738  -2.993  12.177  0.00  0.00     0.265 C 
ENDROOT
BRANCH   1  15
ATOM     15  C5  ZIN A   1      19.523  -1.667  13.164  0.00  0.00     0.266 C 
BRANCH  15  16
ATOM     16  C2  ZIN A   1      19.737  -1.024  14.536  0.00  0.00     0.140 C 
ATOM     17  C1  ZIN A   1      18.578  -1.398  15.461  0.00  0.00     0.041 C 
BRANCH  16  18
ATOM     18  O4  ZIN A   1      19.792   0.397  14.392  0.00  0.00    -0.394 OA
ATOM     19  H35 ZIN A   1      20.689   0.759  14.398  0.00  0.00     0.210 HD
ENDBRANCH  16  18
ENDBRANCH  15  16
ENDBRANCH   1  15
BRANCH  12  20
ATOM     20  C26 ZIN A   1      18.146  -5.286   9.819  0.00  0.00     0.385 C 
BRANCH  20  21
ATOM     21  C27 ZIN A   1      16.850  -5.961   9.451  0.00  0.00     0.202 C 
ATOM     22  O28 ZIN A   1      16.862  -7.085   8.978  0.00  0.00    -0.647 OA
ATOM     23  O29 ZIN A   1      15.791  -5.384   9.627  0.00  0.00    -0.647 OA
ENDBRANCH  20  21
ENDBRANCH  12  20
BRANCH   5  24
ATOM     24  C11 ZIN A   1      17.449   1.756   9.981  0.00  0.00     0.385 C 
BRANCH  24  25
ATOM     25  C12 ZIN A   1      18.791   2.365   9.665  0.00  0.00     0.202 C 
ATOM     26  O13 ZIN A   1      19.511   2.754  10.569  0.00  0.00    -0.647 OA
ATOM     27  O14 ZIN A   1      19.157   2.469   8.507  0.00  0.00    -0.647 OA
ENDBRANCH  24  25
ENDBRANCH   5  24
BRANCH   8  28
ATOM     28  C19 ZIN A   1      19.417  -1.549   6.580  0.00  0.00     0.347 C 
BRANCH  28  29
ATOM     29  C20 ZIN A   1      19.572  -1.259   5.109  0.00  0.00     0.199 C 
ATOM     30  O21 ZIN A   1      19.684  -0.107   4.724  0.00  0.00    -0.647 OA
ATOM     31  O22 ZIN A   1      19.585  -2.174   4.305  0.00  0.00    -0.647 OA
ENDBRANCH  28  29
ENDBRANCH   8  28
TORSDOF 9
ENDMDL
MODEL 7
REMARK VINA RESULT:      -6.5      3.070      6.399
REMARK  9 active torsions:
REMARK  status: ('A' for Active; 'I' for Inactive)
REMARK    1  A    between atoms: C2_2  and  O4_3 
REMARK    2  A    between atoms: C2_2  and  C5_4 
REMARK    3  A    between atoms: C5_4  and  N6_5 
REMARK    4  A    between atoms: N10_9  and  C11_10 
REMARK    5  A    between atoms: C11_10  and  C12_11 
REMARK    6  A    between atoms: N17_16  and  C19_18 
REMARK    7  A    between atoms: C19_18  and  C20_19 
REMARK    8  A    between atoms: N25_24  and  C26_25 
REMARK    9  A    between atoms: C26_25  and  C27_26 
ROOT
ATOM      1  N6  ZIN A   1      18.688   4.379  14.814  0.00  0.00    -0.065 N 
ATOM      2  H7  ZIN A   1      18.285   5.174  15.335  0.00  0.00     0.280 HD
ATOM      3  C8  ZIN A   1      18.106   4.420  13.476  0.00  0.00     0.265 C 
ATOM      4  C9  ZIN A   1      18.906   3.626  12.454  0.00  0.00     0.300 C 
ATOM      5  N10 ZIN A   1      17.938   2.848  11.605  0.00  0.00     0.101 N 
ATOM      6  C15 ZIN A   1      18.691   1.608  11.205  0.00  0.00     0.300 C 
ATOM      7  C16 ZIN A   1      17.699   0.455  11.157  0.00  0.00     0.265 C 
ATOM      8  N17 ZIN A   1      18.195  -0.767  11.779  0.00  0.00    -0.058 N 
ATOM      9  H18 ZIN A   1      17.633  -1.543  11.390  0.00  0.00     0.280 HD
ATOM     10  C23 ZIN A   1      17.957  -0.770  13.221  0.00  0.00     0.265 C 
ATOM     11  C24 ZIN A   1      19.032  -0.035  14.007  0.00  0.00     0.300 C 
ATOM     12  N25 ZIN A   1      18.349   0.765  15.083  0.00  0.00     0.101 N 
ATOM     13  C30 ZIN A   1      19.212   1.984  15.261  0.00  0.00     0.300 C 
ATOM     14  C31 ZIN A   1      18.298   3.170  15.533  0.00  0.00     0.265 C 
ENDROOT
BRANCH   1  15
ATOM     15  C5  ZIN A   1      20.135   4.586  14.800  0.00  0.00     0.266 C 
BRANCH  15  16
ATOM     16  C2  ZIN A   1      20.466   5.914  15.484  0.00  0.00     0.140 C 
ATOM     17  C1  ZIN A   1      19.281   6.352  16.348  0.00  0.00     0.041 C 
BRANCH  16  18
ATOM     18  O4  ZIN A   1      20.725   6.908  14.492  0.00  0.00    -0.394 OA
ATOM     19  H35 ZIN A   1      20.193   7.710  14.589  0.00  0.00     0.210 HD
ENDBRANCH  16  18
ENDBRANCH  15  16
ENDBRANCH   1  15
BRANCH  12  20
ATOM     20  C26 ZIN A   1      18.564  -0.034  16.338  0.00  0.00     0.385 C 
BRANCH  20  21
ATOM     21  C27 ZIN A   1      17.280  -0.087  17.126  0.00  0.00     0.202 C 
ATOM     22  O28 ZIN A   1      17.031   0.785  17.943  0.00  0.00    -0.647 OA
ATOM     23  O29 ZIN A   1      16.492  -1.000  16.949  0.00  0.00    -0.647 OA
ENDBRANCH  20  21
ENDBRANCH  12  20
BRANCH   5  24
ATOM     24  C11 ZIN A   1      17.827   3.644  10.336  0.00  0.00     0.385 C 
BRANCH  24  25
ATOM     25  C12 ZIN A   1      16.948   4.845  10.571  0.00  0.00     0.202 C 
ATOM     26  O13 ZIN A   1      15.900   4.723  11.182  0.00  0.00    -0.647 OA
ATOM     27  O14 ZIN A   1      17.284   5.938  10.150  0.00  0.00    -0.647 OA
ENDBRANCH  24  25
ENDBRANCH   5  24
BRANCH   8  28
ATOM     28  C19 ZIN A   1      19.586  -1.052  11.440  0.00  0.00     0.347 C 
BRANCH  28  29
ATOM     29  C20 ZIN A   1      19.718  -2.498  11.035  0.00  0.00     0.199 C 
ATOM     30  O21 ZIN A   1      19.298  -2.868   9.952  0.00  0.00    -0.647 OA
ATOM     31  O22 ZIN A   1      20.244  -3.297  11.790  0.00  0.00    -0.647 OA
ENDBRANCH  28  29
ENDBRANCH   8  28
TORSDOF 9
ENDMDL
MODEL 8
REMARK VINA RESULT:      -6.4      2.286      5.743
REMARK  9 active torsions:
REMARK  status: ('A' for Active; 'I' for Inactive)
REMARK    1  A    between atoms: C2_2  and  O4_3 
REMARK    2  A    between atoms: C2_2  and  C5_4 
REMARK    3  A    between atoms: C5_4  and  N6_5 
REMARK    4  A    between atoms: N10_9  and  C11_10 
REMARK    5  A    between atoms: C11_10  and  C12_11 
REMARK    6  A    between atoms: N17_16  and  C19_18 
REMARK    7  A    between atoms: C19_18  and  C20_19 
REMARK    8  A    between atoms: N25_24  and  C26_25 
REMARK    9  A    between atoms: C26_25  and  C27_26 
ROOT
ATOM      1  N6  ZIN A   1      17.967   0.772  10.691  0.00  0.00    -0.065 N 
ATOM      2  H7  ZIN A   1      17.406   1.448  11.233  0.00  0.00     0.280 HD
ATOM      3  C8  ZIN A   1      17.505   0.861   9.308  0.00  0.00     0.265 C 
ATOM      4  C9  ZIN A   1      18.502   0.292   8.310  0.00  0.00     0.300 C 
ATOM      5  N10 ZIN A   1      17.740  -0.529   7.306  0.00  0.00     0.101 N 
ATOM      6  C15 ZIN A   1      18.703  -1.605   6.881  0.00  0.00     0.300 C 
ATOM      7  C16 ZIN A   1      17.903  -2.876   6.637  0.00  0.00     0.265 C 
ATOM      8  N17 ZIN A   1      18.521  -4.071   7.202  0.00  0.00    -0.058 N 
ATOM      9  H18 ZIN A   1      18.118  -4.877   6.694  0.00  0.00     0.280 HD
ATOM     10  C23 ZIN A   1      18.160  -4.248   8.607  0.00  0.00     0.265 C 
ATOM     11  C24 ZIN A   1      19.040  -3.449   9.557  0.00  0.00     0.300 C 
ATOM     12  N25 ZIN A   1      18.152  -2.862  10.621  0.00  0.00     0.101 N 
ATOM     13  C30 ZIN A   1      18.803  -1.557  10.987  0.00  0.00     0.300 C 
ATOM     14  C31 ZIN A   1      17.701  -0.544  11.263  0.00  0.00     0.265 C 
ENDROOT
BRANCH   1  15
ATOM     15  C5  ZIN A   1      19.362   1.182  10.841  0.00  0.00     0.266 C 
BRANCH  15  16
ATOM     16  C2  ZIN A   1      19.435   2.422  11.734  0.00  0.00     0.140 C 
ATOM     17  C1  ZIN A   1      18.644   3.562  11.089  0.00  0.00     0.041 C 
BRANCH  16  18
ATOM     18  O4  ZIN A   1      20.799   2.818  11.888  0.00  0.00    -0.394 OA
ATOM     19  H35 ZIN A   1      21.129   3.384  11.177  0.00  0.00     0.210 HD
ENDBRANCH  16  18
ENDBRANCH  15  16
ENDBRANCH   1  15
BRANCH  12  20
ATOM     20  C26 ZIN A   1      18.374  -3.742  11.820  0.00  0.00     0.385 C 
BRANCH  20  21
ATOM     21  C27 ZIN A   1      17.258  -4.750  11.916  0.00  0.00     0.202 C 
ATOM     22  O28 ZIN A   1      16.185  -4.525  11.382  0.00  0.00    -0.647 OA
ATOM     23  O29 ZIN A   1      17.428  -5.791  12.527  0.00  0.00    -0.647 OA
ENDBRANCH  20  21
ENDBRANCH  12  20
BRANCH   5  24
ATOM     24  C11 ZIN A   1      17.623   0.363   6.103  0.00  0.00     0.385 C 
BRANCH  24  25
ATOM     25  C12 ZIN A   1      18.965   0.477   5.428  0.00  0.00     0.202 C 
ATOM     26  O13 ZIN A   1      19.787   1.278   5.839  0.00  0.00    -0.647 OA
ATOM     27  O14 ZIN A   1      19.229  -0.230   4.471  0.00  0.00    -0.647 OA
ENDBRANCH  24  25
ENDBRANCH   5  24
BRANCH   8  28
ATOM     28  C19 ZIN A   1      19.963  -4.122   6.983  0.00  0.00     0.347 C 
BRANCH  28  29
ATOM     29  C20 ZIN A   1      20.426  -5.556   7.013  0.00  0.00     0.199 C 
ATOM     30  O21 ZIN A   1      21.479  -5.845   7.556  0.00  0.00    -0.647 OA
ATOM     31  O22 ZIN A   1      19.749  -6.426   6.494  0.00  0.00    -0.647 OA
ENDBRANCH  28  29
ENDBRANCH   8  28
TORSDOF 9
ENDMDL
MODEL 9
REMARK VINA RESULT:      -6.2      4.770      9.548
REMARK  9 active torsions:
REMARK  status: ('A' for Active; 'I' for Inactive)
REMARK    1  A    between atoms: C2_2  and  O4_3 
REMARK    2  A    between atoms: C2_2  and  C5_4 
REMARK    3  A    between atoms: C5_4  and  N6_5 
REMARK    4  A    between atoms: N10_9  and  C11_10 
REMARK    5  A    between atoms: C11_10  and  C12_11 
REMARK    6  A    between atoms: N17_16  and  C19_18 
REMARK    7  A    between atoms: C19_18  and  C20_19 
REMARK    8  A    between atoms: N25_24  and  C26_25 
REMARK    9  A    between atoms: C26_25  and  C27_26 
ROOT
ATOM      1  N6  ZIN A   1      15.440  -7.150   7.644  0.00  0.00    -0.065 N 
ATOM      2  H7  ZIN A   1      15.242  -8.136   7.876  0.00  0.00     0.280 HD
ATOM      3  C8  ZIN A   1      15.940  -7.136   6.272  0.00  0.00     0.265 C 
ATOM      4  C9  ZIN A   1      15.847  -5.765   5.619  0.00  0.00     0.300 C 
ATOM      5  N10 ZIN A   1      17.130  -5.515   4.874  0.00  0.00     0.101 N 
ATOM      6  C15 ZIN A   1      17.319  -4.023   4.924  0.00  0.00     0.300 C 
ATOM      7  C16 ZIN A   1      18.810  -3.745   5.037  0.00  0.00     0.265 C 
ATOM      8  N17 ZIN A   1      19.139  -2.721   6.022  0.00  0.00    -0.058 N 
ATOM      9  H18 ZIN A   1      20.078  -2.365   5.773  0.00  0.00     0.280 HD
ATOM     10  C23 ZIN A   1      19.257  -3.285   7.365  0.00  0.00     0.265 C 
ATOM     11  C24 ZIN A   1      17.919  -3.419   8.077  0.00  0.00     0.300 C 
ATOM     12  N25 ZIN A   1      17.912  -4.741   8.797  0.00  0.00     0.101 N 
ATOM     13  C30 ZIN A   1      16.475  -5.184   8.772  0.00  0.00     0.300 C 
ATOM     14  C31 ZIN A   1      16.454  -6.695   8.590  0.00  0.00     0.265 C 
ENDROOT
BRANCH   1  15
ATOM     15  C5  ZIN A   1      14.173  -6.433   7.784  0.00  0.00     0.266 C 
BRANCH  15  16
ATOM     16  C2  ZIN A   1      13.011  -7.415   7.622  0.00  0.00     0.140 C 
ATOM     17  C1  ZIN A   1      11.834  -6.958   8.486  0.00  0.00     0.041 C 
BRANCH  16  18
ATOM     18  O4  ZIN A   1      13.428  -8.717   8.036  0.00  0.00    -0.394 OA
ATOM     19  H35 ZIN A   1      12.724  -9.248   8.435  0.00  0.00     0.210 HD
ENDBRANCH  16  18
ENDBRANCH  15  16
ENDBRANCH   1  15
BRANCH  12  20
ATOM     20  C26 ZIN A   1      18.172  -4.386  10.234  0.00  0.00     0.385 C 
BRANCH  20  21
ATOM     21  C27 ZIN A   1      19.622  -4.634  10.560  0.00  0.00     0.202 C 
ATOM     22  O28 ZIN A   1      20.281  -5.394   9.868  0.00  0.00    -0.647 OA
ATOM     23  O29 ZIN A   1      20.137  -4.076  11.513  0.00  0.00    -0.647 OA
ENDBRANCH  20  21
ENDBRANCH  12  20
BRANCH   5  24
ATOM     24  C11 ZIN A   1      16.792  -5.801   3.438  0.00  0.00     0.385 C 
BRANCH  24  25
ATOM     25  C12 ZIN A   1      17.753  -6.825   2.890  0.00  0.00     0.202 C 
ATOM     26  O13 ZIN A   1      18.184  -6.709   1.755  0.00  0.00    -0.647 OA
ATOM     27  O14 ZIN A   1      18.099  -7.768   3.580  0.00  0.00    -0.647 OA
ENDBRANCH  24  25
ENDBRANCH   5  24
BRANCH   8  28
ATOM     28  C19 ZIN A   1      18.236  -1.575   5.973  0.00  0.00     0.347 C 
BRANCH  28  29
ATOM     29  C20 ZIN A   1      18.892  -0.450   5.215  0.00  0.00     0.199 C 
ATOM     30  O21 ZIN A   1      20.001  -0.605   4.732  0.00  0.00    -0.647 OA
ATOM     31  O22 ZIN A   1      18.316   0.616   5.086  0.00  0.00    -0.647 OA
ENDBRANCH  28  29
ENDBRANCH   8  28
TORSDOF 9
ENDMDL
