MODEL 1
REMARK VINA RESULT:      -5.4      0.000      0.000
REMARK  0 active torsions:
REMARK  status: ('A' for Active; 'I' for Inactive)
ROOT
ATOM      1  C1  ZIN A   1      17.895  -3.972  11.560  0.00  0.00     0.051 C 
ATOM      2  C2  ZIN A   1      17.756  -2.449  11.505  0.00  0.00     0.179 C 
ATOM      3  O4  ZIN A   1      18.514  -1.895  10.401  0.00  0.00    -0.362 OA
ATOM      4  C5  ZIN A   1      18.761  -0.498  10.559  0.00  0.00     0.098 C 
ATOM      5  C6  ZIN A   1      18.940  -0.086  12.038  0.00  0.00     0.116 C 
ATOM      6  S7  ZIN A   1      18.595  -1.652  12.938  0.00  0.00    -0.135 SA
ATOM      7  C8  ZIN A   1      20.032  -0.116   9.792  0.00  0.00     0.274 C 
ATOM      8  N9  ZIN A   1      19.719   0.888   8.774  0.00  0.00    -0.068 N 
ATOM      9  H10 ZIN A   1      20.573   1.132   8.295  0.00  0.00     0.280 HD
ATOM     10  C11 ZIN A   1      18.775   0.350   7.792  0.00  0.00     0.235 C 
ATOM     11  C12 ZIN A   1      17.465  -0.033   8.483  0.00  0.00     0.035 C 
ATOM     12  C13 ZIN A   1      17.578   0.292   9.977  0.00  0.00     0.026 C 
ATOM     13  C14 ZIN A   1      17.881   1.788  10.128  0.00  0.00     0.035 C 
ATOM     14  C15 ZIN A   1      19.174   2.099   9.391  0.00  0.00     0.235 C 
ENDROOT
TORSDOF 0
ENDMDL
MODEL 2
REMARK VINA RESULT:      -5.4      2.347      4.440
REMARK  0 active torsions:
REMARK  status: ('A' for Active; 'I' for Inactive)
ROOT
ATOM      1  C1  ZIN A   1      18.495   2.859   9.781  0.00  0.00     0.051 C 
ATOM      2  C2  ZIN A   1      18.022   1.413   9.944  0.00  0.00     0.179 C 
ATOM      3  O4  ZIN A   1      18.883   0.681  10.852  0.00  0.00    -0.362 OA
ATOM      4  C5  ZIN A   1      18.748  -0.732  10.707  0.00  0.00     0.098 C 
ATOM      5  C6  ZIN A   1      18.447  -1.158   9.252  0.00  0.00     0.116 C 
ATOM      6  S7  ZIN A   1      18.262   0.455   8.389  0.00  0.00    -0.135 SA
ATOM      7  C8  ZIN A   1      20.046  -1.415  11.153  0.00  0.00     0.274 C 
ATOM      8  N9  ZIN A   1      19.774  -2.328  12.266  0.00  0.00    -0.068 N 
ATOM      9  H10 ZIN A   1      20.640  -2.774  12.530  0.00  0.00     0.280 HD
ATOM     10  C11 ZIN A   1      19.261  -1.591  13.423  0.00  0.00     0.235 C 
ATOM     11  C12 ZIN A   1      17.946  -0.898  13.059  0.00  0.00     0.035 C 
ATOM     12  C13 ZIN A   1      17.599  -1.224  11.601  0.00  0.00     0.026 C 
ATOM     13  C14 ZIN A   1      17.496  -2.747  11.455  0.00  0.00     0.035 C 
ATOM     14  C15 ZIN A   1      18.823  -3.366  11.864  0.00  0.00     0.235 C 
ENDROOT
TORSDOF 0
ENDMDL
MODEL 3
REMARK VINA RESULT:      -5.4      2.358      2.834
REMARK  0 active torsions:
REMARK  status: ('A' for Active; 'I' for Inactive)
ROOT
ATOM      1  C1  ZIN A   1      19.635  -3.886   6.334  0.00  0.00     0.051 C 
ATOM      2  C2  ZIN A   1      18.827  -3.019   7.301  0.00  0.00     0.179 C 
ATOM      3  O4  ZIN A   1      19.533  -1.795   7.622  0.00  0.00    -0.362 OA
ATOM      4  C5  ZIN A   1      19.039  -1.177   8.809  0.00  0.00     0.098 C 
ATOM      5  C6  ZIN A   1      18.548  -2.203   9.856  0.00  0.00     0.116 C 
ATOM      6  S7  ZIN A   1      18.719  -3.803   8.965  0.00  0.00    -0.135 SA
ATOM      7  C8  ZIN A   1      20.150  -0.332   9.443  0.00  0.00     0.274 C 
ATOM      8  N9  ZIN A   1      19.730   1.068   9.521  0.00  0.00    -0.068 N 
ATOM      9  H10 ZIN A   1      20.471   1.599   9.954  0.00  0.00     0.280 HD
ATOM     10  C11 ZIN A   1      19.493   1.611   8.182  0.00  0.00     0.235 C 
ATOM     11  C12 ZIN A   1      18.373   0.829   7.492  0.00  0.00     0.035 C 
ATOM     12  C13 ZIN A   1      17.863  -0.256   8.448  0.00  0.00     0.026 C 
ATOM     13  C14 ZIN A   1      17.372   0.421   9.734  0.00  0.00     0.035 C 
ATOM     14  C15 ZIN A   1      18.525   1.202  10.343  0.00  0.00     0.235 C 
ENDROOT
TORSDOF 0
ENDMDL
MODEL 4
REMARK VINA RESULT:      -5.3      4.527      6.326
REMARK  0 active torsions:
REMARK  status: ('A' for Active; 'I' for Inactive)
ROOT
ATOM      1  C1  ZIN A   1      16.678   0.180  11.799  0.00  0.00     0.051 C 
ATOM      2  C2  ZIN A   1      17.492  -0.499  12.903  0.00  0.00     0.179 C 
ATOM      3  O4  ZIN A   1      17.518   0.308  14.106  0.00  0.00    -0.362 OA
ATOM      4  C5  ZIN A   1      18.581  -0.059  14.984  0.00  0.00     0.098 C 
ATOM      5  C6  ZIN A   1      19.839  -0.544  14.229  0.00  0.00     0.116 C 
ATOM      6  S7  ZIN A   1      19.284  -0.544  12.476  0.00  0.00    -0.135 SA
ATOM      7  C8  ZIN A   1      18.968   1.147  15.847  0.00  0.00     0.274 C 
ATOM      8  N9  ZIN A   1      18.784   0.829  17.264  0.00  0.00    -0.068 N 
ATOM      9  H10 ZIN A   1      19.059   1.632  17.809  0.00  0.00     0.280 HD
ATOM     10  C11 ZIN A   1      17.377   0.536  17.547  0.00  0.00     0.235 C 
ATOM     11  C12 ZIN A   1      16.923  -0.678  16.736  0.00  0.00     0.035 C 
ATOM     12  C13 ZIN A   1      18.105  -1.193  15.907  0.00  0.00     0.026 C 
ATOM     13  C14 ZIN A   1      19.252  -1.546  16.862  0.00  0.00     0.035 C 
ATOM     14  C15 ZIN A   1      19.625  -0.304  17.654  0.00  0.00     0.235 C 
ENDROOT
TORSDOF 0
ENDMDL
MODEL 5
REMARK VINA RESULT:      -5.3      2.779      4.851
REMARK  0 active torsions:
REMARK  status: ('A' for Active; 'I' for Inactive)
ROOT
ATOM      1  C1  ZIN A   1      17.915   3.984  10.349  0.00  0.00     0.051 C 
ATOM      2  C2  ZIN A   1      17.776   2.501  10.699  0.00  0.00     0.179 C 
ATOM      3  O4  ZIN A   1      18.664   2.133  11.784  0.00  0.00    -0.362 OA
ATOM      4  C5  ZIN A   1      18.881   0.725  11.855  0.00  0.00     0.098 C 
ATOM      5  C6  ZIN A   1      18.871   0.048  10.466  0.00  0.00     0.116 C 
ATOM      6  S7  ZIN A   1      18.424   1.435   9.344  0.00  0.00    -0.135 SA
ATOM      7  C8  ZIN A   1      20.237   0.453  12.517  0.00  0.00     0.274 C 
ATOM      8  N9  ZIN A   1      20.049  -0.342  13.733  0.00  0.00    -0.068 N 
ATOM      9  H10 ZIN A   1      20.955  -0.520  14.140  0.00  0.00     0.280 HD
ATOM     10  C11 ZIN A   1      19.238   0.391  14.707  0.00  0.00     0.235 C 
ATOM     11  C12 ZIN A   1      17.854   0.679  14.123  0.00  0.00     0.035 C 
ATOM     12  C13 ZIN A   1      17.777   0.086  12.711  0.00  0.00     0.026 C 
ATOM     13  C14 ZIN A   1      18.051  -1.420  12.801  0.00  0.00     0.035 C 
ATOM     14  C15 ZIN A   1      19.424  -1.629  13.419  0.00  0.00     0.235 C 
ENDROOT
TORSDOF 0
ENDMDL
MODEL 6
REMARK VINA RESULT:      -5.2      2.374      3.994
REMARK  0 active torsions:
REMARK  status: ('A' for Active; 'I' for Inactive)
ROOT
ATOM      1  C1  ZIN A   1      16.937   4.782  11.095  0.00  0.00     0.051 C 
ATOM      2  C2  ZIN A   1      17.956   3.647  10.973  0.00  0.00     0.179 C 
ATOM      3  O4  ZIN A   1      17.358   2.470  10.374  0.00  0.00    -0.362 OA
ATOM      4  C5  ZIN A   1      18.115   1.288  10.625  0.00  0.00     0.098 C 
ATOM      5  C6  ZIN A   1      18.815   1.308  12.003  0.00  0.00     0.116 C 
ATOM      6  S7  ZIN A   1      18.424   2.992  12.630  0.00  0.00    -0.135 SA
ATOM      7  C8  ZIN A   1      17.188   0.068  10.569  0.00  0.00     0.274 C 
ATOM      8  N9  ZIN A   1      17.635  -0.853   9.523  0.00  0.00    -0.068 N 
ATOM      9  H10 ZIN A   1      17.018  -1.652   9.517  0.00  0.00     0.280 HD
ATOM     10  C11 ZIN A   1      17.572  -0.210   8.209  0.00  0.00     0.235 C 
ATOM     11  C12 ZIN A   1      18.496   1.010   8.179  0.00  0.00     0.035 C 
ATOM     12  C13 ZIN A   1      19.192   1.138   9.539  0.00  0.00     0.026 C 
ATOM     13  C14 ZIN A   1      19.970  -0.156   9.811  0.00  0.00     0.035 C 
ATOM     14  C15 ZIN A   1      18.996  -1.322   9.792  0.00  0.00     0.235 C 
ENDROOT
TORSDOF 0
ENDMDL
MODEL 7
REMARK VINA RESULT:      -5.2      2.311      2.822
REMARK  0 active torsions:
REMARK  status: ('A' for Active; 'I' for Inactive)
ROOT
ATOM      1  C1  ZIN A   1      18.139  -0.919  15.466  0.00  0.00     0.051 C 
ATOM      2  C2  ZIN A   1      17.892   0.211  14.464  0.00  0.00     0.179 C 
ATOM      3  O4  ZIN A   1      18.632  -0.007  13.237  0.00  0.00    -0.362 OA
ATOM      4  C5  ZIN A   1      18.773   1.187  12.469  0.00  0.00     0.098 C 
ATOM      5  C6  ZIN A   1      18.890   2.453  13.347  0.00  0.00     0.116 C 
ATOM      6  S7  ZIN A   1      18.640   1.791  15.045  0.00  0.00    -0.135 SA
ATOM      7  C8  ZIN A   1      20.030   1.085  11.597  0.00  0.00     0.274 C 
ATOM      8  N9  ZIN A   1      19.667   1.194  10.182  0.00  0.00    -0.068 N 
ATOM      9  H10 ZIN A   1      20.512   1.138   9.632  0.00  0.00     0.280 HD
ATOM     10  C11 ZIN A   1      18.786   0.092   9.790  0.00  0.00     0.235 C 
ATOM     11  C12 ZIN A   1      17.492   0.143  10.606  0.00  0.00     0.035 C 
ATOM     12  C13 ZIN A   1      17.550   1.347  11.553  0.00  0.00     0.026 C 
ATOM     13  C14 ZIN A   1      17.741   2.617  10.715  0.00  0.00     0.035 C 
ATOM     14  C15 ZIN A   1      19.023   2.480   9.910  0.00  0.00     0.235 C 
ENDROOT
TORSDOF 0
ENDMDL
MODEL 8
REMARK VINA RESULT:      -5.1      2.042      2.478
REMARK  0 active torsions:
REMARK  status: ('A' for Active; 'I' for Inactive)
ROOT
ATOM      1  C1  ZIN A   1      17.675  -2.586  11.809  0.00  0.00     0.051 C 
ATOM      2  C2  ZIN A   1      17.615  -1.143  12.316  0.00  0.00     0.179 C 
ATOM      3  O4  ZIN A   1      18.508  -0.286  11.562  0.00  0.00    -0.362 OA
ATOM      4  C5  ZIN A   1      18.804   0.929  12.248  0.00  0.00     0.098 C 
ATOM      5  C6  ZIN A   1      18.851   0.753  13.782  0.00  0.00     0.116 C 
ATOM      6  S7  ZIN A   1      18.341  -1.001  14.003  0.00  0.00    -0.135 SA
ATOM      7  C8  ZIN A   1      20.164   1.459  11.779  0.00  0.00     0.274 C 
ATOM      8  N9  ZIN A   1      20.005   2.790  11.189  0.00  0.00    -0.068 N 
ATOM      9  H10 ZIN A   1      20.915   3.122  10.902  0.00  0.00     0.280 HD
ATOM     10  C11 ZIN A   1      19.141   2.730  10.008  0.00  0.00     0.235 C 
ATOM     11  C12 ZIN A   1      17.751   2.230  10.403  0.00  0.00     0.035 C 
ATOM     12  C13 ZIN A   1      17.727   1.973  11.915  0.00  0.00     0.026 C 
ATOM     13  C14 ZIN A   1      18.085   3.278  12.636  0.00  0.00     0.035 C 
ATOM     14  C15 ZIN A   1      19.459   3.730  12.169  0.00  0.00     0.235 C 
ENDROOT
TORSDOF 0
ENDMDL
MODEL 9
REMARK VINA RESULT:      -5.1      2.443      3.282
REMARK  0 active torsions:
REMARK  status: ('A' for Active; 'I' for Inactive)
ROOT
ATOM      1  C1  ZIN A   1      18.851  -1.353  16.433  0.00  0.00     0.051 C 
ATOM      2  C2  ZIN A   1      18.125  -0.774  15.217  0.00  0.00     0.179 C 
ATOM      3  O4  ZIN A   1      18.839  -1.070  13.991  0.00  0.00    -0.362 OA
ATOM      4  C5  ZIN A   1      18.451  -0.216  12.916  0.00  0.00     0.098 C 
ATOM      5  C6  ZIN A   1      18.078   1.208  13.389  0.00  0.00     0.116 C 
ATOM      6  S7  ZIN A   1      18.188   1.067  15.220  0.00  0.00    -0.135 SA
ATOM      7  C8  ZIN A   1      19.605  -0.106  11.912  0.00  0.00     0.274 C 
ATOM      8  N9  ZIN A   1      19.173  -0.590  10.600  0.00  0.00    -0.068 N 
ATOM      9  H10 ZIN A   1      19.943  -0.494   9.955  0.00  0.00     0.280 HD
ATOM     10  C11 ZIN A   1      18.801  -2.005  10.669  0.00  0.00     0.235 C 
ATOM     11  C12 ZIN A   1      17.633  -2.191  11.639  0.00  0.00     0.035 C 
ATOM     12  C13 ZIN A   1      17.233  -0.822  12.204  0.00  0.00     0.026 C 
ATOM     13  C14 ZIN A   1      16.856   0.095  11.033  0.00  0.00     0.035 C 
ATOM     14  C15 ZIN A   1      18.050   0.205  10.098  0.00  0.00     0.235 C 
ENDROOT
TORSDOF 0
ENDMDL
