MODEL 1
REMARK VINA RESULT:      -6.6      0.000      0.000
REMARK  15 active torsions:
REMARK  status: ('A' for Active; 'I' for Inactive)
REMARK    1  A    between atoms: C2_2  and  O4_3 
REMARK    2  A    between atoms: C2_2  and  C5_4 
REMARK       I    between atoms: C5_4  and  N7_6 
REMARK    3  A    between atoms: N7_6  and  C8_7 
REMARK    4  A    between atoms: C11_10  and  C12_11 
REMARK       I    between atoms: C12_11  and  N14_13 
REMARK    5  A    between atoms: N14_13  and  C15_14 
REMARK    6  A    between atoms: C15_14  and  C16_15 
REMARK    7  A    between atoms: C15_14  and  C18_17 
REMARK    8  A    between atoms: C16_15  and  O17_16 
REMARK    9  A    between atoms: C18_17  and  O19_18 
REMARK   10  A    between atoms: C22_21  and  C23_22 
REMARK       I    between atoms: C23_22  and  N25_24 
REMARK   11  A    between atoms: N25_24  and  C26_25 
REMARK   12  A    between atoms: C26_25  and  C27_26 
REMARK   13  A    between atoms: C26_25  and  C29_28 
REMARK   14  A    between atoms: C27_26  and  O28_27 
REMARK   15  A    between atoms: C29_28  and  O30_29 
ROOT
ATOM      1  C8  ZIN A   1      18.683   1.612  14.748  0.00  0.00     0.070 A 
ATOM      2  C9  ZIN A   1      18.512   1.109  13.467  0.00  0.00     0.051 A 
ATOM      3  I10 ZIN A   1      18.845  -0.925  13.087  0.00  0.00    -0.041 I 
ATOM      4  C11 ZIN A   1      18.117   1.956  12.428  0.00  0.00     0.068 A 
ATOM      5  C20 ZIN A   1      17.894   3.309  12.683  0.00  0.00     0.040 A 
ATOM      6  I21 ZIN A   1      17.301   4.585  11.130  0.00  0.00    -0.042 I 
ATOM      7  C22 ZIN A   1      18.067   3.811  13.971  0.00  0.00     0.068 A 
ATOM      8  C31 ZIN A   1      18.458   2.956  15.006  0.00  0.00     0.051 A 
ATOM      9  I32 ZIN A   1      18.718   3.709  16.943  0.00  0.00    -0.041 I 
ENDROOT
BRANCH   4  10
ATOM     10  C12 ZIN A   1      17.933   1.419  11.064  0.00  0.00     0.254 C 
ATOM     11  O13 ZIN A   1      16.834   1.054  10.697  0.00  0.00    -0.268 OA
ATOM     12  N14 ZIN A   1      18.986   1.336  10.226  0.00  0.00    -0.348 N 
ATOM     13  H38 ZIN A   1      19.863   1.628  10.519  0.00  0.00     0.163 HD
BRANCH  12  14
ATOM     14  C15 ZIN A   1      18.805   0.804   8.874  0.00  0.00     0.132 C 
BRANCH  14  15
ATOM     15  C16 ZIN A   1      19.257   1.848   7.849  0.00  0.00     0.191 C 
BRANCH  15  16
ATOM     16  O17 ZIN A   1      18.970   1.378   6.531  0.00  0.00    -0.399 OA
ATOM     17  H42 ZIN A   1      19.756   1.190   6.001  0.00  0.00     0.209 HD
ENDBRANCH  15  16
ENDBRANCH  14  15
BRANCH  14  18
ATOM     18  C18 ZIN A   1      19.640  -0.467   8.709  0.00  0.00     0.191 C 
BRANCH  18  19
ATOM     19  O19 ZIN A   1      20.774  -0.407   9.576  0.00  0.00    -0.399 OA
ATOM     20  H45 ZIN A   1      20.630   0.113  10.378  0.00  0.00     0.209 HD
ENDBRANCH  18  19
ENDBRANCH  14  18
ENDBRANCH  12  14
ENDBRANCH   4  10
BRANCH   1  21
ATOM     21  N7  ZIN A   1      19.079   0.759  15.786  0.00  0.00    -0.323 N 
ATOM     22  C5  ZIN A   1      18.156   0.045  16.460  0.00  0.00     0.250 C 
ATOM     23  O6  ZIN A   1      16.976   0.207  16.229  0.00  0.00    -0.270 OA
ATOM     24  H37 ZIN A   1      20.017   0.682  16.020  0.00  0.00     0.169 HD
BRANCH  22  25
ATOM     25  C2  ZIN A   1      18.589  -0.956  17.500  0.00  0.00     0.206 C 
ATOM     26  C1  ZIN A   1      19.114  -0.216  18.732  0.00  0.00     0.049 C 
BRANCH  25  27
ATOM     27  O4  ZIN A   1      19.624  -1.782  16.964  0.00  0.00    -0.387 OA
ATOM     28  H36 ZIN A   1      20.454  -1.313  16.795  0.00  0.00     0.210 HD
ENDBRANCH  25  27
ENDBRANCH  22  25
ENDBRANCH   1  21
BRANCH   7  29
ATOM     29  C23 ZIN A   1      17.833   5.244  14.245  0.00  0.00     0.254 C 
ATOM     30  O24 ZIN A   1      18.688   6.063  13.969  0.00  0.00    -0.268 OA
ATOM     31  N25 ZIN A   1      16.671   5.644  14.800  0.00  0.00    -0.348 N 
ATOM     32  H46 ZIN A   1      15.989   4.990  15.019  0.00  0.00     0.163 HD
BRANCH  31  33
ATOM     33  C26 ZIN A   1      16.439   7.065  15.070  0.00  0.00     0.132 C 
BRANCH  33  34
ATOM     34  C27 ZIN A   1      14.936   7.348  15.057  0.00  0.00     0.191 C 
BRANCH  34  35
ATOM     35  O28 ZIN A   1      14.222   6.122  14.889  0.00  0.00    -0.399 OA
ATOM     36  H50 ZIN A   1      14.474   5.626  14.098  0.00  0.00     0.209 HD
ENDBRANCH  34  35
ENDBRANCH  33  34
BRANCH  33  37
ATOM     37  C29 ZIN A   1      17.015   7.423  16.442  0.00  0.00     0.191 C 
BRANCH  37  38
ATOM     38  O30 ZIN A   1      18.299   8.027  16.277  0.00  0.00    -0.399 OA
ATOM     39  H53 ZIN A   1      18.270   8.985  16.151  0.00  0.00     0.209 HD
ENDBRANCH  37  38
ENDBRANCH  33  37
ENDBRANCH  31  33
ENDBRANCH   7  29
TORSDOF 15
ENDMDL
MODEL 2
REMARK VINA RESULT:      -6.5      0.476      6.846
REMARK  15 active torsions:
REMARK  status: ('A' for Active; 'I' for Inactive)
REMARK    1  A    between atoms: C2_2  and  O4_3 
REMARK    2  A    between atoms: C2_2  and  C5_4 
REMARK       I    between atoms: C5_4  and  N7_6 
REMARK    3  A    between atoms: N7_6  and  C8_7 
REMARK    4  A    between atoms: C11_10  and  C12_11 
REMARK       I    between atoms: C12_11  and  N14_13 
REMARK    5  A    between atoms: N14_13  and  C15_14 
REMARK    6  A    between atoms: C15_14  and  C16_15 
REMARK    7  A    between atoms: C15_14  and  C18_17 
REMARK    8  A    between atoms: C16_15  and  O17_16 
REMARK    9  A    between atoms: C18_17  and  O19_18 
REMARK   10  A    between atoms: C22_21  and  C23_22 
REMARK       I    between atoms: C23_22  and  N25_24 
REMARK   11  A    between atoms: N25_24  and  C26_25 
REMARK   12  A    between atoms: C26_25  and  C27_26 
REMARK   13  A    between atoms: C26_25  and  C29_28 
REMARK   14  A    between atoms: C27_26  and  O28_27 
REMARK   15  A    between atoms: C29_28  and  O30_29 
ROOT
ATOM      1  C8  ZIN A   1      18.668   1.622  14.770  0.00  0.00     0.070 A 
ATOM      2  C9  ZIN A   1      18.454   2.969  15.022  0.00  0.00     0.051 A 
ATOM      3  I10 ZIN A   1      18.714   3.726  16.959  0.00  0.00    -0.041 I 
ATOM      4  C11 ZIN A   1      18.065   3.823  13.987  0.00  0.00     0.068 A 
ATOM      5  C20 ZIN A   1      17.893   3.318  12.698  0.00  0.00     0.040 A 
ATOM      6  I21 ZIN A   1      17.310   4.593  11.141  0.00  0.00    -0.042 I 
ATOM      7  C22 ZIN A   1      18.110   1.964  12.448  0.00  0.00     0.068 A 
ATOM      8  C31 ZIN A   1      18.504   1.117  13.488  0.00  0.00     0.051 A 
ATOM      9  I32 ZIN A   1      18.830  -0.917  13.114  0.00  0.00    -0.041 I 
ENDROOT
BRANCH   4  10
ATOM     10  C12 ZIN A   1      17.838   5.257  14.257  0.00  0.00     0.254 C 
ATOM     11  O13 ZIN A   1      18.703   6.070  13.995  0.00  0.00    -0.268 OA
ATOM     12  N14 ZIN A   1      16.669   5.665  14.793  0.00  0.00    -0.348 N 
ATOM     13  H38 ZIN A   1      15.979   5.016  15.001  0.00  0.00     0.163 HD
BRANCH  12  14
ATOM     14  C15 ZIN A   1      16.443   7.087  15.060  0.00  0.00     0.132 C 
BRANCH  14  15
ATOM     15  C16 ZIN A   1      14.941   7.380  15.029  0.00  0.00     0.191 C 
BRANCH  15  16
ATOM     16  O17 ZIN A   1      14.676   8.583  15.753  0.00  0.00    -0.399 OA
ATOM     17  H42 ZIN A   1      14.070   8.469  16.497  0.00  0.00     0.209 HD
ENDBRANCH  15  16
ENDBRANCH  14  15
BRANCH  14  18
ATOM     18  C18 ZIN A   1      17.004   7.442  16.438  0.00  0.00     0.191 C 
BRANCH  18  19
ATOM     19  O19 ZIN A   1      18.301   8.024  16.289  0.00  0.00    -0.399 OA
ATOM     20  H45 ZIN A   1      18.333   8.970  16.483  0.00  0.00     0.209 HD
ENDBRANCH  18  19
ENDBRANCH  14  18
ENDBRANCH  12  14
ENDBRANCH   4  10
BRANCH   1  21
ATOM     21  N7  ZIN A   1      19.059   0.770  15.811  0.00  0.00    -0.323 N 
ATOM     22  C5  ZIN A   1      18.131   0.062  16.485  0.00  0.00     0.250 C 
ATOM     23  O6  ZIN A   1      16.952   0.229  16.252  0.00  0.00    -0.270 OA
ATOM     24  H37 ZIN A   1      19.996   0.689  16.046  0.00  0.00     0.169 HD
BRANCH  22  25
ATOM     25  C2  ZIN A   1      18.558  -0.939  17.528  0.00  0.00     0.206 C 
ATOM     26  C1  ZIN A   1      19.084  -0.198  18.759  0.00  0.00     0.049 C 
BRANCH  25  27
ATOM     27  O4  ZIN A   1      19.591  -1.770  16.996  0.00  0.00    -0.387 OA
ATOM     28  H36 ZIN A   1      19.857  -2.491  17.583  0.00  0.00     0.210 HD
ENDBRANCH  25  27
ENDBRANCH  22  25
ENDBRANCH   1  21
BRANCH   7  29
ATOM     29  C23 ZIN A   1      17.928   1.425  11.084  0.00  0.00     0.254 C 
ATOM     30  O24 ZIN A   1      16.829   1.057  10.718  0.00  0.00    -0.268 OA
ATOM     31  N25 ZIN A   1      18.981   1.342  10.247  0.00  0.00    -0.348 N 
ATOM     32  H46 ZIN A   1      19.858   1.636  10.539  0.00  0.00     0.163 HD
BRANCH  31  33
ATOM     33  C26 ZIN A   1      18.800   0.809   8.894  0.00  0.00     0.132 C 
BRANCH  33  34
ATOM     34  C27 ZIN A   1      19.257   1.849   7.869  0.00  0.00     0.191 C 
BRANCH  34  35
ATOM     35  O28 ZIN A   1      18.958   1.383   6.552  0.00  0.00    -0.399 OA
ATOM     36  H50 ZIN A   1      19.484   1.803   5.858  0.00  0.00     0.209 HD
ENDBRANCH  34  35
ENDBRANCH  33  34
BRANCH  33  37
ATOM     37  C29 ZIN A   1      19.632  -0.465   8.734  0.00  0.00     0.191 C 
BRANCH  37  38
ATOM     38  O30 ZIN A   1      20.769  -0.403   9.597  0.00  0.00    -0.399 OA
ATOM     39  H53 ZIN A   1      20.692   0.251  10.305  0.00  0.00     0.209 HD
ENDBRANCH  37  38
ENDBRANCH  33  37
ENDBRANCH  31  33
ENDBRANCH   7  29
TORSDOF 15
ENDMDL
MODEL 3
REMARK VINA RESULT:      -6.3      4.968     10.829
REMARK  15 active torsions:
REMARK  status: ('A' for Active; 'I' for Inactive)
REMARK    1  A    between atoms: C2_2  and  O4_3 
REMARK    2  A    between atoms: C2_2  and  C5_4 
REMARK       I    between atoms: C5_4  and  N7_6 
REMARK    3  A    between atoms: N7_6  and  C8_7 
REMARK    4  A    between atoms: C11_10  and  C12_11 
REMARK       I    between atoms: C12_11  and  N14_13 
REMARK    5  A    between atoms: N14_13  and  C15_14 
REMARK    6  A    between atoms: C15_14  and  C16_15 
REMARK    7  A    between atoms: C15_14  and  C18_17 
REMARK    8  A    between atoms: C16_15  and  O17_16 
REMARK    9  A    between atoms: C18_17  and  O19_18 
REMARK   10  A    between atoms: C22_21  and  C23_22 
REMARK       I    between atoms: C23_22  and  N25_24 
REMARK   11  A    between atoms: N25_24  and  C26_25 
REMARK   12  A    between atoms: C26_25  and  C27_26 
REMARK   13  A    between atoms: C26_25  and  C29_28 
REMARK   14  A    between atoms: C27_26  and  O28_27 
REMARK   15  A    between atoms: C29_28  and  O30_29 
ROOT
ATOM      1  C8  ZIN A   1      18.815  -2.059   7.960  0.00  0.00     0.070 A 
ATOM      2  C9  ZIN A   1      18.659  -1.446   9.194  0.00  0.00     0.051 A 
ATOM      3  I10 ZIN A   1      19.140   0.581   9.425  0.00  0.00    -0.041 I 
ATOM      4  C11 ZIN A   1      18.181  -2.177  10.285  0.00  0.00     0.068 A 
ATOM      5  C20 ZIN A   1      17.860  -3.525  10.130  0.00  0.00     0.040 A 
ATOM      6  I21 ZIN A   1      17.141  -4.627  11.761  0.00  0.00    -0.042 I 
ATOM      7  C22 ZIN A   1      18.018  -4.138   8.888  0.00  0.00     0.068 A 
ATOM      8  C31 ZIN A   1      18.492  -3.399   7.801  0.00  0.00     0.051 A 
ATOM      9  I32 ZIN A   1      18.731  -4.319   5.935  0.00  0.00    -0.041 I 
ENDROOT
BRANCH   4  10
ATOM     10  C12 ZIN A   1      18.013  -1.522  11.599  0.00  0.00     0.254 C 
ATOM     11  O13 ZIN A   1      16.916  -1.132  11.949  0.00  0.00    -0.268 OA
ATOM     12  N14 ZIN A   1      19.078  -1.357  12.410  0.00  0.00    -0.348 N 
ATOM     13  H38 ZIN A   1      19.953  -1.668  12.130  0.00  0.00     0.163 HD
BRANCH  12  14
ATOM     14  C15 ZIN A   1      18.912  -0.709  13.712  0.00  0.00     0.132 C 
BRANCH  14  15
ATOM     15  C16 ZIN A   1      19.336  -1.674  14.821  0.00  0.00     0.191 C 
BRANCH  15  16
ATOM     16  O17 ZIN A   1      18.986  -1.124  16.092  0.00  0.00    -0.399 OA
ATOM     17  H42 ZIN A   1      19.180  -0.180  16.178  0.00  0.00     0.209 HD
ENDBRANCH  15  16
ENDBRANCH  14  15
BRANCH  14  18
ATOM     18  C18 ZIN A   1      19.782   0.548  13.770  0.00  0.00     0.191 C 
BRANCH  18  19
ATOM     19  O19 ZIN A   1      20.974   0.338  13.010  0.00  0.00    -0.399 OA
ATOM     20  H45 ZIN A   1      21.765   0.199  13.548  0.00  0.00     0.209 HD
ENDBRANCH  18  19
ENDBRANCH  14  18
ENDBRANCH  12  14
ENDBRANCH   4  10
BRANCH   1  21
ATOM     21  N7  ZIN A   1      19.295  -1.322   6.869  0.00  0.00    -0.323 N 
ATOM     22  C5  ZIN A   1      18.433  -0.655   6.077  0.00  0.00     0.250 C 
ATOM     23  O6  ZIN A   1      17.238  -0.763   6.253  0.00  0.00    -0.270 OA
ATOM     24  H37 ZIN A   1      20.246  -1.293   6.685  0.00  0.00     0.169 HD
BRANCH  22  25
ATOM     25  C2  ZIN A   1      18.955   0.228   4.972  0.00  0.00     0.206 C 
ATOM     26  C1  ZIN A   1      18.094   0.041   3.722  0.00  0.00     0.049 C 
BRANCH  25  27
ATOM     27  O4  ZIN A   1      20.307  -0.128   4.678  0.00  0.00    -0.387 OA
ATOM     28  H36 ZIN A   1      20.762  -0.578   5.403  0.00  0.00     0.210 HD
ENDBRANCH  25  27
ENDBRANCH  22  25
ENDBRANCH   1  21
BRANCH   7  29
ATOM     29  C23 ZIN A   1      17.680  -5.567   8.720  0.00  0.00     0.254 C 
ATOM     30  O24 ZIN A   1      18.444  -6.423   9.122  0.00  0.00    -0.268 OA
ATOM     31  N25 ZIN A   1      16.525  -5.921   8.123  0.00  0.00    -0.348 N 
ATOM     32  H46 ZIN A   1      15.915  -5.237   7.803  0.00  0.00     0.163 HD
BRANCH  31  33
ATOM     33  C26 ZIN A   1      16.190  -7.337   7.957  0.00  0.00     0.132 C 
BRANCH  33  34
ATOM     34  C27 ZIN A   1      14.670  -7.497   7.879  0.00  0.00     0.191 C 
BRANCH  34  35
ATOM     35  O28 ZIN A   1      14.045  -6.239   8.145  0.00  0.00    -0.399 OA
ATOM     36  H50 ZIN A   1      14.176  -5.918   9.048  0.00  0.00     0.209 HD
ENDBRANCH  34  35
ENDBRANCH  33  34
BRANCH  33  37
ATOM     37  C29 ZIN A   1      16.824  -7.863   6.668  0.00  0.00     0.191 C 
BRANCH  37  38
ATOM     38  O30 ZIN A   1      18.016  -8.586   6.984  0.00  0.00    -0.399 OA
ATOM     39  H53 ZIN A   1      18.830  -8.086   6.837  0.00  0.00     0.209 HD
ENDBRANCH  37  38
ENDBRANCH  33  37
ENDBRANCH  31  33
ENDBRANCH   7  29
TORSDOF 15
ENDMDL
MODEL 4
REMARK VINA RESULT:      -6.3      5.043      9.020
REMARK  15 active torsions:
REMARK  status: ('A' for Active; 'I' for Inactive)
REMARK    1  A    between atoms: C2_2  and  O4_3 
REMARK    2  A    between atoms: C2_2  and  C5_4 
REMARK       I    between atoms: C5_4  and  N7_6 
REMARK    3  A    between atoms: N7_6  and  C8_7 
REMARK    4  A    between atoms: C11_10  and  C12_11 
REMARK       I    between atoms: C12_11  and  N14_13 
REMARK    5  A    between atoms: N14_13  and  C15_14 
REMARK    6  A    between atoms: C15_14  and  C16_15 
REMARK    7  A    between atoms: C15_14  and  C18_17 
REMARK    8  A    between atoms: C16_15  and  O17_16 
REMARK    9  A    between atoms: C18_17  and  O19_18 
REMARK   10  A    between atoms: C22_21  and  C23_22 
REMARK       I    between atoms: C23_22  and  N25_24 
REMARK   11  A    between atoms: N25_24  and  C26_25 
REMARK   12  A    between atoms: C26_25  and  C27_26 
REMARK   13  A    between atoms: C26_25  and  C29_28 
REMARK   14  A    between atoms: C27_26  and  O28_27 
REMARK   15  A    between atoms: C29_28  and  O30_29 
ROOT
ATOM      1  C8  ZIN A   1      18.736  -2.099   7.946  0.00  0.00     0.070 A 
ATOM      2  C9  ZIN A   1      18.449  -3.446   7.792  0.00  0.00     0.051 A 
ATOM      3  I10 ZIN A   1      18.767  -4.381   5.944  0.00  0.00    -0.041 I 
ATOM      4  C11 ZIN A   1      17.948  -4.184   8.868  0.00  0.00     0.068 A 
ATOM      5  C20 ZIN A   1      17.738  -3.561  10.099  0.00  0.00     0.040 A 
ATOM      6  I21 ZIN A   1      16.988  -4.662  11.717  0.00  0.00    -0.042 I 
ATOM      7  C22 ZIN A   1      18.028  -2.207  10.250  0.00  0.00     0.068 A 
ATOM      8  C31 ZIN A   1      18.533  -1.477   9.170  0.00  0.00     0.051 A 
ATOM      9  I32 ZIN A   1      18.969   0.559   9.396  0.00  0.00    -0.041 I 
ENDROOT
BRANCH   4  10
ATOM     10  C12 ZIN A   1      17.644  -5.620   8.704  0.00  0.00     0.254 C 
ATOM     11  O13 ZIN A   1      18.424  -6.458   9.112  0.00  0.00    -0.268 OA
ATOM     12  N14 ZIN A   1      16.499  -6.001   8.102  0.00  0.00    -0.348 N 
ATOM     13  H38 ZIN A   1      15.877  -5.333   7.776  0.00  0.00     0.163 HD
BRANCH  12  14
ATOM     14  C15 ZIN A   1      16.197  -7.425   7.939  0.00  0.00     0.132 C 
BRANCH  14  15
ATOM     15  C16 ZIN A   1      14.683  -7.616   7.827  0.00  0.00     0.191 C 
BRANCH  15  16
ATOM     16  O17 ZIN A   1      14.107  -6.487   7.168  0.00  0.00    -0.399 OA
ATOM     17  H42 ZIN A   1      14.534  -6.262   6.330  0.00  0.00     0.209 HD
ENDBRANCH  15  16
ENDBRANCH  14  15
BRANCH  14  18
ATOM     18  C18 ZIN A   1      16.872  -7.947   6.669  0.00  0.00     0.191 C 
BRANCH  18  19
ATOM     19  O19 ZIN A   1      18.057  -8.665   7.020  0.00  0.00    -0.399 OA
ATOM     20  H45 ZIN A   1      17.902  -9.588   7.262  0.00  0.00     0.209 HD
ENDBRANCH  18  19
ENDBRANCH  14  18
ENDBRANCH  12  14
ENDBRANCH   4  10
BRANCH   1  21
ATOM     21  N7  ZIN A   1      19.238  -1.363   6.865  0.00  0.00    -0.323 N 
ATOM     22  C5  ZIN A   1      18.393  -0.688   6.060  0.00  0.00     0.250 C 
ATOM     23  O6  ZIN A   1      17.195  -0.789   6.216  0.00  0.00    -0.270 OA
ATOM     24  H37 ZIN A   1      20.192  -1.339   6.695  0.00  0.00     0.169 HD
BRANCH  22  25
ATOM     25  C2  ZIN A   1      18.939   0.193   4.965  0.00  0.00     0.206 C 
ATOM     26  C1  ZIN A   1      18.072   0.046   3.713  0.00  0.00     0.049 C 
BRANCH  25  27
ATOM     27  O4  ZIN A   1      20.280  -0.198   4.664  0.00  0.00    -0.387 OA
ATOM     28  H36 ZIN A   1      20.686   0.309   3.947  0.00  0.00     0.210 HD
ENDBRANCH  25  27
ENDBRANCH  22  25
ENDBRANCH   1  21
BRANCH   7  29
ATOM     29  C23 ZIN A   1      17.806  -1.543  11.552  0.00  0.00     0.254 C 
ATOM     30  O24 ZIN A   1      16.695  -1.151  11.852  0.00  0.00    -0.268 OA
ATOM     31  N25 ZIN A   1      18.835  -1.373  12.406  0.00  0.00    -0.348 N 
ATOM     32  H46 ZIN A   1      19.721  -1.687  12.166  0.00  0.00     0.163 HD
BRANCH  31  33
ATOM     33  C26 ZIN A   1      18.614  -0.716  13.696  0.00  0.00     0.132 C 
BRANCH  33  34
ATOM     34  C27 ZIN A   1      19.060  -1.647  14.826  0.00  0.00     0.191 C 
BRANCH  34  35
ATOM     35  O28 ZIN A   1      19.295  -0.881  16.009  0.00  0.00    -0.399 OA
ATOM     36  H50 ZIN A   1      18.955   0.023  15.966  0.00  0.00     0.209 HD
ENDBRANCH  34  35
ENDBRANCH  33  34
BRANCH  33  37
ATOM     37  C29 ZIN A   1      19.425   0.580  13.753  0.00  0.00     0.191 C 
BRANCH  37  38
ATOM     38  O30 ZIN A   1      20.792   0.301  13.439  0.00  0.00    -0.399 OA
ATOM     39  H53 ZIN A   1      20.921  -0.508  12.927  0.00  0.00     0.209 HD
ENDBRANCH  37  38
ENDBRANCH  33  37
ENDBRANCH  31  33
ENDBRANCH   7  29
TORSDOF 15
ENDMDL
MODEL 5
REMARK VINA RESULT:      -6.2      3.549      9.258
REMARK  15 active torsions:
REMARK  status: ('A' for Active; 'I' for Inactive)
REMARK    1  A    between atoms: C2_2  and  O4_3 
REMARK    2  A    between atoms: C2_2  and  C5_4 
REMARK       I    between atoms: C5_4  and  N7_6 
REMARK    3  A    between atoms: N7_6  and  C8_7 
REMARK    4  A    between atoms: C11_10  and  C12_11 
REMARK       I    between atoms: C12_11  and  N14_13 
REMARK    5  A    between atoms: N14_13  and  C15_14 
REMARK    6  A    between atoms: C15_14  and  C16_15 
REMARK    7  A    between atoms: C15_14  and  C18_17 
REMARK    8  A    between atoms: C16_15  and  O17_16 
REMARK    9  A    between atoms: C18_17  and  O19_18 
REMARK   10  A    between atoms: C22_21  and  C23_22 
REMARK       I    between atoms: C23_22  and  N25_24 
REMARK   11  A    between atoms: N25_24  and  C26_25 
REMARK   12  A    between atoms: C26_25  and  C27_26 
REMARK   13  A    between atoms: C26_25  and  C29_28 
REMARK   14  A    between atoms: C27_26  and  O28_27 
REMARK   15  A    between atoms: C29_28  and  O30_29 
ROOT
ATOM      1  C8  ZIN A   1      18.960   1.037  10.814  0.00  0.00     0.070 A 
ATOM      2  C9  ZIN A   1      19.057   0.684  12.152  0.00  0.00     0.051 A 
ATOM      3  I10 ZIN A   1      19.343   2.164  13.607  0.00  0.00    -0.041 I 
ATOM      4  C11 ZIN A   1      18.964  -0.658  12.531  0.00  0.00     0.068 A 
ATOM      5  C20 ZIN A   1      18.772  -1.642  11.562  0.00  0.00     0.040 A 
ATOM      6  I21 ZIN A   1      18.631  -3.656  12.125  0.00  0.00    -0.042 I 
ATOM      7  C22 ZIN A   1      18.674  -1.283  10.219  0.00  0.00     0.068 A 
ATOM      8  C31 ZIN A   1      18.764   0.061   9.848  0.00  0.00     0.051 A 
ATOM      9  I32 ZIN A   1      18.617   0.601   7.829  0.00  0.00    -0.041 I 
ENDROOT
BRANCH   4  10
ATOM     10  C12 ZIN A   1      19.066  -1.032  13.957  0.00  0.00     0.254 C 
ATOM     11  O13 ZIN A   1      20.055  -1.609  14.365  0.00  0.00    -0.268 OA
ATOM     12  N14 ZIN A   1      18.061  -0.732  14.806  0.00  0.00    -0.348 N 
ATOM     13  H38 ZIN A   1      17.273  -0.271  14.479  0.00  0.00     0.163 HD
BRANCH  12  14
ATOM     14  C15 ZIN A   1      18.162  -1.103  16.219  0.00  0.00     0.132 C 
BRANCH  14  15
ATOM     15  C16 ZIN A   1      19.041  -0.086  16.952  0.00  0.00     0.191 C 
BRANCH  15  16
ATOM     16  O17 ZIN A   1      19.016  -0.359  18.354  0.00  0.00    -0.399 OA
ATOM     17  H42 ZIN A   1      19.877  -0.277  18.786  0.00  0.00     0.209 HD
ENDBRANCH  15  16
ENDBRANCH  14  15
BRANCH  14  18
ATOM     18  C18 ZIN A   1      16.766  -1.114  16.844  0.00  0.00     0.191 C 
BRANCH  18  19
ATOM     19  O19 ZIN A   1      16.347   0.229  17.098  0.00  0.00    -0.399 OA
ATOM     20  H45 ZIN A   1      15.448   0.302  17.447  0.00  0.00     0.209 HD
ENDBRANCH  18  19
ENDBRANCH  14  18
ENDBRANCH  12  14
ENDBRANCH   4  10
BRANCH   1  21
ATOM     21  N7  ZIN A   1      19.053   2.383  10.438  0.00  0.00    -0.323 N 
ATOM     22  C5  ZIN A   1      17.976   3.186  10.537  0.00  0.00     0.250 C 
ATOM     23  O6  ZIN A   1      16.903   2.725  10.866  0.00  0.00    -0.270 OA
ATOM     24  H37 ZIN A   1      19.893   2.737  10.106  0.00  0.00     0.169 HD
BRANCH  22  25
ATOM     25  C2  ZIN A   1      18.104   4.658  10.240  0.00  0.00     0.206 C 
ATOM     26  C1  ZIN A   1      17.039   5.430  11.021  0.00  0.00     0.049 C 
BRANCH  25  27
ATOM     27  O4  ZIN A   1      17.921   4.878   8.840  0.00  0.00    -0.387 OA
ATOM     28  H36 ZIN A   1      18.399   5.646   8.497  0.00  0.00     0.210 HD
ENDBRANCH  25  27
ENDBRANCH  22  25
ENDBRANCH   1  21
BRANCH   7  29
ATOM     29  C23 ZIN A   1      18.472  -2.324   9.189  0.00  0.00     0.254 C 
ATOM     30  O24 ZIN A   1      17.347  -2.612   8.829  0.00  0.00    -0.268 OA
ATOM     31  N25 ZIN A   1      19.534  -2.952   8.647  0.00  0.00    -0.348 N 
ATOM     32  H46 ZIN A   1      20.432  -2.721   8.934  0.00  0.00     0.163 HD
BRANCH  31  33
ATOM     33  C26 ZIN A   1      19.333  -3.982   7.625  0.00  0.00     0.132 C 
BRANCH  33  34
ATOM     34  C27 ZIN A   1      19.686  -3.413   6.249  0.00  0.00     0.191 C 
BRANCH  34  35
ATOM     35  O28 ZIN A   1      19.107  -4.233   5.232  0.00  0.00    -0.399 OA
ATOM     36  H50 ZIN A   1      18.190  -4.484   5.405  0.00  0.00     0.209 HD
ENDBRANCH  34  35
ENDBRANCH  33  34
BRANCH  33  37
ATOM     37  C29 ZIN A   1      20.234  -5.181   7.927  0.00  0.00     0.191 C 
BRANCH  37  38
ATOM     38  O30 ZIN A   1      21.431  -5.086   7.152  0.00  0.00    -0.399 OA
ATOM     39  H53 ZIN A   1      22.238  -5.272   7.650  0.00  0.00     0.209 HD
ENDBRANCH  37  38
ENDBRANCH  33  37
ENDBRANCH  31  33
ENDBRANCH   7  29
TORSDOF 15
ENDMDL
MODEL 6
REMARK VINA RESULT:      -6.1      1.651      5.457
REMARK  15 active torsions:
REMARK  status: ('A' for Active; 'I' for Inactive)
REMARK    1  A    between atoms: C2_2  and  O4_3 
REMARK    2  A    between atoms: C2_2  and  C5_4 
REMARK       I    between atoms: C5_4  and  N7_6 
REMARK    3  A    between atoms: N7_6  and  C8_7 
REMARK    4  A    between atoms: C11_10  and  C12_11 
REMARK       I    between atoms: C12_11  and  N14_13 
REMARK    5  A    between atoms: N14_13  and  C15_14 
REMARK    6  A    between atoms: C15_14  and  C16_15 
REMARK    7  A    between atoms: C15_14  and  C18_17 
REMARK    8  A    between atoms: C16_15  and  O17_16 
REMARK    9  A    between atoms: C18_17  and  O19_18 
REMARK   10  A    between atoms: C22_21  and  C23_22 
REMARK       I    between atoms: C23_22  and  N25_24 
REMARK   11  A    between atoms: N25_24  and  C26_25 
REMARK   12  A    between atoms: C26_25  and  C27_26 
REMARK   13  A    between atoms: C26_25  and  C29_28 
REMARK   14  A    between atoms: C27_26  and  O28_27 
REMARK   15  A    between atoms: C29_28  and  O30_29 
ROOT
ATOM      1  C8  ZIN A   1      17.864   4.916  13.854  0.00  0.00     0.070 A 
ATOM      2  C9  ZIN A   1      17.794   4.139  12.708  0.00  0.00     0.051 A 
ATOM      3  I10 ZIN A   1      17.268   5.015  10.879  0.00  0.00    -0.041 I 
ATOM      4  C11 ZIN A   1      18.074   2.771  12.771  0.00  0.00     0.068 A 
ATOM      5  C20 ZIN A   1      18.425   2.189  13.988  0.00  0.00     0.040 A 
ATOM      6  I21 ZIN A   1      18.848   0.139  14.089  0.00  0.00    -0.042 I 
ATOM      7  C22 ZIN A   1      18.495   2.974  15.138  0.00  0.00     0.068 A 
ATOM      8  C31 ZIN A   1      18.217   4.342  15.067  0.00  0.00     0.051 A 
ATOM      9  I32 ZIN A   1      18.321   5.522  16.794  0.00  0.00    -0.041 I 
ENDROOT
BRANCH   4  10
ATOM     10  C12 ZIN A   1      18.001   1.944  11.548  0.00  0.00     0.254 C 
ATOM     11  O13 ZIN A   1      16.946   1.439  11.218  0.00  0.00    -0.268 OA
ATOM     12  N14 ZIN A   1      19.106   1.751  10.799  0.00  0.00    -0.348 N 
ATOM     13  H38 ZIN A   1      19.947   2.154  11.064  0.00  0.00     0.163 HD
BRANCH  12  14
ATOM     14  C15 ZIN A   1      19.034   0.932   9.588  0.00  0.00     0.132 C 
BRANCH  14  15
ATOM     15  C16 ZIN A   1      19.238   1.820   8.358  0.00  0.00     0.191 C 
BRANCH  15  16
ATOM     16  O17 ZIN A   1      19.047   1.044   7.174  0.00  0.00    -0.399 OA
ATOM     17  H42 ZIN A   1      19.792   1.076   6.558  0.00  0.00     0.209 HD
ENDBRANCH  15  16
ENDBRANCH  14  15
BRANCH  14  18
ATOM     18  C18 ZIN A   1      20.126  -0.139   9.630  0.00  0.00     0.191 C 
BRANCH  18  19
ATOM     19  O19 ZIN A   1      19.754  -1.233   8.789  0.00  0.00    -0.399 OA
ATOM     20  H45 ZIN A   1      19.786  -2.094   9.226  0.00  0.00     0.209 HD
ENDBRANCH  18  19
ENDBRANCH  14  18
ENDBRANCH  12  14
ENDBRANCH   4  10
BRANCH   1  21
ATOM     21  N7  ZIN A   1      17.582   6.287  13.787  0.00  0.00    -0.323 N 
ATOM     22  C5  ZIN A   1      16.390   6.751  14.212  0.00  0.00     0.250 C 
ATOM     23  O6  ZIN A   1      15.528   5.974  14.567  0.00  0.00    -0.270 OA
ATOM     24  H37 ZIN A   1      18.244   6.902  13.435  0.00  0.00     0.169 HD
BRANCH  22  25
ATOM     25  C2  ZIN A   1      16.127   8.234  14.245  0.00  0.00     0.206 C 
ATOM     26  C1  ZIN A   1      17.433   8.977  14.535  0.00  0.00     0.049 C 
BRANCH  25  27
ATOM     27  O4  ZIN A   1      15.175   8.527  15.269  0.00  0.00    -0.387 OA
ATOM     28  H36 ZIN A   1      15.466   8.281  16.158  0.00  0.00     0.210 HD
ENDBRANCH  25  27
ENDBRANCH  22  25
ENDBRANCH   1  21
BRANCH   7  29
ATOM     29  C23 ZIN A   1      18.866   2.361  16.431  0.00  0.00     0.254 C 
ATOM     30  O24 ZIN A   1      20.035   2.289  16.756  0.00  0.00    -0.268 OA
ATOM     31  N25 ZIN A   1      17.908   1.882  17.249  0.00  0.00    -0.348 N 
ATOM     32  H46 ZIN A   1      16.975   1.940  16.990  0.00  0.00     0.163 HD
BRANCH  31  33
ATOM     33  C26 ZIN A   1      18.276   1.275  18.531  0.00  0.00     0.132 C 
BRANCH  33  34
ATOM     34  C27 ZIN A   1      17.202   1.594  19.574  0.00  0.00     0.191 C 
BRANCH  34  35
ATOM     35  O28 ZIN A   1      16.332   2.607  19.066  0.00  0.00    -0.399 OA
ATOM     36  H50 ZIN A   1      15.411   2.324  18.975  0.00  0.00     0.209 HD
ENDBRANCH  34  35
ENDBRANCH  33  34
BRANCH  33  37
ATOM     37  C29 ZIN A   1      18.389  -0.241  18.362  0.00  0.00     0.191 C 
BRANCH  37  38
ATOM     38  O30 ZIN A   1      19.759  -0.599  18.171  0.00  0.00    -0.399 OA
ATOM     39  H53 ZIN A   1      19.945  -1.003  17.313  0.00  0.00     0.209 HD
ENDBRANCH  37  38
ENDBRANCH  33  37
ENDBRANCH  31  33
ENDBRANCH   7  29
TORSDOF 15
ENDMDL
MODEL 7
REMARK VINA RESULT:      -6.1      1.659      7.864
REMARK  15 active torsions:
REMARK  status: ('A' for Active; 'I' for Inactive)
REMARK    1  A    between atoms: C2_2  and  O4_3 
REMARK    2  A    between atoms: C2_2  and  C5_4 
REMARK       I    between atoms: C5_4  and  N7_6 
REMARK    3  A    between atoms: N7_6  and  C8_7 
REMARK    4  A    between atoms: C11_10  and  C12_11 
REMARK       I    between atoms: C12_11  and  N14_13 
REMARK    5  A    between atoms: N14_13  and  C15_14 
REMARK    6  A    between atoms: C15_14  and  C16_15 
REMARK    7  A    between atoms: C15_14  and  C18_17 
REMARK    8  A    between atoms: C16_15  and  O17_16 
REMARK    9  A    between atoms: C18_17  and  O19_18 
REMARK   10  A    between atoms: C22_21  and  C23_22 
REMARK       I    between atoms: C23_22  and  N25_24 
REMARK   11  A    between atoms: N25_24  and  C26_25 
REMARK   12  A    between atoms: C26_25  and  C27_26 
REMARK   13  A    between atoms: C26_25  and  C29_28 
REMARK   14  A    between atoms: C27_26  and  O28_27 
REMARK   15  A    between atoms: C29_28  and  O30_29 
ROOT
ATOM      1  C8  ZIN A   1      17.897   4.943  13.860  0.00  0.00     0.070 A 
ATOM      2  C9  ZIN A   1      18.243   4.365  15.072  0.00  0.00     0.051 A 
ATOM      3  I10 ZIN A   1      18.373   5.547  16.797  0.00  0.00    -0.041 I 
ATOM      4  C11 ZIN A   1      18.506   2.994  15.144  0.00  0.00     0.068 A 
ATOM      5  C20 ZIN A   1      18.419   2.209  13.995  0.00  0.00     0.040 A 
ATOM      6  I21 ZIN A   1      18.810   0.153  14.098  0.00  0.00    -0.042 I 
ATOM      7  C22 ZIN A   1      18.070   2.794  12.779  0.00  0.00     0.068 A 
ATOM      8  C31 ZIN A   1      17.804   4.164  12.716  0.00  0.00     0.051 A 
ATOM      9  I32 ZIN A   1      17.281   5.044  10.888  0.00  0.00    -0.041 I 
ENDROOT
BRANCH   4  10
ATOM     10  C12 ZIN A   1      18.873   2.379  16.436  0.00  0.00     0.254 C 
ATOM     11  O13 ZIN A   1      20.042   2.292  16.758  0.00  0.00    -0.268 OA
ATOM     12  N14 ZIN A   1      17.910   1.915  17.259  0.00  0.00    -0.348 N 
ATOM     13  H38 ZIN A   1      16.978   1.985  17.001  0.00  0.00     0.163 HD
BRANCH  12  14
ATOM     14  C15 ZIN A   1      18.274   1.305  18.540  0.00  0.00     0.132 C 
BRANCH  14  15
ATOM     15  C16 ZIN A   1      17.203   1.632  19.583  0.00  0.00     0.191 C 
BRANCH  15  16
ATOM     16  O17 ZIN A   1      16.328   2.638  19.068  0.00  0.00    -0.399 OA
ATOM     17  H42 ZIN A   1      16.632   3.038  18.242  0.00  0.00     0.209 HD
ENDBRANCH  15  16
ENDBRANCH  14  15
BRANCH  14  18
ATOM     18  C18 ZIN A   1      18.375  -0.212  18.372  0.00  0.00     0.191 C 
BRANCH  18  19
ATOM     19  O19 ZIN A   1      19.744  -0.581  18.188  0.00  0.00    -0.399 OA
ATOM     20  H45 ZIN A   1      19.898  -1.535  18.186  0.00  0.00     0.209 HD
ENDBRANCH  18  19
ENDBRANCH  14  18
ENDBRANCH  12  14
ENDBRANCH   4  10
BRANCH   1  21
ATOM     21  N7  ZIN A   1      17.635   6.318  13.791  0.00  0.00    -0.323 N 
ATOM     22  C5  ZIN A   1      16.443   6.796  14.199  0.00  0.00     0.250 C 
ATOM     23  O6  ZIN A   1      15.566   6.031  14.539  0.00  0.00    -0.270 OA
ATOM     24  H37 ZIN A   1      18.310   6.925  13.451  0.00  0.00     0.169 HD
BRANCH  22  25
ATOM     25  C2  ZIN A   1      16.199   8.284  14.231  0.00  0.00     0.206 C 
ATOM     26  C1  ZIN A   1      17.505   9.006  14.568  0.00  0.00     0.049 C 
BRANCH  25  27
ATOM     27  O4  ZIN A   1      15.218   8.584  15.225  0.00  0.00    -0.387 OA
ATOM     28  H36 ZIN A   1      14.543   7.899  15.330  0.00  0.00     0.210 HD
ENDBRANCH  25  27
ENDBRANCH  22  25
ENDBRANCH   1  21
BRANCH   7  29
ATOM     29  C23 ZIN A   1      17.977   1.965  11.559  0.00  0.00     0.254 C 
ATOM     30  O24 ZIN A   1      16.915   1.463  11.245  0.00  0.00    -0.268 OA
ATOM     31  N25 ZIN A   1      19.069   1.765  10.795  0.00  0.00    -0.348 N 
ATOM     32  H46 ZIN A   1      19.916   2.166  11.046  0.00  0.00     0.163 HD
BRANCH  31  33
ATOM     33  C26 ZIN A   1      18.976   0.944   9.586  0.00  0.00     0.132 C 
BRANCH  33  34
ATOM     34  C27 ZIN A   1      19.380   1.779   8.369  0.00  0.00     0.191 C 
BRANCH  34  35
ATOM     35  O28 ZIN A   1      18.798   1.217   7.191  0.00  0.00    -0.399 OA
ATOM     36  H50 ZIN A   1      18.040   1.714   6.852  0.00  0.00     0.209 HD
ENDBRANCH  34  35
ENDBRANCH  33  34
BRANCH  33  37
ATOM     37  C29 ZIN A   1      19.913  -0.258   9.713  0.00  0.00     0.191 C 
BRANCH  37  38
ATOM     38  O30 ZIN A   1      20.890   0.003  10.723  0.00  0.00    -0.399 OA
ATOM     39  H53 ZIN A   1      21.297   0.878  10.660  0.00  0.00     0.209 HD
ENDBRANCH  37  38
ENDBRANCH  33  37
ENDBRANCH  31  33
ENDBRANCH   7  29
TORSDOF 15
ENDMDL
MODEL 8
REMARK VINA RESULT:      -6.1      3.614      6.656
REMARK  15 active torsions:
REMARK  status: ('A' for Active; 'I' for Inactive)
REMARK    1  A    between atoms: C2_2  and  O4_3 
REMARK    2  A    between atoms: C2_2  and  C5_4 
REMARK       I    between atoms: C5_4  and  N7_6 
REMARK    3  A    between atoms: N7_6  and  C8_7 
REMARK    4  A    between atoms: C11_10  and  C12_11 
REMARK       I    between atoms: C12_11  and  N14_13 
REMARK    5  A    between atoms: N14_13  and  C15_14 
REMARK    6  A    between atoms: C15_14  and  C16_15 
REMARK    7  A    between atoms: C15_14  and  C18_17 
REMARK    8  A    between atoms: C16_15  and  O17_16 
REMARK    9  A    between atoms: C18_17  and  O19_18 
REMARK   10  A    between atoms: C22_21  and  C23_22 
REMARK       I    between atoms: C23_22  and  N25_24 
REMARK   11  A    between atoms: N25_24  and  C26_25 
REMARK   12  A    between atoms: C26_25  and  C27_26 
REMARK   13  A    between atoms: C26_25  and  C29_28 
REMARK   14  A    between atoms: C27_26  and  O28_27 
REMARK   15  A    between atoms: C29_28  and  O30_29 
ROOT
ATOM      1  C8  ZIN A   1      19.007   0.996  10.663  0.00  0.00     0.070 A 
ATOM      2  C9  ZIN A   1      18.805   0.039   9.680  0.00  0.00     0.051 A 
ATOM      3  I10 ZIN A   1      18.644   0.615   7.672  0.00  0.00    -0.041 I 
ATOM      4  C11 ZIN A   1      18.707  -1.311  10.027  0.00  0.00     0.068 A 
ATOM      5  C20 ZIN A   1      18.815  -1.694  11.364  0.00  0.00     0.040 A 
ATOM      6  I21 ZIN A   1      18.671  -3.717  11.891  0.00  0.00    -0.042 I 
ATOM      7  C22 ZIN A   1      19.019  -0.729  12.348  0.00  0.00     0.068 A 
ATOM      8  C31 ZIN A   1      19.120   0.619  11.993  0.00  0.00     0.051 A 
ATOM      9  I32 ZIN A   1      19.426   2.071  13.471  0.00  0.00    -0.041 I 
ENDROOT
BRANCH   4  10
ATOM     10  C12 ZIN A   1      18.493  -2.331   8.980  0.00  0.00     0.254 C 
ATOM     11  O13 ZIN A   1      17.369  -2.718   8.729  0.00  0.00    -0.268 OA
ATOM     12  N14 ZIN A   1      19.546  -2.832   8.302  0.00  0.00    -0.348 N 
ATOM     13  H38 ZIN A   1      20.443  -2.522   8.503  0.00  0.00     0.163 HD
BRANCH  12  14
ATOM     14  C15 ZIN A   1      19.335  -3.842   7.264  0.00  0.00     0.132 C 
BRANCH  14  15
ATOM     15  C16 ZIN A   1      19.481  -3.195   5.885  0.00  0.00     0.191 C 
BRANCH  15  16
ATOM     16  O17 ZIN A   1      18.883  -4.038   4.898  0.00  0.00    -0.399 OA
ATOM     17  H42 ZIN A   1      19.120  -3.808   3.989  0.00  0.00     0.209 HD
ENDBRANCH  15  16
ENDBRANCH  14  15
BRANCH  14  18
ATOM     18  C18 ZIN A   1      20.372  -4.956   7.418  0.00  0.00     0.191 C 
BRANCH  18  19
ATOM     19  O19 ZIN A   1      20.024  -6.052   6.567  0.00  0.00    -0.399 OA
ATOM     20  H45 ZIN A   1      20.616  -6.812   6.642  0.00  0.00     0.209 HD
ENDBRANCH  18  19
ENDBRANCH  14  18
ENDBRANCH  12  14
ENDBRANCH   4  10
BRANCH   1  21
ATOM     21  N7  ZIN A   1      19.104   2.349  10.310  0.00  0.00    -0.323 N 
ATOM     22  C5  ZIN A   1      18.031   3.155  10.432  0.00  0.00     0.250 C 
ATOM     23  O6  ZIN A   1      16.958   2.692  10.760  0.00  0.00    -0.270 OA
ATOM     24  H37 ZIN A   1      19.943   2.705   9.979  0.00  0.00     0.169 HD
BRANCH  22  25
ATOM     25  C2  ZIN A   1      18.163   4.631  10.160  0.00  0.00     0.206 C 
ATOM     26  C1  ZIN A   1      17.008   5.378  10.829  0.00  0.00     0.049 C 
BRANCH  25  27
ATOM     27  O4  ZIN A   1      18.126   4.861   8.750  0.00  0.00    -0.387 OA
ATOM     28  H36 ZIN A   1      17.262   4.696   8.348  0.00  0.00     0.210 HD
ENDBRANCH  25  27
ENDBRANCH  22  25
ENDBRANCH   1  21
BRANCH   7  29
ATOM     29  C23 ZIN A   1      19.133  -1.130  13.766  0.00  0.00     0.254 C 
ATOM     30  O24 ZIN A   1      20.059  -1.830  14.127  0.00  0.00    -0.268 OA
ATOM     31  N25 ZIN A   1      18.211  -0.720  14.659  0.00  0.00    -0.348 N 
ATOM     32  H46 ZIN A   1      17.472  -0.161  14.371  0.00  0.00     0.163 HD
BRANCH  31  33
ATOM     33  C26 ZIN A   1      18.325  -1.117  16.065  0.00  0.00     0.132 C 
BRANCH  33  34
ATOM     34  C27 ZIN A   1      19.256  -0.148  16.796  0.00  0.00     0.191 C 
BRANCH  34  35
ATOM     35  O28 ZIN A   1      19.477  -0.614  18.128  0.00  0.00    -0.399 OA
ATOM     36  H50 ZIN A   1      19.690   0.087  18.759  0.00  0.00     0.209 HD
ENDBRANCH  34  35
ENDBRANCH  33  34
BRANCH  33  37
ATOM     37  C29 ZIN A   1      16.941  -1.085  16.717  0.00  0.00     0.191 C 
BRANCH  37  38
ATOM     38  O30 ZIN A   1      16.629   0.255  17.107  0.00  0.00    -0.399 OA
ATOM     39  H53 ZIN A   1      17.137   0.572  17.866  0.00  0.00     0.209 HD
ENDBRANCH  37  38
ENDBRANCH  33  37
ENDBRANCH  31  33
ENDBRANCH   7  29
TORSDOF 15
ENDMDL
MODEL 9
REMARK VINA RESULT:      -5.8      3.230      8.593
REMARK  15 active torsions:
REMARK  status: ('A' for Active; 'I' for Inactive)
REMARK    1  A    between atoms: C2_2  and  O4_3 
REMARK    2  A    between atoms: C2_2  and  C5_4 
REMARK       I    between atoms: C5_4  and  N7_6 
REMARK    3  A    between atoms: N7_6  and  C8_7 
REMARK    4  A    between atoms: C11_10  and  C12_11 
REMARK       I    between atoms: C12_11  and  N14_13 
REMARK    5  A    between atoms: N14_13  and  C15_14 
REMARK    6  A    between atoms: C15_14  and  C16_15 
REMARK    7  A    between atoms: C15_14  and  C18_17 
REMARK    8  A    between atoms: C16_15  and  O17_16 
REMARK    9  A    between atoms: C18_17  and  O19_18 
REMARK   10  A    between atoms: C22_21  and  C23_22 
REMARK       I    between atoms: C23_22  and  N25_24 
REMARK   11  A    between atoms: N25_24  and  C26_25 
REMARK   12  A    between atoms: C26_25  and  C27_26 
REMARK   13  A    between atoms: C26_25  and  C29_28 
REMARK   14  A    between atoms: C27_26  and  O28_27 
REMARK   15  A    between atoms: C29_28  and  O30_29 
ROOT
ATOM      1  C8  ZIN A   1      18.816   2.452  12.459  0.00  0.00     0.070 A 
ATOM      2  C9  ZIN A   1      18.936   2.703  13.817  0.00  0.00     0.051 A 
ATOM      3  I10 ZIN A   1      19.327   4.648  14.493  0.00  0.00    -0.041 I 
ATOM      4  C11 ZIN A   1      18.798   1.661  14.738  0.00  0.00     0.068 A 
ATOM      5  C20 ZIN A   1      18.537   0.367  14.287  0.00  0.00     0.040 A 
ATOM      6  I21 ZIN A   1      18.326  -1.200  15.662  0.00  0.00    -0.042 I 
ATOM      7  C22 ZIN A   1      18.416   0.119  12.921  0.00  0.00     0.068 A 
ATOM      8  C31 ZIN A   1      18.552   1.168  12.007  0.00  0.00     0.051 A 
ATOM      9  I32 ZIN A   1      18.371   0.796   9.954  0.00  0.00    -0.041 I 
ENDROOT
BRANCH   4  10
ATOM     10  C12 ZIN A   1      18.924   1.929  16.185  0.00  0.00     0.254 C 
ATOM     11  O13 ZIN A   1      19.955   1.655  16.767  0.00  0.00    -0.268 OA
ATOM     12  N14 ZIN A   1      17.895   2.481  16.860  0.00  0.00    -0.348 N 
ATOM     13  H38 ZIN A   1      17.073   2.700  16.395  0.00  0.00     0.163 HD
BRANCH  12  14
ATOM     14  C15 ZIN A   1      18.020   2.748  18.294  0.00  0.00     0.132 C 
BRANCH  14  15
ATOM     15  C16 ZIN A   1      17.359   4.088  18.624  0.00  0.00     0.191 C 
BRANCH  15  16
ATOM     16  O17 ZIN A   1      15.988   3.872  18.964  0.00  0.00    -0.399 OA
ATOM     17  H42 ZIN A   1      15.523   3.277  18.362  0.00  0.00     0.209 HD
ENDBRANCH  15  16
ENDBRANCH  14  15
BRANCH  14  18
ATOM     18  C18 ZIN A   1      17.332   1.632  19.083  0.00  0.00     0.191 C 
BRANCH  18  19
ATOM     19  O19 ZIN A   1      18.209   0.508  19.182  0.00  0.00    -0.399 OA
ATOM     20  H45 ZIN A   1      18.178  -0.084  18.419  0.00  0.00     0.209 HD
ENDBRANCH  18  19
ENDBRANCH  14  18
ENDBRANCH  12  14
ENDBRANCH   4  10
BRANCH   1  21
ATOM     21  N7  ZIN A   1      18.956   3.501  11.540  0.00  0.00    -0.323 N 
ATOM     22  C5  ZIN A   1      17.863   4.128  11.063  0.00  0.00     0.250 C 
ATOM     23  O6  ZIN A   1      16.756   3.729  11.360  0.00  0.00    -0.270 OA
ATOM     24  H37 ZIN A   1      19.839   3.774  11.247  0.00  0.00     0.169 HD
BRANCH  22  25
ATOM     25  C2  ZIN A   1      18.016   5.327  10.163  0.00  0.00     0.206 C 
ATOM     26  C1  ZIN A   1      16.956   6.371  10.520  0.00  0.00     0.049 C 
BRANCH  25  27
ATOM     27  O4  ZIN A   1      17.848   4.924   8.802  0.00  0.00    -0.387 OA
ATOM     28  H36 ZIN A   1      18.512   5.288   8.200  0.00  0.00     0.210 HD
ENDBRANCH  25  27
ENDBRANCH  22  25
ENDBRANCH   1  21
BRANCH   7  29
ATOM     29  C23 ZIN A   1      18.140  -1.251  12.439  0.00  0.00     0.254 C 
ATOM     30  O24 ZIN A   1      17.000  -1.674  12.430  0.00  0.00    -0.268 OA
ATOM     31  N25 ZIN A   1      19.152  -2.031  12.010  0.00  0.00    -0.348 N 
ATOM     32  H46 ZIN A   1      20.061  -1.693  12.017  0.00  0.00     0.163 HD
BRANCH  31  33
ATOM     33  C26 ZIN A   1      18.878  -3.388  11.532  0.00  0.00     0.132 C 
BRANCH  33  34
ATOM     34  C27 ZIN A   1      18.465  -3.338  10.060  0.00  0.00     0.191 C 
BRANCH  34  35
ATOM     35  O28 ZIN A   1      19.507  -2.729   9.294  0.00  0.00    -0.399 OA
ATOM     36  H50 ZIN A   1      19.678  -3.164   8.447  0.00  0.00     0.209 HD
ENDBRANCH  34  35
ENDBRANCH  33  34
BRANCH  33  37
ATOM     37  C29 ZIN A   1      20.138  -4.244  11.680  0.00  0.00     0.191 C 
BRANCH  37  38
ATOM     38  O30 ZIN A   1      21.293  -3.436  11.444  0.00  0.00    -0.399 OA
ATOM     39  H53 ZIN A   1      22.047  -3.651  12.010  0.00  0.00     0.209 HD
ENDBRANCH  37  38
ENDBRANCH  33  37
ENDBRANCH  31  33
ENDBRANCH   7  29
TORSDOF 15
ENDMDL
