MODEL 1
REMARK VINA RESULT:      -9.1      0.000      0.000
REMARK  5 active torsions:
REMARK  status: ('A' for Active; 'I' for Inactive)
REMARK    1  A    between atoms: C2_2  and  C5_5 
REMARK    2  A    between atoms: C7_7  and  C8_8 
REMARK    3  A    between atoms: C12_12  and  N13_13 
REMARK       I    between atoms: N13_13  and  C14_14 
REMARK    4  A    between atoms: C14_14  and  C16_16 
REMARK    5  A    between atoms: C28_28  and  O29_29 
ROOT
ATOM      1  C5  <0> d   1      18.595   0.709  15.825  0.00  0.00    -0.017 A 
ATOM      2  C6  <0> d   1      18.635   1.782  14.957  0.00  0.00     0.021 A 
ATOM      3  C7  <0> d   1      18.798   1.571  13.600  0.00  0.00    -0.023 A 
ATOM      4  C12 <0> d   1      18.923   0.279  13.109  0.00  0.00     0.044 A 
ATOM      5  C27 <0> d   1      18.883  -0.801  13.981  0.00  0.00     0.067 A 
ATOM      6  C28 <0> d   1      18.724  -0.585  15.340  0.00  0.00     0.074 A 
ENDROOT
BRANCH   4   7
ATOM      7  N13 <0> d   1      19.088   0.065  11.736  0.00  0.00    -0.322 N 
ATOM      8  C14 <0> d   1      18.116  -0.542  11.027  0.00  0.00     0.261 C 
ATOM      9  O15 <0> d   1      17.051  -0.802  11.554  0.00  0.00    -0.267 OA
ATOM     10  H49 <0> d   1      19.903   0.353  11.295  0.00  0.00     0.169 HD
BRANCH   8  11
ATOM     11  C16 <0> d   1      18.343  -0.890   9.615  0.00  0.00     0.100 A 
ATOM     12  C25 <0> d   1      18.514   0.164   8.603  0.00  0.00     0.201 A 
ATOM     13  C24 <0> d   1      18.743  -0.269   7.212  0.00  0.00     0.044 A 
ATOM     14  O26 <0> d   1      18.473   1.345   8.902  0.00  0.00    -0.286 OA
ATOM     15  C19 <0> d   1      18.772  -1.645   6.932  0.00  0.00     0.070 A 
ATOM     16  C23 <0> d   1      18.919   0.660   6.187  0.00  0.00     0.018 A 
ATOM     17  N18 <0> d   1      18.598  -2.565   7.943  0.00  0.00    -0.259 NA
ATOM     18  C20 <0> d   1      18.982  -2.067   5.621  0.00  0.00     0.032 A 
ATOM     19  C17 <0> d   1      18.393  -2.210   9.219  0.00  0.00     0.138 A 
ATOM     20  C21 <0> d   1      19.155  -1.138   4.618  0.00  0.00     0.002 A 
ATOM     21  C22 <0> d   1      19.125   0.221   4.898  0.00  0.00     0.001 A 
ENDBRANCH   8  11
ENDBRANCH   4   7
BRANCH   3  22
ATOM     22  C8  <0> d   1      18.841   2.745  12.656  0.00  0.00    -0.022 C 
ATOM     23  C9  <0> d   1      20.015   2.579  11.689  0.00  0.00     0.019 C 
ATOM     24  C10 <0> d   1      17.533   2.811  11.866  0.00  0.00     0.019 C 
ATOM     25  C11 <0> d   1      19.019   4.036  13.457  0.00  0.00     0.019 C 
ENDBRANCH   3  22
BRANCH   6  26
ATOM     26  O29 <0> d   1      18.685  -1.640  16.196  0.00  0.00    -0.360 OA
ATOM     27  H56 <0> d   1      19.410  -1.655  16.835  0.00  0.00     0.217 HD
ENDBRANCH   6  26
BRANCH   1  28
ATOM     28  C2  <0> d   1      18.417   0.944  17.303  0.00  0.00    -0.021 C 
ATOM     29  C1  <0> d   1      19.494   0.180  18.076  0.00  0.00     0.019 C 
ATOM     30  C3  <0> d   1      17.034   0.451  17.735  0.00  0.00     0.019 C 
ATOM     31  C4  <0> d   1      18.541   2.440  17.600  0.00  0.00     0.019 C 
ENDBRANCH   1  28
TORSDOF 5
ENDMDL
MODEL 2
REMARK VINA RESULT:      -9.1      1.495      8.727
REMARK  5 active torsions:
REMARK  status: ('A' for Active; 'I' for Inactive)
REMARK    1  A    between atoms: C2_2  and  C5_5 
REMARK    2  A    between atoms: C7_7  and  C8_8 
REMARK    3  A    between atoms: C12_12  and  N13_13 
REMARK       I    between atoms: N13_13  and  C14_14 
REMARK    4  A    between atoms: C14_14  and  C16_16 
REMARK    5  A    between atoms: C28_28  and  O29_29 
ROOT
ATOM      1  C5  <0> d   1      18.742  -1.067   7.088  0.00  0.00    -0.017 A 
ATOM      2  C6  <0> d   1      18.721  -2.135   7.963  0.00  0.00     0.021 A 
ATOM      3  C7  <0> d   1      18.881  -1.924   9.320  0.00  0.00    -0.023 A 
ATOM      4  C12 <0> d   1      19.062  -0.636   9.805  0.00  0.00     0.044 A 
ATOM      5  C27 <0> d   1      19.083   0.439   8.926  0.00  0.00     0.067 A 
ATOM      6  C28 <0> d   1      18.928   0.222   7.567  0.00  0.00     0.074 A 
ENDROOT
BRANCH   4   7
ATOM      7  N13 <0> d   1      19.224  -0.421  11.178  0.00  0.00    -0.322 N 
ATOM      8  C14 <0> d   1      18.294   0.272  11.865  0.00  0.00     0.261 C 
ATOM      9  O15 <0> d   1      17.263   0.614  11.318  0.00  0.00    -0.267 OA
ATOM     10  H49 <0> d   1      20.004  -0.770  11.635  0.00  0.00     0.169 HD
BRANCH   8  11
ATOM     11  C16 <0> d   1      18.528   0.616  13.277  0.00  0.00     0.100 A 
ATOM     12  C25 <0> d   1      18.596  -0.437  14.302  0.00  0.00     0.201 A 
ATOM     13  C24 <0> d   1      18.838  -0.009  15.692  0.00  0.00     0.044 A 
ATOM     14  O26 <0> d   1      18.462  -1.613  14.014  0.00  0.00    -0.286 OA
ATOM     15  C19 <0> d   1      18.978   1.363  15.959  0.00  0.00     0.070 A 
ATOM     16  C23 <0> d   1      18.922  -0.938  16.729  0.00  0.00     0.018 A 
ATOM     17  N18 <0> d   1      18.895   2.283  14.936  0.00  0.00    -0.259 NA
ATOM     18  C20 <0> d   1      19.202   1.781  17.269  0.00  0.00     0.032 A 
ATOM     19  C17 <0> d   1      18.681   1.932  13.661  0.00  0.00     0.138 A 
ATOM     20  C21 <0> d   1      19.282   0.852  18.283  0.00  0.00     0.002 A 
ATOM     21  C22 <0> d   1      19.143  -0.503  18.017  0.00  0.00     0.001 A 
ENDBRANCH   8  11
ENDBRANCH   4   7
BRANCH   3  22
ATOM     22  C8  <0> d   1      18.858  -3.092  10.271  0.00  0.00    -0.022 C 
ATOM     23  C9  <0> d   1      20.011  -2.960  11.269  0.00  0.00     0.019 C 
ATOM     24  C10 <0> d   1      17.528  -3.108  11.027  0.00  0.00     0.019 C 
ATOM     25  C11 <0> d   1      19.011  -4.394   9.483  0.00  0.00     0.019 C 
ENDBRANCH   3  22
BRANCH   6  26
ATOM     26  O29 <0> d   1      18.948   1.272   6.704  0.00  0.00    -0.360 OA
ATOM     27  H56 <0> d   1      19.826   1.477   6.354  0.00  0.00     0.217 HD
ENDBRANCH   6  26
BRANCH   1  28
ATOM     28  C2  <0> d   1      18.568  -1.303   5.609  0.00  0.00    -0.021 C 
ATOM     29  C1  <0> d   1      19.590  -0.470   4.835  0.00  0.00     0.019 C 
ATOM     30  C3  <0> d   1      17.154  -0.893   5.191  0.00  0.00     0.019 C 
ATOM     31  C4  <0> d   1      18.780  -2.787   5.301  0.00  0.00     0.019 C 
ENDBRANCH   1  28
TORSDOF 5
ENDMDL
MODEL 3
REMARK VINA RESULT:      -8.7      1.112      1.796
REMARK  5 active torsions:
REMARK  status: ('A' for Active; 'I' for Inactive)
REMARK    1  A    between atoms: C2_2  and  C5_5 
REMARK    2  A    between atoms: C7_7  and  C8_8 
REMARK    3  A    between atoms: C12_12  and  N13_13 
REMARK       I    between atoms: N13_13  and  C14_14 
REMARK    4  A    between atoms: C14_14  and  C16_16 
REMARK    5  A    between atoms: C28_28  and  O29_29 
ROOT
ATOM      1  C5  <0> d   1      18.596   0.792  15.660  0.00  0.00    -0.017 A 
ATOM      2  C6  <0> d   1      18.648   1.991  14.975  0.00  0.00     0.021 A 
ATOM      3  C7  <0> d   1      18.849   2.000  13.607  0.00  0.00    -0.023 A 
ATOM      4  C12 <0> d   1      18.999   0.803  12.920  0.00  0.00     0.044 A 
ATOM      5  C27 <0> d   1      18.947  -0.402  13.607  0.00  0.00     0.067 A 
ATOM      6  C28 <0> d   1      18.751  -0.407  14.978  0.00  0.00     0.074 A 
ENDROOT
BRANCH   4   7
ATOM      7  N13 <0> d   1      19.203   0.812  11.535  0.00  0.00    -0.322 N 
ATOM      8  C14 <0> d   1      18.207   0.441  10.706  0.00  0.00     0.261 C 
ATOM      9  O15 <0> d   1      17.100   0.206  11.152  0.00  0.00    -0.267 OA
ATOM     10  H49 <0> d   1      20.059   1.085  11.173  0.00  0.00     0.169 HD
BRANCH   8  11
ATOM     11  C16 <0> d   1      18.460   0.318   9.262  0.00  0.00     0.100 A 
ATOM     12  C25 <0> d   1      18.485  -1.004   8.616  0.00  0.00     0.201 A 
ATOM     13  C24 <0> d   1      18.741  -1.040   7.164  0.00  0.00     0.044 A 
ATOM     14  O26 <0> d   1      18.297  -2.025   9.253  0.00  0.00    -0.286 OA
ATOM     15  C19 <0> d   1      18.956   0.174   6.488  0.00  0.00     0.070 A 
ATOM     16  C23 <0> d   1      18.779  -2.247   6.467  0.00  0.00     0.018 A 
ATOM     17  N18 <0> d   1      18.919   1.368   7.175  0.00  0.00    -0.259 NA
ATOM     18  C20 <0> d   1      19.204   0.153   5.118  0.00  0.00     0.032 A 
ATOM     19  C17 <0> d   1      18.685   1.441   8.492  0.00  0.00     0.138 A 
ATOM     20  C21 <0> d   1      19.238  -1.047   4.443  0.00  0.00     0.002 A 
ATOM     21  C22 <0> d   1      19.026  -2.244   5.112  0.00  0.00     0.001 A 
ENDBRANCH   8  11
ENDBRANCH   4   7
BRANCH   3  22
ATOM     22  C8  <0> d   1      18.905   3.309  12.864  0.00  0.00    -0.022 C 
ATOM     23  C9  <0> d   1      20.049   3.271  11.848  0.00  0.00     0.019 C 
ATOM     24  C10 <0> d   1      17.581   3.537  12.133  0.00  0.00     0.019 C 
ATOM     25  C11 <0> d   1      19.141   4.449  13.857  0.00  0.00     0.019 C 
ENDBRANCH   3  22
BRANCH   6  26
ATOM     26  O29 <0> d   1      18.700  -1.585  15.654  0.00  0.00    -0.360 OA
ATOM     27  H56 <0> d   1      19.566  -1.934  15.902  0.00  0.00     0.217 HD
ENDBRANCH   6  26
BRANCH   1  28
ATOM     28  C2  <0> d   1      18.377   0.787  17.151  0.00  0.00    -0.021 C 
ATOM     29  C1  <0> d   1      17.005   0.189  17.464  0.00  0.00     0.019 C 
ATOM     30  C3  <0> d   1      18.440   2.222  17.680  0.00  0.00     0.019 C 
ATOM     31  C4  <0> d   1      19.465  -0.053  17.824  0.00  0.00     0.019 C 
ENDBRANCH   1  28
TORSDOF 5
ENDMDL
MODEL 4
REMARK VINA RESULT:      -8.6      2.572      8.253
REMARK  5 active torsions:
REMARK  status: ('A' for Active; 'I' for Inactive)
REMARK    1  A    between atoms: C2_2  and  C5_5 
REMARK    2  A    between atoms: C7_7  and  C8_8 
REMARK    3  A    between atoms: C12_12  and  N13_13 
REMARK       I    between atoms: N13_13  and  C14_14 
REMARK    4  A    between atoms: C14_14  and  C16_16 
REMARK    5  A    between atoms: C28_28  and  O29_29 
ROOT
ATOM      1  C5  <0> d   1      17.607  -4.285   9.446  0.00  0.00    -0.017 A 
ATOM      2  C6  <0> d   1      17.751  -2.929   9.222  0.00  0.00     0.021 A 
ATOM      3  C7  <0> d   1      17.825  -2.054  10.290  0.00  0.00    -0.023 A 
ATOM      4  C12 <0> d   1      17.754  -2.537  11.590  0.00  0.00     0.044 A 
ATOM      5  C27 <0> d   1      17.609  -3.899  11.816  0.00  0.00     0.067 A 
ATOM      6  C28 <0> d   1      17.531  -4.772  10.743  0.00  0.00     0.074 A 
ENDROOT
BRANCH   4   7
ATOM      7  N13 <0> d   1      17.829  -1.651  12.670  0.00  0.00    -0.322 N 
ATOM      8  C14 <0> d   1      18.911  -1.660  13.475  0.00  0.00     0.261 C 
ATOM      9  O15 <0> d   1      19.869  -2.356  13.197  0.00  0.00    -0.267 OA
ATOM     10  H49 <0> d   1      17.102  -1.032  12.841  0.00  0.00     0.169 HD
BRANCH   8  11
ATOM     11  C16 <0> d   1      18.931  -0.828  14.688  0.00  0.00     0.100 A 
ATOM     12  C25 <0> d   1      19.092   0.632  14.592  0.00  0.00     0.201 A 
ATOM     13  C24 <0> d   1      19.097   1.394  15.854  0.00  0.00     0.044 A 
ATOM     14  O26 <0> d   1      19.211   1.188  13.514  0.00  0.00    -0.286 OA
ATOM     15  C19 <0> d   1      18.962   0.692  17.065  0.00  0.00     0.070 A 
ATOM     16  C23 <0> d   1      19.241   2.781  15.860  0.00  0.00     0.018 A 
ATOM     17  N18 <0> d   1      18.820  -0.679  17.061  0.00  0.00    -0.259 NA
ATOM     18  C20 <0> d   1      18.970   1.399  18.264  0.00  0.00     0.032 A 
ATOM     19  C17 <0> d   1      18.806  -1.404  15.935  0.00  0.00     0.138 A 
ATOM     20  C21 <0> d   1      19.113   2.770  18.254  0.00  0.00     0.002 A 
ATOM     21  C22 <0> d   1      19.247   3.460  17.058  0.00  0.00     0.001 A 
ENDBRANCH   8  11
ENDBRANCH   4   7
BRANCH   3  22
ATOM     22  C8  <0> d   1      17.983  -0.576  10.042  0.00  0.00    -0.022 C 
ATOM     23  C9  <0> d   1      17.026   0.199  10.951  0.00  0.00     0.019 C 
ATOM     24  C10 <0> d   1      19.423  -0.159  10.342  0.00  0.00     0.019 C 
ATOM     25  C11 <0> d   1      17.658  -0.268   8.579  0.00  0.00     0.019 C 
ENDBRANCH   3  22
BRANCH   6  26
ATOM     26  O29 <0> d   1      17.389  -6.106  10.961  0.00  0.00    -0.360 OA
ATOM     27  H56 <0> d   1      17.354  -6.351  11.896  0.00  0.00     0.217 HD
ENDBRANCH   6  26
BRANCH   1  28
ATOM     28  C2  <0> d   1      17.527  -5.235   8.279  0.00  0.00    -0.021 C 
ATOM     29  C1  <0> d   1      18.524  -6.377   8.481  0.00  0.00     0.019 C 
ATOM     30  C3  <0> d   1      17.864  -4.486   6.988  0.00  0.00     0.019 C 
ATOM     31  C4  <0> d   1      16.110  -5.805   8.182  0.00  0.00     0.019 C 
ENDBRANCH   1  28
TORSDOF 5
ENDMDL
MODEL 5
REMARK VINA RESULT:      -8.6      1.911      8.684
REMARK  5 active torsions:
REMARK  status: ('A' for Active; 'I' for Inactive)
REMARK    1  A    between atoms: C2_2  and  C5_5 
REMARK    2  A    between atoms: C7_7  and  C8_8 
REMARK    3  A    between atoms: C12_12  and  N13_13 
REMARK       I    between atoms: N13_13  and  C14_14 
REMARK    4  A    between atoms: C14_14  and  C16_16 
REMARK    5  A    between atoms: C28_28  and  O29_29 
ROOT
ATOM      1  C5  <0> d   1      18.530  -1.376   7.150  0.00  0.00    -0.017 A 
ATOM      2  C6  <0> d   1      18.596  -2.466   7.995  0.00  0.00     0.021 A 
ATOM      3  C7  <0> d   1      18.487  -2.292   9.362  0.00  0.00    -0.023 A 
ATOM      4  C12 <0> d   1      18.312  -1.018   9.888  0.00  0.00     0.044 A 
ATOM      5  C27 <0> d   1      18.245   0.079   9.039  0.00  0.00     0.067 A 
ATOM      6  C28 <0> d   1      18.360  -0.101   7.670  0.00  0.00     0.074 A 
ENDROOT
BRANCH   4   7
ATOM      7  N13 <0> d   1      18.201  -0.841  11.271  0.00  0.00    -0.322 N 
ATOM      8  C14 <0> d   1      19.228  -0.311  11.966  0.00  0.00     0.261 C 
ATOM      9  O15 <0> d   1      20.204   0.116  11.379  0.00  0.00    -0.267 OA
ATOM     10  H49 <0> d   1      17.387  -1.100  11.729  0.00  0.00     0.169 HD
BRANCH   8  11
ATOM     11  C16 <0> d   1      19.167  -0.251  13.435  0.00  0.00     0.100 A 
ATOM     12  C25 <0> d   1      19.161   1.045  14.131  0.00  0.00     0.201 A 
ATOM     13  C24 <0> d   1      19.094   1.019  15.604  0.00  0.00     0.044 A 
ATOM     14  O26 <0> d   1      19.205   2.096  13.516  0.00  0.00    -0.286 OA
ATOM     15  C19 <0> d   1      19.051  -0.226  16.254  0.00  0.00     0.070 A 
ATOM     16  C23 <0> d   1      19.080   2.199  16.347  0.00  0.00     0.018 A 
ATOM     17  N18 <0> d   1      19.065  -1.394  15.521  0.00  0.00    -0.259 NA
ATOM     18  C20 <0> d   1      18.993  -0.265  17.645  0.00  0.00     0.032 A 
ATOM     19  C17 <0> d   1      19.121  -1.410  14.183  0.00  0.00     0.138 A 
ATOM     20  C21 <0> d   1      18.980   0.909  18.366  0.00  0.00     0.002 A 
ATOM     21  C22 <0> d   1      19.022   2.137  17.722  0.00  0.00     0.001 A 
ENDBRANCH   8  11
ENDBRANCH   4   7
BRANCH   3  22
ATOM     22  C8  <0> d   1      18.559  -3.483  10.281  0.00  0.00    -0.022 C 
ATOM     23  C9  <0> d   1      17.375  -3.454  11.250  0.00  0.00     0.019 C 
ATOM     24  C10 <0> d   1      18.510  -4.769   9.454  0.00  0.00     0.019 C 
ATOM     25  C11 <0> d   1      19.868  -3.436  11.073  0.00  0.00     0.019 C 
ENDBRANCH   3  22
BRANCH   6  26
ATOM     26  O29 <0> d   1      18.296   0.971   6.836  0.00  0.00    -0.360 OA
ATOM     27  H56 <0> d   1      18.429   1.821   7.277  0.00  0.00     0.217 HD
ENDBRANCH   6  26
BRANCH   1  28
ATOM     28  C2  <0> d   1      18.649  -1.571   5.660  0.00  0.00    -0.021 C 
ATOM     29  C1  <0> d   1      19.621  -0.539   5.085  0.00  0.00     0.019 C 
ATOM     30  C3  <0> d   1      17.275  -1.395   5.011  0.00  0.00     0.019 C 
ATOM     31  C4  <0> d   1      19.172  -2.981   5.371  0.00  0.00     0.019 C 
ENDBRANCH   1  28
TORSDOF 5
ENDMDL
MODEL 6
REMARK VINA RESULT:      -8.6      1.923      3.218
REMARK  5 active torsions:
REMARK  status: ('A' for Active; 'I' for Inactive)
REMARK    1  A    between atoms: C2_2  and  C5_5 
REMARK    2  A    between atoms: C7_7  and  C8_8 
REMARK    3  A    between atoms: C12_12  and  N13_13 
REMARK       I    between atoms: N13_13  and  C14_14 
REMARK    4  A    between atoms: C14_14  and  C16_16 
REMARK    5  A    between atoms: C28_28  and  O29_29 
ROOT
ATOM      1  C5  <0> d   1      18.834   3.862  14.984  0.00  0.00    -0.017 A 
ATOM      2  C6  <0> d   1      18.767   2.484  15.033  0.00  0.00     0.021 A 
ATOM      3  C7  <0> d   1      18.889   1.741  13.874  0.00  0.00    -0.023 A 
ATOM      4  C12 <0> d   1      19.079   2.380  12.656  0.00  0.00     0.044 A 
ATOM      5  C27 <0> d   1      19.147   3.766  12.605  0.00  0.00     0.067 A 
ATOM      6  C28 <0> d   1      19.019   4.507  13.768  0.00  0.00     0.074 A 
ENDROOT
BRANCH   4   7
ATOM      7  N13 <0> d   1      19.203   1.629  11.483  0.00  0.00    -0.322 N 
ATOM      8  C14 <0> d   1      18.195   1.605  10.588  0.00  0.00     0.261 C 
ATOM      9  O15 <0> d   1      17.226   2.324  10.745  0.00  0.00    -0.267 OA
ATOM     10  H49 <0> d   1      20.013   1.124  11.314  0.00  0.00     0.169 HD
BRANCH   8  11
ATOM     11  C16 <0> d   1      18.266   0.710   9.423  0.00  0.00     0.100 A 
ATOM     12  C25 <0> d   1      18.735   1.212   8.121  0.00  0.00     0.201 A 
ATOM     13  C24 <0> d   1      18.782   0.250   7.006  0.00  0.00     0.044 A 
ATOM     14  O26 <0> d   1      19.074   2.373   7.974  0.00  0.00    -0.286 OA
ATOM     15  C19 <0> d   1      18.371  -1.074   7.240  0.00  0.00     0.070 A 
ATOM     16  C23 <0> d   1      19.216   0.635   5.737  0.00  0.00     0.018 A 
ATOM     17  N18 <0> d   1      17.941  -1.457   8.492  0.00  0.00    -0.259 NA
ATOM     18  C20 <0> d   1      18.405  -1.991   6.193  0.00  0.00     0.032 A 
ATOM     19  C17 <0> d   1      17.890  -0.612   9.531  0.00  0.00     0.138 A 
ATOM     20  C21 <0> d   1      18.837  -1.596   4.945  0.00  0.00     0.002 A 
ATOM     21  C22 <0> d   1      19.241  -0.289   4.716  0.00  0.00     0.001 A 
ENDBRANCH   8  11
ENDBRANCH   4   7
BRANCH   3  22
ATOM     22  C8  <0> d   1      18.816   0.237  13.933  0.00  0.00    -0.022 C 
ATOM     23  C9  <0> d   1      17.493  -0.234  13.325  0.00  0.00     0.019 C 
ATOM     24  C10 <0> d   1      19.982  -0.362  13.144  0.00  0.00     0.019 C 
ATOM     25  C11 <0> d   1      18.899  -0.220  15.391  0.00  0.00     0.019 C 
ENDBRANCH   3  22
BRANCH   6  26
ATOM     26  O29 <0> d   1      19.084   5.863  13.721  0.00  0.00    -0.360 OA
ATOM     27  H56 <0> d   1      19.332   6.216  12.856  0.00  0.00     0.217 HD
ENDBRANCH   6  26
BRANCH   1  28
ATOM     28  C2  <0> d   1      18.700   4.668  16.250  0.00  0.00    -0.021 C 
ATOM     29  C1  <0> d   1      19.831   5.696  16.324  0.00  0.00     0.019 C 
ATOM     30  C3  <0> d   1      18.781   3.734  17.459  0.00  0.00     0.019 C 
ATOM     31  C4  <0> d   1      17.351   5.392  16.254  0.00  0.00     0.019 C 
ENDBRANCH   1  28
TORSDOF 5
ENDMDL
MODEL 7
REMARK VINA RESULT:      -8.5      2.285      4.025
REMARK  5 active torsions:
REMARK  status: ('A' for Active; 'I' for Inactive)
REMARK    1  A    between atoms: C2_2  and  C5_5 
REMARK    2  A    between atoms: C7_7  and  C8_8 
REMARK    3  A    between atoms: C12_12  and  N13_13 
REMARK       I    between atoms: N13_13  and  C14_14 
REMARK    4  A    between atoms: C14_14  and  C16_16 
REMARK    5  A    between atoms: C28_28  and  O29_29 
ROOT
ATOM      1  C5  <0> d   1      17.653   4.237  13.617  0.00  0.00    -0.017 A 
ATOM      2  C6  <0> d   1      18.207   2.993  13.846  0.00  0.00     0.021 A 
ATOM      3  C7  <0> d   1      18.340   2.091  12.807  0.00  0.00    -0.023 A 
ATOM      4  C12 <0> d   1      17.917   2.436  11.530  0.00  0.00     0.044 A 
ATOM      5  C27 <0> d   1      17.360   3.687  11.299  0.00  0.00     0.067 A 
ATOM      6  C28 <0> d   1      17.224   4.585  12.344  0.00  0.00     0.074 A 
ENDROOT
BRANCH   4   7
ATOM      7  N13 <0> d   1      18.051   1.523  10.478  0.00  0.00    -0.322 N 
ATOM      8  C14 <0> d   1      18.884   1.795   9.453  0.00  0.00     0.261 C 
ATOM      9  O15 <0> d   1      19.602   2.777   9.497  0.00  0.00    -0.267 OA
ATOM     10  H49 <0> d   1      17.545   0.697  10.485  0.00  0.00     0.169 HD
BRANCH   8  11
ATOM     11  C16 <0> d   1      18.924   0.905   8.283  0.00  0.00     0.100 A 
ATOM     12  C25 <0> d   1      19.101  -0.547   8.452  0.00  0.00     0.201 A 
ATOM     13  C24 <0> d   1      19.125  -1.369   7.229  0.00  0.00     0.044 A 
ATOM     14  O26 <0> d   1      19.216  -1.047   9.557  0.00  0.00    -0.286 OA
ATOM     15  C19 <0> d   1      18.993  -0.730   5.984  0.00  0.00     0.070 A 
ATOM     16  C23 <0> d   1      19.284  -2.753   7.293  0.00  0.00     0.018 A 
ATOM     17  N18 <0> d   1      18.836   0.638   5.919  0.00  0.00    -0.259 NA
ATOM     18  C20 <0> d   1      19.020  -1.495   4.821  0.00  0.00     0.032 A 
ATOM     19  C17 <0> d   1      18.804   1.418   7.008  0.00  0.00     0.138 A 
ATOM     20  C21 <0> d   1      19.177  -2.862   4.900  0.00  0.00     0.002 A 
ATOM     21  C22 <0> d   1      19.308  -3.491   6.130  0.00  0.00     0.001 A 
ENDBRANCH   8  11
ENDBRANCH   4   7
BRANCH   3  22
ATOM     22  C8  <0> d   1      18.945   0.735  13.060  0.00  0.00    -0.022 C 
ATOM     23  C9  <0> d   1      20.270   0.616  12.304  0.00  0.00     0.019 C 
ATOM     24  C10 <0> d   1      19.195   0.560  14.559  0.00  0.00     0.019 C 
ATOM     25  C11 <0> d   1      17.981  -0.350  12.574  0.00  0.00     0.019 C 
ENDBRANCH   3  22
BRANCH   6  26
ATOM     26  O29 <0> d   1      16.679   5.810  12.121  0.00  0.00    -0.360 OA
ATOM     27  H56 <0> d   1      15.729   5.855  12.293  0.00  0.00     0.217 HD
ENDBRANCH   6  26
BRANCH   1  28
ATOM     28  C2  <0> d   1      17.510   5.217  14.754  0.00  0.00    -0.021 C 
ATOM     29  C1  <0> d   1      16.048   5.651  14.873  0.00  0.00     0.019 C 
ATOM     30  C3  <0> d   1      18.385   6.442  14.483  0.00  0.00     0.019 C 
ATOM     31  C4  <0> d   1      17.953   4.552  16.059  0.00  0.00     0.019 C 
ENDBRANCH   1  28
TORSDOF 5
ENDMDL
MODEL 8
REMARK VINA RESULT:      -8.3      2.371      7.766
REMARK  5 active torsions:
REMARK  status: ('A' for Active; 'I' for Inactive)
REMARK    1  A    between atoms: C2_2  and  C5_5 
REMARK    2  A    between atoms: C7_7  and  C8_8 
REMARK    3  A    between atoms: C12_12  and  N13_13 
REMARK       I    between atoms: N13_13  and  C14_14 
REMARK    4  A    between atoms: C14_14  and  C16_16 
REMARK    5  A    between atoms: C28_28  and  O29_29 
ROOT
ATOM      1  C5  <0> d   1      17.374  -4.212   9.385  0.00  0.00    -0.017 A 
ATOM      2  C6  <0> d   1      17.897  -3.153   8.670  0.00  0.00     0.021 A 
ATOM      3  C7  <0> d   1      18.231  -1.977   9.315  0.00  0.00    -0.023 A 
ATOM      4  C12 <0> d   1      18.040  -1.859  10.685  0.00  0.00     0.044 A 
ATOM      5  C27 <0> d   1      17.515  -2.923  11.406  0.00  0.00     0.067 A 
ATOM      6  C28 <0> d   1      17.177  -4.097  10.754  0.00  0.00     0.074 A 
ENDROOT
BRANCH   4   7
ATOM      7  N13 <0> d   1      18.378  -0.669  11.339  0.00  0.00    -0.322 N 
ATOM      8  C14 <0> d   1      17.410   0.185  11.728  0.00  0.00     0.261 C 
ATOM      9  O15 <0> d   1      16.240  -0.130  11.613  0.00  0.00    -0.267 OA
ATOM     10  H49 <0> d   1      19.309  -0.458  11.511  0.00  0.00     0.169 HD
BRANCH   8  11
ATOM     11  C16 <0> d   1      17.768   1.496  12.290  0.00  0.00     0.100 A 
ATOM     12  C25 <0> d   1      18.147   1.624  13.707  0.00  0.00     0.201 A 
ATOM     13  C24 <0> d   1      18.497   2.972  14.191  0.00  0.00     0.044 A 
ATOM     14  O26 <0> d   1      18.175   0.657  14.447  0.00  0.00    -0.286 OA
ATOM     15  C19 <0> d   1      18.439   4.048  13.288  0.00  0.00     0.070 A 
ATOM     16  C23 <0> d   1      18.871   3.189  15.517  0.00  0.00     0.018 A 
ATOM     17  N18 <0> d   1      18.069   3.837  11.977  0.00  0.00    -0.259 NA
ATOM     18  C20 <0> d   1      18.762   5.327  13.734  0.00  0.00     0.032 A 
ATOM     19  C17 <0> d   1      17.749   2.626  11.500  0.00  0.00     0.138 A 
ATOM     20  C21 <0> d   1      19.130   5.526  15.047  0.00  0.00     0.002 A 
ATOM     21  C22 <0> d   1      19.186   4.462  15.937  0.00  0.00     0.001 A 
ENDBRANCH   8  11
ENDBRANCH   4   7
BRANCH   3  22
ATOM     22  C8  <0> d   1      18.802  -0.824   8.531  0.00  0.00    -0.022 C 
ATOM     23  C9  <0> d   1      17.732   0.257   8.360  0.00  0.00     0.019 C 
ATOM     24  C10 <0> d   1      20.001  -0.241   9.280  0.00  0.00     0.019 C 
ATOM     25  C11 <0> d   1      19.252  -1.318   7.154  0.00  0.00     0.019 C 
ENDBRANCH   3  22
BRANCH   6  26
ATOM     26  O29 <0> d   1      16.661  -5.140  11.457  0.00  0.00    -0.360 OA
ATOM     27  H56 <0> d   1      16.171  -4.878  12.248  0.00  0.00     0.217 HD
ENDBRANCH   6  26
BRANCH   1  28
ATOM     28  C2  <0> d   1      17.011  -5.492   8.677  0.00  0.00    -0.021 C 
ATOM     29  C1  <0> d   1      17.788  -6.655   9.295  0.00  0.00     0.019 C 
ATOM     30  C3  <0> d   1      17.367  -5.372   7.194  0.00  0.00     0.019 C 
ATOM     31  C4  <0> d   1      15.509  -5.747   8.822  0.00  0.00     0.019 C 
ENDBRANCH   1  28
TORSDOF 5
ENDMDL
MODEL 9
REMARK VINA RESULT:      -8.3      2.295      3.656
REMARK  5 active torsions:
REMARK  status: ('A' for Active; 'I' for Inactive)
REMARK    1  A    between atoms: C2_2  and  C5_5 
REMARK    2  A    between atoms: C7_7  and  C8_8 
REMARK    3  A    between atoms: C12_12  and  N13_13 
REMARK       I    between atoms: N13_13  and  C14_14 
REMARK    4  A    between atoms: C14_14  and  C16_16 
REMARK    5  A    between atoms: C28_28  and  O29_29 
ROOT
ATOM      1  C5  <0> d   1      18.240   4.071  15.270  0.00  0.00    -0.017 A 
ATOM      2  C6  <0> d   1      18.418   2.701  15.293  0.00  0.00     0.021 A 
ATOM      3  C7  <0> d   1      18.424   1.982  14.113  0.00  0.00    -0.023 A 
ATOM      4  C12 <0> d   1      18.249   2.636  12.900  0.00  0.00     0.044 A 
ATOM      5  C27 <0> d   1      18.070   4.013  12.875  0.00  0.00     0.067 A 
ATOM      6  C28 <0> d   1      18.060   4.729  14.061  0.00  0.00     0.074 A 
ENDROOT
BRANCH   4   7
ATOM      7  N13 <0> d   1      18.255   1.908  11.705  0.00  0.00    -0.322 N 
ATOM      8  C14 <0> d   1      19.245   2.092  10.809  0.00  0.00     0.261 C 
ATOM      9  O15 <0> d   1      20.191   2.805  11.086  0.00  0.00    -0.267 OA
ATOM     10  H49 <0> d   1      17.547   1.272  11.522  0.00  0.00     0.169 HD
BRANCH   8  11
ATOM     11  C16 <0> d   1      19.180   1.432   9.496  0.00  0.00     0.100 A 
ATOM     12  C25 <0> d   1      19.295  -0.031   9.388  0.00  0.00     0.201 A 
ATOM     13  C24 <0> d   1      19.216  -0.615   8.036  0.00  0.00     0.044 A 
ATOM     14  O26 <0> d   1      19.446  -0.731  10.374  0.00  0.00    -0.286 OA
ATOM     15  C19 <0> d   1      19.048   0.247   6.939  0.00  0.00     0.070 A 
ATOM     16  C23 <0> d   1      19.311  -1.992   7.838  0.00  0.00     0.018 A 
ATOM     17  N18 <0> d   1      18.953   1.608   7.133  0.00  0.00    -0.259 NA
ATOM     18  C20 <0> d   1      18.976  -0.292   5.657  0.00  0.00     0.032 A 
ATOM     19  C17 <0> d   1      19.016   2.175   8.345  0.00  0.00     0.138 A 
ATOM     20  C21 <0> d   1      19.072  -1.654   5.476  0.00  0.00     0.002 A 
ATOM     21  C22 <0> d   1      19.238  -2.503   6.561  0.00  0.00     0.001 A 
ENDBRANCH   8  11
ENDBRANCH   4   7
BRANCH   3  22
ATOM     22  C8  <0> d   1      18.618   0.488  14.143  0.00  0.00    -0.022 C 
ATOM     23  C9  <0> d   1      18.440  -0.021  15.574  0.00  0.00     0.019 C 
ATOM     24  C10 <0> d   1      17.587  -0.179  13.231  0.00  0.00     0.019 C 
ATOM     25  C11 <0> d   1      20.028   0.149  13.652  0.00  0.00     0.019 C 
ENDBRANCH   3  22
BRANCH   6  26
ATOM     26  O29 <0> d   1      17.885   6.076  14.040  0.00  0.00    -0.360 OA
ATOM     27  H56 <0> d   1      17.266   6.403  14.707  0.00  0.00     0.217 HD
ENDBRANCH   6  26
BRANCH   1  28
ATOM     28  C2  <0> d   1      18.234   4.851  16.559  0.00  0.00    -0.021 C 
ATOM     29  C1  <0> d   1      18.461   3.897  17.734  0.00  0.00     0.019 C 
ATOM     30  C3  <0> d   1      16.885   5.553  16.725  0.00  0.00     0.019 C 
ATOM     31  C4  <0> d   1      19.352   5.896  16.528  0.00  0.00     0.019 C 
ENDBRANCH   1  28
TORSDOF 5
ENDMDL
