MODEL 1
REMARK VINA RESULT:      -5.3      0.000      0.000
REMARK  1 active torsions:
REMARK  status: ('A' for Active; 'I' for Inactive)
REMARK    1  A    between atoms: C6_6  and  C8_7 
ROOT
ATOM      1  C1  ZIN A   1      20.060   1.084  11.868  0.00  0.00     0.310 C 
ATOM      2  N2  ZIN A   1      19.579   2.306  11.210  0.00  0.00     0.093 N 
ATOM      3  C3  ZIN A   1      19.450   3.421  12.184  0.00  0.00     0.273 C 
ATOM      4  C4  ZIN A   1      18.468   4.408  11.518  0.00  0.00     0.033 C 
ATOM      5  C5  ZIN A   1      17.648   3.554  10.531  0.00  0.00     0.042 C 
ATOM      6  C6  ZIN A   1      18.201   2.121  10.684  0.00  0.00     0.257 C 
ENDROOT
BRANCH   6   7
ATOM      7  C8  ZIN A   1      18.237   1.426   9.347  0.00  0.00    -0.008 A 
ATOM      8  C13 ZIN A   1      17.470   0.298   9.123  0.00  0.00     0.125 A 
ATOM      9  N12 ZIN A   1      17.492  -0.312   7.954  0.00  0.00    -0.273 NA
ATOM     10  C11 ZIN A   1      18.247   0.118   6.962  0.00  0.00     0.116 A 
ATOM     11  C10 ZIN A   1      19.044   1.237   7.113  0.00  0.00     0.020 A 
ATOM     12  C9  ZIN A   1      19.042   1.909   8.327  0.00  0.00     0.012 A 
ENDBRANCH   6   7
TORSDOF 1
ENDMDL
MODEL 2
REMARK VINA RESULT:      -5.3      1.081      4.467
REMARK  1 active torsions:
REMARK  status: ('A' for Active; 'I' for Inactive)
REMARK    1  A    between atoms: C6_6  and  C8_7 
ROOT
ATOM      1  C1  ZIN A   1      17.264  -0.206  10.522  0.00  0.00     0.310 C 
ATOM      2  N2  ZIN A   1      17.563   0.656   9.371  0.00  0.00     0.093 N 
ATOM      3  C3  ZIN A   1      17.641  -0.138   8.117  0.00  0.00     0.273 C 
ATOM      4  C4  ZIN A   1      18.459   0.743   7.149  0.00  0.00     0.033 C 
ATOM      5  C5  ZIN A   1      19.294   1.668   8.058  0.00  0.00     0.042 C 
ATOM      6  C6  ZIN A   1      18.911   1.268   9.499  0.00  0.00     0.257 C 
ENDROOT
BRANCH   6   7
ATOM      7  C8  ZIN A   1      18.854   2.487  10.384  0.00  0.00    -0.008 A 
ATOM      8  C13 ZIN A   1      19.682   2.591  11.486  0.00  0.00     0.125 A 
ATOM      9  N12 ZIN A   1      19.642   3.657  12.262  0.00  0.00    -0.273 NA
ATOM     10  C11 ZIN A   1      18.811   4.654  12.027  0.00  0.00     0.116 A 
ATOM     11  C10 ZIN A   1      17.950   4.618  10.947  0.00  0.00     0.020 A 
ATOM     12  C9  ZIN A   1      17.968   3.516  10.105  0.00  0.00     0.012 A 
ENDBRANCH   6   7
TORSDOF 1
ENDMDL
MODEL 3
REMARK VINA RESULT:      -5.0      1.517      4.426
REMARK  1 active torsions:
REMARK  status: ('A' for Active; 'I' for Inactive)
REMARK    1  A    between atoms: C6_6  and  C8_7 
ROOT
ATOM      1  C1  ZIN A   1      19.185  -1.702   8.799  0.00  0.00     0.310 C 
ATOM      2  N2  ZIN A   1      18.514  -0.743   7.911  0.00  0.00     0.093 N 
ATOM      3  C3  ZIN A   1      18.673  -1.135   6.487  0.00  0.00     0.273 C 
ATOM      4  C4  ZIN A   1      18.424   0.167   5.695  0.00  0.00     0.033 C 
ATOM      5  C5  ZIN A   1      18.739   1.305   6.686  0.00  0.00     0.042 C 
ATOM      6  C6  ZIN A   1      19.153   0.596   7.994  0.00  0.00     0.257 C 
ENDROOT
BRANCH   6   7
ATOM      7  C8  ZIN A   1      18.634   1.354   9.189  0.00  0.00    -0.008 A 
ATOM      8  C13 ZIN A   1      17.597   0.844   9.945  0.00  0.00     0.125 A 
ATOM      9  N12 ZIN A   1      17.141   1.500  10.996  0.00  0.00    -0.273 NA
ATOM     10  C11 ZIN A   1      17.646   2.664  11.358  0.00  0.00     0.116 A 
ATOM     11  C10 ZIN A   1      18.682   3.238  10.646  0.00  0.00     0.020 A 
ATOM     12  C9  ZIN A   1      19.191   2.575   9.540  0.00  0.00     0.012 A 
ENDBRANCH   6   7
TORSDOF 1
ENDMDL
MODEL 4
REMARK VINA RESULT:      -4.8      3.677      6.261
REMARK  1 active torsions:
REMARK  status: ('A' for Active; 'I' for Inactive)
REMARK    1  A    between atoms: C6_6  and  C8_7 
ROOT
ATOM      1  C1  ZIN A   1      20.673   0.528  12.195  0.00  0.00     0.310 C 
ATOM      2  N2  ZIN A   1      19.372  -0.154  12.193  0.00  0.00     0.093 N 
ATOM      3  C3  ZIN A   1      18.756  -0.124  10.841  0.00  0.00     0.273 C 
ATOM      4  C4  ZIN A   1      17.252  -0.360  11.093  0.00  0.00     0.033 C 
ATOM      5  C5  ZIN A   1      17.014   0.091  12.549  0.00  0.00     0.042 C 
ATOM      6  C6  ZIN A   1      18.395   0.562  13.054  0.00  0.00     0.257 C 
ENDROOT
BRANCH   6   7
ATOM      7  C8  ZIN A   1      18.584   0.176  14.499  0.00  0.00    -0.008 A 
ATOM      8  C13 ZIN A   1      18.894   1.135  15.445  0.00  0.00     0.125 A 
ATOM      9  N12 ZIN A   1      19.056   0.806  16.712  0.00  0.00    -0.273 NA
ATOM     10  C11 ZIN A   1      18.941  -0.442  17.124  0.00  0.00     0.116 A 
ATOM     11  C10 ZIN A   1      18.638  -1.455  16.234  0.00  0.00     0.020 A 
ATOM     12  C9  ZIN A   1      18.454  -1.146  14.895  0.00  0.00     0.012 A 
ENDBRANCH   6   7
TORSDOF 1
ENDMDL
MODEL 5
REMARK VINA RESULT:      -4.8      2.509      4.518
REMARK  1 active torsions:
REMARK  status: ('A' for Active; 'I' for Inactive)
REMARK    1  A    between atoms: C6_6  and  C8_7 
ROOT
ATOM      1  C1  ZIN A   1      18.825  -2.219   7.908  0.00  0.00     0.310 C 
ATOM      2  N2  ZIN A   1      18.451  -0.803   7.791  0.00  0.00     0.093 N 
ATOM      3  C3  ZIN A   1      18.915  -0.235   6.499  0.00  0.00     0.273 C 
ATOM      4  C4  ZIN A   1      18.952   1.290   6.735  0.00  0.00     0.033 C 
ATOM      5  C5  ZIN A   1      19.101   1.456   8.261  0.00  0.00     0.042 C 
ATOM      6  C6  ZIN A   1      19.143   0.016   8.819  0.00  0.00     0.257 C 
ENDROOT
BRANCH   6   7
ATOM      7  C8  ZIN A   1      18.410  -0.058  10.134  0.00  0.00    -0.008 A 
ATOM      8  C13 ZIN A   1      17.049   0.174  10.191  0.00  0.00     0.125 A 
ATOM      9  N12 ZIN A   1      16.400   0.105  11.338  0.00  0.00    -0.273 NA
ATOM     10  C11 ZIN A   1      17.019  -0.175  12.468  0.00  0.00     0.116 A 
ATOM     11  C10 ZIN A   1      18.380  -0.414  12.489  0.00  0.00     0.020 A 
ATOM     12  C9  ZIN A   1      19.095  -0.357  11.302  0.00  0.00     0.012 A 
ENDBRANCH   6   7
TORSDOF 1
ENDMDL
MODEL 6
REMARK VINA RESULT:      -4.7      2.419      2.891
REMARK  1 active torsions:
REMARK  status: ('A' for Active; 'I' for Inactive)
REMARK    1  A    between atoms: C6_6  and  C8_7 
ROOT
ATOM      1  C1  ZIN A   1      19.593  -2.203  10.965  0.00  0.00     0.310 C 
ATOM      2  N2  ZIN A   1      18.856  -0.983  11.323  0.00  0.00     0.093 N 
ATOM      3  C3  ZIN A   1      18.271  -1.094  12.684  0.00  0.00     0.273 C 
ATOM      4  C4  ZIN A   1      17.134  -0.051  12.706  0.00  0.00     0.033 C 
ATOM      5  C5  ZIN A   1      16.745   0.149  11.227  0.00  0.00     0.042 C 
ATOM      6  C6  ZIN A   1      17.680  -0.791  10.435  0.00  0.00     0.257 C 
ENDROOT
BRANCH   6   7
ATOM      7  C8  ZIN A   1      18.098  -0.147   9.138  0.00  0.00    -0.008 A 
ATOM      8  C13 ZIN A   1      17.785  -0.739   7.930  0.00  0.00     0.125 A 
ATOM      9  N12 ZIN A   1      18.143  -0.178   6.791  0.00  0.00    -0.273 NA
ATOM     10  C11 ZIN A   1      18.817   0.956   6.758  0.00  0.00     0.116 A 
ATOM     11  C10 ZIN A   1      19.168   1.603   7.927  0.00  0.00     0.020 A 
ATOM     12  C9  ZIN A   1      18.804   1.047   9.144  0.00  0.00     0.012 A 
ENDBRANCH   6   7
TORSDOF 1
ENDMDL
MODEL 7
REMARK VINA RESULT:      -4.7      2.437      3.964
REMARK  1 active torsions:
REMARK  status: ('A' for Active; 'I' for Inactive)
REMARK    1  A    between atoms: C6_6  and  C8_7 
ROOT
ATOM      1  C1  ZIN A   1      20.205   0.107  13.212  0.00  0.00     0.310 C 
ATOM      2  N2  ZIN A   1      18.898  -0.347  12.720  0.00  0.00     0.093 N 
ATOM      3  C3  ZIN A   1      18.735  -1.811  12.913  0.00  0.00     0.273 C 
ATOM      4  C4  ZIN A   1      17.632  -2.215  11.911  0.00  0.00     0.033 C 
ATOM      5  C5  ZIN A   1      17.667  -1.128  10.817  0.00  0.00     0.042 C 
ATOM      6  C6  ZIN A   1      18.788  -0.158  11.250  0.00  0.00     0.257 C 
ENDROOT
BRANCH   6   7
ATOM      7  C8  ZIN A   1      18.405   1.263  10.928  0.00  0.00    -0.008 A 
ATOM      8  C13 ZIN A   1      17.499   1.942  11.721  0.00  0.00     0.125 A 
ATOM      9  N12 ZIN A   1      17.164   3.188  11.447  0.00  0.00    -0.273 NA
ATOM     10  C11 ZIN A   1      17.665   3.829  10.409  0.00  0.00     0.116 A 
ATOM     11  C10 ZIN A   1      18.572   3.213   9.569  0.00  0.00     0.020 A 
ATOM     12  C9  ZIN A   1      18.954   1.905   9.828  0.00  0.00     0.012 A 
ENDBRANCH   6   7
TORSDOF 1
ENDMDL
MODEL 8
REMARK VINA RESULT:      -4.7      1.634      2.358
REMARK  1 active torsions:
REMARK  status: ('A' for Active; 'I' for Inactive)
REMARK    1  A    between atoms: C6_6  and  C8_7 
ROOT
ATOM      1  C1  ZIN A   1      16.950  -0.109  11.058  0.00  0.00     0.310 C 
ATOM      2  N2  ZIN A   1      18.152   0.615  10.622  0.00  0.00     0.093 N 
ATOM      3  C3  ZIN A   1      18.390   1.812  11.469  0.00  0.00     0.273 C 
ATOM      4  C4  ZIN A   1      19.292   2.723  10.609  0.00  0.00     0.033 C 
ATOM      5  C5  ZIN A   1      19.019   2.298   9.152  0.00  0.00     0.042 C 
ATOM      6  C6  ZIN A   1      17.975   1.165   9.253  0.00  0.00     0.257 C 
ENDROOT
BRANCH   6   7
ATOM      7  C8  ZIN A   1      18.249   0.105   8.218  0.00  0.00    -0.008 A 
ATOM      8  C13 ZIN A   1      19.207  -0.865   8.446  0.00  0.00     0.125 A 
ATOM      9  N12 ZIN A   1      19.449  -1.799   7.546  0.00  0.00    -0.273 NA
ATOM     10  C11 ZIN A   1      18.800  -1.840   6.398  0.00  0.00     0.116 A 
ATOM     11  C10 ZIN A   1      17.832  -0.901   6.099  0.00  0.00     0.020 A 
ATOM     12  C9  ZIN A   1      17.546   0.093   7.023  0.00  0.00     0.012 A 
ENDBRANCH   6   7
TORSDOF 1
ENDMDL
MODEL 9
REMARK VINA RESULT:      -4.7      2.537      4.028
REMARK  1 active torsions:
REMARK  status: ('A' for Active; 'I' for Inactive)
REMARK    1  A    between atoms: C6_6  and  C8_7 
ROOT
ATOM      1  C1  ZIN A   1      18.621  -1.804   9.604  0.00  0.00     0.310 C 
ATOM      2  N2  ZIN A   1      19.220  -0.702   8.838  0.00  0.00     0.093 N 
ATOM      3  C3  ZIN A   1      19.385   0.507   9.685  0.00  0.00     0.273 C 
ATOM      4  C4  ZIN A   1      19.491   1.674   8.680  0.00  0.00     0.033 C 
ATOM      5  C5  ZIN A   1      18.789   1.169   7.403  0.00  0.00     0.042 C 
ATOM      6  C6  ZIN A   1      18.317  -0.261   7.744  0.00  0.00     0.257 C 
ENDROOT
BRANCH   6   7
ATOM      7  C8  ZIN A   1      18.463  -1.162   6.544  0.00  0.00    -0.008 A 
ATOM      8  C13 ZIN A   1      19.463  -2.114   6.501  0.00  0.00     0.125 A 
ATOM      9  N12 ZIN A   1      19.593  -2.909   5.457  0.00  0.00    -0.273 NA
ATOM     10  C11 ZIN A   1      18.789  -2.822   4.415  0.00  0.00     0.116 A 
ATOM     11  C10 ZIN A   1      17.769  -1.890   4.385  0.00  0.00     0.020 A 
ATOM     12  C9  ZIN A   1      17.597  -1.041   5.468  0.00  0.00     0.012 A 
ENDBRANCH   6   7
TORSDOF 1
ENDMDL
