MODEL 1
REMARK VINA RESULT:      -8.5      0.000      0.000
REMARK  2 active torsions:
REMARK  status: ('A' for Active; 'I' for Inactive)
REMARK    1  A    between atoms: C10_10  and  C11_11 
REMARK    2  A    between atoms: C18_18  and  O20_19 
ROOT
ATOM      1  C1  ZIN A   1      17.423  -0.107  13.655  0.00  0.00     0.159 C 
ATOM      2  N2  ZIN A   1      18.460   0.350  12.727  0.00  0.00    -0.318 N 
ATOM      3  C3  ZIN A   1      18.242   1.550  12.066  0.00  0.00     0.049 A 
ATOM      4  C4  ZIN A   1      17.674   2.592  12.801  0.00  0.00     0.032 A 
ATOM      5  C5  ZIN A   1      17.426   3.813  12.213  0.00  0.00     0.026 A 
ATOM      6  C6  ZIN A   1      17.741   4.019  10.879  0.00  0.00     0.035 A 
ATOM      7 Cl7  ZIN A   1      17.427   5.558  10.140  0.00  0.00    -0.084 Cl
ATOM      8  C8  ZIN A   1      18.303   3.003  10.139  0.00  0.00     0.040 A 
ATOM      9  C9  ZIN A   1      18.560   1.754  10.725  0.00  0.00     0.022 A 
ATOM     10  C10 ZIN A   1      19.165   0.715   9.877  0.00  0.00     0.077 C 
ATOM     11  N17 ZIN A   1      20.086  -0.099  10.256  0.00  0.00    -0.247 NA
ATOM     12  C18 ZIN A   1      20.631  -0.073  11.613  0.00  0.00     0.335 C 
ATOM     13  C21 ZIN A   1      19.540  -0.415  12.588  0.00  0.00     0.274 C 
ATOM     14  O22 ZIN A   1      19.643  -1.419  13.261  0.00  0.00    -0.268 OA
ENDROOT
BRANCH  10  15
ATOM     15  C11 ZIN A   1      18.679   0.599   8.482  0.00  0.00    -0.007 A 
ATOM     16  C16 ZIN A   1      17.498  -0.090   8.209  0.00  0.00     0.014 A 
ATOM     17  C15 ZIN A   1      17.047  -0.190   6.908  0.00  0.00     0.001 A 
ATOM     18  C14 ZIN A   1      17.770   0.381   5.877  0.00  0.00     0.000 A 
ATOM     19  C13 ZIN A   1      18.946   1.060   6.141  0.00  0.00     0.001 A 
ATOM     20  C12 ZIN A   1      19.403   1.172   7.438  0.00  0.00     0.014 A 
ENDBRANCH  10  15
BRANCH  12  21
ATOM     21  O20 ZIN A   1      21.133   1.234  11.901  0.00  0.00    -0.367 OA
ATOM     22  H34 ZIN A   1      20.465   1.931  11.854  0.00  0.00     0.212 HD
ENDBRANCH  12  21
TORSDOF 2
ENDMDL
MODEL 2
REMARK VINA RESULT:      -8.2      3.375      6.483
REMARK  2 active torsions:
REMARK  status: ('A' for Active; 'I' for Inactive)
REMARK    1  A    between atoms: C10_10  and  C11_11 
REMARK    2  A    between atoms: C18_18  and  O20_19 
ROOT
ATOM      1  C1  ZIN A   1      17.542   0.821   9.452  0.00  0.00     0.159 C 
ATOM      2  N2  ZIN A   1      18.590   0.269  10.313  0.00  0.00    -0.318 N 
ATOM      3  C3  ZIN A   1      18.422  -1.028  10.775  0.00  0.00     0.049 A 
ATOM      4  C4  ZIN A   1      17.908  -1.966   9.878  0.00  0.00     0.032 A 
ATOM      5  C5  ZIN A   1      17.711  -3.274  10.264  0.00  0.00     0.026 A 
ATOM      6  C6  ZIN A   1      18.023  -3.672  11.554  0.00  0.00     0.035 A 
ATOM      7 Cl7  ZIN A   1      17.773  -5.320  12.038  0.00  0.00    -0.084 Cl
ATOM      8  C8  ZIN A   1      18.532  -2.761  12.452  0.00  0.00     0.040 A 
ATOM      9  C9  ZIN A   1      18.738  -1.425  12.073  0.00  0.00     0.022 A 
ATOM     10  C10 ZIN A   1      19.288  -0.507  13.081  0.00  0.00     0.077 C 
ATOM     11  N17 ZIN A   1      20.174   0.396  12.848  0.00  0.00    -0.247 NA
ATOM     12  C18 ZIN A   1      20.731   0.606  11.512  0.00  0.00     0.335 C 
ATOM     13  C21 ZIN A   1      19.633   1.049  10.586  0.00  0.00     0.274 C 
ATOM     14  O22 ZIN A   1      19.696   2.150  10.080  0.00  0.00    -0.268 OA
ENDROOT
BRANCH  10  15
ATOM     15  C11 ZIN A   1      18.785  -0.632  14.469  0.00  0.00    -0.007 A 
ATOM     16  C16 ZIN A   1      17.622   0.033  14.854  0.00  0.00     0.014 A 
ATOM     17  C15 ZIN A   1      17.155  -0.092  16.147  0.00  0.00     0.001 A 
ATOM     18  C14 ZIN A   1      17.846  -0.865  17.063  0.00  0.00     0.000 A 
ATOM     19  C13 ZIN A   1      19.004  -1.522  16.689  0.00  0.00     0.001 A 
ATOM     20  C12 ZIN A   1      19.477  -1.410  15.397  0.00  0.00     0.014 A 
ENDBRANCH  10  15
BRANCH  12  21
ATOM     21  O20 ZIN A   1      21.294  -0.616  11.031  0.00  0.00    -0.367 OA
ATOM     22  H34 ZIN A   1      21.846  -1.076  11.678  0.00  0.00     0.212 HD
ENDBRANCH  12  21
TORSDOF 2
ENDMDL
MODEL 3
REMARK VINA RESULT:      -8.2      2.968      4.492
REMARK  2 active torsions:
REMARK  status: ('A' for Active; 'I' for Inactive)
REMARK    1  A    between atoms: C10_10  and  C11_11 
REMARK    2  A    between atoms: C18_18  and  O20_19 
ROOT
ATOM      1  C1  ZIN A   1      17.605   2.582  12.147  0.00  0.00     0.159 C 
ATOM      2  N2  ZIN A   1      18.704   1.626  11.988  0.00  0.00    -0.318 N 
ATOM      3  C3  ZIN A   1      18.885   1.064  10.733  0.00  0.00     0.049 A 
ATOM      4  C4  ZIN A   1      18.732   1.902   9.627  0.00  0.00     0.032 A 
ATOM      5  C5  ZIN A   1      18.894   1.416   8.348  0.00  0.00     0.026 A 
ATOM      6  C6  ZIN A   1      19.214   0.082   8.148  0.00  0.00     0.035 A 
ATOM      7 Cl7  ZIN A   1      19.418  -0.528   6.536  0.00  0.00    -0.084 Cl
ATOM      8  C8  ZIN A   1      19.371  -0.759   9.227  0.00  0.00     0.040 A 
ATOM      9  C9  ZIN A   1      19.208  -0.277  10.535  0.00  0.00     0.022 A 
ATOM     10  C10 ZIN A   1      19.394  -1.230  11.640  0.00  0.00     0.077 C 
ATOM     11  N17 ZIN A   1      19.995  -0.964  12.746  0.00  0.00    -0.247 NA
ATOM     12  C18 ZIN A   1      20.562   0.356  13.020  0.00  0.00     0.335 C 
ATOM     13  C21 ZIN A   1      19.453   1.370  13.057  0.00  0.00     0.274 C 
ATOM     14  O22 ZIN A   1      19.231   1.964  14.091  0.00  0.00    -0.268 OA
ENDROOT
BRANCH  10  15
ATOM     15  C11 ZIN A   1      18.850  -2.597  11.466  0.00  0.00    -0.007 A 
ATOM     16  C16 ZIN A   1      19.713  -3.671  11.253  0.00  0.00     0.014 A 
ATOM     17  C15 ZIN A   1      19.200  -4.943  11.097  0.00  0.00     0.001 A 
ATOM     18  C14 ZIN A   1      17.833  -5.151  11.141  0.00  0.00     0.000 A 
ATOM     19  C13 ZIN A   1      16.972  -4.088  11.347  0.00  0.00     0.001 A 
ATOM     20  C12 ZIN A   1      17.473  -2.812  11.510  0.00  0.00     0.014 A 
ENDBRANCH  10  15
BRANCH  12  21
ATOM     21  O20 ZIN A   1      21.488   0.702  11.989  0.00  0.00    -0.367 OA
ATOM     22  H34 ZIN A   1      22.196   0.056  11.863  0.00  0.00     0.212 HD
ENDBRANCH  12  21
TORSDOF 2
ENDMDL
MODEL 4
REMARK VINA RESULT:      -8.0      3.742      5.060
REMARK  2 active torsions:
REMARK  status: ('A' for Active; 'I' for Inactive)
REMARK    1  A    between atoms: C10_10  and  C11_11 
REMARK    2  A    between atoms: C18_18  and  O20_19 
ROOT
ATOM      1  C1  ZIN A   1      17.718   1.769  10.455  0.00  0.00     0.159 C 
ATOM      2  N2  ZIN A   1      18.744   0.729  10.348  0.00  0.00    -0.318 N 
ATOM      3  C3  ZIN A   1      18.847   0.055   9.141  0.00  0.00     0.049 A 
ATOM      4  C4  ZIN A   1      18.716   0.808   7.973  0.00  0.00     0.032 A 
ATOM      5  C5  ZIN A   1      18.805   0.209   6.735  0.00  0.00     0.026 A 
ATOM      6  C6  ZIN A   1      19.027  -1.156   6.639  0.00  0.00     0.035 A 
ATOM      7 Cl7  ZIN A   1      19.139  -1.909   5.079  0.00  0.00    -0.084 Cl
ATOM      8  C8  ZIN A   1      19.161  -1.915   7.780  0.00  0.00     0.040 A 
ATOM      9  C9  ZIN A   1      19.072  -1.317   9.047  0.00  0.00     0.022 A 
ATOM     10  C10 ZIN A   1      19.228  -2.187  10.224  0.00  0.00     0.077 C 
ATOM     11  N17 ZIN A   1      19.880  -1.875  11.287  0.00  0.00    -0.247 NA
ATOM     12  C18 ZIN A   1      20.543  -0.580  11.435  0.00  0.00     0.335 C 
ATOM     13  C21 ZIN A   1      19.507   0.509  11.415  0.00  0.00     0.274 C 
ATOM     14  O22 ZIN A   1      19.358   1.200  12.401  0.00  0.00    -0.268 OA
ENDROOT
BRANCH  10  15
ATOM     15  C11 ZIN A   1      18.587  -3.522  10.179  0.00  0.00    -0.007 A 
ATOM     16  C16 ZIN A   1      17.312  -3.704  10.711  0.00  0.00     0.014 A 
ATOM     17  C15 ZIN A   1      16.718  -4.949  10.662  0.00  0.00     0.001 A 
ATOM     18  C14 ZIN A   1      17.390  -6.017  10.095  0.00  0.00     0.000 A 
ATOM     19  C13 ZIN A   1      18.658  -5.844   9.571  0.00  0.00     0.001 A 
ATOM     20  C12 ZIN A   1      19.260  -4.602   9.609  0.00  0.00     0.014 A 
ENDBRANCH  10  15
BRANCH  12  21
ATOM     21  O20 ZIN A   1      21.458  -0.385  10.355  0.00  0.00    -0.367 OA
ATOM     22  H34 ZIN A   1      21.065   0.033   9.577  0.00  0.00     0.212 HD
ENDBRANCH  12  21
TORSDOF 2
ENDMDL
MODEL 5
REMARK VINA RESULT:      -7.8      2.899      4.289
REMARK  2 active torsions:
REMARK  status: ('A' for Active; 'I' for Inactive)
REMARK    1  A    between atoms: C10_10  and  C11_11 
REMARK    2  A    between atoms: C18_18  and  O20_19 
ROOT
ATOM      1  C1  ZIN A   1      17.702  -2.733  11.519  0.00  0.00     0.159 C 
ATOM      2  N2  ZIN A   1      18.695  -1.665  11.380  0.00  0.00    -0.318 N 
ATOM      3  C3  ZIN A   1      18.886  -0.824  12.466  0.00  0.00     0.049 A 
ATOM      4  C4  ZIN A   1      18.892  -1.407  13.735  0.00  0.00     0.032 A 
ATOM      5  C5  ZIN A   1      19.074  -0.637  14.862  0.00  0.00     0.026 A 
ATOM      6  C6  ZIN A   1      19.254   0.733  14.746  0.00  0.00     0.035 A 
ATOM      7 Cl7  ZIN A   1      19.483   1.702  16.168  0.00  0.00    -0.084 Cl
ATOM      8  C8  ZIN A   1      19.253   1.325  13.503  0.00  0.00     0.040 A 
ATOM      9  C9  ZIN A   1      19.068   0.552  12.346  0.00  0.00     0.022 A 
ATOM     10  C10 ZIN A   1      19.082   1.250  11.051  0.00  0.00     0.077 C 
ATOM     11  N17 ZIN A   1      19.643   0.805   9.982  0.00  0.00    -0.247 NA
ATOM     12  C18 ZIN A   1      20.336  -0.482   9.952  0.00  0.00     0.335 C 
ATOM     13  C21 ZIN A   1      19.347  -1.581  10.223  0.00  0.00     0.274 C 
ATOM     14  O22 ZIN A   1      19.132  -2.408   9.362  0.00  0.00    -0.268 OA
ENDROOT
BRANCH  10  15
ATOM     15  C11 ZIN A   1      18.400   2.563  10.972  0.00  0.00    -0.007 A 
ATOM     16  C16 ZIN A   1      18.495   3.332   9.813  0.00  0.00     0.014 A 
ATOM     17  C15 ZIN A   1      17.853   4.551   9.744  0.00  0.00     0.001 A 
ATOM     18  C14 ZIN A   1      17.125   5.016  10.825  0.00  0.00     0.000 A 
ATOM     19  C13 ZIN A   1      17.032   4.260  11.980  0.00  0.00     0.001 A 
ATOM     20  C12 ZIN A   1      17.665   3.036  12.059  0.00  0.00     0.014 A 
ENDBRANCH  10  15
BRANCH  12  21
ATOM     21  O20 ZIN A   1      21.354  -0.501  10.954  0.00  0.00    -0.367 OA
ATOM     22  H34 ZIN A   1      21.415   0.316  11.468  0.00  0.00     0.212 HD
ENDBRANCH  12  21
TORSDOF 2
ENDMDL
MODEL 6
REMARK VINA RESULT:      -7.6      3.094      4.425
REMARK  2 active torsions:
REMARK  status: ('A' for Active; 'I' for Inactive)
REMARK    1  A    between atoms: C10_10  and  C11_11 
REMARK    2  A    between atoms: C18_18  and  O20_19 
ROOT
ATOM      1  C1  ZIN A   1      20.397   0.253  13.133  0.00  0.00     0.159 C 
ATOM      2  N2  ZIN A   1      19.133  -0.002  12.439  0.00  0.00    -0.318 N 
ATOM      3  C3  ZIN A   1      19.047  -1.153  11.670  0.00  0.00     0.049 A 
ATOM      4  C4  ZIN A   1      19.625  -2.314  12.187  0.00  0.00     0.032 A 
ATOM      5  C5  ZIN A   1      19.582  -3.496  11.481  0.00  0.00     0.026 A 
ATOM      6  C6  ZIN A   1      18.960  -3.543  10.243  0.00  0.00     0.035 A 
ATOM      7 Cl7  ZIN A   1      18.907  -5.034   9.355  0.00  0.00    -0.084 Cl
ATOM      8  C8  ZIN A   1      18.383  -2.409   9.718  0.00  0.00     0.040 A 
ATOM      9  C9  ZIN A   1      18.421  -1.198  10.426  0.00  0.00     0.022 A 
ATOM     10  C10 ZIN A   1      17.781  -0.026   9.808  0.00  0.00     0.077 C 
ATOM     11  N17 ZIN A   1      17.076   0.845  10.438  0.00  0.00    -0.247 NA
ATOM     12  C18 ZIN A   1      16.843   0.755  11.879  0.00  0.00     0.335 C 
ATOM     13  C21 ZIN A   1      18.155   0.886  12.600  0.00  0.00     0.274 C 
ATOM     14  O22 ZIN A   1      18.330   1.830  13.341  0.00  0.00    -0.268 OA
ENDROOT
BRANCH  10  15
ATOM     15  C11 ZIN A   1      17.961   0.163   8.349  0.00  0.00    -0.007 A 
ATOM     16  C16 ZIN A   1      19.087   0.826   7.864  0.00  0.00     0.014 A 
ATOM     17  C15 ZIN A   1      19.252   0.994   6.504  0.00  0.00     0.001 A 
ATOM     18  C14 ZIN A   1      18.298   0.516   5.624  0.00  0.00     0.000 A 
ATOM     19  C13 ZIN A   1      17.175  -0.137   6.100  0.00  0.00     0.001 A 
ATOM     20  C12 ZIN A   1      17.002  -0.317   7.458  0.00  0.00     0.014 A 
ENDBRANCH  10  15
BRANCH  12  21
ATOM     21  O20 ZIN A   1      16.254  -0.510  12.189  0.00  0.00    -0.367 OA
ATOM     22  H34 ZIN A   1      16.862  -1.257  12.108  0.00  0.00     0.212 HD
ENDBRANCH  12  21
TORSDOF 2
ENDMDL
MODEL 7
REMARK VINA RESULT:      -7.5      3.662      5.807
REMARK  2 active torsions:
REMARK  status: ('A' for Active; 'I' for Inactive)
REMARK    1  A    between atoms: C10_10  and  C11_11 
REMARK    2  A    between atoms: C18_18  and  O20_19 
ROOT
ATOM      1  C1  ZIN A   1      15.878   5.865  13.738  0.00  0.00     0.159 C 
ATOM      2  N2  ZIN A   1      17.232   5.310  13.802  0.00  0.00    -0.318 N 
ATOM      3  C3  ZIN A   1      17.648   4.514  12.746  0.00  0.00     0.049 A 
ATOM      4  C4  ZIN A   1      17.289   4.919  11.459  0.00  0.00     0.032 A 
ATOM      5  C5  ZIN A   1      17.663   4.179  10.358  0.00  0.00     0.026 A 
ATOM      6  C6  ZIN A   1      18.405   3.019  10.521  0.00  0.00     0.035 A 
ATOM      7 Cl7  ZIN A   1      18.875   2.089   9.133  0.00  0.00    -0.084 Cl
ATOM      8  C8  ZIN A   1      18.769   2.605  11.782  0.00  0.00     0.040 A 
ATOM      9  C9  ZIN A   1      18.394   3.349  12.912  0.00  0.00     0.022 A 
ATOM     10  C10 ZIN A   1      18.821   2.850  14.229  0.00  0.00     0.077 C 
ATOM     11  N17 ZIN A   1      19.248   3.588  15.191  0.00  0.00    -0.247 NA
ATOM     12  C18 ZIN A   1      19.346   5.042  15.065  0.00  0.00     0.335 C 
ATOM     13  C21 ZIN A   1      17.970   5.613  14.868  0.00  0.00     0.274 C 
ATOM     14  O22 ZIN A   1      17.516   6.364  15.706  0.00  0.00    -0.268 OA
ENDROOT
BRANCH  10  15
ATOM     15  C11 ZIN A   1      18.754   1.389  14.463  0.00  0.00    -0.007 A 
ATOM     16  C16 ZIN A   1      17.755   0.856  15.275  0.00  0.00     0.014 A 
ATOM     17  C15 ZIN A   1      17.695  -0.507  15.485  0.00  0.00     0.001 A 
ATOM     18  C14 ZIN A   1      18.630  -1.342  14.901  0.00  0.00     0.000 A 
ATOM     19  C13 ZIN A   1      19.628  -0.818  14.098  0.00  0.00     0.001 A 
ATOM     20  C12 ZIN A   1      19.694   0.543  13.876  0.00  0.00     0.014 A 
ENDBRANCH  10  15
BRANCH  12  21
ATOM     21  O20 ZIN A   1      20.162   5.371  13.940  0.00  0.00    -0.367 OA
ATOM     22  H34 ZIN A   1      19.678   5.770  13.205  0.00  0.00     0.212 HD
ENDBRANCH  12  21
TORSDOF 2
ENDMDL
MODEL 8
REMARK VINA RESULT:      -7.4      4.747      6.149
REMARK  2 active torsions:
REMARK  status: ('A' for Active; 'I' for Inactive)
REMARK    1  A    between atoms: C10_10  and  C11_11 
REMARK    2  A    between atoms: C18_18  and  O20_19 
ROOT
ATOM      1  C1  ZIN A   1      16.696  -6.256   7.414  0.00  0.00     0.159 C 
ATOM      2  N2  ZIN A   1      17.917  -5.490   7.673  0.00  0.00    -0.318 N 
ATOM      3  C3  ZIN A   1      17.911  -4.624   8.756  0.00  0.00     0.049 A 
ATOM      4  C4  ZIN A   1      17.290  -5.064   9.925  0.00  0.00     0.032 A 
ATOM      5  C5  ZIN A   1      17.242  -4.259  11.042  0.00  0.00     0.026 A 
ATOM      6  C6  ZIN A   1      17.814  -2.997  11.014  0.00  0.00     0.035 A 
ATOM      7 Cl7  ZIN A   1      17.752  -1.985  12.423  0.00  0.00    -0.084 Cl
ATOM      8  C8  ZIN A   1      18.433  -2.546   9.870  0.00  0.00     0.040 A 
ATOM      9  C9  ZIN A   1      18.488  -3.356   8.724  0.00  0.00     0.022 A 
ATOM     10  C10 ZIN A   1      19.168  -2.812   7.538  0.00  0.00     0.077 C 
ATOM     11  N17 ZIN A   1      19.942  -3.484   6.762  0.00  0.00    -0.247 NA
ATOM     12  C18 ZIN A   1      20.224  -4.901   6.989  0.00  0.00     0.335 C 
ATOM     13  C21 ZIN A   1      18.948  -5.685   6.854  0.00  0.00     0.274 C 
ATOM     14  O22 ZIN A   1      18.853  -6.510   5.970  0.00  0.00    -0.268 OA
ENDROOT
BRANCH  10  15
ATOM     15  C11 ZIN A   1      18.944  -1.384   7.214  0.00  0.00    -0.007 A 
ATOM     16  C16 ZIN A   1      18.221  -1.030   6.076  0.00  0.00     0.014 A 
ATOM     17  C15 ZIN A   1      18.011   0.302   5.783  0.00  0.00     0.001 A 
ATOM     18  C14 ZIN A   1      18.526   1.285   6.608  0.00  0.00     0.000 A 
ATOM     19  C13 ZIN A   1      19.250   0.940   7.736  0.00  0.00     0.001 A 
ATOM     20  C12 ZIN A   1      19.461  -0.389   8.043  0.00  0.00     0.014 A 
ENDBRANCH  10  15
BRANCH  12  21
ATOM     21  O20 ZIN A   1      20.753  -5.079   8.305  0.00  0.00    -0.367 OA
ATOM     22  H34 ZIN A   1      20.612  -5.963   8.670  0.00  0.00     0.212 HD
ENDBRANCH  12  21
TORSDOF 2
ENDMDL
MODEL 9
REMARK VINA RESULT:      -7.4      3.601      5.720
REMARK  2 active torsions:
REMARK  status: ('A' for Active; 'I' for Inactive)
REMARK    1  A    between atoms: C10_10  and  C11_11 
REMARK    2  A    between atoms: C18_18  and  O20_19 
ROOT
ATOM      1  C1  ZIN A   1      17.388  -1.305  12.210  0.00  0.00     0.159 C 
ATOM      2  N2  ZIN A   1      18.494  -0.392  12.509  0.00  0.00    -0.318 N 
ATOM      3  C3  ZIN A   1      18.662  -0.002  13.829  0.00  0.00     0.049 A 
ATOM      4  C4  ZIN A   1      18.483  -0.975  14.813  0.00  0.00     0.032 A 
ATOM      5  C5  ZIN A   1      18.631  -0.663  16.147  0.00  0.00     0.026 A 
ATOM      6  C6  ZIN A   1      18.961   0.628  16.526  0.00  0.00     0.035 A 
ATOM      7 Cl7  ZIN A   1      19.147   1.019  18.207  0.00  0.00    -0.084 Cl
ATOM      8  C8  ZIN A   1      19.144   1.601  15.569  0.00  0.00     0.040 A 
ATOM      9  C9  ZIN A   1      18.996   1.298  14.207  0.00  0.00     0.022 A 
ATOM     10  C10 ZIN A   1      19.209   2.385  13.239  0.00  0.00     0.077 C 
ATOM     11  N17 ZIN A   1      19.825   2.259  12.116  0.00  0.00    -0.247 NA
ATOM     12  C18 ZIN A   1      20.382   0.980  11.679  0.00  0.00     0.335 C 
ATOM     13  C21 ZIN A   1      19.263  -0.007  11.494  0.00  0.00     0.274 C 
ATOM     14  O22 ZIN A   1      19.051  -0.457  10.387  0.00  0.00    -0.268 OA
ENDROOT
BRANCH  10  15
ATOM     15  C11 ZIN A   1      18.677   3.724  13.583  0.00  0.00    -0.007 A 
ATOM     16  C16 ZIN A   1      17.315   3.990  13.451  0.00  0.00     0.014 A 
ATOM     17  C15 ZIN A   1      16.825   5.238  13.779  0.00  0.00     0.001 A 
ATOM     18  C14 ZIN A   1      17.683   6.226  14.227  0.00  0.00     0.000 A 
ATOM     19  C13 ZIN A   1      19.036   5.970  14.354  0.00  0.00     0.001 A 
ATOM     20  C12 ZIN A   1      19.537   4.724  14.035  0.00  0.00     0.014 A 
ENDBRANCH  10  15
BRANCH  12  21
ATOM     21  O20 ZIN A   1      21.288   0.490  12.668  0.00  0.00    -0.367 OA
ATOM     22  H34 ZIN A   1      20.912   0.443  13.558  0.00  0.00     0.212 HD
ENDBRANCH  12  21
TORSDOF 2
ENDMDL
