MODEL 1
REMARK VINA RESULT:      -7.2      0.000      0.000
REMARK  3 active torsions:
REMARK  status: ('A' for Active; 'I' for Inactive)
REMARK    1  A    between atoms: C2_2  and  C4_4 
REMARK    2  A    between atoms: C4_4  and  N5_5 
REMARK    3  A    between atoms: C17_17  and  N18_18 
ROOT
ATOM      1  N5  <0> d   1      19.462   0.783   8.996  0.00  0.00    -0.338 N 
ATOM      2  C6  <0> d   1      20.113  -0.394   9.211  0.00  0.00     0.211 A 
ATOM      3  N7  <0> d   1      20.344  -0.544  10.484  0.00  0.00    -0.238 NA
ATOM      4  C8  <0> d   1      19.857   0.523  11.161  0.00  0.00     0.131 A 
ATOM      5  C9  <0> d   1      19.293   1.383  10.213  0.00  0.00     0.081 A 
ATOM      6  C10 <0> d   1      18.692   2.622  10.688  0.00  0.00     0.022 A 
ATOM      7  C11 <0> d   1      18.105   3.540   9.812  0.00  0.00     0.016 A 
ATOM      8  C12 <0> d   1      17.554   4.687  10.305  0.00  0.00     0.001 A 
ATOM      9  C13 <0> d   1      17.569   4.953  11.670  0.00  0.00     0.002 A 
ATOM     10  C14 <0> d   1      18.134   4.078  12.549  0.00  0.00     0.032 A 
ATOM     11  C15 <0> d   1      18.710   2.889  12.079  0.00  0.00     0.071 A 
ATOM     12  N16 <0> d   1      19.270   2.013  12.926  0.00  0.00    -0.229 NA
ATOM     13  C17 <0> d   1      19.823   0.890  12.526  0.00  0.00     0.153 A 
ENDROOT
BRANCH   1  14
ATOM     14  C4  <0> d   1      19.029   1.311   7.701  0.00  0.00     0.134 C 
BRANCH  14  15
ATOM     15  C2  <0> d   1      18.690   0.150   6.764  0.00  0.00    -0.004 C 
ATOM     16  C1  <0> d   1      17.172  -0.035   6.707  0.00  0.00     0.011 C 
ATOM     17  C3  <0> d   1      19.218   0.455   5.361  0.00  0.00     0.011 C 
ENDBRANCH  14  15
ENDBRANCH   1  14
BRANCH  13  18
ATOM     18  N18 <0> d   1      20.380   0.040  13.467  0.00  0.00    -0.382 N 
ATOM     19  H33 <0> d   1      21.124   0.341  14.011  0.00  0.00     0.157 HD
ATOM     20  H34 <0> d   1      20.026  -0.856  13.580  0.00  0.00     0.157 HD
ENDBRANCH  13  18
TORSDOF 3
ENDMDL
MODEL 2
REMARK VINA RESULT:      -7.0      2.268      4.375
REMARK  3 active torsions:
REMARK  status: ('A' for Active; 'I' for Inactive)
REMARK    1  A    between atoms: C2_2  and  C4_4 
REMARK    2  A    between atoms: C4_4  and  N5_5 
REMARK    3  A    between atoms: C17_17  and  N18_18 
ROOT
ATOM      1  N5  <0> d   1      18.439   0.761  10.495  0.00  0.00    -0.338 N 
ATOM      2  C6  <0> d   1      19.008   0.269   9.360  0.00  0.00     0.211 A 
ATOM      3  N7  <0> d   1      19.604  -0.859   9.619  0.00  0.00    -0.238 NA
ATOM      4  C8  <0> d   1      19.455  -1.159  10.931  0.00  0.00     0.131 A 
ATOM      5  C9  <0> d   1      18.713  -0.122  11.503  0.00  0.00     0.081 A 
ATOM      6  C10 <0> d   1      18.410  -0.203  12.926  0.00  0.00     0.022 A 
ATOM      7  C11 <0> d   1      17.673   0.788  13.581  0.00  0.00     0.016 A 
ATOM      8  C12 <0> d   1      17.414   0.667  14.915  0.00  0.00     0.001 A 
ATOM      9  C13 <0> d   1      17.875  -0.433  15.631  0.00  0.00     0.002 A 
ATOM     10  C14 <0> d   1      18.596  -1.416  15.021  0.00  0.00     0.032 A 
ATOM     11  C15 <0> d   1      18.881  -1.325  13.650  0.00  0.00     0.071 A 
ATOM     12  N16 <0> d   1      19.588  -2.280  13.029  0.00  0.00    -0.229 NA
ATOM     13  C17 <0> d   1      19.879  -2.231  11.749  0.00  0.00     0.153 A 
ENDROOT
BRANCH   1  14
ATOM     14  C4  <0> d   1      17.681   2.008  10.616  0.00  0.00     0.134 C 
BRANCH  14  15
ATOM     15  C2  <0> d   1      18.603   3.196  10.333  0.00  0.00    -0.004 C 
ATOM     16  C1  <0> d   1      17.766   4.469  10.188  0.00  0.00     0.011 C 
ATOM     17  C3  <0> d   1      19.589   3.364  11.490  0.00  0.00     0.011 C 
ENDBRANCH  14  15
ENDBRANCH   1  14
BRANCH  13  18
ATOM     18  N18 <0> d   1      20.614  -3.260  11.185  0.00  0.00    -0.382 N 
ATOM     19  H33 <0> d   1      20.164  -4.056  10.861  0.00  0.00     0.157 HD
ATOM     20  H34 <0> d   1      21.578  -3.185  11.113  0.00  0.00     0.157 HD
ENDBRANCH  13  18
TORSDOF 3
ENDMDL
MODEL 3
REMARK VINA RESULT:      -7.0      1.548      4.744
REMARK  3 active torsions:
REMARK  status: ('A' for Active; 'I' for Inactive)
REMARK    1  A    between atoms: C2_2  and  C4_4 
REMARK    2  A    between atoms: C4_4  and  N5_5 
REMARK    3  A    between atoms: C17_17  and  N18_18 
ROOT
ATOM      1  N5  <0> d   1      18.839   3.101  12.937  0.00  0.00    -0.338 N 
ATOM      2  C6  <0> d   1      18.870   2.828  14.270  0.00  0.00     0.211 A 
ATOM      3  N7  <0> d   1      19.151   1.571  14.456  0.00  0.00    -0.238 NA
ATOM      4  C8  <0> d   1      19.317   0.961  13.258  0.00  0.00     0.131 A 
ATOM      5  C9  <0> d   1      19.113   1.935  12.276  0.00  0.00     0.081 A 
ATOM      6  C10 <0> d   1      19.236   1.533  10.881  0.00  0.00     0.022 A 
ATOM      7  C11 <0> d   1      19.049   2.440   9.833  0.00  0.00     0.016 A 
ATOM      8  C12 <0> d   1      19.175   2.016   8.542  0.00  0.00     0.001 A 
ATOM      9  C13 <0> d   1      19.487   0.691   8.257  0.00  0.00     0.002 A 
ATOM     10  C14 <0> d   1      19.675  -0.217   9.257  0.00  0.00     0.032 A 
ATOM     11  C15 <0> d   1      19.554   0.183  10.595  0.00  0.00     0.071 A 
ATOM     12  N16 <0> d   1      19.735  -0.693  11.595  0.00  0.00    -0.229 NA
ATOM     13  C17 <0> d   1      19.627  -0.359  12.861  0.00  0.00     0.153 A 
ENDROOT
BRANCH   1  14
ATOM     14  C4  <0> d   1      18.557   4.400  12.322  0.00  0.00     0.134 C 
BRANCH  14  15
ATOM     15  C2  <0> d   1      17.049   4.546  12.107  0.00  0.00    -0.004 C 
ATOM     16  C1  <0> d   1      16.481   5.536  13.126  0.00  0.00     0.011 C 
ATOM     17  C3  <0> d   1      16.783   5.064  10.692  0.00  0.00     0.011 C 
ENDBRANCH  14  15
ENDBRANCH   1  14
BRANCH  13  18
ATOM     18  N18 <0> d   1      19.830  -1.326  13.832  0.00  0.00    -0.382 N 
ATOM     19  H33 <0> d   1      19.087  -1.868  14.139  0.00  0.00     0.157 HD
ATOM     20  H34 <0> d   1      20.715  -1.460  14.205  0.00  0.00     0.157 HD
ENDBRANCH  13  18
TORSDOF 3
ENDMDL
MODEL 4
REMARK VINA RESULT:      -6.8      2.153      5.421
REMARK  3 active torsions:
REMARK  status: ('A' for Active; 'I' for Inactive)
REMARK    1  A    between atoms: C2_2  and  C4_4 
REMARK    2  A    between atoms: C4_4  and  N5_5 
REMARK    3  A    between atoms: C17_17  and  N18_18 
ROOT
ATOM      1  N5  <0> d   1      18.900   1.559  13.618  0.00  0.00    -0.338 N 
ATOM      2  C6  <0> d   1      18.370   2.394  14.554  0.00  0.00     0.211 A 
ATOM      3  N7  <0> d   1      17.808   3.412  13.968  0.00  0.00    -0.238 NA
ATOM      4  C8  <0> d   1      17.943   3.294  12.626  0.00  0.00     0.131 A 
ATOM      5  C9  <0> d   1      18.648   2.109  12.391  0.00  0.00     0.081 A 
ATOM      6  C10 <0> d   1      18.929   1.745  11.009  0.00  0.00     0.022 A 
ATOM      7  C11 <0> d   1      19.627   0.578  10.682  0.00  0.00     0.016 A 
ATOM      8  C12 <0> d   1      19.866   0.279   9.372  0.00  0.00     0.001 A 
ATOM      9  C13 <0> d   1      19.422   1.122   8.358  0.00  0.00     0.002 A 
ATOM     10  C14 <0> d   1      18.739   2.266   8.646  0.00  0.00     0.032 A 
ATOM     11  C15 <0> d   1      18.475   2.606   9.981  0.00  0.00     0.071 A 
ATOM     12  N16 <0> d   1      17.805   3.726  10.287  0.00  0.00    -0.229 NA
ATOM     13  C17 <0> d   1      17.540   4.081  11.524  0.00  0.00     0.153 A 
ENDROOT
BRANCH   1  14
ATOM     14  C4  <0> d   1      19.614   0.307  13.876  0.00  0.00     0.134 C 
BRANCH  14  15
ATOM     15  C2  <0> d   1      18.605  -0.806  14.167  0.00  0.00    -0.004 C 
ATOM     16  C1  <0> d   1      18.830  -1.966  13.196  0.00  0.00     0.011 C 
ATOM     17  C3  <0> d   1      18.790  -1.301  15.603  0.00  0.00     0.011 C 
ENDBRANCH  14  15
ENDBRANCH   1  14
BRANCH  13  18
ATOM     18  N18 <0> d   1      16.841   5.255  11.753  0.00  0.00    -0.382 N 
ATOM     19  H33 <0> d   1      16.816   5.638  12.644  0.00  0.00     0.157 HD
ATOM     20  H34 <0> d   1      16.377   5.694  11.023  0.00  0.00     0.157 HD
ENDBRANCH  13  18
TORSDOF 3
ENDMDL
MODEL 5
REMARK VINA RESULT:      -6.8      4.027      6.195
REMARK  3 active torsions:
REMARK  status: ('A' for Active; 'I' for Inactive)
REMARK    1  A    between atoms: C2_2  and  C4_4 
REMARK    2  A    between atoms: C4_4  and  N5_5 
REMARK    3  A    between atoms: C17_17  and  N18_18 
ROOT
ATOM      1  N5  <0> d   1      18.609   1.648  16.137  0.00  0.00    -0.338 N 
ATOM      2  C6  <0> d   1      19.097   1.950  17.372  0.00  0.00     0.211 A 
ATOM      3  N7  <0> d   1      19.628   3.139  17.357  0.00  0.00    -0.238 NA
ATOM      4  C8  <0> d   1      19.513   3.671  16.117  0.00  0.00     0.131 A 
ATOM      5  C9  <0> d   1      18.865   2.719  15.325  0.00  0.00     0.081 A 
ATOM      6  C10 <0> d   1      18.616   3.049  13.928  0.00  0.00     0.022 A 
ATOM      7  C11 <0> d   1      17.973   2.158  13.063  0.00  0.00     0.016 A 
ATOM      8  C12 <0> d   1      17.762   2.513  11.762  0.00  0.00     0.001 A 
ATOM      9  C13 <0> d   1      18.179   3.752  11.287  0.00  0.00     0.002 A 
ATOM     10  C14 <0> d   1      18.808   4.642  12.106  0.00  0.00     0.032 A 
ATOM     11  C15 <0> d   1      19.042   4.312  13.449  0.00  0.00     0.071 A 
ATOM     12  N16 <0> d   1      19.659   5.172  14.272  0.00  0.00    -0.229 NA
ATOM     13  C17 <0> d   1      19.899   4.900  15.535  0.00  0.00     0.153 A 
ENDROOT
BRANCH   1  14
ATOM     14  C4  <0> d   1      17.939   0.405  15.747  0.00  0.00     0.134 C 
BRANCH  14  15
ATOM     15  C2  <0> d   1      18.989  -0.651  15.395  0.00  0.00    -0.004 C 
ATOM     16  C1  <0> d   1      19.099  -1.663  16.538  0.00  0.00     0.011 C 
ATOM     17  C3  <0> d   1      18.575  -1.374  14.112  0.00  0.00     0.011 C 
ENDBRANCH  14  15
ENDBRANCH   1  14
BRANCH  13  18
ATOM     18  N18 <0> d   1      20.542   5.845  16.318  0.00  0.00    -0.382 N 
ATOM     19  H33 <0> d   1      20.032   6.563  16.725  0.00  0.00     0.157 HD
ATOM     20  H34 <0> d   1      21.500   5.789  16.458  0.00  0.00     0.157 HD
ENDBRANCH  13  18
TORSDOF 3
ENDMDL
MODEL 6
REMARK VINA RESULT:      -6.8      2.449      5.287
REMARK  3 active torsions:
REMARK  status: ('A' for Active; 'I' for Inactive)
REMARK    1  A    between atoms: C2_2  and  C4_4 
REMARK    2  A    between atoms: C4_4  and  N5_5 
REMARK    3  A    between atoms: C17_17  and  N18_18 
ROOT
ATOM      1  N5  <0> d   1      18.253  -1.695  11.878  0.00  0.00    -0.338 N 
ATOM      2  C6  <0> d   1      18.334  -3.052  11.816  0.00  0.00     0.211 A 
ATOM      3  N7  <0> d   1      18.695  -3.418  10.619  0.00  0.00    -0.238 NA
ATOM      4  C8  <0> d   1      18.866  -2.321   9.843  0.00  0.00     0.131 A 
ATOM      5  C9  <0> d   1      18.580  -1.209  10.642  0.00  0.00     0.081 A 
ATOM      6  C10 <0> d   1      18.690   0.112  10.038  0.00  0.00     0.022 A 
ATOM      7  C11 <0> d   1      18.423   1.278  10.761  0.00  0.00     0.016 A 
ATOM      8  C12 <0> d   1      18.541   2.493  10.152  0.00  0.00     0.001 A 
ATOM      9  C13 <0> d   1      18.925   2.584   8.818  0.00  0.00     0.002 A 
ATOM     10  C14 <0> d   1      19.192   1.465   8.086  0.00  0.00     0.032 A 
ATOM     11  C15 <0> d   1      19.081   0.200   8.679  0.00  0.00     0.071 A 
ATOM     12  N16 <0> d   1      19.339  -0.914   7.979  0.00  0.00    -0.229 NA
ATOM     13  C17 <0> d   1      19.245  -2.118   8.496  0.00  0.00     0.153 A 
ENDROOT
BRANCH   1  14
ATOM     14  C4  <0> d   1      17.878  -0.900  13.050  0.00  0.00     0.134 C 
BRANCH  14  15
ATOM     15  C2  <0> d   1      19.020  -0.923  14.068  0.00  0.00    -0.004 C 
ATOM     16  C1  <0> d   1      19.651   0.468  14.159  0.00  0.00     0.011 C 
ATOM     17  C3  <0> d   1      18.474  -1.325  15.439  0.00  0.00     0.011 C 
ENDBRANCH  14  15
ENDBRANCH   1  14
BRANCH  13  18
ATOM     18  N18 <0> d   1      19.530  -3.217   7.703  0.00  0.00    -0.382 N 
ATOM     19  H33 <0> d   1      20.141  -3.129   6.955  0.00  0.00     0.157 HD
ATOM     20  H34 <0> d   1      19.118  -4.074   7.896  0.00  0.00     0.157 HD
ENDBRANCH  13  18
TORSDOF 3
ENDMDL
MODEL 7
REMARK VINA RESULT:      -6.8      1.944      4.723
REMARK  3 active torsions:
REMARK  status: ('A' for Active; 'I' for Inactive)
REMARK    1  A    between atoms: C2_2  and  C4_4 
REMARK    2  A    between atoms: C4_4  and  N5_5 
REMARK    3  A    between atoms: C17_17  and  N18_18 
ROOT
ATOM      1  N5  <0> d   1      19.229   2.071  10.111  0.00  0.00    -0.338 N 
ATOM      2  C6  <0> d   1      19.250   2.033   8.750  0.00  0.00     0.211 A 
ATOM      3  N7  <0> d   1      19.307   0.797   8.345  0.00  0.00    -0.238 NA
ATOM      4  C8  <0> d   1      19.327  -0.031   9.417  0.00  0.00     0.131 A 
ATOM      5  C9  <0> d   1      19.282   0.779  10.556  0.00  0.00     0.081 A 
ATOM      6  C10 <0> d   1      19.293   0.126  11.858  0.00  0.00     0.022 A 
ATOM      7  C11 <0> d   1      19.250   0.857  13.050  0.00  0.00     0.016 A 
ATOM      8  C12 <0> d   1      19.261   0.200  14.246  0.00  0.00     0.001 A 
ATOM      9  C13 <0> d   1      19.314  -1.189  14.293  0.00  0.00     0.002 A 
ATOM     10  C14 <0> d   1      19.357  -1.929  13.148  0.00  0.00     0.032 A 
ATOM     11  C15 <0> d   1      19.347  -1.288  11.901  0.00  0.00     0.071 A 
ATOM     12  N16 <0> d   1      19.388  -1.996  10.763  0.00  0.00    -0.229 NA
ATOM     13  C17 <0> d   1      19.383  -1.434   9.575  0.00  0.00     0.153 A 
ENDROOT
BRANCH   1  14
ATOM     14  C4  <0> d   1      19.168   3.274  10.945  0.00  0.00     0.134 C 
BRANCH  14  15
ATOM     15  C2  <0> d   1      17.711   3.722  11.087  0.00  0.00    -0.004 C 
ATOM     16  C1  <0> d   1      17.420   4.052  12.552  0.00  0.00     0.011 C 
ATOM     17  C3  <0> d   1      17.474   4.966  10.228  0.00  0.00     0.011 C 
ENDBRANCH  14  15
ENDBRANCH   1  14
BRANCH  13  18
ATOM     18  N18 <0> d   1      19.427  -2.239   8.449  0.00  0.00    -0.382 N 
ATOM     19  H33 <0> d   1      18.937  -1.983   7.651  0.00  0.00     0.157 HD
ATOM     20  H34 <0> d   1      19.946  -3.057   8.457  0.00  0.00     0.157 HD
ENDBRANCH  13  18
TORSDOF 3
ENDMDL
MODEL 8
REMARK VINA RESULT:      -6.8      4.163      6.814
REMARK  3 active torsions:
REMARK  status: ('A' for Active; 'I' for Inactive)
REMARK    1  A    between atoms: C2_2  and  C4_4 
REMARK    2  A    between atoms: C4_4  and  N5_5 
REMARK    3  A    between atoms: C17_17  and  N18_18 
ROOT
ATOM      1  N5  <0> d   1      18.292   3.289  14.773  0.00  0.00    -0.338 N 
ATOM      2  C6  <0> d   1      18.166   4.571  15.216  0.00  0.00     0.211 A 
ATOM      3  N7  <0> d   1      18.324   4.609  16.507  0.00  0.00    -0.238 NA
ATOM      4  C8  <0> d   1      18.560   3.358  16.972  0.00  0.00     0.131 A 
ATOM      5  C9  <0> d   1      18.536   2.503  15.866  0.00  0.00     0.081 A 
ATOM      6  C10 <0> d   1      18.766   1.083  16.096  0.00  0.00     0.022 A 
ATOM      7  C11 <0> d   1      18.760   0.156  15.049  0.00  0.00     0.016 A 
ATOM      8  C12 <0> d   1      18.980  -1.164  15.315  0.00  0.00     0.001 A 
ATOM      9  C13 <0> d   1      19.211  -1.598  16.616  0.00  0.00     0.002 A 
ATOM     10  C14 <0> d   1      19.222  -0.719  17.657  0.00  0.00     0.032 A 
ATOM     11  C15 <0> d   1      19.000   0.646  17.422  0.00  0.00     0.071 A 
ATOM     12  N16 <0> d   1      19.007   1.529  18.431  0.00  0.00    -0.229 NA
ATOM     13  C17 <0> d   1      18.800   2.814  18.254  0.00  0.00     0.153 A 
ENDROOT
BRANCH   1  14
ATOM     14  C4  <0> d   1      18.180   2.835  13.386  0.00  0.00     0.134 C 
BRANCH  14  15
ATOM     15  C2  <0> d   1      18.594   3.967  12.443  0.00  0.00    -0.004 C 
ATOM     16  C1  <0> d   1      19.937   3.627  11.794  0.00  0.00     0.011 C 
ATOM     17  C3  <0> d   1      17.532   4.140  11.355  0.00  0.00     0.011 C 
ENDBRANCH  14  15
ENDBRANCH   1  14
BRANCH  13  18
ATOM     18  N18 <0> d   1      18.825   3.659  19.351  0.00  0.00    -0.382 N 
ATOM     19  H33 <0> d   1      18.302   3.444  20.139  0.00  0.00     0.157 HD
ATOM     20  H34 <0> d   1      19.365   4.464  19.331  0.00  0.00     0.157 HD
ENDBRANCH  13  18
TORSDOF 3
ENDMDL
MODEL 9
REMARK VINA RESULT:      -6.8      3.432      6.257
REMARK  3 active torsions:
REMARK  status: ('A' for Active; 'I' for Inactive)
REMARK    1  A    between atoms: C2_2  and  C4_4 
REMARK    2  A    between atoms: C4_4  and  N5_5 
REMARK    3  A    between atoms: C17_17  and  N18_18 
ROOT
ATOM      1  N5  <0> d   1      18.968  -2.252   9.697  0.00  0.00    -0.338 N 
ATOM      2  C6  <0> d   1      19.065  -3.540  10.127  0.00  0.00     0.211 A 
ATOM      3  N7  <0> d   1      19.243  -4.331   9.109  0.00  0.00    -0.238 NA
ATOM      4  C8  <0> d   1      19.271  -3.603   7.967  0.00  0.00     0.131 A 
ATOM      5  C9  <0> d   1      19.089  -2.266   8.335  0.00  0.00     0.081 A 
ATOM      6  C10 <0> d   1      19.078  -1.263   7.278  0.00  0.00     0.022 A 
ATOM      7  C11 <0> d   1      18.904   0.097   7.554  0.00  0.00     0.016 A 
ATOM      8  C12 <0> d   1      18.901   0.998   6.530  0.00  0.00     0.001 A 
ATOM      9  C13 <0> d   1      19.071   0.580   5.214  0.00  0.00     0.002 A 
ATOM     10  C14 <0> d   1      19.244  -0.739   4.913  0.00  0.00     0.032 A 
ATOM     11  C15 <0> d   1      19.252  -1.694   5.940  0.00  0.00     0.071 A 
ATOM     12  N16 <0> d   1      19.421  -2.996   5.668  0.00  0.00    -0.229 NA
ATOM     13  C17 <0> d   1      19.431  -3.922   6.600  0.00  0.00     0.153 A 
ENDROOT
BRANCH   1  14
ATOM     14  C4  <0> d   1      18.764  -1.069  10.537  0.00  0.00     0.134 C 
BRANCH  14  15
ATOM     15  C2  <0> d   1      17.595  -1.318  11.493  0.00  0.00    -0.004 C 
ATOM     16  C1  <0> d   1      18.127  -1.473  12.920  0.00  0.00     0.011 C 
ATOM     17  C3  <0> d   1      16.627  -0.135  11.436  0.00  0.00     0.011 C 
ENDBRANCH  14  15
ENDBRANCH   1  14
BRANCH  13  18
ATOM     18  N18 <0> d   1      19.612  -5.245   6.233  0.00  0.00    -0.382 N 
ATOM     19  H33 <0> d   1      20.506  -5.621   6.200  0.00  0.00     0.157 HD
ATOM     20  H34 <0> d   1      18.845  -5.795   6.009  0.00  0.00     0.157 HD
ENDBRANCH  13  18
TORSDOF 3
ENDMDL
