MODEL 1
REMARK VINA RESULT:      -4.8      0.000      0.000
REMARK  11 active torsions:
REMARK  status: ('A' for Active; 'I' for Inactive)
REMARK    1  A    between atoms: C2_2  and  C3_3 
REMARK    2  A    between atoms: C3_3  and  C5_4 
REMARK    3  A    between atoms: C3_3  and  N7_6 
REMARK    4  A    between atoms: C5_4  and  O6_5 
REMARK    5  A    between atoms: N7_6  and  C8_7 
REMARK    6  A    between atoms: C8_7  and  C9_8 
REMARK    7  A    between atoms: C9_8  and  N10_9 
REMARK    8  A    between atoms: N10_9  and  C13_12 
REMARK    9  A    between atoms: C13_12  and  C15_13 
REMARK   10  A    between atoms: C13_12  and  C17_15 
REMARK   11  A    between atoms: C17_15  and  O18_16 
ROOT
ATOM      1  C9  ZIN A   1      19.190  -1.237   9.403  0.00  0.00     0.262 C 
ENDROOT
BRANCH   1   2
ATOM      2  C8  ZIN A   1      19.156  -1.944   8.047  0.00  0.00     0.297 C 
BRANCH   2   3
ATOM      3  N7  ZIN A   1      17.851  -1.723   7.412  0.00  0.00     0.091 N 
ATOM      4  H27 ZIN A   1      17.278  -1.105   7.968  0.00  0.00     0.316 HD
BRANCH   3   5
ATOM      5  C3  ZIN A   1      18.011  -1.204   6.047  0.00  0.00     0.243 C 
BRANCH   5   6
ATOM      6  C2  ZIN A   1      17.657   0.284   6.021  0.00  0.00     0.033 C 
ATOM      7  C1  ZIN A   1      18.900   1.110   6.358  0.00  0.00     0.007 C 
ENDBRANCH   5   6
BRANCH   5   8
ATOM      8  C5  ZIN A   1      19.462  -1.391   5.597  0.00  0.00     0.199 C 
BRANCH   8   9
ATOM      9  O6  ZIN A   1      19.494  -1.660   4.194  0.00  0.00    -0.399 OA
ATOM     10  H26 ZIN A   1      19.246  -0.906   3.643  0.00  0.00     0.209 HD
ENDBRANCH   8   9
ENDBRANCH   5   8
ENDBRANCH   3   5
ENDBRANCH   2   3
ENDBRANCH   1   2
BRANCH   1  11
ATOM     11  N10 ZIN A   1      20.300  -0.275   9.427  0.00  0.00    -0.067 N 
ATOM     12  H11 ZIN A   1      21.144  -0.742   9.725  0.00  0.00     0.277 HD
ATOM     13  H12 ZIN A   1      20.436   0.106   8.502  0.00  0.00     0.277 HD
BRANCH  11  14
ATOM     14  C13 ZIN A   1      19.987   0.813  10.363  0.00  0.00     0.209 C 
BRANCH  14  15
ATOM     15  C15 ZIN A   1      18.510   1.188  10.234  0.00  0.00     0.030 C 
ATOM     16  C16 ZIN A   1      18.392   2.642   9.776  0.00  0.00     0.007 C 
ENDBRANCH  14  15
BRANCH  14  17
ATOM     17  C17 ZIN A   1      20.272   0.351  11.794  0.00  0.00     0.197 C 
BRANCH  17  18
ATOM     18  O18 ZIN A   1      21.665   0.494  12.073  0.00  0.00    -0.399 OA
ATOM     19  H39 ZIN A   1      22.156   0.971  11.391  0.00  0.00     0.209 HD
ENDBRANCH  17  18
ENDBRANCH  14  17
ENDBRANCH  11  14
ENDBRANCH   1  11
TORSDOF 11
ENDMDL
MODEL 2
REMARK VINA RESULT:      -4.8      4.966      6.063
REMARK  11 active torsions:
REMARK  status: ('A' for Active; 'I' for Inactive)
REMARK    1  A    between atoms: C2_2  and  C3_3 
REMARK    2  A    between atoms: C3_3  and  C5_4 
REMARK    3  A    between atoms: C3_3  and  N7_6 
REMARK    4  A    between atoms: C5_4  and  O6_5 
REMARK    5  A    between atoms: N7_6  and  C8_7 
REMARK    6  A    between atoms: C8_7  and  C9_8 
REMARK    7  A    between atoms: C9_8  and  N10_9 
REMARK    8  A    between atoms: N10_9  and  C13_12 
REMARK    9  A    between atoms: C13_12  and  C15_13 
REMARK   10  A    between atoms: C13_12  and  C17_15 
REMARK   11  A    between atoms: C17_15  and  O18_16 
ROOT
ATOM      1  C9  ZIN A   1      18.703   3.098  14.455  0.00  0.00     0.262 C 
ENDROOT
BRANCH   1   2
ATOM      2  C8  ZIN A   1      18.645   1.574  14.574  0.00  0.00     0.297 C 
BRANCH   2   3
ATOM      3  N7  ZIN A   1      19.924   1.000  14.134  0.00  0.00     0.091 N 
ATOM      4  H27 ZIN A   1      20.510   0.776  14.925  0.00  0.00     0.316 HD
BRANCH   3   5
ATOM      5  C3  ZIN A   1      19.706  -0.181  13.288  0.00  0.00     0.243 C 
BRANCH   5   6
ATOM      6  C2  ZIN A   1      18.205  -0.400  13.094  0.00  0.00     0.033 C 
ATOM      7  C1  ZIN A   1      17.977  -1.682  12.292  0.00  0.00     0.007 C 
ENDBRANCH   5   6
BRANCH   5   8
ATOM      8  C5  ZIN A   1      20.371   0.038  11.927  0.00  0.00     0.199 C 
BRANCH   8   9
ATOM      9  O6  ZIN A   1      21.679   0.581  12.117  0.00  0.00    -0.399 OA
ATOM     10  H26 ZIN A   1      22.393  -0.008  11.840  0.00  0.00     0.209 HD
ENDBRANCH   8   9
ENDBRANCH   5   8
ENDBRANCH   3   5
ENDBRANCH   2   3
ENDBRANCH   1   2
BRANCH   1  11
ATOM     11  N10 ZIN A   1      17.858   3.535  13.336  0.00  0.00    -0.067 N 
ATOM     12  H11 ZIN A   1      17.029   2.961  13.296  0.00  0.00     0.277 HD
ATOM     13  H12 ZIN A   1      17.592   4.500  13.471  0.00  0.00     0.277 HD
BRANCH  11  14
ATOM     14  C13 ZIN A   1      18.604   3.405  12.077  0.00  0.00     0.209 C 
BRANCH  14  15
ATOM     15  C15 ZIN A   1      17.731   3.878  10.914  0.00  0.00     0.030 C 
ATOM     16  C16 ZIN A   1      16.745   4.935  11.415  0.00  0.00     0.007 C 
ENDBRANCH  14  15
BRANCH  14  17
ATOM     17  C17 ZIN A   1      19.871   4.261  12.145  0.00  0.00     0.197 C 
BRANCH  17  18
ATOM     18  O18 ZIN A   1      20.993   3.488  11.718  0.00  0.00    -0.399 OA
ATOM     19  H39 ZIN A   1      21.752   3.532  12.315  0.00  0.00     0.209 HD
ENDBRANCH  17  18
ENDBRANCH  14  17
ENDBRANCH  11  14
ENDBRANCH   1  11
TORSDOF 11
ENDMDL
MODEL 3
REMARK VINA RESULT:      -4.7      3.252      4.981
REMARK  11 active torsions:
REMARK  status: ('A' for Active; 'I' for Inactive)
REMARK    1  A    between atoms: C2_2  and  C3_3 
REMARK    2  A    between atoms: C3_3  and  C5_4 
REMARK    3  A    between atoms: C3_3  and  N7_6 
REMARK    4  A    between atoms: C5_4  and  O6_5 
REMARK    5  A    between atoms: N7_6  and  C8_7 
REMARK    6  A    between atoms: C8_7  and  C9_8 
REMARK    7  A    between atoms: C9_8  and  N10_9 
REMARK    8  A    between atoms: N10_9  and  C13_12 
REMARK    9  A    between atoms: C13_12  and  C15_13 
REMARK   10  A    between atoms: C13_12  and  C17_15 
REMARK   11  A    between atoms: C17_15  and  O18_16 
ROOT
ATOM      1  C9  ZIN A   1      18.960   1.542  13.499  0.00  0.00     0.262 C 
ENDROOT
BRANCH   1   2
ATOM      2  C8  ZIN A   1      19.283   2.439  12.302  0.00  0.00     0.297 C 
BRANCH   2   3
ATOM      3  N7  ZIN A   1      20.131   1.704  11.354  0.00  0.00     0.091 N 
ATOM      4  H27 ZIN A   1      20.834   1.167  11.840  0.00  0.00     0.316 HD
BRANCH   3   5
ATOM      5  C3  ZIN A   1      19.320   0.843  10.483  0.00  0.00     0.243 C 
BRANCH   5   6
ATOM      6  C2  ZIN A   1      18.562   1.707   9.473  0.00  0.00     0.033 C 
ATOM      7  C1  ZIN A   1      19.327   1.734   8.149  0.00  0.00     0.007 C 
ENDBRANCH   5   6
BRANCH   5   8
ATOM      8  C5  ZIN A   1      20.234  -0.131   9.735  0.00  0.00     0.199 C 
BRANCH   8   9
ATOM      9  O6  ZIN A   1      21.347  -0.472  10.565  0.00  0.00    -0.399 OA
ATOM     10  H26 ZIN A   1      22.190  -0.510  10.094  0.00  0.00     0.209 HD
ENDBRANCH   8   9
ENDBRANCH   5   8
ENDBRANCH   3   5
ENDBRANCH   2   3
ENDBRANCH   1   2
BRANCH   1  11
ATOM     11  N10 ZIN A   1      20.106   0.665  13.777  0.00  0.00    -0.067 N 
ATOM     12  H11 ZIN A   1      20.599   0.473  12.918  0.00  0.00     0.277 HD
ATOM     13  H12 ZIN A   1      20.729   1.121  14.428  0.00  0.00     0.277 HD
BRANCH  11  14
ATOM     14  C13 ZIN A   1      19.628  -0.596  14.359  0.00  0.00     0.209 C 
BRANCH  14  15
ATOM     15  C15 ZIN A   1      18.574  -0.298  15.427  0.00  0.00     0.030 C 
ATOM     16  C16 ZIN A   1      18.306  -1.562  16.245  0.00  0.00     0.007 C 
ENDBRANCH  14  15
BRANCH  14  17
ATOM     17  C17 ZIN A   1      19.009  -1.462  13.260  0.00  0.00     0.197 C 
BRANCH  17  18
ATOM     18  O18 ZIN A   1      20.033  -2.227  12.622  0.00  0.00    -0.399 OA
ATOM     19  H39 ZIN A   1      19.709  -3.017  12.169  0.00  0.00     0.209 HD
ENDBRANCH  17  18
ENDBRANCH  14  17
ENDBRANCH  11  14
ENDBRANCH   1  11
TORSDOF 11
ENDMDL
MODEL 4
REMARK VINA RESULT:      -4.7      2.569      5.388
REMARK  11 active torsions:
REMARK  status: ('A' for Active; 'I' for Inactive)
REMARK    1  A    between atoms: C2_2  and  C3_3 
REMARK    2  A    between atoms: C3_3  and  C5_4 
REMARK    3  A    between atoms: C3_3  and  N7_6 
REMARK    4  A    between atoms: C5_4  and  O6_5 
REMARK    5  A    between atoms: N7_6  and  C8_7 
REMARK    6  A    between atoms: C8_7  and  C9_8 
REMARK    7  A    between atoms: C9_8  and  N10_9 
REMARK    8  A    between atoms: N10_9  and  C13_12 
REMARK    9  A    between atoms: C13_12  and  C15_13 
REMARK   10  A    between atoms: C13_12  and  C17_15 
REMARK   11  A    between atoms: C17_15  and  O18_16 
ROOT
ATOM      1  C9  ZIN A   1      19.605  -1.120   9.119  0.00  0.00     0.262 C 
ENDROOT
BRANCH   1   2
ATOM      2  C8  ZIN A   1      19.221  -1.768  10.450  0.00  0.00     0.297 C 
BRANCH   2   3
ATOM      3  N7  ZIN A   1      20.202  -1.393  11.477  0.00  0.00     0.091 N 
ATOM      4  H27 ZIN A   1      20.954  -0.850  11.078  0.00  0.00     0.316 HD
BRANCH   3   5
ATOM      5  C3  ZIN A   1      19.558  -0.668  12.580  0.00  0.00     0.243 C 
BRANCH   5   6
ATOM      6  C2  ZIN A   1      19.330  -1.621  13.755  0.00  0.00     0.033 C 
ATOM      7  C1  ZIN A   1      19.108  -0.811  15.033  0.00  0.00     0.007 C 
ENDBRANCH   5   6
BRANCH   5   8
ATOM      8  C5  ZIN A   1      20.458   0.486  13.027  0.00  0.00     0.199 C 
BRANCH   8   9
ATOM      9  O6  ZIN A   1      21.580   0.583  12.147  0.00  0.00    -0.399 OA
ATOM     10  H26 ZIN A   1      22.039   1.433  12.187  0.00  0.00     0.209 HD
ENDBRANCH   8   9
ENDBRANCH   5   8
ENDBRANCH   3   5
ENDBRANCH   2   3
ENDBRANCH   1   2
BRANCH   1  11
ATOM     11  N10 ZIN A   1      20.325   0.135   9.374  0.00  0.00    -0.067 N 
ATOM     12  H11 ZIN A   1      20.435   0.264  10.368  0.00  0.00     0.277 HD
ATOM     13  H12 ZIN A   1      21.234   0.097   8.937  0.00  0.00     0.277 HD
BRANCH  11  14
ATOM     14  C13 ZIN A   1      19.561   1.260   8.817  0.00  0.00     0.209 C 
BRANCH  14  15
ATOM     15  C15 ZIN A   1      18.509   0.730   7.843  0.00  0.00     0.030 C 
ATOM     16  C16 ZIN A   1      18.849   1.190   6.424  0.00  0.00     0.007 C 
ENDBRANCH  14  15
BRANCH  14  17
ATOM     17  C17 ZIN A   1      18.869   2.018   9.952  0.00  0.00     0.197 C 
BRANCH  17  18
ATOM     18  O18 ZIN A   1      18.486   3.316   9.496  0.00  0.00    -0.399 OA
ATOM     19  H39 ZIN A   1      17.538   3.413   9.336  0.00  0.00     0.209 HD
ENDBRANCH  17  18
ENDBRANCH  14  17
ENDBRANCH  11  14
ENDBRANCH   1  11
TORSDOF 11
ENDMDL
MODEL 5
REMARK VINA RESULT:      -4.7      4.618      6.284
REMARK  11 active torsions:
REMARK  status: ('A' for Active; 'I' for Inactive)
REMARK    1  A    between atoms: C2_2  and  C3_3 
REMARK    2  A    between atoms: C3_3  and  C5_4 
REMARK    3  A    between atoms: C3_3  and  N7_6 
REMARK    4  A    between atoms: C5_4  and  O6_5 
REMARK    5  A    between atoms: N7_6  and  C8_7 
REMARK    6  A    between atoms: C8_7  and  C9_8 
REMARK    7  A    between atoms: C9_8  and  N10_9 
REMARK    8  A    between atoms: N10_9  and  C13_12 
REMARK    9  A    between atoms: C13_12  and  C15_13 
REMARK   10  A    between atoms: C13_12  and  C17_15 
REMARK   11  A    between atoms: C17_15  and  O18_16 
ROOT
ATOM      1  C9  ZIN A   1      19.863   0.193  13.420  0.00  0.00     0.262 C 
ENDROOT
BRANCH   1   2
ATOM      2  C8  ZIN A   1      19.936   0.750  11.997  0.00  0.00     0.297 C 
BRANCH   2   3
ATOM      3  N7  ZIN A   1      20.556   2.081  12.023  0.00  0.00     0.091 N 
ATOM      4  H27 ZIN A   1      21.518   2.038  11.719  0.00  0.00     0.316 HD
BRANCH   3   5
ATOM      5  C3  ZIN A   1      19.789   3.034  11.211  0.00  0.00     0.243 C 
BRANCH   5   6
ATOM      6  C2  ZIN A   1      18.665   2.295  10.481  0.00  0.00     0.033 C 
ATOM      7  C1  ZIN A   1      18.877   2.409   8.971  0.00  0.00     0.007 C 
ENDBRANCH   5   6
BRANCH   5   8
ATOM      8  C5  ZIN A   1      19.188   4.110  12.118  0.00  0.00     0.199 C 
BRANCH   8   9
ATOM      9  O6  ZIN A   1      19.800   4.042  13.408  0.00  0.00    -0.399 OA
ATOM     10  H26 ZIN A   1      20.308   3.234  13.559  0.00  0.00     0.209 HD
ENDBRANCH   8   9
ENDBRANCH   5   8
ENDBRANCH   3   5
ENDBRANCH   2   3
ENDBRANCH   1   2
BRANCH   1  11
ATOM     11  N10 ZIN A   1      19.904   1.302  14.383  0.00  0.00    -0.067 N 
ATOM     12  H11 ZIN A   1      20.780   1.281  14.883  0.00  0.00     0.277 HD
ATOM     13  H12 ZIN A   1      19.819   2.179  13.890  0.00  0.00     0.277 HD
BRANCH  11  14
ATOM     14  C13 ZIN A   1      18.794   1.165  15.335  0.00  0.00     0.209 C 
BRANCH  14  15
ATOM     15  C15 ZIN A   1      18.642  -0.304  15.735  0.00  0.00     0.030 C 
ATOM     16  C16 ZIN A   1      17.350  -0.484  16.534  0.00  0.00     0.007 C 
ENDBRANCH  14  15
BRANCH  14  17
ATOM     17  C17 ZIN A   1      19.084   2.004  16.581  0.00  0.00     0.197 C 
BRANCH  17  18
ATOM     18  O18 ZIN A   1      20.028   3.027  16.257  0.00  0.00    -0.399 OA
ATOM     19  H39 ZIN A   1      20.527   2.860  15.446  0.00  0.00     0.209 HD
ENDBRANCH  17  18
ENDBRANCH  14  17
ENDBRANCH  11  14
ENDBRANCH   1  11
TORSDOF 11
ENDMDL
MODEL 6
REMARK VINA RESULT:      -4.7      2.036      3.264
REMARK  11 active torsions:
REMARK  status: ('A' for Active; 'I' for Inactive)
REMARK    1  A    between atoms: C2_2  and  C3_3 
REMARK    2  A    between atoms: C3_3  and  C5_4 
REMARK    3  A    between atoms: C3_3  and  N7_6 
REMARK    4  A    between atoms: C5_4  and  O6_5 
REMARK    5  A    between atoms: N7_6  and  C8_7 
REMARK    6  A    between atoms: C8_7  and  C9_8 
REMARK    7  A    between atoms: C9_8  and  N10_9 
REMARK    8  A    between atoms: N10_9  and  C13_12 
REMARK    9  A    between atoms: C13_12  and  C15_13 
REMARK   10  A    between atoms: C13_12  and  C17_15 
REMARK   11  A    between atoms: C17_15  and  O18_16 
ROOT
ATOM      1  C9  ZIN A   1      18.221   1.547  10.946  0.00  0.00     0.262 C 
ENDROOT
BRANCH   1   2
ATOM      2  C8  ZIN A   1      18.780   2.136   9.650  0.00  0.00     0.297 C 
BRANCH   2   3
ATOM      3  N7  ZIN A   1      19.590   1.123   8.961  0.00  0.00     0.091 N 
ATOM      4  H27 ZIN A   1      19.941   0.436   9.612  0.00  0.00     0.316 HD
BRANCH   3   5
ATOM      5  C3  ZIN A   1      18.824   0.483   7.883  0.00  0.00     0.243 C 
BRANCH   5   6
ATOM      6  C2  ZIN A   1      19.060   1.236   6.572  0.00  0.00     0.033 C 
ATOM      7  C1  ZIN A   1      18.977   0.256   5.400  0.00  0.00     0.007 C 
ENDBRANCH   5   6
BRANCH   5   8
ATOM      8  C5  ZIN A   1      19.281  -0.970   7.727  0.00  0.00     0.199 C 
BRANCH   8   9
ATOM      9  O6  ZIN A   1      19.981  -1.378   8.904  0.00  0.00    -0.399 OA
ATOM     10  H26 ZIN A   1      20.749  -0.831   9.114  0.00  0.00     0.209 HD
ENDBRANCH   8   9
ENDBRANCH   5   8
ENDBRANCH   3   5
ENDBRANCH   2   3
ENDBRANCH   1   2
BRANCH   1  11
ATOM     11  N10 ZIN A   1      18.773   0.201  11.151  0.00  0.00    -0.067 N 
ATOM     12  H11 ZIN A   1      18.029  -0.479  11.107  0.00  0.00     0.277 HD
ATOM     13  H12 ZIN A   1      19.453   0.002  10.431  0.00  0.00     0.277 HD
BRANCH  11  14
ATOM     14  C13 ZIN A   1      19.421   0.132  12.468  0.00  0.00     0.209 C 
BRANCH  14  15
ATOM     15  C15 ZIN A   1      19.339  -1.298  13.002  0.00  0.00     0.030 C 
ATOM     16  C16 ZIN A   1      19.446  -1.279  14.528  0.00  0.00     0.007 C 
ENDBRANCH  14  15
BRANCH  14  17
ATOM     17  C17 ZIN A   1      20.889   0.543  12.335  0.00  0.00     0.197 C 
BRANCH  17  18
ATOM     18  O18 ZIN A   1      21.497  -0.196  11.274  0.00  0.00    -0.399 OA
ATOM     19  H39 ZIN A   1      22.452  -0.310  11.371  0.00  0.00     0.209 HD
ENDBRANCH  17  18
ENDBRANCH  14  17
ENDBRANCH  11  14
ENDBRANCH   1  11
TORSDOF 11
ENDMDL
MODEL 7
REMARK VINA RESULT:      -4.6      4.878      6.915
REMARK  11 active torsions:
REMARK  status: ('A' for Active; 'I' for Inactive)
REMARK    1  A    between atoms: C2_2  and  C3_3 
REMARK    2  A    between atoms: C3_3  and  C5_4 
REMARK    3  A    between atoms: C3_3  and  N7_6 
REMARK    4  A    between atoms: C5_4  and  O6_5 
REMARK    5  A    between atoms: N7_6  and  C8_7 
REMARK    6  A    between atoms: C8_7  and  C9_8 
REMARK    7  A    between atoms: C9_8  and  N10_9 
REMARK    8  A    between atoms: N10_9  and  C13_12 
REMARK    9  A    between atoms: C13_12  and  C15_13 
REMARK   10  A    between atoms: C13_12  and  C17_15 
REMARK   11  A    between atoms: C17_15  and  O18_16 
ROOT
ATOM      1  C9  ZIN A   1      18.568   1.867  14.937  0.00  0.00     0.262 C 
ENDROOT
BRANCH   1   2
ATOM      2  C8  ZIN A   1      18.299   1.904  13.431  0.00  0.00     0.297 C 
BRANCH   2   3
ATOM      3  N7  ZIN A   1      18.213   0.532  12.915  0.00  0.00     0.091 N 
ATOM      4  H27 ZIN A   1      17.805   0.517  11.992  0.00  0.00     0.316 HD
BRANCH   3   5
ATOM      5  C3  ZIN A   1      19.532  -0.114  12.917  0.00  0.00     0.243 C 
BRANCH   5   6
ATOM      6  C2  ZIN A   1      19.362  -1.625  12.747  0.00  0.00     0.033 C 
ATOM      7  C1  ZIN A   1      17.915  -1.934  12.361  0.00  0.00     0.007 C 
ENDBRANCH   5   6
BRANCH   5   8
ATOM      8  C5  ZIN A   1      20.373   0.438  11.763  0.00  0.00     0.199 C 
BRANCH   8   9
ATOM      9  O6  ZIN A   1      21.718   0.632  12.204  0.00  0.00    -0.399 OA
ATOM     10  H26 ZIN A   1      22.303  -0.116  12.022  0.00  0.00     0.209 HD
ENDBRANCH   8   9
ENDBRANCH   5   8
ENDBRANCH   3   5
ENDBRANCH   2   3
ENDBRANCH   1   2
BRANCH   1  11
ATOM     11  N10 ZIN A   1      17.422   1.254  15.624  0.00  0.00    -0.067 N 
ATOM     12  H11 ZIN A   1      16.707   1.951  15.772  0.00  0.00     0.277 HD
ATOM     13  H12 ZIN A   1      17.051   0.506  15.057  0.00  0.00     0.277 HD
BRANCH  11  14
ATOM     14  C13 ZIN A   1      17.859   0.717  16.920  0.00  0.00     0.209 C 
BRANCH  14  15
ATOM     15  C15 ZIN A   1      17.638  -0.796  16.946  0.00  0.00     0.030 C 
ATOM     16  C16 ZIN A   1      18.880  -1.501  16.398  0.00  0.00     0.007 C 
ENDBRANCH  14  15
BRANCH  14  17
ATOM     17  C17 ZIN A   1      19.345   1.019  17.122  0.00  0.00     0.197 C 
BRANCH  17  18
ATOM     18  O18 ZIN A   1      19.598   1.265  18.507  0.00  0.00    -0.399 OA
ATOM     19  H39 ZIN A   1      20.296   1.913  18.670  0.00  0.00     0.209 HD
ENDBRANCH  17  18
ENDBRANCH  14  17
ENDBRANCH  11  14
ENDBRANCH   1  11
TORSDOF 11
ENDMDL
MODEL 8
REMARK VINA RESULT:      -4.6      4.538      6.202
REMARK  11 active torsions:
REMARK  status: ('A' for Active; 'I' for Inactive)
REMARK    1  A    between atoms: C2_2  and  C3_3 
REMARK    2  A    between atoms: C3_3  and  C5_4 
REMARK    3  A    between atoms: C3_3  and  N7_6 
REMARK    4  A    between atoms: C5_4  and  O6_5 
REMARK    5  A    between atoms: N7_6  and  C8_7 
REMARK    6  A    between atoms: C8_7  and  C9_8 
REMARK    7  A    between atoms: C9_8  and  N10_9 
REMARK    8  A    between atoms: N10_9  and  C13_12 
REMARK    9  A    between atoms: C13_12  and  C15_13 
REMARK   10  A    between atoms: C13_12  and  C17_15 
REMARK   11  A    between atoms: C17_15  and  O18_16 
ROOT
ATOM      1  C9  ZIN A   1      18.256   1.691  13.955  0.00  0.00     0.262 C 
ENDROOT
BRANCH   1   2
ATOM      2  C8  ZIN A   1      18.103   3.148  13.512  0.00  0.00     0.297 C 
BRANCH   2   3
ATOM      3  N7  ZIN A   1      19.045   3.429  12.422  0.00  0.00     0.091 N 
ATOM      4  H27 ZIN A   1      19.409   2.574  12.028  0.00  0.00     0.316 HD
BRANCH   3   5
ATOM      5  C3  ZIN A   1      18.417   4.259  11.385  0.00  0.00     0.243 C 
BRANCH   5   6
ATOM      6  C2  ZIN A   1      17.981   3.374  10.216  0.00  0.00     0.033 C 
ATOM      7  C1  ZIN A   1      19.137   2.457   9.813  0.00  0.00     0.007 C 
ENDBRANCH   5   6
BRANCH   5   8
ATOM      8  C5  ZIN A   1      17.194   4.969  11.971  0.00  0.00     0.199 C 
BRANCH   8   9
ATOM      9  O6  ZIN A   1      16.090   4.834  11.074  0.00  0.00    -0.399 OA
ATOM     10  H26 ZIN A   1      15.664   3.967  11.102  0.00  0.00     0.209 HD
ENDBRANCH   8   9
ENDBRANCH   5   8
ENDBRANCH   3   5
ENDBRANCH   2   3
ENDBRANCH   1   2
BRANCH   1  11
ATOM     11  N10 ZIN A   1      19.652   1.439  14.337  0.00  0.00    -0.067 N 
ATOM     12  H11 ZIN A   1      20.248   2.133  13.911  0.00  0.00     0.277 HD
ATOM     13  H12 ZIN A   1      19.740   1.491  15.342  0.00  0.00     0.277 HD
BRANCH  11  14
ATOM     14  C13 ZIN A   1      20.052   0.102  13.879  0.00  0.00     0.209 C 
BRANCH  14  15
ATOM     15  C15 ZIN A   1      18.929  -0.894  14.170  0.00  0.00     0.030 C 
ATOM     16  C16 ZIN A   1      19.028  -1.363  15.622  0.00  0.00     0.007 C 
ENDBRANCH  14  15
BRANCH  14  17
ATOM     17  C17 ZIN A   1      20.323   0.140  12.373  0.00  0.00     0.197 C 
BRANCH  17  18
ATOM     18  O18 ZIN A   1      21.639   0.642  12.138  0.00  0.00    -0.399 OA
ATOM     19  H39 ZIN A   1      21.664   1.565  11.852  0.00  0.00     0.209 HD
ENDBRANCH  17  18
ENDBRANCH  14  17
ENDBRANCH  11  14
ENDBRANCH   1  11
TORSDOF 11
ENDMDL
MODEL 9
REMARK VINA RESULT:      -4.6      1.408      5.136
REMARK  11 active torsions:
REMARK  status: ('A' for Active; 'I' for Inactive)
REMARK    1  A    between atoms: C2_2  and  C3_3 
REMARK    2  A    between atoms: C3_3  and  C5_4 
REMARK    3  A    between atoms: C3_3  and  N7_6 
REMARK    4  A    between atoms: C5_4  and  O6_5 
REMARK    5  A    between atoms: N7_6  and  C8_7 
REMARK    6  A    between atoms: C8_7  and  C9_8 
REMARK    7  A    between atoms: C9_8  and  N10_9 
REMARK    8  A    between atoms: N10_9  and  C13_12 
REMARK    9  A    between atoms: C13_12  and  C15_13 
REMARK   10  A    between atoms: C13_12  and  C17_15 
REMARK   11  A    between atoms: C17_15  and  O18_16 
ROOT
ATOM      1  C9  ZIN A   1      19.256  -2.630   7.236  0.00  0.00     0.262 C 
ENDROOT
BRANCH   1   2
ATOM      2  C8  ZIN A   1      19.167  -2.337   8.735  0.00  0.00     0.297 C 
BRANCH   2   3
ATOM      3  N7  ZIN A   1      19.973  -1.150   9.050  0.00  0.00     0.091 N 
ATOM      4  H27 ZIN A   1      20.099  -0.571   8.234  0.00  0.00     0.316 HD
BRANCH   3   5
ATOM      5  C3  ZIN A   1      19.373  -0.384  10.151  0.00  0.00     0.243 C 
BRANCH   5   6
ATOM      6  C2  ZIN A   1      18.047  -1.030  10.558  0.00  0.00     0.033 C 
ATOM      7  C1  ZIN A   1      17.009   0.063  10.822  0.00  0.00     0.007 C 
ENDBRANCH   5   6
BRANCH   5   8
ATOM      8  C5  ZIN A   1      20.327  -0.378  11.348  0.00  0.00     0.199 C 
BRANCH   8   9
ATOM      9  O6  ZIN A   1      21.662  -0.607  10.894  0.00  0.00    -0.399 OA
ATOM     10  H26 ZIN A   1      21.979   0.049  10.259  0.00  0.00     0.209 HD
ENDBRANCH   8   9
ENDBRANCH   5   8
ENDBRANCH   3   5
ENDBRANCH   2   3
ENDBRANCH   1   2
BRANCH   1  11
ATOM     11  N10 ZIN A   1      17.932  -2.454   6.623  0.00  0.00    -0.067 N 
ATOM     12  H11 ZIN A   1      17.592  -3.345   6.295  0.00  0.00     0.277 HD
ATOM     13  H12 ZIN A   1      17.291  -2.080   7.307  0.00  0.00     0.277 HD
BRANCH  11  14
ATOM     14  C13 ZIN A   1      18.036  -1.523   5.491  0.00  0.00     0.209 C 
BRANCH  14  15
ATOM     15  C15 ZIN A   1      18.050  -0.085   6.012  0.00  0.00     0.030 C 
ATOM     16  C16 ZIN A   1      16.966   0.081   7.078  0.00  0.00     0.007 C 
ENDBRANCH  14  15
BRANCH  14  17
ATOM     17  C17 ZIN A   1      19.330  -1.799   4.722  0.00  0.00     0.197 C 
BRANCH  17  18
ATOM     18  O18 ZIN A   1      20.056  -0.579   4.556  0.00  0.00    -0.399 OA
ATOM     19  H39 ZIN A   1      20.934  -0.693   4.169  0.00  0.00     0.209 HD
ENDBRANCH  17  18
ENDBRANCH  14  17
ENDBRANCH  11  14
ENDBRANCH   1  11
TORSDOF 11
ENDMDL
