MODEL 1
REMARK VINA RESULT:      -9.1      0.000      0.000
REMARK  8 active torsions:
REMARK  status: ('A' for Active; 'I' for Inactive)
REMARK    1  A    between atoms: C4_4  and  N5_5 
REMARK    2  A    between atoms: N5_5  and  C6_6 
REMARK    3  A    between atoms: C9_9  and  C10_10 
REMARK       I    between atoms: C10_10  and  N12_12 
REMARK    4  A    between atoms: N12_12  and  C13_13 
REMARK    5  A    between atoms: C23_23  and  N24_24 
REMARK    6  A    between atoms: N27_27  and  C29_29 
REMARK    7  A    between atoms: C29_29  and  C30_30 
REMARK    8  A    between atoms: C30_30  and  O31_31 
ROOT
ATOM      1  N5  RES d   1      19.676   1.994   8.739  0.00  0.00    -0.320 N 
ATOM      2  H38 RES d   1      20.234   2.703   8.382  0.00  0.00     0.169 HD
ENDROOT
BRANCH   1   3
ATOM      3  C4  RES d   1      19.406   0.869   7.970  0.00  0.00     0.135 A 
ATOM      4  N3  RES d   1      19.231   0.977   6.654  0.00  0.00    -0.216 NA
ATOM      5  C2  RES d   1      18.974  -0.084   5.917  0.00  0.00     0.126 A 
ATOM      6  C1  RES d   1      18.783   0.086   4.433  0.00  0.00     0.093 C 
ATOM      7  N34 RES d   1      18.874  -1.288   6.442  0.00  0.00    -0.216 NA
ATOM      8  C23 RES d   1      19.041  -1.481   7.749  0.00  0.00     0.131 A 
ATOM      9  C22 RES d   1      19.314  -0.385   8.564  0.00  0.00     0.100 A 
BRANCH   8  10
ATOM     10  N24 RES d   1      18.939  -2.752   8.291  0.00  0.00    -0.362 N 
ATOM     11  C33 RES d   1      19.056  -3.948   7.440  0.00  0.00     0.152 C 
ATOM     12  C32 RES d   1      17.870  -4.869   7.725  0.00  0.00     0.254 C 
ATOM     13  N27 RES d   1      17.803  -5.152   9.164  0.00  0.00    -0.066 N 
ATOM     14  C26 RES d   1      17.530  -3.914   9.905  0.00  0.00     0.254 C 
ATOM     15  H28 RES d   1      18.682  -5.539   9.471  0.00  0.00     0.280 HD
ATOM     16  C25 RES d   1      18.704  -2.946   9.730  0.00  0.00     0.152 C 
BRANCH  13  17
ATOM     17  C29 RES d   1      16.727  -6.120   9.419  0.00  0.00     0.260 C 
BRANCH  17  18
ATOM     18  C30 RES d   1      15.746  -6.113   8.244  0.00  0.00     0.192 C 
BRANCH  18  19
ATOM     19  O31 RES d   1      14.540  -5.453   8.635  0.00  0.00    -0.399 OA
ATOM     20  H56 RES d   1      14.654  -4.824   9.361  0.00  0.00     0.209 HD
ENDBRANCH  18  19
ENDBRANCH  17  18
ENDBRANCH  13  17
ENDBRANCH   8  10
ENDBRANCH   1   3
BRANCH   1  21
ATOM     21  C6  RES d   1      19.148   2.106  10.010  0.00  0.00     0.172 A 
ATOM     22  S21 RES d   1      19.837   1.417  11.415  0.00  0.00    -0.045 SA
ATOM     23  C9  RES d   1      18.530   2.077  12.395  0.00  0.00     0.094 A 
ATOM     24  C8  RES d   1      17.685   2.757  11.561  0.00  0.00     0.144 A 
ATOM     25  N7  RES d   1      18.052   2.745  10.305  0.00  0.00    -0.235 NA
BRANCH  23  26
ATOM     26  C10 RES d   1      18.374   1.922  13.840  0.00  0.00     0.264 C 
ATOM     27  O11 RES d   1      17.338   2.263  14.381  0.00  0.00    -0.267 OA
ATOM     28  N12 RES d   1      19.377   1.401  14.574  0.00  0.00    -0.320 N 
ATOM     29  H40 RES d   1      20.231   1.203  14.158  0.00  0.00     0.169 HD
BRANCH  28  30
ATOM     30  C13 RES d   1      19.187   1.145  15.937  0.00  0.00     0.062 A 
ATOM     31  C19 RES d   1      19.350   2.165  16.867  0.00  0.00     0.061 A 
ATOM     32  C18 RES d   1      19.156   1.909  18.211  0.00  0.00     0.026 A 
ATOM     33 Cl20 RES d   1      19.784   3.761  16.340  0.00  0.00    -0.082 Cl
ATOM     34  C17 RES d   1      18.811   0.637  18.631  0.00  0.00     0.002 A 
ATOM     35  C16 RES d   1      18.653  -0.381  17.708  0.00  0.00     0.009 A 
ATOM     36  C14 RES d   1      18.840  -0.130  16.363  0.00  0.00    -0.034 A 
ATOM     37  C15 RES d   1      18.668  -1.241  15.358  0.00  0.00     0.050 C 
ENDBRANCH  28  30
ENDBRANCH  23  26
ENDBRANCH   1  21
TORSDOF 8
ENDMDL
MODEL 2
REMARK VINA RESULT:      -9.1      0.981      1.542
REMARK  8 active torsions:
REMARK  status: ('A' for Active; 'I' for Inactive)
REMARK    1  A    between atoms: C4_4  and  N5_5 
REMARK    2  A    between atoms: N5_5  and  C6_6 
REMARK    3  A    between atoms: C9_9  and  C10_10 
REMARK       I    between atoms: C10_10  and  N12_12 
REMARK    4  A    between atoms: N12_12  and  C13_13 
REMARK    5  A    between atoms: C23_23  and  N24_24 
REMARK    6  A    between atoms: N27_27  and  C29_29 
REMARK    7  A    between atoms: C29_29  and  C30_30 
REMARK    8  A    between atoms: C30_30  and  O31_31 
ROOT
ATOM      1  N5  RES d   1      19.647   1.875   8.693  0.00  0.00    -0.320 N 
ATOM      2  H38 RES d   1      20.213   2.583   8.349  0.00  0.00     0.169 HD
ENDROOT
BRANCH   1   3
ATOM      3  C4  RES d   1      19.370   0.765   7.906  0.00  0.00     0.135 A 
ATOM      4  N3  RES d   1      19.186   0.897   6.593  0.00  0.00    -0.216 NA
ATOM      5  C2  RES d   1      18.922  -0.149   5.838  0.00  0.00     0.126 A 
ATOM      6  C1  RES d   1      18.722   0.048   4.358  0.00  0.00     0.093 C 
ATOM      7  N34 RES d   1      18.823  -1.363   6.341  0.00  0.00    -0.216 NA
ATOM      8  C23 RES d   1      18.998  -1.580   7.643  0.00  0.00     0.131 A 
ATOM      9  C22 RES d   1      19.279  -0.500   8.476  0.00  0.00     0.100 A 
BRANCH   8  10
ATOM     10  N24 RES d   1      18.897  -2.861   8.162  0.00  0.00    -0.362 N 
ATOM     11  C33 RES d   1      19.024  -4.041   7.292  0.00  0.00     0.152 C 
ATOM     12  C32 RES d   1      17.839  -4.971   7.551  0.00  0.00     0.254 C 
ATOM     13  N27 RES d   1      17.763  -5.279   8.985  0.00  0.00    -0.066 N 
ATOM     14  C26 RES d   1      17.480  -4.055   9.745  0.00  0.00     0.254 C 
ATOM     15  H28 RES d   1      18.641  -5.669   9.291  0.00  0.00     0.280 HD
ATOM     16  C25 RES d   1      18.652  -3.080   9.596  0.00  0.00     0.152 C 
BRANCH  13  17
ATOM     17  C29 RES d   1      16.689  -6.255   9.216  0.00  0.00     0.260 C 
BRANCH  17  18
ATOM     18  C30 RES d   1      15.651  -6.145   8.096  0.00  0.00     0.192 C 
BRANCH  18  19
ATOM     19  O31 RES d   1      14.493  -5.465   8.586  0.00  0.00    -0.399 OA
ATOM     20  H56 RES d   1      13.945  -5.072   7.892  0.00  0.00     0.209 HD
ENDBRANCH  18  19
ENDBRANCH  17  18
ENDBRANCH  13  17
ENDBRANCH   8  10
ENDBRANCH   1   3
BRANCH   1  21
ATOM     21  C6  RES d   1      19.116   1.971   9.964  0.00  0.00     0.172 A 
ATOM     22  S21 RES d   1      19.766   1.215  11.352  0.00  0.00    -0.045 SA
ATOM     23  C9  RES d   1      18.480   1.899  12.343  0.00  0.00     0.094 A 
ATOM     24  C8  RES d   1      17.669   2.636  11.524  0.00  0.00     0.144 A 
ATOM     25  N7  RES d   1      18.044   2.645  10.270  0.00  0.00    -0.235 NA
BRANCH  23  26
ATOM     26  C10 RES d   1      18.308   1.710  13.782  0.00  0.00     0.264 C 
ATOM     27  O11 RES d   1      17.191   1.697  14.266  0.00  0.00    -0.267 OA
ATOM     28  N12 RES d   1      19.387   1.548  14.574  0.00  0.00    -0.320 N 
ATOM     29  H40 RES d   1      20.278   1.637  14.203  0.00  0.00     0.169 HD
BRANCH  28  30
ATOM     30  C13 RES d   1      19.219   1.251  15.931  0.00  0.00     0.062 A 
ATOM     31  C19 RES d   1      18.958  -0.054  16.333  0.00  0.00     0.061 A 
ATOM     32  C18 RES d   1      18.799  -0.343  17.675  0.00  0.00     0.026 A 
ATOM     33 Cl20 RES d   1      18.845  -1.321  15.151  0.00  0.00    -0.082 Cl
ATOM     34  C17 RES d   1      18.888   0.667  18.617  0.00  0.00     0.002 A 
ATOM     35  C16 RES d   1      19.143   1.967  18.219  0.00  0.00     0.009 A 
ATOM     36  C14 RES d   1      19.309   2.261  16.880  0.00  0.00    -0.034 A 
ATOM     37  C15 RES d   1      19.586   3.679  16.449  0.00  0.00     0.050 C 
ENDBRANCH  28  30
ENDBRANCH  23  26
ENDBRANCH   1  21
TORSDOF 8
ENDMDL
MODEL 3
REMARK VINA RESULT:      -9.0      3.352      9.882
REMARK  8 active torsions:
REMARK  status: ('A' for Active; 'I' for Inactive)
REMARK    1  A    between atoms: C4_4  and  N5_5 
REMARK    2  A    between atoms: N5_5  and  C6_6 
REMARK    3  A    between atoms: C9_9  and  C10_10 
REMARK       I    between atoms: C10_10  and  N12_12 
REMARK    4  A    between atoms: N12_12  and  C13_13 
REMARK    5  A    between atoms: C23_23  and  N24_24 
REMARK    6  A    between atoms: N27_27  and  C29_29 
REMARK    7  A    between atoms: C29_29  and  C30_30 
REMARK    8  A    between atoms: C30_30  and  O31_31 
ROOT
ATOM      1  N5  RES d   1      19.840  -1.606  14.239  0.00  0.00    -0.320 N 
ATOM      2  H38 RES d   1      20.491  -2.246  14.567  0.00  0.00     0.169 HD
ENDROOT
BRANCH   1   3
ATOM      3  C4  RES d   1      19.446  -0.545  15.044  0.00  0.00     0.135 A 
ATOM      4  N3  RES d   1      19.181  -0.739  16.335  0.00  0.00    -0.216 NA
ATOM      5  C2  RES d   1      18.805   0.261  17.106  0.00  0.00     0.126 A 
ATOM      6  C1  RES d   1      18.517  -0.006  18.560  0.00  0.00     0.093 C 
ATOM      7  N34 RES d   1      18.670   1.486  16.640  0.00  0.00    -0.216 NA
ATOM      8  C23 RES d   1      18.921   1.764  15.362  0.00  0.00     0.131 A 
ATOM      9  C22 RES d   1      19.320   0.735  14.514  0.00  0.00     0.100 A 
BRANCH   8  10
ATOM     10  N24 RES d   1      18.780   3.056  14.883  0.00  0.00    -0.362 N 
ATOM     11  C33 RES d   1      18.756   4.205  15.804  0.00  0.00     0.152 C 
ATOM     12  C32 RES d   1      17.539   5.070  15.475  0.00  0.00     0.254 C 
ATOM     13  N27 RES d   1      17.565   5.432  14.053  0.00  0.00    -0.066 N 
ATOM     14  C26 RES d   1      17.428   4.226  13.227  0.00  0.00     0.254 C 
ATOM     15  H28 RES d   1      18.438   5.888  13.838  0.00  0.00     0.280 HD
ATOM     16  C25 RES d   1      18.644   3.320  13.443  0.00  0.00     0.152 C 
BRANCH  13  17
ATOM     17  C29 RES d   1      16.452   6.348  13.765  0.00  0.00     0.260 C 
BRANCH  17  18
ATOM     18  C30 RES d   1      15.368   6.186  14.833  0.00  0.00     0.192 C 
BRANCH  18  19
ATOM     19  O31 RES d   1      14.174   5.687  14.227  0.00  0.00    -0.399 OA
ATOM     20  H56 RES d   1      13.480   6.352  14.121  0.00  0.00     0.209 HD
ENDBRANCH  18  19
ENDBRANCH  17  18
ENDBRANCH  13  17
ENDBRANCH   8  10
ENDBRANCH   1   3
BRANCH   1  21
ATOM     21  C6  RES d   1      19.306  -1.749  12.974  0.00  0.00     0.172 A 
ATOM     22  S21 RES d   1      19.885  -0.956  11.575  0.00  0.00    -0.045 SA
ATOM     23  C9  RES d   1      18.645  -1.741  10.601  0.00  0.00     0.094 A 
ATOM     24  C8  RES d   1      17.899  -2.531  11.432  0.00  0.00     0.144 A 
ATOM     25  N7  RES d   1      18.285  -2.504  12.682  0.00  0.00    -0.235 NA
BRANCH  23  26
ATOM     26  C10 RES d   1      18.446  -1.574   9.162  0.00  0.00     0.264 C 
ATOM     27  O11 RES d   1      17.333  -1.694   8.683  0.00  0.00    -0.267 OA
ATOM     28  N12 RES d   1      19.495  -1.285   8.366  0.00  0.00    -0.320 N 
ATOM     29  H40 RES d   1      20.392  -1.268   8.733  0.00  0.00     0.169 HD
BRANCH  28  30
ATOM     30  C13 RES d   1      19.288  -1.012   7.009  0.00  0.00     0.062 A 
ATOM     31  C19 RES d   1      19.319  -2.042   6.077  0.00  0.00     0.061 A 
ATOM     32  C18 RES d   1      19.109  -1.769   4.739  0.00  0.00     0.026 A 
ATOM     33 Cl20 RES d   1      19.608  -3.674   6.595  0.00  0.00    -0.082 Cl
ATOM     34  C17 RES d   1      18.879  -0.468   4.326  0.00  0.00     0.002 A 
ATOM     35  C16 RES d   1      18.853   0.560   5.251  0.00  0.00     0.009 A 
ATOM     36  C14 RES d   1      19.057   0.291   6.590  0.00  0.00    -0.034 A 
ATOM     37  C15 RES d   1      19.027   1.414   7.596  0.00  0.00     0.050 C 
ENDBRANCH  28  30
ENDBRANCH  23  26
ENDBRANCH   1  21
TORSDOF 8
ENDMDL
MODEL 4
REMARK VINA RESULT:      -9.0      3.021      9.789
REMARK  8 active torsions:
REMARK  status: ('A' for Active; 'I' for Inactive)
REMARK    1  A    between atoms: C4_4  and  N5_5 
REMARK    2  A    between atoms: N5_5  and  C6_6 
REMARK    3  A    between atoms: C9_9  and  C10_10 
REMARK       I    between atoms: C10_10  and  N12_12 
REMARK    4  A    between atoms: N12_12  and  C13_13 
REMARK    5  A    between atoms: C23_23  and  N24_24 
REMARK    6  A    between atoms: N27_27  and  C29_29 
REMARK    7  A    between atoms: C29_29  and  C30_30 
REMARK    8  A    between atoms: C30_30  and  O31_31 
ROOT
ATOM      1  N5  RES d   1      19.830  -1.613  14.236  0.00  0.00    -0.320 N 
ATOM      2  H38 RES d   1      20.474  -2.265  14.554  0.00  0.00     0.169 HD
ENDROOT
BRANCH   1   3
ATOM      3  C4  RES d   1      19.454  -0.555  15.054  0.00  0.00     0.135 A 
ATOM      4  N3  RES d   1      19.187  -0.760  16.343  0.00  0.00    -0.216 NA
ATOM      5  C2  RES d   1      18.828   0.236  17.126  0.00  0.00     0.126 A 
ATOM      6  C1  RES d   1      18.535  -0.043  18.577  0.00  0.00     0.093 C 
ATOM      7  N34 RES d   1      18.714   1.469  16.676  0.00  0.00    -0.216 NA
ATOM      8  C23 RES d   1      18.969   1.758  15.401  0.00  0.00     0.131 A 
ATOM      9  C22 RES d   1      19.350   0.732  14.540  0.00  0.00     0.100 A 
BRANCH   8  10
ATOM     10  N24 RES d   1      18.851   3.058  14.938  0.00  0.00    -0.362 N 
ATOM     11  C33 RES d   1      18.754   4.189  15.876  0.00  0.00     0.152 C 
ATOM     12  C32 RES d   1      17.555   5.051  15.482  0.00  0.00     0.254 C 
ATOM     13  N27 RES d   1      17.674   5.441  14.071  0.00  0.00    -0.066 N 
ATOM     14  C26 RES d   1      17.604   4.250  13.215  0.00  0.00     0.254 C 
ATOM     15  H28 RES d   1      18.557   5.907  13.925  0.00  0.00     0.280 HD
ATOM     16  C25 RES d   1      18.810   3.348  13.496  0.00  0.00     0.152 C 
BRANCH  13  17
ATOM     17  C29 RES d   1      16.577   6.355  13.725  0.00  0.00     0.260 C 
BRANCH  17  18
ATOM     18  C30 RES d   1      15.537   6.351  14.849  0.00  0.00     0.192 C 
BRANCH  18  19
ATOM     19  O31 RES d   1      14.315   5.791  14.364  0.00  0.00    -0.399 OA
ATOM     20  H56 RES d   1      14.348   4.834  14.229  0.00  0.00     0.209 HD
ENDBRANCH  18  19
ENDBRANCH  17  18
ENDBRANCH  13  17
ENDBRANCH   8  10
ENDBRANCH   1   3
BRANCH   1  21
ATOM     21  C6  RES d   1      19.288  -1.736  12.973  0.00  0.00     0.172 A 
ATOM     22  S21 RES d   1      19.873  -0.939  11.579  0.00  0.00    -0.045 SA
ATOM     23  C9  RES d   1      18.616  -1.695  10.603  0.00  0.00     0.094 A 
ATOM     24  C8  RES d   1      17.862  -2.482  11.430  0.00  0.00     0.144 A 
ATOM     25  N7  RES d   1      18.254  -2.473  12.679  0.00  0.00    -0.235 NA
BRANCH  23  26
ATOM     26  C10 RES d   1      18.412  -1.512   9.167  0.00  0.00     0.264 C 
ATOM     27  O11 RES d   1      17.283  -1.450   8.715  0.00  0.00    -0.267 OA
ATOM     28  N12 RES d   1      19.475  -1.409   8.344  0.00  0.00    -0.320 N 
ATOM     29  H40 RES d   1      20.371  -1.538   8.691  0.00  0.00     0.169 HD
BRANCH  28  30
ATOM     30  C13 RES d   1      19.283  -1.119   6.989  0.00  0.00     0.062 A 
ATOM     31  C19 RES d   1      19.074   0.193   6.579  0.00  0.00     0.061 A 
ATOM     32  C18 RES d   1      18.891   0.477   5.240  0.00  0.00     0.026 A 
ATOM     33 Cl20 RES d   1      19.054   1.476   7.750  0.00  0.00    -0.082 Cl
ATOM     34  C17 RES d   1      18.905  -0.545   4.307  0.00  0.00     0.002 A 
ATOM     35  C16 RES d   1      19.109  -1.852   4.712  0.00  0.00     0.009 A 
ATOM     36  C14 RES d   1      19.298  -2.141   6.049  0.00  0.00    -0.034 A 
ATOM     37  C15 RES d   1      19.520  -3.566   6.488  0.00  0.00     0.050 C 
ENDBRANCH  28  30
ENDBRANCH  23  26
ENDBRANCH   1  21
TORSDOF 8
ENDMDL
MODEL 5
REMARK VINA RESULT:      -8.7      3.168      8.740
REMARK  8 active torsions:
REMARK  status: ('A' for Active; 'I' for Inactive)
REMARK    1  A    between atoms: C4_4  and  N5_5 
REMARK    2  A    between atoms: N5_5  and  C6_6 
REMARK    3  A    between atoms: C9_9  and  C10_10 
REMARK       I    between atoms: C10_10  and  N12_12 
REMARK    4  A    between atoms: N12_12  and  C13_13 
REMARK    5  A    between atoms: C23_23  and  N24_24 
REMARK    6  A    between atoms: N27_27  and  C29_29 
REMARK    7  A    between atoms: C29_29  and  C30_30 
REMARK    8  A    between atoms: C30_30  and  O31_31 
ROOT
ATOM      1  N5  RES d   1      19.657   2.005   8.779  0.00  0.00    -0.320 N 
ATOM      2  H38 RES d   1      20.289   2.568   8.305  0.00  0.00     0.169 HD
ENDROOT
BRANCH   1   3
ATOM      3  C4  RES d   1      19.099   2.442   9.973  0.00  0.00     0.135 A 
ATOM      4  N3  RES d   1      18.194   3.420   9.978  0.00  0.00    -0.216 NA
ATOM      5  C2  RES d   1      17.660   3.842  11.105  0.00  0.00     0.126 A 
ATOM      6  C1  RES d   1      16.641   4.951  11.062  0.00  0.00     0.093 C 
ATOM      7  N34 RES d   1      17.996   3.327  12.270  0.00  0.00    -0.216 NA
ATOM      8  C23 RES d   1      18.889   2.342  12.351  0.00  0.00     0.131 A 
ATOM      9  C22 RES d   1      19.477   1.867  11.181  0.00  0.00     0.100 A 
BRANCH   8  10
ATOM     10  N24 RES d   1      19.231   1.803  13.580  0.00  0.00    -0.362 N 
ATOM     11  C33 RES d   1      19.891   0.490  13.673  0.00  0.00     0.152 C 
ATOM     12  C32 RES d   1      19.132  -0.370  14.683  0.00  0.00     0.254 C 
ATOM     13  N27 RES d   1      19.029   0.349  15.959  0.00  0.00    -0.066 N 
ATOM     14  C26 RES d   1      18.221   1.562  15.786  0.00  0.00     0.254 C 
ATOM     15  H28 RES d   1      19.952   0.603  16.276  0.00  0.00     0.280 HD
ATOM     16  C25 RES d   1      18.939   2.521  14.830  0.00  0.00     0.152 C 
BRANCH  13  17
ATOM     17  C29 RES d   1      18.392  -0.522  16.957  0.00  0.00     0.260 C 
BRANCH  17  18
ATOM     18  C30 RES d   1      18.667   0.024  18.360  0.00  0.00     0.192 C 
BRANCH  18  19
ATOM     19  O31 RES d   1      20.035   0.426  18.455  0.00  0.00    -0.399 OA
ATOM     20  H56 RES d   1      20.666  -0.265  18.210  0.00  0.00     0.209 HD
ENDBRANCH  18  19
ENDBRANCH  17  18
ENDBRANCH  13  17
ENDBRANCH   8  10
ENDBRANCH   1   3
BRANCH   1  21
ATOM     21  C6  RES d   1      19.315   0.769   8.268  0.00  0.00     0.172 A 
ATOM     22  S21 RES d   1      19.700  -0.728   8.998  0.00  0.00    -0.045 SA
ATOM     23  C9  RES d   1      18.896  -1.588   7.688  0.00  0.00     0.094 A 
ATOM     24  C8  RES d   1      18.413  -0.656   6.810  0.00  0.00     0.144 A 
ATOM     25  N7  RES d   1      18.659   0.581   7.158  0.00  0.00    -0.235 NA
BRANCH  23  26
ATOM     26  C10 RES d   1      18.771  -3.039   7.558  0.00  0.00     0.264 C 
ATOM     27  O11 RES d   1      19.758  -3.720   7.350  0.00  0.00    -0.267 OA
ATOM     28  N12 RES d   1      17.561  -3.623   7.670  0.00  0.00    -0.320 N 
ATOM     29  H40 RES d   1      16.764  -3.077   7.756  0.00  0.00     0.169 HD
BRANCH  28  30
ATOM     30  C13 RES d   1      17.455  -5.019   7.662  0.00  0.00     0.062 A 
ATOM     31  C19 RES d   1      17.435  -5.710   6.456  0.00  0.00     0.061 A 
ATOM     32  C18 RES d   1      17.336  -7.087   6.453  0.00  0.00     0.026 A 
ATOM     33 Cl20 RES d   1      17.548  -4.843   4.956  0.00  0.00    -0.082 Cl
ATOM     34  C17 RES d   1      17.245  -7.779   7.649  0.00  0.00     0.002 A 
ATOM     35  C16 RES d   1      17.259  -7.093   8.850  0.00  0.00     0.009 A 
ATOM     36  C14 RES d   1      17.364  -5.716   8.859  0.00  0.00    -0.034 A 
ATOM     37  C15 RES d   1      17.380  -4.971  10.169  0.00  0.00     0.050 C 
ENDBRANCH  28  30
ENDBRANCH  23  26
ENDBRANCH   1  21
TORSDOF 8
ENDMDL
MODEL 6
REMARK VINA RESULT:      -8.1      3.022      5.549
REMARK  8 active torsions:
REMARK  status: ('A' for Active; 'I' for Inactive)
REMARK    1  A    between atoms: C4_4  and  N5_5 
REMARK    2  A    between atoms: N5_5  and  C6_6 
REMARK    3  A    between atoms: C9_9  and  C10_10 
REMARK       I    between atoms: C10_10  and  N12_12 
REMARK    4  A    between atoms: N12_12  and  C13_13 
REMARK    5  A    between atoms: C23_23  and  N24_24 
REMARK    6  A    between atoms: N27_27  and  C29_29 
REMARK    7  A    between atoms: C29_29  and  C30_30 
REMARK    8  A    between atoms: C30_30  and  O31_31 
ROOT
ATOM      1  N5  RES d   1      18.118  -6.151   9.965  0.00  0.00    -0.320 N 
ATOM      2  H38 RES d   1      18.246  -7.032  10.352  0.00  0.00     0.169 HD
ENDROOT
BRANCH   1   3
ATOM      3  C4  RES d   1      17.613  -6.026   8.677  0.00  0.00     0.135 A 
ATOM      4  N3  RES d   1      16.596  -6.787   8.274  0.00  0.00    -0.216 NA
ATOM      5  C2  RES d   1      16.111  -6.676   7.054  0.00  0.00     0.126 A 
ATOM      6  C1  RES d   1      14.960  -7.557   6.643  0.00  0.00     0.093 C 
ATOM      7  N34 RES d   1      16.607  -5.821   6.184  0.00  0.00    -0.216 NA
ATOM      8  C23 RES d   1      17.620  -5.021   6.510  0.00  0.00     0.131 A 
ATOM      9  C22 RES d   1      18.162  -5.107   7.790  0.00  0.00     0.100 A 
BRANCH   8  10
ATOM     10  N24 RES d   1      18.131  -4.122   5.589  0.00  0.00    -0.362 N 
ATOM     11  C33 RES d   1      19.465  -3.526   5.773  0.00  0.00     0.152 C 
ATOM     12  C32 RES d   1      19.349  -2.010   5.620  0.00  0.00     0.254 C 
ATOM     13  N27 RES d   1      18.715  -1.694   4.334  0.00  0.00    -0.066 N 
ATOM     14  C26 RES d   1      17.337  -2.199   4.318  0.00  0.00     0.254 C 
ATOM     15  H28 RES d   1      19.239  -2.124   3.587  0.00  0.00     0.280 HD
ATOM     16  C25 RES d   1      17.354  -3.728   4.403  0.00  0.00     0.152 C 
BRANCH  13  17
ATOM     17  C29 RES d   1      18.702  -0.236   4.145  0.00  0.00     0.260 C 
BRANCH  17  18
ATOM     18  C30 RES d   1      19.166   0.449   5.432  0.00  0.00     0.192 C 
BRANCH  18  19
ATOM     19  O31 RES d   1      18.032   0.971   6.129  0.00  0.00    -0.399 OA
ATOM     20  H56 RES d   1      18.255   1.601   6.827  0.00  0.00     0.209 HD
ENDBRANCH  18  19
ENDBRANCH  17  18
ENDBRANCH  13  17
ENDBRANCH   8  10
ENDBRANCH   1   3
BRANCH   1  21
ATOM     21  C6  RES d   1      18.438  -5.023  10.695  0.00  0.00     0.172 A 
ATOM     22  S21 RES d   1      17.298  -3.935  11.356  0.00  0.00    -0.045 SA
ATOM     23  C9  RES d   1      18.602  -2.954  12.020  0.00  0.00     0.094 A 
ATOM     24  C8  RES d   1      19.787  -3.542  11.671  0.00  0.00     0.144 A 
ATOM     25  N7  RES d   1      19.651  -4.637  10.968  0.00  0.00    -0.235 NA
BRANCH  23  26
ATOM     26  C10 RES d   1      18.447  -1.727  12.801  0.00  0.00     0.264 C 
ATOM     27  O11 RES d   1      17.427  -1.069  12.704  0.00  0.00    -0.267 OA
ATOM     28  N12 RES d   1      19.432  -1.326  13.629  0.00  0.00    -0.320 N 
ATOM     29  H40 RES d   1      20.275  -1.805  13.647  0.00  0.00     0.169 HD
BRANCH  28  30
ATOM     30  C13 RES d   1      19.238  -0.218  14.461  0.00  0.00     0.062 A 
ATOM     31  C19 RES d   1      19.470   1.065  13.980  0.00  0.00     0.061 A 
ATOM     32  C18 RES d   1      19.273   2.156  14.804  0.00  0.00     0.026 A 
ATOM     33 Cl20 RES d   1      19.996   1.297  12.341  0.00  0.00    -0.082 Cl
ATOM     34  C17 RES d   1      18.855   1.972  16.110  0.00  0.00     0.002 A 
ATOM     35  C16 RES d   1      18.628   0.695  16.593  0.00  0.00     0.009 A 
ATOM     36  C14 RES d   1      18.819  -0.399  15.772  0.00  0.00    -0.034 A 
ATOM     37  C15 RES d   1      18.571  -1.789  16.301  0.00  0.00     0.050 C 
ENDBRANCH  28  30
ENDBRANCH  23  26
ENDBRANCH   1  21
TORSDOF 8
ENDMDL
MODEL 7
REMARK VINA RESULT:      -8.0      3.729     10.046
REMARK  8 active torsions:
REMARK  status: ('A' for Active; 'I' for Inactive)
REMARK    1  A    between atoms: C4_4  and  N5_5 
REMARK    2  A    between atoms: N5_5  and  C6_6 
REMARK    3  A    between atoms: C9_9  and  C10_10 
REMARK       I    between atoms: C10_10  and  N12_12 
REMARK    4  A    between atoms: N12_12  and  C13_13 
REMARK    5  A    between atoms: C23_23  and  N24_24 
REMARK    6  A    between atoms: N27_27  and  C29_29 
REMARK    7  A    between atoms: C29_29  and  C30_30 
REMARK    8  A    between atoms: C30_30  and  O31_31 
ROOT
ATOM      1  N5  RES d   1      19.853  -2.323  10.395  0.00  0.00    -0.320 N 
ATOM      2  H38 RES d   1      20.762  -2.586  10.606  0.00  0.00     0.169 HD
ENDROOT
BRANCH   1   3
ATOM      3  C4  RES d   1      19.471  -0.993  10.514  0.00  0.00     0.135 A 
ATOM      4  N3  RES d   1      19.531  -0.177   9.463  0.00  0.00    -0.216 NA
ATOM      5  C2  RES d   1      19.172   1.086   9.566  0.00  0.00     0.126 A 
ATOM      6  C1  RES d   1      19.257   1.972   8.351  0.00  0.00     0.093 C 
ATOM      7  N34 RES d   1      18.744   1.597  10.703  0.00  0.00    -0.216 NA
ATOM      8  C23 RES d   1      18.649   0.846  11.798  0.00  0.00     0.131 A 
ATOM      9  C22 RES d   1      19.020  -0.495  11.731  0.00  0.00     0.100 A 
BRANCH   8  10
ATOM     10  N24 RES d   1      18.194   1.392  12.987  0.00  0.00    -0.362 N 
ATOM     11  C33 RES d   1      18.125   2.851  13.172  0.00  0.00     0.152 C 
ATOM     12  C32 RES d   1      18.816   3.211  14.487  0.00  0.00     0.254 C 
ATOM     13  N27 RES d   1      18.224   2.431  15.582  0.00  0.00    -0.066 N 
ATOM     14  C26 RES d   1      18.486   1.002  15.376  0.00  0.00     0.254 C 
ATOM     15  H28 RES d   1      17.229   2.590  15.606  0.00  0.00     0.280 HD
ATOM     16  C25 RES d   1      17.773   0.531  14.104  0.00  0.00     0.152 C 
BRANCH  13  17
ATOM     17  C29 RES d   1      18.818   2.857  16.857  0.00  0.00     0.260 C 
BRANCH  17  18
ATOM     18  C30 RES d   1      19.189   1.624  17.683  0.00  0.00     0.192 C 
BRANCH  18  19
ATOM     19  O31 RES d   1      19.627   2.034  18.980  0.00  0.00    -0.399 OA
ATOM     20  H56 RES d   1      20.368   1.517  19.327  0.00  0.00     0.209 HD
ENDBRANCH  18  19
ENDBRANCH  17  18
ENDBRANCH  13  17
ENDBRANCH   8  10
ENDBRANCH   1   3
BRANCH   1  21
ATOM     21  C6  RES d   1      18.939  -3.271   9.979  0.00  0.00     0.172 A 
ATOM     22  S21 RES d   1      18.874  -3.937   8.406  0.00  0.00    -0.045 SA
ATOM     23  C9  RES d   1      17.500  -4.937   8.874  0.00  0.00     0.094 A 
ATOM     24  C8  RES d   1      17.213  -4.666  10.183  0.00  0.00     0.144 A 
ATOM     25  N7  RES d   1      18.002  -3.776  10.729  0.00  0.00    -0.235 NA
BRANCH  23  26
ATOM     26  C10 RES d   1      16.790  -5.883   8.014  0.00  0.00     0.264 C 
ATOM     27  O11 RES d   1      16.982  -7.079   8.136  0.00  0.00    -0.267 OA
ATOM     28  N12 RES d   1      15.922  -5.430   7.087  0.00  0.00    -0.320 N 
ATOM     29  H40 RES d   1      15.829  -4.477   6.935  0.00  0.00     0.169 HD
BRANCH  28  30
ATOM     30  C13 RES d   1      15.158  -6.336   6.344  0.00  0.00     0.062 A 
ATOM     31  C19 RES d   1      15.654  -6.856   5.154  0.00  0.00     0.061 A 
ATOM     32  C18 RES d   1      14.898  -7.755   4.426  0.00  0.00     0.026 A 
ATOM     33 Cl20 RES d   1      17.227  -6.387   4.590  0.00  0.00    -0.082 Cl
ATOM     34  C17 RES d   1      13.643  -8.128   4.875  0.00  0.00     0.002 A 
ATOM     35  C16 RES d   1      13.145  -7.608   6.057  0.00  0.00     0.009 A 
ATOM     36  C14 RES d   1      13.899  -6.714   6.791  0.00  0.00    -0.034 A 
ATOM     37  C15 RES d   1      13.354  -6.149   8.078  0.00  0.00     0.050 C 
ENDBRANCH  28  30
ENDBRANCH  23  26
ENDBRANCH   1  21
TORSDOF 8
ENDMDL
MODEL 8
REMARK VINA RESULT:      -8.0      3.052      8.537
REMARK  8 active torsions:
REMARK  status: ('A' for Active; 'I' for Inactive)
REMARK    1  A    between atoms: C4_4  and  N5_5 
REMARK    2  A    between atoms: N5_5  and  C6_6 
REMARK    3  A    between atoms: C9_9  and  C10_10 
REMARK       I    between atoms: C10_10  and  N12_12 
REMARK    4  A    between atoms: N12_12  and  C13_13 
REMARK    5  A    between atoms: C23_23  and  N24_24 
REMARK    6  A    between atoms: N27_27  and  C29_29 
REMARK    7  A    between atoms: C29_29  and  C30_30 
REMARK    8  A    between atoms: C30_30  and  O31_31 
ROOT
ATOM      1  N5  RES d   1      17.016   4.661  11.209  0.00  0.00    -0.320 N 
ATOM      2  H38 RES d   1      16.586   5.276  10.593  0.00  0.00     0.169 HD
ENDROOT
BRANCH   1   3
ATOM      3  C4  RES d   1      16.963   4.900  12.576  0.00  0.00     0.135 A 
ATOM      4  N3  RES d   1      16.116   5.801  13.072  0.00  0.00    -0.216 NA
ATOM      5  C2  RES d   1      16.060   6.035  14.367  0.00  0.00     0.126 A 
ATOM      6  C1  RES d   1      15.087   7.063  14.882  0.00  0.00     0.093 C 
ATOM      7  N34 RES d   1      16.832   5.398  15.223  0.00  0.00    -0.216 NA
ATOM      8  C23 RES d   1      17.701   4.478  14.809  0.00  0.00     0.131 A 
ATOM      9  C22 RES d   1      17.792   4.202  13.447  0.00  0.00     0.100 A 
BRANCH   8  10
ATOM     10  N24 RES d   1      18.505   3.811  15.718  0.00  0.00    -0.362 N 
ATOM     11  C33 RES d   1      19.350   2.682  15.294  0.00  0.00     0.152 C 
ATOM     12  C32 RES d   1      19.104   1.505  16.237  0.00  0.00     0.254 C 
ATOM     13  N27 RES d   1      19.318   1.936  17.625  0.00  0.00    -0.066 N 
ATOM     14  C26 RES d   1      18.324   2.952  17.992  0.00  0.00     0.254 C 
ATOM     15  H28 RES d   1      20.244   2.324  17.716  0.00  0.00     0.280 HD
ATOM     16  C25 RES d   1      18.535   4.204  17.135  0.00  0.00     0.152 C 
BRANCH  13  17
ATOM     17  C29 RES d   1      19.184   0.777  18.519  0.00  0.00     0.260 C 
BRANCH  17  18
ATOM     18  C30 RES d   1      18.840  -0.466  17.695  0.00  0.00     0.192 C 
BRANCH  18  19
ATOM     19  O31 RES d   1      19.872  -1.441  17.852  0.00  0.00    -0.399 OA
ATOM     20  H56 RES d   1      19.649  -2.155  18.465  0.00  0.00     0.209 HD
ENDBRANCH  18  19
ENDBRANCH  17  18
ENDBRANCH  13  17
ENDBRANCH   8  10
ENDBRANCH   1   3
BRANCH   1  21
ATOM     21  C6  RES d   1      17.681   3.552  10.726  0.00  0.00     0.172 A 
ATOM     22  S21 RES d   1      17.597   1.989  11.414  0.00  0.00    -0.045 SA
ATOM     23  C9  RES d   1      18.690   1.373  10.177  0.00  0.00     0.094 A 
ATOM     24  C8  RES d   1      19.023   2.415   9.357  0.00  0.00     0.144 A 
ATOM     25  N7  RES d   1      18.465   3.552   9.686  0.00  0.00    -0.235 NA
BRANCH  23  26
ATOM     26  C10 RES d   1      19.160  -0.006  10.052  0.00  0.00     0.264 C 
ATOM     27  O11 RES d   1      20.339  -0.232   9.855  0.00  0.00    -0.267 OA
ATOM     28  N12 RES d   1      18.286  -1.028  10.158  0.00  0.00    -0.320 N 
ATOM     29  H40 RES d   1      17.337  -0.848  10.236  0.00  0.00     0.169 HD
BRANCH  28  30
ATOM     30  C13 RES d   1      18.751  -2.348  10.155  0.00  0.00     0.062 A 
ATOM     31  C19 RES d   1      19.178  -2.940  11.338  0.00  0.00     0.061 A 
ATOM     32  C18 RES d   1      19.630  -4.245  11.331  0.00  0.00     0.026 A 
ATOM     33 Cl20 RES d   1      19.130  -2.044  12.825  0.00  0.00    -0.082 Cl
ATOM     34  C17 RES d   1      19.669  -4.959  10.146  0.00  0.00     0.002 A 
ATOM     35  C16 RES d   1      19.249  -4.370   8.967  0.00  0.00     0.009 A 
ATOM     36  C14 RES d   1      18.791  -3.068   8.969  0.00  0.00    -0.034 A 
ATOM     37  C15 RES d   1      18.334  -2.429   7.682  0.00  0.00     0.050 C 
ENDBRANCH  28  30
ENDBRANCH  23  26
ENDBRANCH   1  21
TORSDOF 8
ENDMDL
MODEL 9
REMARK VINA RESULT:      -7.9      3.595     10.066
REMARK  8 active torsions:
REMARK  status: ('A' for Active; 'I' for Inactive)
REMARK    1  A    between atoms: C4_4  and  N5_5 
REMARK    2  A    between atoms: N5_5  and  C6_6 
REMARK    3  A    between atoms: C9_9  and  C10_10 
REMARK       I    between atoms: C10_10  and  N12_12 
REMARK    4  A    between atoms: N12_12  and  C13_13 
REMARK    5  A    between atoms: C23_23  and  N24_24 
REMARK    6  A    between atoms: N27_27  and  C29_29 
REMARK    7  A    between atoms: C29_29  and  C30_30 
REMARK    8  A    between atoms: C30_30  and  O31_31 
ROOT
ATOM      1  N5  RES d   1      19.768  -2.449  10.628  0.00  0.00    -0.320 N 
ATOM      2  H38 RES d   1      20.654  -2.736  10.899  0.00  0.00     0.169 HD
ENDROOT
BRANCH   1   3
ATOM      3  C4  RES d   1      19.428  -1.104  10.683  0.00  0.00     0.135 A 
ATOM      4  N3  RES d   1      19.552  -0.331   9.605  0.00  0.00    -0.216 NA
ATOM      5  C2  RES d   1      19.233   0.946   9.647  0.00  0.00     0.126 A 
ATOM      6  C1  RES d   1      19.390   1.780   8.403  0.00  0.00     0.093 C 
ATOM      7  N34 RES d   1      18.784   1.515  10.747  0.00  0.00    -0.216 NA
ATOM      8  C23 RES d   1      18.626   0.810  11.866  0.00  0.00     0.131 A 
ATOM      9  C22 RES d   1      18.953  -0.543  11.863  0.00  0.00     0.100 A 
BRANCH   8  10
ATOM     10  N24 RES d   1      18.148   1.417  13.017  0.00  0.00    -0.362 N 
ATOM     11  C33 RES d   1      18.187   2.880  13.172  0.00  0.00     0.152 C 
ATOM     12  C32 RES d   1      18.828   3.213  14.519  0.00  0.00     0.254 C 
ATOM     13  N27 RES d   1      18.113   2.507  15.590  0.00  0.00    -0.066 N 
ATOM     14  C26 RES d   1      18.269   1.057  15.425  0.00  0.00     0.254 C 
ATOM     15  H28 RES d   1      17.134   2.746  15.552  0.00  0.00     0.280 HD
ATOM     16  C25 RES d   1      17.596   0.617  14.121  0.00  0.00     0.152 C 
BRANCH  13  17
ATOM     17  C29 RES d   1      18.664   2.912  16.890  0.00  0.00     0.260 C 
BRANCH  17  18
ATOM     18  C30 RES d   1      19.215   1.682  17.616  0.00  0.00     0.192 C 
BRANCH  18  19
ATOM     19  O31 RES d   1      19.610   2.048  18.940  0.00  0.00    -0.399 OA
ATOM     20  H56 RES d   1      20.274   2.750  18.972  0.00  0.00     0.209 HD
ENDBRANCH  18  19
ENDBRANCH  17  18
ENDBRANCH  13  17
ENDBRANCH   8  10
ENDBRANCH   1   3
BRANCH   1  21
ATOM     21  C6  RES d   1      18.846  -3.379  10.191  0.00  0.00     0.172 A 
ATOM     22  S21 RES d   1      18.870  -4.127   8.654  0.00  0.00    -0.045 SA
ATOM     23  C9  RES d   1      17.420  -5.040   9.063  0.00  0.00     0.094 A 
ATOM     24  C8  RES d   1      17.046  -4.687  10.330  0.00  0.00     0.144 A 
ATOM     25  N7  RES d   1      17.831  -3.802  10.890  0.00  0.00    -0.235 NA
BRANCH  23  26
ATOM     26  C10 RES d   1      16.735  -6.002   8.199  0.00  0.00     0.264 C 
ATOM     27  O11 RES d   1      16.753  -7.187   8.473  0.00  0.00    -0.267 OA
ATOM     28  N12 RES d   1      16.082  -5.573   7.100  0.00  0.00    -0.320 N 
ATOM     29  H40 RES d   1      16.133  -4.641   6.838  0.00  0.00     0.169 HD
BRANCH  28  30
ATOM     30  C13 RES d   1      15.330  -6.475   6.339  0.00  0.00     0.062 A 
ATOM     31  C19 RES d   1      14.023  -6.776   6.703  0.00  0.00     0.061 A 
ATOM     32  C18 RES d   1      13.283  -7.662   5.945  0.00  0.00     0.026 A 
ATOM     33 Cl20 RES d   1      13.318  -6.029   8.103  0.00  0.00    -0.082 Cl
ATOM     34  C17 RES d   1      13.845  -8.259   4.830  0.00  0.00     0.002 A 
ATOM     35  C16 RES d   1      15.147  -7.964   4.468  0.00  0.00     0.009 A 
ATOM     36  C14 RES d   1      15.890  -7.075   5.219  0.00  0.00    -0.034 A 
ATOM     37  C15 RES d   1      17.309  -6.756   4.822  0.00  0.00     0.050 C 
ENDBRANCH  28  30
ENDBRANCH  23  26
ENDBRANCH   1  21
TORSDOF 8
ENDMDL
