MODEL 1
REMARK VINA RESULT:      -8.4      0.000      0.000
REMARK  8 active torsions:
REMARK  status: ('A' for Active; 'I' for Inactive)
REMARK    1  A    between atoms: O2_2  and  C3_3 
REMARK    2  A    between atoms: C7_7  and  O8_8 
REMARK    3  A    between atoms: O8_8  and  C9_9 
REMARK    4  A    between atoms: C17_15  and  C18_16 
REMARK       I    between atoms: C18_16  and  N20_18 
REMARK    5  A    between atoms: N20_18  and  S21_19 
REMARK    6  A    between atoms: S21_19  and  C24_22 
REMARK    7  A    between atoms: C44_40  and  C45_41 
REMARK    8  A    between atoms: C47_43  and  C48_44 
ROOT
ATOM      1  C9  ZIN A   1      17.783   0.680  11.771  0.00  0.00     0.130 C 
ATOM      2  C11 ZIN A   1      18.397  -0.728  11.774  0.00  0.00     0.047 C 
ATOM      3  C12 ZIN A   1      18.526  -1.143  10.302  0.00  0.00     0.093 C 
ATOM      4  C14 ZIN A   1      18.143  -2.575  10.087  0.00  0.00     0.223 C 
ATOM      5  O15 ZIN A   1      16.962  -2.848  10.180  0.00  0.00    -0.273 OA
ATOM      6  N16 ZIN A   1      19.040  -3.522   9.853  0.00  0.00    -0.342 N 
ATOM      7  C17 ZIN A   1      18.899  -4.678   8.987  0.00  0.00     0.124 A 
ATOM      8  C27 ZIN A   1      19.822  -5.886   9.160  0.00  0.00     0.053 A 
ATOM      9  C28 ZIN A   1      20.091  -4.897   8.034  0.00  0.00     0.048 A 
ATOM     10  C30 ZIN A   1      19.750  -5.246   6.610  0.00  0.00    -0.023 C 
ATOM     11  C31 ZIN A   1      19.597  -4.250   5.754  0.00  0.00    -0.030 C 
ATOM     12  C32 ZIN A   1      19.774  -2.842   6.265  0.00  0.00     0.027 C 
ATOM     13  C33 ZIN A   1      19.216  -1.833   5.262  0.00  0.00     0.005 C 
ATOM     14  C34 ZIN A   1      19.675  -0.430   5.666  0.00  0.00     0.020 C 
ATOM     15  C35 ZIN A   1      18.477   0.501   5.840  0.00  0.00     0.125 C 
ATOM     16  N36 ZIN A   1      17.665   0.073   7.001  0.00  0.00    -0.356 N 
ATOM     17  C37 ZIN A   1      16.290  -0.406   6.824  0.00  0.00     0.152 C 
ATOM     18  C38 ZIN A   1      18.275   0.177   8.215  0.00  0.00     0.224 C 
ATOM     19  O39 ZIN A   1      19.409   0.624   8.276  0.00  0.00    -0.273 OA
ATOM     20  C40 ZIN A   1      17.591  -0.236   9.484  0.00  0.00     0.093 C 
ATOM     21  C42 ZIN A   1      17.278   0.994  10.355  0.00  0.00     0.047 C 
ATOM     22  H64 ZIN A   1      19.902  -3.431  10.327  0.00  0.00     0.163 HD
ENDROOT
BRANCH   1  23
ATOM     23  O8  ZIN A   1      18.776   1.636  12.149  0.00  0.00    -0.345 OA
BRANCH  23  24
ATOM     24  C7  ZIN A   1      18.633   2.222  13.364  0.00  0.00     0.084 A 
ATOM     25  C6  ZIN A   1      18.826   1.480  14.553  0.00  0.00     0.027 A 
ATOM     26  C5  ZIN A   1      19.169   0.122  14.512  0.00  0.00     0.019 A 
ATOM     27  C54 ZIN A   1      18.667   2.129  15.803  0.00  0.00     0.079 A 
ATOM     28  C4  ZIN A   1      19.348  -0.568  15.672  0.00  0.00     0.038 A 
ATOM     29  C3  ZIN A   1      19.193   0.062  16.911  0.00  0.00     0.076 A 
ATOM     30  C55 ZIN A   1      18.852   1.394  16.985  0.00  0.00     0.001 A 
ATOM     31  C56 ZIN A   1      18.682   2.059  18.326  0.00  0.00     0.054 C 
ATOM     32  N53 ZIN A   1      18.339   3.425  15.846  0.00  0.00    -0.245 NA
ATOM     33  C44 ZIN A   1      18.157   4.126  14.740  0.00  0.00     0.096 A 
ATOM     34  C43 ZIN A   1      18.299   3.546  13.472  0.00  0.00     0.072 A 
BRANCH  29  35
ATOM     35  O2  ZIN A   1      19.377  -0.648  18.053  0.00  0.00    -0.355 OA
ATOM     36  C1  ZIN A   1      19.720  -2.029  17.911  0.00  0.00     0.210 C 
ENDBRANCH  29  35
BRANCH  33  37
ATOM     37  C45 ZIN A   1      17.796   5.556  14.843  0.00  0.00     0.126 A 
ATOM     38  S52 ZIN A   1      18.929   6.903  14.792  0.00  0.00    -0.078 SA
ATOM     39  C51 ZIN A   1      17.589   8.032  14.978  0.00  0.00     0.079 A 
ATOM     40  C47 ZIN A   1      16.455   7.323  15.067  0.00  0.00     0.046 A 
ATOM     41  N46 ZIN A   1      16.589   6.021  14.993  0.00  0.00    -0.243 NA
BRANCH  40  42
ATOM     42  C48 ZIN A   1      15.111   7.982  15.240  0.00  0.00     0.030 C 
ATOM     43  C49 ZIN A   1      14.017   6.913  15.248  0.00  0.00     0.016 C 
ATOM     44  C50 ZIN A   1      15.084   8.748  16.564  0.00  0.00     0.016 C 
ENDBRANCH  40  42
ENDBRANCH  33  37
ENDBRANCH  23  24
ENDBRANCH   1  23
BRANCH   7  45
ATOM     45  C18 ZIN A   1      17.530  -4.952   8.413  0.00  0.00     0.282 C 
ATOM     46  O19 ZIN A   1      16.936  -4.079   7.817  0.00  0.00    -0.268 OA
ATOM     47  N20 ZIN A   1      16.968  -6.169   8.563  0.00  0.00    -0.124 NA
BRANCH  47  48
ATOM     48  S21 ZIN A   1      15.466  -6.470   7.933  0.00  0.00     0.258 S 
ATOM     49  O22 ZIN A   1      15.295  -7.871   8.091  0.00  0.00    -0.203 OA
ATOM     50  O23 ZIN A   1      14.615  -5.548   8.600  0.00  0.00    -0.203 OA
BRANCH  48  51
ATOM     51  C24 ZIN A   1      15.619  -6.041   6.177  0.00  0.00     0.131 A 
ATOM     52  C26 ZIN A   1      14.358  -6.139   5.315  0.00  0.00     0.023 A 
ATOM     53  C25 ZIN A   1      15.474  -7.173   5.158  0.00  0.00     0.023 A 
ENDBRANCH  48  51
ENDBRANCH  47  48
ENDBRANCH   7  45
TORSDOF 8
ENDMDL
MODEL 2
REMARK VINA RESULT:      -7.9      4.263     12.369
REMARK  8 active torsions:
REMARK  status: ('A' for Active; 'I' for Inactive)
REMARK    1  A    between atoms: O2_2  and  C3_3 
REMARK    2  A    between atoms: C7_7  and  O8_8 
REMARK    3  A    between atoms: O8_8  and  C9_9 
REMARK    4  A    between atoms: C17_15  and  C18_16 
REMARK       I    between atoms: C18_16  and  N20_18 
REMARK    5  A    between atoms: N20_18  and  S21_19 
REMARK    6  A    between atoms: S21_19  and  C24_22 
REMARK    7  A    between atoms: C44_40  and  C45_41 
REMARK    8  A    between atoms: C47_43  and  C48_44 
ROOT
ATOM      1  C9  ZIN A   1      17.831   5.244  13.074  0.00  0.00     0.130 C 
ATOM      2  C11 ZIN A   1      17.956   4.506  14.415  0.00  0.00     0.047 C 
ATOM      3  C12 ZIN A   1      16.903   5.126  15.344  0.00  0.00     0.093 C 
ATOM      4  C14 ZIN A   1      17.428   5.326  16.733  0.00  0.00     0.223 C 
ATOM      5  O15 ZIN A   1      18.249   6.208  16.887  0.00  0.00    -0.273 OA
ATOM      6  N16 ZIN A   1      17.061   4.557  17.747  0.00  0.00    -0.342 N 
ATOM      7  C17 ZIN A   1      16.865   4.953  19.130  0.00  0.00     0.124 A 
ATOM      8  C27 ZIN A   1      16.880   3.901  20.242  0.00  0.00     0.053 A 
ATOM      9  C28 ZIN A   1      15.546   4.445  19.747  0.00  0.00     0.048 A 
ATOM     10  C30 ZIN A   1      14.771   5.436  20.571  0.00  0.00    -0.023 C 
ATOM     11  C31 ZIN A   1      13.876   6.185  19.949  0.00  0.00    -0.030 C 
ATOM     12  C32 ZIN A   1      13.699   5.991  18.463  0.00  0.00     0.027 C 
ATOM     13  C33 ZIN A   1      12.915   7.156  17.860  0.00  0.00     0.005 C 
ATOM     14  C34 ZIN A   1      12.501   6.786  16.433  0.00  0.00     0.020 C 
ATOM     15  C35 ZIN A   1      12.995   7.834  15.438  0.00  0.00     0.125 C 
ATOM     16  N36 ZIN A   1      14.474   7.811  15.368  0.00  0.00    -0.356 N 
ATOM     17  C37 ZIN A   1      15.266   8.966  15.802  0.00  0.00     0.152 C 
ATOM     18  C38 ZIN A   1      15.020   6.671  14.864  0.00  0.00     0.224 C 
ATOM     19  O39 ZIN A   1      14.284   5.772  14.488  0.00  0.00    -0.273 OA
ATOM     20  C40 ZIN A   1      16.503   6.486  14.747  0.00  0.00     0.093 C 
ATOM     21  C42 ZIN A   1      16.934   6.475  13.269  0.00  0.00     0.047 C 
ATOM     22  H64 ZIN A   1      16.910   3.604  17.538  0.00  0.00     0.163 HD
ENDROOT
BRANCH   1  23
ATOM     23  O8  ZIN A   1      17.246   4.374  12.102  0.00  0.00    -0.345 OA
BRANCH  23  24
ATOM     24  C7  ZIN A   1      17.800   3.144  11.966  0.00  0.00     0.084 A 
ATOM     25  C6  ZIN A   1      18.217   2.672  10.699  0.00  0.00     0.027 A 
ATOM     26  C5  ZIN A   1      18.069   3.459   9.548  0.00  0.00     0.019 A 
ATOM     27  C54 ZIN A   1      18.790   1.379  10.599  0.00  0.00     0.079 A 
ATOM     28  C4  ZIN A   1      18.478   2.979   8.341  0.00  0.00     0.038 A 
ATOM     29  C3  ZIN A   1      19.045   1.706   8.232  0.00  0.00     0.076 A 
ATOM     30  C55 ZIN A   1      19.199   0.906   9.342  0.00  0.00     0.001 A 
ATOM     31  C56 ZIN A   1      19.806  -0.466   9.209  0.00  0.00     0.054 C 
ATOM     32  N53 ZIN A   1      18.932   0.625  11.695  0.00  0.00    -0.245 NA
ATOM     33  C44 ZIN A   1      18.546   1.058  12.883  0.00  0.00     0.096 A 
ATOM     34  C43 ZIN A   1      17.972   2.326  13.051  0.00  0.00     0.072 A 
BRANCH  29  35
ATOM     35  O2  ZIN A   1      19.445   1.251   7.016  0.00  0.00    -0.355 OA
ATOM     36  C1  ZIN A   1      18.530   0.415   6.304  0.00  0.00     0.210 C 
ENDBRANCH  29  35
BRANCH  33  37
ATOM     37  C45 ZIN A   1      18.725   0.184  14.062  0.00  0.00     0.126 A 
ATOM     38  S52 ZIN A   1      19.693  -1.287  14.107  0.00  0.00    -0.078 SA
ATOM     39  C51 ZIN A   1      19.263  -1.512  15.801  0.00  0.00     0.079 A 
ATOM     40  C47 ZIN A   1      18.456  -0.505  16.165  0.00  0.00     0.046 A 
ATOM     41  N46 ZIN A   1      18.187   0.375  15.232  0.00  0.00    -0.243 NA
BRANCH  40  42
ATOM     42  C48 ZIN A   1      17.895  -0.394  17.558  0.00  0.00     0.030 C 
ATOM     43  C49 ZIN A   1      18.992  -0.714  18.577  0.00  0.00     0.016 C 
ATOM     44  C50 ZIN A   1      17.384   1.030  17.792  0.00  0.00     0.016 C 
ENDBRANCH  40  42
ENDBRANCH  33  37
ENDBRANCH  23  24
ENDBRANCH   1  23
BRANCH   7  45
ATOM     45  C18 ZIN A   1      17.286   6.350  19.518  0.00  0.00     0.282 C 
ATOM     46  O19 ZIN A   1      18.045   6.517  20.449  0.00  0.00    -0.268 OA
ATOM     47  N20 ZIN A   1      16.819   7.411  18.830  0.00  0.00    -0.124 NA
BRANCH  47  48
ATOM     48  S21 ZIN A   1      17.281   8.942  19.256  0.00  0.00     0.258 S 
ATOM     49  O22 ZIN A   1      18.377   8.744  20.138  0.00  0.00    -0.203 OA
ATOM     50  O23 ZIN A   1      17.451   9.615  18.015  0.00  0.00    -0.203 OA
BRANCH  48  51
ATOM     51  C24 ZIN A   1      15.855   9.612  20.154  0.00  0.00     0.131 A 
ATOM     52  C26 ZIN A   1      15.163   8.695  21.165  0.00  0.00     0.023 A 
ATOM     53  C25 ZIN A   1      14.480   9.022  19.836  0.00  0.00     0.023 A 
ENDBRANCH  48  51
ENDBRANCH  47  48
ENDBRANCH   7  45
TORSDOF 8
ENDMDL
MODEL 3
REMARK VINA RESULT:      -7.7      2.816     11.402
REMARK  8 active torsions:
REMARK  status: ('A' for Active; 'I' for Inactive)
REMARK    1  A    between atoms: O2_2  and  C3_3 
REMARK    2  A    between atoms: C7_7  and  O8_8 
REMARK    3  A    between atoms: O8_8  and  C9_9 
REMARK    4  A    between atoms: C17_15  and  C18_16 
REMARK       I    between atoms: C18_16  and  N20_18 
REMARK    5  A    between atoms: N20_18  and  S21_19 
REMARK    6  A    between atoms: S21_19  and  C24_22 
REMARK    7  A    between atoms: C44_40  and  C45_41 
REMARK    8  A    between atoms: C47_43  and  C48_44 
ROOT
ATOM      1  C9  ZIN A   1      18.598   0.914   9.487  0.00  0.00     0.130 C 
ATOM      2  C11 ZIN A   1      19.241   2.206  10.014  0.00  0.00     0.047 C 
ATOM      3  C12 ZIN A   1      19.108   2.157  11.543  0.00  0.00     0.093 C 
ATOM      4  C14 ZIN A   1      18.732   3.490  12.115  0.00  0.00     0.223 C 
ATOM      5  O15 ZIN A   1      17.596   3.873  11.914  0.00  0.00    -0.273 OA
ATOM      6  N16 ZIN A   1      19.596   4.249  12.773  0.00  0.00    -0.342 N 
ATOM      7  C17 ZIN A   1      19.331   5.106  13.913  0.00  0.00     0.124 A 
ATOM      8  C27 ZIN A   1      20.303   6.233  14.272  0.00  0.00     0.053 A 
ATOM      9  C28 ZIN A   1      20.333   4.938  15.072  0.00  0.00     0.048 A 
ATOM     10  C30 ZIN A   1      19.747   4.879  16.456  0.00  0.00    -0.023 C 
ATOM     11  C31 ZIN A   1      19.412   3.692  16.931  0.00  0.00    -0.030 C 
ATOM     12  C32 ZIN A   1      19.641   2.487  16.053  0.00  0.00     0.027 C 
ATOM     13  C33 ZIN A   1      18.880   1.276  16.594  0.00  0.00     0.005 C 
ATOM     14  C34 ZIN A   1      19.367   0.021  15.865  0.00  0.00     0.020 C 
ATOM     15  C35 ZIN A   1      18.196  -0.717  15.220  0.00  0.00     0.125 C 
ATOM     16  N36 ZIN A   1      17.622   0.099  14.125  0.00  0.00    -0.356 N 
ATOM     17  C37 ZIN A   1      16.252   0.615  14.208  0.00  0.00     0.152 C 
ATOM     18  C38 ZIN A   1      18.442   0.307  13.057  0.00  0.00     0.224 C 
ATOM     19  O39 ZIN A   1      19.555  -0.193  13.053  0.00  0.00    -0.273 OA
ATOM     20  C40 ZIN A   1      18.015   1.129  11.878  0.00  0.00     0.093 C 
ATOM     21  C42 ZIN A   1      17.833   0.240  10.635  0.00  0.00     0.047 C 
ATOM     22  H64 ZIN A   1      20.528   4.231  12.444  0.00  0.00     0.163 HD
ENDROOT
BRANCH   1  23
ATOM     23  O8  ZIN A   1      19.616   0.034   9.007  0.00  0.00    -0.345 OA
BRANCH  23  24
ATOM     24  C7  ZIN A   1      19.215  -1.179   8.552  0.00  0.00     0.084 A 
ATOM     25  C6  ZIN A   1      19.160  -2.297   9.418  0.00  0.00     0.027 A 
ATOM     26  C5  ZIN A   1      19.518  -2.185  10.768  0.00  0.00     0.019 A 
ATOM     27  C54 ZIN A   1      18.736  -3.548   8.903  0.00  0.00     0.079 A 
ATOM     28  C4  ZIN A   1      19.457  -3.277  11.579  0.00  0.00     0.038 A 
ATOM     29  C3  ZIN A   1      19.040  -4.515  11.082  0.00  0.00     0.076 A 
ATOM     30  C55 ZIN A   1      18.686  -4.660   9.759  0.00  0.00     0.001 A 
ATOM     31  C56 ZIN A   1      18.245  -6.001   9.234  0.00  0.00     0.054 C 
ATOM     32  N53 ZIN A   1      18.394  -3.658   7.615  0.00  0.00    -0.245 NA
ATOM     33  C44 ZIN A   1      18.441  -2.619   6.798  0.00  0.00     0.096 A 
ATOM     34  C43 ZIN A   1      18.851  -1.355   7.243  0.00  0.00     0.072 A 
BRANCH  29  35
ATOM     35  O2  ZIN A   1      18.987  -5.589  11.911  0.00  0.00    -0.355 OA
ATOM     36  C1  ZIN A   1      17.757  -5.816  12.601  0.00  0.00     0.210 C 
ENDBRANCH  29  35
BRANCH  33  37
ATOM     37  C45 ZIN A   1      18.052  -2.796   5.383  0.00  0.00     0.126 A 
ATOM     38  S52 ZIN A   1      17.415  -1.533   4.333  0.00  0.00    -0.078 SA
ATOM     39  C51 ZIN A   1      17.303  -2.694   3.012  0.00  0.00     0.079 A 
ATOM     40  C47 ZIN A   1      17.731  -3.881   3.463  0.00  0.00     0.046 A 
ATOM     41  N46 ZIN A   1      18.120  -3.910   4.714  0.00  0.00    -0.243 NA
BRANCH  40  42
ATOM     42  C48 ZIN A   1      17.762  -5.105   2.585  0.00  0.00     0.030 C 
ATOM     43  C49 ZIN A   1      17.368  -6.334   3.409  0.00  0.00     0.016 C 
ATOM     44  C50 ZIN A   1      16.774  -4.931   1.429  0.00  0.00     0.016 C 
ENDBRANCH  40  42
ENDBRANCH  33  37
ENDBRANCH  23  24
ENDBRANCH   1  23
BRANCH   7  45
ATOM     45  C18 ZIN A   1      17.888   5.311  14.306  0.00  0.00     0.282 C 
ATOM     46  O19 ZIN A   1      17.159   4.353  14.454  0.00  0.00    -0.268 OA
ATOM     47  N20 ZIN A   1      17.410   6.558  14.493  0.00  0.00    -0.124 NA
BRANCH  47  48
ATOM     48  S21 ZIN A   1      15.828   6.782  14.926  0.00  0.00     0.258 S 
ATOM     49  O22 ZIN A   1      15.631   8.185  14.819  0.00  0.00    -0.203 OA
ATOM     50  O23 ZIN A   1      15.107   5.876  14.100  0.00  0.00    -0.203 OA
BRANCH  48  51
ATOM     51  C24 ZIN A   1      15.754   6.258  16.661  0.00  0.00     0.131 A 
ATOM     52  C26 ZIN A   1      14.387   6.280  17.347  0.00  0.00     0.023 A 
ATOM     53  C25 ZIN A   1      15.442   7.328  17.708  0.00  0.00     0.023 A 
ENDBRANCH  48  51
ENDBRANCH  47  48
ENDBRANCH   7  45
TORSDOF 8
ENDMDL
MODEL 4
REMARK VINA RESULT:      -7.3      2.375     11.951
REMARK  8 active torsions:
REMARK  status: ('A' for Active; 'I' for Inactive)
REMARK    1  A    between atoms: O2_2  and  C3_3 
REMARK    2  A    between atoms: C7_7  and  O8_8 
REMARK    3  A    between atoms: O8_8  and  C9_9 
REMARK    4  A    between atoms: C17_15  and  C18_16 
REMARK       I    between atoms: C18_16  and  N20_18 
REMARK    5  A    between atoms: N20_18  and  S21_19 
REMARK    6  A    between atoms: S21_19  and  C24_22 
REMARK    7  A    between atoms: C44_40  and  C45_41 
REMARK    8  A    between atoms: C47_43  and  C48_44 
ROOT
ATOM      1  C9  ZIN A   1      17.830  -0.506  10.905  0.00  0.00     0.130 C 
ATOM      2  C11 ZIN A   1      18.467   0.888  11.009  0.00  0.00     0.047 C 
ATOM      3  C12 ZIN A   1      18.575   1.199  12.508  0.00  0.00     0.093 C 
ATOM      4  C14 ZIN A   1      18.211   2.620  12.813  0.00  0.00     0.223 C 
ATOM      5  O15 ZIN A   1      17.037   2.919  12.719  0.00  0.00    -0.273 OA
ATOM      6  N16 ZIN A   1      19.119   3.532  13.127  0.00  0.00    -0.342 N 
ATOM      7  C17 ZIN A   1      18.981   4.629  14.068  0.00  0.00     0.124 A 
ATOM      8  C27 ZIN A   1      19.926   5.831  13.994  0.00  0.00     0.053 A 
ATOM      9  C28 ZIN A   1      20.158   4.763  15.054  0.00  0.00     0.048 A 
ATOM     10  C30 ZIN A   1      19.797   5.019  16.492  0.00  0.00    -0.023 C 
ATOM     11  C31 ZIN A   1      19.612   3.970  17.275  0.00  0.00    -0.030 C 
ATOM     12  C32 ZIN A   1      19.776   2.597  16.672  0.00  0.00     0.027 C 
ATOM     13  C33 ZIN A   1      19.183   1.532  17.594  0.00  0.00     0.005 C 
ATOM     14  C34 ZIN A   1      19.627   0.152  17.103  0.00  0.00     0.020 C 
ATOM     15  C35 ZIN A   1      18.418  -0.744  16.845  0.00  0.00     0.125 C 
ATOM     16  N36 ZIN A   1      17.634  -0.224  15.702  0.00  0.00    -0.356 N 
ATOM     17  C37 ZIN A   1      16.264   0.265  15.888  0.00  0.00     0.152 C 
ATOM     18  C38 ZIN A   1      18.264  -0.255  14.495  0.00  0.00     0.224 C 
ATOM     19  O39 ZIN A   1      19.392  -0.717  14.423  0.00  0.00    -0.273 OA
ATOM     20  C40 ZIN A   1      17.611   0.254  13.246  0.00  0.00     0.093 C 
ATOM     21  C42 ZIN A   1      17.294  -0.908  12.287  0.00  0.00     0.047 C 
ATOM     22  H64 ZIN A   1      19.988   3.459  12.663  0.00  0.00     0.163 HD
ENDROOT
BRANCH   1  23
ATOM     23  O8  ZIN A   1      18.814  -1.452  10.480  0.00  0.00    -0.345 OA
BRANCH  23  24
ATOM     24  C7  ZIN A   1      18.556  -2.134   9.336  0.00  0.00     0.084 A 
ATOM     25  C6  ZIN A   1      18.830  -1.561   8.072  0.00  0.00     0.027 A 
ATOM     26  C5  ZIN A   1      19.374  -0.273   7.963  0.00  0.00     0.019 A 
ATOM     27  C54 ZIN A   1      18.545  -2.306   6.901  0.00  0.00     0.079 A 
ATOM     28  C4  ZIN A   1      19.627   0.254   6.734  0.00  0.00     0.038 A 
ATOM     29  C3  ZIN A   1      19.350  -0.472   5.572  0.00  0.00     0.076 A 
ATOM     30  C55 ZIN A   1      18.811  -1.737   5.644  0.00  0.00     0.001 A 
ATOM     31  C56 ZIN A   1      18.511  -2.507   4.385  0.00  0.00     0.054 C 
ATOM     32  N53 ZIN A   1      18.025  -3.534   7.001  0.00  0.00    -0.245 NA
ATOM     33  C44 ZIN A   1      17.766  -4.078   8.177  0.00  0.00     0.096 A 
ATOM     34  C43 ZIN A   1      18.024  -3.395   9.374  0.00  0.00     0.072 A 
BRANCH  29  35
ATOM     35  O2  ZIN A   1      19.612   0.077   4.358  0.00  0.00    -0.355 OA
ATOM     36  C1  ZIN A   1      18.502   0.615   3.637  0.00  0.00     0.210 C 
ENDBRANCH  29  35
BRANCH  33  37
ATOM     37  C45 ZIN A   1      17.191  -5.439   8.232  0.00  0.00     0.126 A 
ATOM     38  S52 ZIN A   1      18.061  -6.899   8.698  0.00  0.00    -0.078 SA
ATOM     39  C51 ZIN A   1      16.597  -7.846   8.447  0.00  0.00     0.079 A 
ATOM     40  C47 ZIN A   1      15.625  -7.015   8.044  0.00  0.00     0.046 A 
ATOM     41  N46 ZIN A   1      15.962  -5.753   7.939  0.00  0.00    -0.243 NA
BRANCH  40  42
ATOM     42  C48 ZIN A   1      14.234  -7.502   7.733  0.00  0.00     0.030 C 
ATOM     43  C49 ZIN A   1      13.231  -6.375   7.986  0.00  0.00     0.016 C 
ATOM     44  C50 ZIN A   1      14.158  -7.930   6.266  0.00  0.00     0.016 C 
ENDBRANCH  40  42
ENDBRANCH  33  37
ENDBRANCH  23  24
ENDBRANCH   1  23
BRANCH   7  45
ATOM     45  C18 ZIN A   1      17.606   4.888  14.635  0.00  0.00     0.282 C 
ATOM     46  O19 ZIN A   1      16.990   3.987  15.166  0.00  0.00    -0.268 OA
ATOM     47  N20 ZIN A   1      17.063   6.119  14.553  0.00  0.00    -0.124 NA
BRANCH  47  48
ATOM     48  S21 ZIN A   1      15.555   6.402  15.176  0.00  0.00     0.258 S 
ATOM     49  O22 ZIN A   1      14.668   5.865  14.205  0.00  0.00    -0.203 OA
ATOM     50  O23 ZIN A   1      15.613   5.866  16.491  0.00  0.00    -0.203 OA
BRANCH  48  51
ATOM     51  C24 ZIN A   1      15.421   8.210  15.231  0.00  0.00     0.131 A 
ATOM     52  C26 ZIN A   1      16.705   9.006  15.475  0.00  0.00     0.023 A 
ATOM     53  C25 ZIN A   1      15.653   8.895  16.579  0.00  0.00     0.023 A 
ENDBRANCH  48  51
ENDBRANCH  47  48
ENDBRANCH   7  45
TORSDOF 8
ENDMDL
MODEL 5
REMARK VINA RESULT:      -7.2      1.966      3.647
REMARK  8 active torsions:
REMARK  status: ('A' for Active; 'I' for Inactive)
REMARK    1  A    between atoms: O2_2  and  C3_3 
REMARK    2  A    between atoms: C7_7  and  O8_8 
REMARK    3  A    between atoms: O8_8  and  C9_9 
REMARK    4  A    between atoms: C17_15  and  C18_16 
REMARK       I    between atoms: C18_16  and  N20_18 
REMARK    5  A    between atoms: N20_18  and  S21_19 
REMARK    6  A    between atoms: S21_19  and  C24_22 
REMARK    7  A    between atoms: C44_40  and  C45_41 
REMARK    8  A    between atoms: C47_43  and  C48_44 
ROOT
ATOM      1  C9  ZIN A   1      18.186  -0.369  12.967  0.00  0.00     0.130 C 
ATOM      2  C11 ZIN A   1      18.792  -1.746  12.659  0.00  0.00     0.047 C 
ATOM      3  C12 ZIN A   1      18.809  -1.874  11.129  0.00  0.00     0.093 C 
ATOM      4  C14 ZIN A   1      18.404  -3.244  10.677  0.00  0.00     0.223 C 
ATOM      5  O15 ZIN A   1      17.233  -3.541  10.804  0.00  0.00    -0.273 OA
ATOM      6  N16 ZIN A   1      19.277  -4.120  10.202  0.00  0.00    -0.342 N 
ATOM      7  C17 ZIN A   1      19.067  -5.094   9.147  0.00  0.00     0.124 A 
ATOM      8  C27 ZIN A   1      19.995  -6.304   9.019  0.00  0.00     0.053 A 
ATOM      9  C28 ZIN A   1      20.183  -5.118   8.083  0.00  0.00     0.048 A 
ATOM     10  C30 ZIN A   1      19.736  -5.195   6.649  0.00  0.00    -0.023 C 
ATOM     11  C31 ZIN A   1      19.524  -4.058   6.010  0.00  0.00    -0.030 C 
ATOM     12  C32 ZIN A   1      19.744  -2.769   6.763  0.00  0.00     0.027 C 
ATOM     13  C33 ZIN A   1      19.117  -1.595   6.013  0.00  0.00     0.005 C 
ATOM     14  C34 ZIN A   1      19.611  -0.288   6.639  0.00  0.00     0.020 C 
ATOM     15  C35 ZIN A   1      18.434   0.581   7.074  0.00  0.00     0.125 C 
ATOM     16  N36 ZIN A   1      17.709  -0.066   8.191  0.00  0.00    -0.356 N 
ATOM     17  C37 ZIN A   1      16.323  -0.516   8.029  0.00  0.00     0.152 C 
ATOM     18  C38 ZIN A   1      18.408  -0.187   9.353  0.00  0.00     0.224 C 
ATOM     19  O39 ZIN A   1      19.546   0.252   9.413  0.00  0.00    -0.273 OA
ATOM     20  C40 ZIN A   1      17.820  -0.838  10.569  0.00  0.00     0.093 C 
ATOM     21  C42 ZIN A   1      17.578   0.202  11.677  0.00  0.00     0.047 C 
ATOM     22  H64 ZIN A   1      20.173  -4.112  10.620  0.00  0.00     0.163 HD
ENDROOT
BRANCH   1  23
ATOM     23  O8  ZIN A   1      19.208   0.509  13.444  0.00  0.00    -0.345 OA
BRANCH  23  24
ATOM     24  C7  ZIN A   1      18.809   1.712  13.927  0.00  0.00     0.084 A 
ATOM     25  C6  ZIN A   1      18.411   2.750  13.052  0.00  0.00     0.027 A 
ATOM     26  C5  ZIN A   1      18.420   2.568  11.662  0.00  0.00     0.019 A 
ATOM     27  C54 ZIN A   1      18.001   3.992  13.597  0.00  0.00     0.079 A 
ATOM     28  C4  ZIN A   1      18.033   3.585  10.843  0.00  0.00     0.038 A 
ATOM     29  C3  ZIN A   1      17.627   4.814  11.370  0.00  0.00     0.076 A 
ATOM     30  C55 ZIN A   1      17.613   5.026  12.730  0.00  0.00     0.001 A 
ATOM     31  C56 ZIN A   1      17.179   6.358  13.285  0.00  0.00     0.054 C 
ATOM     32  N53 ZIN A   1      17.993   4.169  14.923  0.00  0.00    -0.245 NA
ATOM     33  C44 ZIN A   1      18.362   3.205  15.749  0.00  0.00     0.096 A 
ATOM     34  C43 ZIN A   1      18.778   1.953  15.275  0.00  0.00     0.072 A 
BRANCH  29  35
ATOM     35  O2  ZIN A   1      17.246   5.811  10.531  0.00  0.00    -0.355 OA
ATOM     36  C1  ZIN A   1      17.739   5.756   9.191  0.00  0.00     0.210 C 
ENDBRANCH  29  35
BRANCH  33  37
ATOM     37  C45 ZIN A   1      18.335   3.453  17.206  0.00  0.00     0.126 A 
ATOM     38  S52 ZIN A   1      19.116   2.453  18.428  0.00  0.00    -0.078 SA
ATOM     39  C51 ZIN A   1      18.518   3.532  19.686  0.00  0.00     0.079 A 
ATOM     40  C47 ZIN A   1      17.806   4.505  19.099  0.00  0.00     0.046 A 
ATOM     41  N46 ZIN A   1      17.724   4.442  17.793  0.00  0.00    -0.243 NA
BRANCH  40  42
ATOM     42  C48 ZIN A   1      17.144   5.601  19.892  0.00  0.00     0.030 C 
ATOM     43  C49 ZIN A   1      17.000   6.848  19.017  0.00  0.00     0.016 C 
ATOM     44  C50 ZIN A   1      15.759   5.136  20.348  0.00  0.00     0.016 C 
ENDBRANCH  40  42
ENDBRANCH  33  37
ENDBRANCH  23  24
ENDBRANCH   1  23
BRANCH   7  45
ATOM     45  C18 ZIN A   1      17.658  -5.269   8.635  0.00  0.00     0.282 C 
ATOM     46  O19 ZIN A   1      17.026  -4.304   8.256  0.00  0.00    -0.268 OA
ATOM     47  N20 ZIN A   1      17.101  -6.496   8.597  0.00  0.00    -0.124 NA
BRANCH  47  48
ATOM     48  S21 ZIN A   1      15.556  -6.687   8.035  0.00  0.00     0.258 S 
ATOM     49  O22 ZIN A   1      15.329  -8.089   8.103  0.00  0.00    -0.203 OA
ATOM     50  O23 ZIN A   1      14.784  -5.782   8.813  0.00  0.00    -0.203 OA
BRANCH  48  51
ATOM     51  C24 ZIN A   1      15.632  -6.139   6.308  0.00  0.00     0.131 A 
ATOM     52  C26 ZIN A   1      14.601  -6.719   5.336  0.00  0.00     0.023 A 
ATOM     53  C25 ZIN A   1      16.062  -7.165   5.259  0.00  0.00     0.023 A 
ENDBRANCH  48  51
ENDBRANCH  47  48
ENDBRANCH   7  45
TORSDOF 8
ENDMDL
