MODEL 1
REMARK VINA RESULT:      -7.4      0.000      0.000
REMARK  10 active torsions:
REMARK  status: ('A' for Active; 'I' for Inactive)
REMARK    1  A    between atoms: O2_2  and  C3_3 
REMARK    2  A    between atoms: C6_6  and  C7_7 
REMARK    3  A    between atoms: C7_7  and  C8_8 
REMARK    4  A    between atoms: C8_8  and  N11_10 
REMARK    5  A    between atoms: N11_10  and  C14_13 
REMARK    6  A    between atoms: C14_13  and  C15_14 
REMARK    7  A    between atoms: C15_14  and  O17_15 
REMARK    8  A    between atoms: C15_14  and  C18_16 
REMARK    9  A    between atoms: C23_21  and  N24_22 
REMARK   10  A    between atoms: N24_22  and  C25_23 
ROOT
ATOM      1  C14 <0> d   1      19.710   1.521  12.672  0.00  0.00     0.269 C 
ENDROOT
BRANCH   1   2
ATOM      2  N11 <0> d   1      20.323   2.463  11.726  0.00  0.00    -0.068 N 
ATOM      3  H12 <0> d   1      20.870   1.952  11.049  0.00  0.00     0.277 HD
ATOM      4  H13 <0> d   1      20.921   3.102  12.228  0.00  0.00     0.277 HD
BRANCH   2   5
ATOM      5  C8  <0> d   1      19.270   3.219  11.035  0.00  0.00     0.186 C 
ATOM      6  C10 <0> d   1      18.887   4.441  11.874  0.00  0.00     0.040 C 
BRANCH   5   7
ATOM      7  C7  <0> d   1      18.043   2.327  10.844  0.00  0.00     0.071 C 
BRANCH   7   8
ATOM      8  C6  <0> d   1      18.173   1.564   9.551  0.00  0.00    -0.056 A 
ATOM      9  C5  <0> d   1      19.055   1.999   8.579  0.00  0.00     0.010 A 
ATOM     10  C4  <0> d   1      19.178   1.301   7.393  0.00  0.00     0.037 A 
ATOM     11  C3  <0> d   1      18.414   0.163   7.178  0.00  0.00     0.068 A 
ATOM     12  C29 <0> d   1      17.526  -0.268   8.152  0.00  0.00     0.037 A 
ATOM     13  C28 <0> d   1      17.411   0.430   9.338  0.00  0.00     0.010 A 
BRANCH  11  14
ATOM     14  O2  <0> d   1      18.532  -0.524   6.012  0.00  0.00    -0.356 OA
ATOM     15  C1  <0> d   1      19.147   0.156   4.916  0.00  0.00     0.210 C 
ENDBRANCH  11  14
ENDBRANCH   7   8
ENDBRANCH   5   7
ENDBRANCH   2   5
ENDBRANCH   1   2
BRANCH   1  16
ATOM     16  C15 <0> d   1      20.459   0.189  12.623  0.00  0.00     0.176 C 
BRANCH  16  17
ATOM     17  O17 <0> d   1      21.586   0.307  11.752  0.00  0.00    -0.389 OA
ATOM     18  H42 <0> d   1      21.474  -0.140  10.903  0.00  0.00     0.210 HD
ENDBRANCH  16  17
BRANCH  16  19
ATOM     19  C18 <0> d   1      19.538  -0.887  12.110  0.00  0.00    -0.026 A 
ATOM     20  C27 <0> d   1      19.960  -1.734  11.101  0.00  0.00     0.042 A 
ATOM     21  C23 <0> d   1      19.115  -2.728  10.631  0.00  0.00     0.071 A 
ATOM     22  C21 <0> d   1      17.838  -2.863  11.170  0.00  0.00     0.134 A 
ATOM     23  C20 <0> d   1      17.420  -2.008  12.177  0.00  0.00     0.043 A 
ATOM     24  O22 <0> d   1      17.003  -3.833  10.710  0.00  0.00    -0.190 OA
ATOM     25  C19 <0> d   1      18.270  -1.022  12.644  0.00  0.00     0.013 A 
BRANCH  21  26
ATOM     26  N24 <0> d   1      19.543  -3.590   9.613  0.00  0.00    -0.332 N 
ATOM     27  H45 <0> d   1      19.984  -4.424   9.836  0.00  0.00     0.168 HD
BRANCH  26  28
ATOM     28  C25 <0> d   1      19.340  -3.259   8.322  0.00  0.00     0.353 C 
ATOM     29  O26 <0> d   1      18.388  -3.712   7.721  0.00  0.00    -0.283 OA
ENDBRANCH  26  28
ENDBRANCH  21  26
ENDBRANCH  16  19
ENDBRANCH   1  16
TORSDOF 10
ENDMDL
MODEL 2
REMARK VINA RESULT:      -7.3      3.188      6.063
REMARK  10 active torsions:
REMARK  status: ('A' for Active; 'I' for Inactive)
REMARK    1  A    between atoms: O2_2  and  C3_3 
REMARK    2  A    between atoms: C6_6  and  C7_7 
REMARK    3  A    between atoms: C7_7  and  C8_8 
REMARK    4  A    between atoms: C8_8  and  N11_10 
REMARK    5  A    between atoms: N11_10  and  C14_13 
REMARK    6  A    between atoms: C14_13  and  C15_14 
REMARK    7  A    between atoms: C15_14  and  O17_15 
REMARK    8  A    between atoms: C15_14  and  C18_16 
REMARK    9  A    between atoms: C23_21  and  N24_22 
REMARK   10  A    between atoms: N24_22  and  C25_23 
ROOT
ATOM      1  C14 <0> d   1      20.155  -0.258  10.917  0.00  0.00     0.269 C 
ENDROOT
BRANCH   1   2
ATOM      2  N11 <0> d   1      19.941   0.551   9.710  0.00  0.00    -0.068 N 
ATOM      3  H12 <0> d   1      19.981  -0.044   8.895  0.00  0.00     0.277 HD
ATOM      4  H13 <0> d   1      20.660   1.256   9.647  0.00  0.00     0.277 HD
BRANCH   2   5
ATOM      5  C8  <0> d   1      18.624   1.198   9.781  0.00  0.00     0.186 C 
ATOM      6  C10 <0> d   1      17.664   0.505   8.810  0.00  0.00     0.040 C 
BRANCH   5   7
ATOM      7  C7  <0> d   1      18.759   2.672   9.399  0.00  0.00     0.071 C 
BRANCH   7   8
ATOM      8  C6  <0> d   1      18.422   3.533  10.589  0.00  0.00    -0.056 A 
ATOM      9  C5  <0> d   1      17.175   4.124  10.681  0.00  0.00     0.010 A 
ATOM     10  C4  <0> d   1      16.861   4.913  11.771  0.00  0.00     0.037 A 
ATOM     11  C3  <0> d   1      17.800   5.112  12.774  0.00  0.00     0.068 A 
ATOM     12  C29 <0> d   1      19.052   4.522  12.676  0.00  0.00     0.037 A 
ATOM     13  C28 <0> d   1      19.358   3.730  11.587  0.00  0.00     0.010 A 
BRANCH  11  14
ATOM     14  O2  <0> d   1      17.495   5.888  13.846  0.00  0.00    -0.356 OA
ATOM     15  C1  <0> d   1      18.130   5.563  15.084  0.00  0.00     0.210 C 
ENDBRANCH  11  14
ENDBRANCH   7   8
ENDBRANCH   5   7
ENDBRANCH   2   5
ENDBRANCH   1   2
BRANCH   1  16
ATOM     16  C15 <0> d   1      20.463   0.662  12.100  0.00  0.00     0.176 C 
BRANCH  16  17
ATOM     17  O17 <0> d   1      21.864   0.626  12.378  0.00  0.00    -0.389 OA
ATOM     18  H42 <0> d   1      22.359   1.365  11.999  0.00  0.00     0.210 HD
ENDBRANCH  16  17
BRANCH  16  19
ATOM     19  C18 <0> d   1      19.698   0.196  13.311  0.00  0.00    -0.026 A 
ATOM     20  C27 <0> d   1      19.363   1.098  14.305  0.00  0.00     0.042 A 
ATOM     21  C23 <0> d   1      18.653   0.672  15.418  0.00  0.00     0.071 A 
ATOM     22  C21 <0> d   1      18.291  -0.668  15.537  0.00  0.00     0.134 A 
ATOM     23  C20 <0> d   1      18.635  -1.567  14.540  0.00  0.00     0.043 A 
ATOM     24  O22 <0> d   1      17.600  -1.093  16.628  0.00  0.00    -0.190 OA
ATOM     25  C19 <0> d   1      19.337  -1.134  13.430  0.00  0.00     0.013 A 
BRANCH  21  26
ATOM     26  N24 <0> d   1      18.308   1.585  16.423  0.00  0.00    -0.332 N 
ATOM     27  H45 <0> d   1      17.375   1.770  16.610  0.00  0.00     0.168 HD
BRANCH  26  28
ATOM     28  C25 <0> d   1      19.274   2.206  17.128  0.00  0.00     0.353 C 
ATOM     29  O26 <0> d   1      19.673   1.723  18.167  0.00  0.00    -0.283 OA
ENDBRANCH  26  28
ENDBRANCH  21  26
ENDBRANCH  16  19
ENDBRANCH   1  16
TORSDOF 10
ENDMDL
MODEL 3
REMARK VINA RESULT:      -7.1      2.962      4.900
REMARK  10 active torsions:
REMARK  status: ('A' for Active; 'I' for Inactive)
REMARK    1  A    between atoms: O2_2  and  C3_3 
REMARK    2  A    between atoms: C6_6  and  C7_7 
REMARK    3  A    between atoms: C7_7  and  C8_8 
REMARK    4  A    between atoms: C8_8  and  N11_10 
REMARK    5  A    between atoms: N11_10  and  C14_13 
REMARK    6  A    between atoms: C14_13  and  C15_14 
REMARK    7  A    between atoms: C15_14  and  O17_15 
REMARK    8  A    between atoms: C15_14  and  C18_16 
REMARK    9  A    between atoms: C23_21  and  N24_22 
REMARK   10  A    between atoms: N24_22  and  C25_23 
ROOT
ATOM      1  C14 <0> d   1      19.243   0.713  11.440  0.00  0.00     0.269 C 
ENDROOT
BRANCH   1   2
ATOM      2  N11 <0> d   1      20.001   1.563  10.512  0.00  0.00    -0.068 N 
ATOM      3  H12 <0> d   1      20.708   1.010  10.051  0.00  0.00     0.277 HD
ATOM      4  H13 <0> d   1      20.442   2.312  11.026  0.00  0.00     0.277 HD
BRANCH   2   5
ATOM      5  C8  <0> d   1      19.088   2.128   9.509  0.00  0.00     0.186 C 
ATOM      6  C10 <0> d   1      18.403   3.369  10.087  0.00  0.00     0.040 C 
BRANCH   5   7
ATOM      7  C7  <0> d   1      18.031   1.087   9.138  0.00  0.00     0.071 C 
BRANCH   7   8
ATOM      8  C6  <0> d   1      18.454   0.366   7.885  0.00  0.00    -0.056 A 
ATOM      9  C5  <0> d   1      18.527  -1.015   7.875  0.00  0.00     0.010 A 
ATOM     10  C4  <0> d   1      18.914  -1.679   6.727  0.00  0.00     0.037 A 
ATOM     11  C3  <0> d   1      19.230  -0.960   5.584  0.00  0.00     0.068 A 
ATOM     12  C29 <0> d   1      19.162   0.426   5.598  0.00  0.00     0.037 A 
ATOM     13  C28 <0> d   1      18.768   1.085   6.747  0.00  0.00     0.010 A 
BRANCH  11  14
ATOM     14  O2  <0> d   1      19.612  -1.610   4.454  0.00  0.00    -0.356 OA
ATOM     15  C1  <0> d   1      19.004  -2.878   4.198  0.00  0.00     0.210 C 
ENDBRANCH  11  14
ENDBRANCH   7   8
ENDBRANCH   5   7
ENDBRANCH   2   5
ENDBRANCH   1   2
BRANCH   1  16
ATOM     16  C15 <0> d   1      20.212  -0.003  12.382  0.00  0.00     0.176 C 
BRANCH  16  17
ATOM     17  O17 <0> d   1      20.446  -1.330  11.906  0.00  0.00    -0.389 OA
ATOM     18  H42 <0> d   1      19.717  -1.695  11.388  0.00  0.00     0.210 HD
ENDBRANCH  16  17
BRANCH  16  19
ATOM     19  C18 <0> d   1      19.616  -0.063  13.765  0.00  0.00    -0.026 A 
ATOM     20  C27 <0> d   1      19.236   1.103  14.404  0.00  0.00     0.042 A 
ATOM     21  C23 <0> d   1      18.682   1.048  15.675  0.00  0.00     0.071 A 
ATOM     22  C21 <0> d   1      18.522  -0.183  16.308  0.00  0.00     0.134 A 
ATOM     23  C20 <0> d   1      18.910  -1.346  15.664  0.00  0.00     0.043 A 
ATOM     24  O22 <0> d   1      17.984  -0.242  17.556  0.00  0.00    -0.190 OA
ATOM     25  C19 <0> d   1      19.457  -1.284  14.395  0.00  0.00     0.013 A 
BRANCH  21  26
ATOM     26  N24 <0> d   1      18.290   2.227  16.322  0.00  0.00    -0.332 N 
ATOM     27  H45 <0> d   1      17.351   2.458  16.383  0.00  0.00     0.168 HD
BRANCH  26  28
ATOM     28  C25 <0> d   1      19.221   3.040  16.859  0.00  0.00     0.353 C 
ATOM     29  O26 <0> d   1      19.736   2.757  17.921  0.00  0.00    -0.283 OA
ENDBRANCH  26  28
ENDBRANCH  21  26
ENDBRANCH  16  19
ENDBRANCH   1  16
TORSDOF 10
ENDMDL
MODEL 4
REMARK VINA RESULT:      -6.9      1.858      4.675
REMARK  10 active torsions:
REMARK  status: ('A' for Active; 'I' for Inactive)
REMARK    1  A    between atoms: O2_2  and  C3_3 
REMARK    2  A    between atoms: C6_6  and  C7_7 
REMARK    3  A    between atoms: C7_7  and  C8_8 
REMARK    4  A    between atoms: C8_8  and  N11_10 
REMARK    5  A    between atoms: N11_10  and  C14_13 
REMARK    6  A    between atoms: C14_13  and  C15_14 
REMARK    7  A    between atoms: C15_14  and  O17_15 
REMARK    8  A    between atoms: C15_14  and  C18_16 
REMARK    9  A    between atoms: C23_21  and  N24_22 
REMARK   10  A    between atoms: N24_22  and  C25_23 
ROOT
ATOM      1  C14 <0> d   1      18.372   0.862  11.658  0.00  0.00     0.269 C 
ENDROOT
BRANCH   1   2
ATOM      2  N11 <0> d   1      18.759   0.654  13.059  0.00  0.00    -0.068 N 
ATOM      3  H12 <0> d   1      18.343   1.372  13.634  0.00  0.00     0.277 HD
ATOM      4  H13 <0> d   1      19.764   0.699  13.140  0.00  0.00     0.277 HD
BRANCH   2   5
ATOM      5  C8  <0> d   1      18.290  -0.665  13.507  0.00  0.00     0.186 C 
ATOM      6  C10 <0> d   1      17.894  -0.589  14.983  0.00  0.00     0.040 C 
BRANCH   5   7
ATOM      7  C7  <0> d   1      19.411  -1.691  13.332  0.00  0.00     0.071 C 
BRANCH   7   8
ATOM      8  C6  <0> d   1      19.035  -2.665  12.245  0.00  0.00    -0.056 A 
ATOM      9  C5  <0> d   1      19.999  -3.490  11.695  0.00  0.00     0.010 A 
ATOM     10  C4  <0> d   1      19.657  -4.385  10.699  0.00  0.00     0.037 A 
ATOM     11  C3  <0> d   1      18.346  -4.454  10.250  0.00  0.00     0.068 A 
ATOM     12  C29 <0> d   1      17.382  -3.620  10.799  0.00  0.00     0.037 A 
ATOM     13  C28 <0> d   1      17.728  -2.732  11.799  0.00  0.00     0.010 A 
BRANCH  11  14
ATOM     14  O2  <0> d   1      18.007  -5.332   9.270  0.00  0.00    -0.356 OA
ATOM     15  C1  <0> d   1      16.672  -5.259   8.766  0.00  0.00     0.210 C 
ENDBRANCH  11  14
ENDBRANCH   7   8
ENDBRANCH   5   7
ENDBRANCH   2   5
ENDBRANCH   1   2
BRANCH   1  16
ATOM     16  C15 <0> d   1      19.628   1.006  10.797  0.00  0.00     0.176 C 
BRANCH  16  17
ATOM     17  O17 <0> d   1      20.108   2.350  10.877  0.00  0.00    -0.389 OA
ATOM     18  H42 <0> d   1      20.808   2.554  10.243  0.00  0.00     0.210 HD
ENDBRANCH  16  17
BRANCH  16  19
ATOM     19  C18 <0> d   1      19.296   0.675   9.365  0.00  0.00    -0.026 A 
ATOM     20  C27 <0> d   1      19.074  -0.638   8.994  0.00  0.00     0.042 A 
ATOM     21  C23 <0> d   1      18.763  -0.943   7.677  0.00  0.00     0.071 A 
ATOM     22  C21 <0> d   1      18.687   0.076   6.729  0.00  0.00     0.134 A 
ATOM     23  C20 <0> d   1      18.916   1.388   7.108  0.00  0.00     0.043 A 
ATOM     24  O22 <0> d   1      18.388  -0.218   5.436  0.00  0.00    -0.190 OA
ATOM     25  C19 <0> d   1      19.220   1.686   8.424  0.00  0.00     0.013 A 
BRANCH  21  26
ATOM     26  N24 <0> d   1      18.532  -2.272   7.299  0.00  0.00    -0.332 N 
ATOM     27  H45 <0> d   1      17.626  -2.613   7.252  0.00  0.00     0.168 HD
BRANCH  26  28
ATOM     28  C25 <0> d   1      19.572  -3.077   7.001  0.00  0.00     0.353 C 
ATOM     29  O26 <0> d   1      19.923  -3.214   5.847  0.00  0.00    -0.283 OA
ENDBRANCH  26  28
ENDBRANCH  21  26
ENDBRANCH  16  19
ENDBRANCH   1  16
TORSDOF 10
ENDMDL
MODEL 5
REMARK VINA RESULT:      -6.8      2.150      2.870
REMARK  10 active torsions:
REMARK  status: ('A' for Active; 'I' for Inactive)
REMARK    1  A    between atoms: O2_2  and  C3_3 
REMARK    2  A    between atoms: C6_6  and  C7_7 
REMARK    3  A    between atoms: C7_7  and  C8_8 
REMARK    4  A    between atoms: C8_8  and  N11_10 
REMARK    5  A    between atoms: N11_10  and  C14_13 
REMARK    6  A    between atoms: C14_13  and  C15_14 
REMARK    7  A    between atoms: C15_14  and  O17_15 
REMARK    8  A    between atoms: C15_14  and  C18_16 
REMARK    9  A    between atoms: C23_21  and  N24_22 
REMARK   10  A    between atoms: N24_22  and  C25_23 
ROOT
ATOM      1  C14 <0> d   1      19.560  -1.640  11.443  0.00  0.00     0.269 C 
ENDROOT
BRANCH   1   2
ATOM      2  N11 <0> d   1      18.249  -1.226  11.959  0.00  0.00    -0.068 N 
ATOM      3  H12 <0> d   1      18.185  -1.458  12.940  0.00  0.00     0.277 HD
ATOM      4  H13 <0> d   1      17.521  -1.707  11.453  0.00  0.00     0.277 HD
BRANCH   2   5
ATOM      5  C8  <0> d   1      18.090   0.225  11.787  0.00  0.00     0.186 C 
ATOM      6  C10 <0> d   1      17.679   0.853  13.121  0.00  0.00     0.040 C 
BRANCH   5   7
ATOM      7  C7  <0> d   1      17.009   0.498  10.740  0.00  0.00     0.071 C 
BRANCH   7   8
ATOM      8  C6  <0> d   1      17.647   0.629   9.382  0.00  0.00    -0.056 A 
ATOM      9  C5  <0> d   1      18.634   1.575   9.171  0.00  0.00     0.010 A 
ATOM     10  C4  <0> d   1      19.222   1.697   7.927  0.00  0.00     0.037 A 
ATOM     11  C3  <0> d   1      18.821   0.870   6.888  0.00  0.00     0.068 A 
ATOM     12  C29 <0> d   1      17.827  -0.074   7.100  0.00  0.00     0.037 A 
ATOM     13  C28 <0> d   1      17.246  -0.196   8.348  0.00  0.00     0.010 A 
BRANCH  11  14
ATOM     14  O2  <0> d   1      19.396   0.988   5.663  0.00  0.00    -0.356 OA
ATOM     15  C1  <0> d   1      19.342  -0.154   4.807  0.00  0.00     0.210 C 
ENDBRANCH  11  14
ENDBRANCH   7   8
ENDBRANCH   5   7
ENDBRANCH   2   5
ENDBRANCH   1   2
BRANCH   1  16
ATOM     16  C15 <0> d   1      19.724  -3.150  11.620  0.00  0.00     0.176 C 
BRANCH  16  17
ATOM     17  O17 <0> d   1      21.102  -3.500  11.473  0.00  0.00    -0.389 OA
ATOM     18  H42 <0> d   1      21.368  -4.272  11.990  0.00  0.00     0.210 HD
ENDBRANCH  16  17
BRANCH  16  19
ATOM     19  C18 <0> d   1      18.909  -3.870  10.576  0.00  0.00    -0.026 A 
ATOM     20  C27 <0> d   1      18.875  -3.394   9.278  0.00  0.00     0.042 A 
ATOM     21  C23 <0> d   1      18.130  -4.059   8.316  0.00  0.00     0.071 A 
ATOM     22  C21 <0> d   1      17.407  -5.198   8.664  0.00  0.00     0.134 A 
ATOM     23  C20 <0> d   1      17.442  -5.665   9.968  0.00  0.00     0.043 A 
ATOM     24  O22 <0> d   1      16.670  -5.851   7.726  0.00  0.00    -0.190 OA
ATOM     25  C19 <0> d   1      18.192  -5.000  10.921  0.00  0.00     0.013 A 
BRANCH  21  26
ATOM     26  N24 <0> d   1      18.098  -3.583   6.999  0.00  0.00    -0.332 N 
ATOM     27  H45 <0> d   1      17.379  -3.000   6.711  0.00  0.00     0.168 HD
BRANCH  26  28
ATOM     28  C25 <0> d   1      19.068  -3.937   6.132  0.00  0.00     0.353 C 
ATOM     29  O26 <0> d   1      20.190  -3.493   6.261  0.00  0.00    -0.283 OA
ENDBRANCH  26  28
ENDBRANCH  21  26
ENDBRANCH  16  19
ENDBRANCH   1  16
TORSDOF 10
ENDMDL
MODEL 6
REMARK VINA RESULT:      -6.7      1.879      2.616
REMARK  10 active torsions:
REMARK  status: ('A' for Active; 'I' for Inactive)
REMARK    1  A    between atoms: O2_2  and  C3_3 
REMARK    2  A    between atoms: C6_6  and  C7_7 
REMARK    3  A    between atoms: C7_7  and  C8_8 
REMARK    4  A    between atoms: C8_8  and  N11_10 
REMARK    5  A    between atoms: N11_10  and  C14_13 
REMARK    6  A    between atoms: C14_13  and  C15_14 
REMARK    7  A    between atoms: C15_14  and  O17_15 
REMARK    8  A    between atoms: C15_14  and  C18_16 
REMARK    9  A    between atoms: C23_21  and  N24_22 
REMARK   10  A    between atoms: N24_22  and  C25_23 
ROOT
ATOM      1  C14 <0> d   1      17.756   0.338  11.875  0.00  0.00     0.269 C 
ENDROOT
BRANCH   1   2
ATOM      2  N11 <0> d   1      19.120   0.776  11.554  0.00  0.00    -0.068 N 
ATOM      3  H12 <0> d   1      19.725  -0.030  11.486  0.00  0.00     0.277 HD
ATOM      4  H13 <0> d   1      19.457   1.387  12.283  0.00  0.00     0.277 HD
BRANCH   2   5
ATOM      5  C8  <0> d   1      19.116   1.496  10.274  0.00  0.00     0.186 C 
ATOM      6  C10 <0> d   1      19.044   3.002  10.537  0.00  0.00     0.040 C 
BRANCH   5   7
ATOM      7  C7  <0> d   1      17.903   1.064   9.449  0.00  0.00     0.071 C 
BRANCH   7   8
ATOM      8  C6  <0> d   1      18.369   0.418   8.170  0.00  0.00    -0.056 A 
ATOM      9  C5  <0> d   1      18.507  -0.957   8.102  0.00  0.00     0.010 A 
ATOM     10  C4  <0> d   1      18.933  -1.552   6.930  0.00  0.00     0.037 A 
ATOM     11  C3  <0> d   1      19.223  -0.769   5.822  0.00  0.00     0.068 A 
ATOM     12  C29 <0> d   1      19.090   0.610   5.895  0.00  0.00     0.037 A 
ATOM     13  C28 <0> d   1      18.657   1.199   7.067  0.00  0.00     0.010 A 
BRANCH  11  14
ATOM     14  O2  <0> d   1      19.644  -1.352   4.669  0.00  0.00    -0.356 OA
ATOM     15  C1  <0> d   1      19.090  -2.630   4.348  0.00  0.00     0.210 C 
ENDBRANCH  11  14
ENDBRANCH   7   8
ENDBRANCH   5   7
ENDBRANCH   2   5
ENDBRANCH   1   2
BRANCH   1  16
ATOM     16  C15 <0> d   1      17.814  -0.878  12.800  0.00  0.00     0.176 C 
BRANCH  16  17
ATOM     17  O17 <0> d   1      18.700  -0.607  13.888  0.00  0.00    -0.389 OA
ATOM     18  H42 <0> d   1      18.403  -0.966  14.735  0.00  0.00     0.210 HD
ENDBRANCH  16  17
BRANCH  16  19
ATOM     19  C18 <0> d   1      18.316  -2.072  12.029  0.00  0.00    -0.026 A 
ATOM     20  C27 <0> d   1      17.521  -2.648  11.054  0.00  0.00     0.042 A 
ATOM     21  C23 <0> d   1      17.985  -3.743  10.340  0.00  0.00     0.071 A 
ATOM     22  C21 <0> d   1      19.246  -4.268  10.617  0.00  0.00     0.134 A 
ATOM     23  C20 <0> d   1      20.033  -3.689  11.598  0.00  0.00     0.043 A 
ATOM     24  O22 <0> d   1      19.703  -5.345   9.924  0.00  0.00    -0.190 OA
ATOM     25  C19 <0> d   1      19.567  -2.593  12.303  0.00  0.00     0.013 A 
BRANCH  21  26
ATOM     26  N24 <0> d   1      17.184  -4.325   9.349  0.00  0.00    -0.332 N 
ATOM     27  H45 <0> d   1      17.249  -4.018   8.432  0.00  0.00     0.168 HD
BRANCH  26  28
ATOM     28  C25 <0> d   1      16.324  -5.311   9.671  0.00  0.00     0.353 C 
ATOM     29  O26 <0> d   1      15.331  -5.496   8.999  0.00  0.00    -0.283 OA
ENDBRANCH  26  28
ENDBRANCH  21  26
ENDBRANCH  16  19
ENDBRANCH   1  16
TORSDOF 10
ENDMDL
MODEL 7
REMARK VINA RESULT:      -6.6      3.072      5.640
REMARK  10 active torsions:
REMARK  status: ('A' for Active; 'I' for Inactive)
REMARK    1  A    between atoms: O2_2  and  C3_3 
REMARK    2  A    between atoms: C6_6  and  C7_7 
REMARK    3  A    between atoms: C7_7  and  C8_8 
REMARK    4  A    between atoms: C8_8  and  N11_10 
REMARK    5  A    between atoms: N11_10  and  C14_13 
REMARK    6  A    between atoms: C14_13  and  C15_14 
REMARK    7  A    between atoms: C15_14  and  O17_15 
REMARK    8  A    between atoms: C15_14  and  C18_16 
REMARK    9  A    between atoms: C23_21  and  N24_22 
REMARK   10  A    between atoms: N24_22  and  C25_23 
ROOT
ATOM      1  C14 <0> d   1      19.506   1.289  11.319  0.00  0.00     0.269 C 
ENDROOT
BRANCH   1   2
ATOM      2  N11 <0> d   1      20.186   0.622  10.201  0.00  0.00    -0.068 N 
ATOM      3  H12 <0> d   1      20.843  -0.054  10.562  0.00  0.00     0.277 HD
ATOM      4  H13 <0> d   1      20.678   1.308   9.649  0.00  0.00     0.277 HD
BRANCH   2   5
ATOM      5  C8  <0> d   1      19.192  -0.061   9.361  0.00  0.00     0.186 C 
ATOM      6  C10 <0> d   1      18.754   0.873   8.230  0.00  0.00     0.040 C 
BRANCH   5   7
ATOM      7  C7  <0> d   1      17.978  -0.437  10.210  0.00  0.00     0.071 C 
BRANCH   7   8
ATOM      8  C6  <0> d   1      17.829  -1.937  10.237  0.00  0.00    -0.056 A 
ATOM      9  C5  <0> d   1      18.064  -2.674   9.091  0.00  0.00     0.010 A 
ATOM     10  C4  <0> d   1      17.929  -4.048   9.112  0.00  0.00     0.037 A 
ATOM     11  C3  <0> d   1      17.556  -4.689  10.285  0.00  0.00     0.068 A 
ATOM     12  C29 <0> d   1      17.315  -3.947  11.432  0.00  0.00     0.037 A 
ATOM     13  C28 <0> d   1      17.457  -2.573  11.406  0.00  0.00     0.010 A 
BRANCH  11  14
ATOM     14  O2  <0> d   1      17.421  -6.041  10.308  0.00  0.00    -0.356 OA
ATOM     15  C1  <0> d   1      16.878  -6.659   9.140  0.00  0.00     0.210 C 
ENDBRANCH  11  14
ENDBRANCH   7   8
ENDBRANCH   5   7
ENDBRANCH   2   5
ENDBRANCH   1   2
BRANCH   1  16
ATOM     16  C15 <0> d   1      20.410   1.266  12.552  0.00  0.00     0.176 C 
BRANCH  16  17
ATOM     17  O17 <0> d   1      21.612   0.554  12.249  0.00  0.00    -0.389 OA
ATOM     18  H42 <0> d   1      22.340   0.737  12.858  0.00  0.00     0.210 HD
ENDBRANCH  16  17
BRANCH  16  19
ATOM     19  C18 <0> d   1      19.694   0.581  13.688  0.00  0.00    -0.026 A 
ATOM     20  C27 <0> d   1      19.190   1.329  14.737  0.00  0.00     0.042 A 
ATOM     21  C23 <0> d   1      18.526   0.700  15.779  0.00  0.00     0.071 A 
ATOM     22  C21 <0> d   1      18.378  -0.685  15.772  0.00  0.00     0.134 A 
ATOM     23  C20 <0> d   1      18.890  -1.427  14.720  0.00  0.00     0.043 A 
ATOM     24  O22 <0> d   1      17.732  -1.308  16.794  0.00  0.00    -0.190 OA
ATOM     25  C19 <0> d   1      19.547  -0.794  13.681  0.00  0.00     0.013 A 
BRANCH  21  26
ATOM     26  N24 <0> d   1      18.010   1.456  16.841  0.00  0.00    -0.332 N 
ATOM     27  H45 <0> d   1      17.173   1.932  16.735  0.00  0.00     0.168 HD
BRANCH  26  28
ATOM     28  C25 <0> d   1      18.680   1.519  18.009  0.00  0.00     0.353 C 
ATOM     29  O26 <0> d   1      19.829   1.135  18.072  0.00  0.00    -0.283 OA
ENDBRANCH  26  28
ENDBRANCH  21  26
ENDBRANCH  16  19
ENDBRANCH   1  16
TORSDOF 10
ENDMDL
MODEL 8
REMARK VINA RESULT:      -6.4      2.715      5.861
REMARK  10 active torsions:
REMARK  status: ('A' for Active; 'I' for Inactive)
REMARK    1  A    between atoms: O2_2  and  C3_3 
REMARK    2  A    between atoms: C6_6  and  C7_7 
REMARK    3  A    between atoms: C7_7  and  C8_8 
REMARK    4  A    between atoms: C8_8  and  N11_10 
REMARK    5  A    between atoms: N11_10  and  C14_13 
REMARK    6  A    between atoms: C14_13  and  C15_14 
REMARK    7  A    between atoms: C15_14  and  O17_15 
REMARK    8  A    between atoms: C15_14  and  C18_16 
REMARK    9  A    between atoms: C23_21  and  N24_22 
REMARK   10  A    between atoms: N24_22  and  C25_23 
ROOT
ATOM      1  C14 <0> d   1      19.430  -0.261  11.867  0.00  0.00     0.269 C 
ENDROOT
BRANCH   1   2
ATOM      2  N11 <0> d   1      20.271  -0.249  13.071  0.00  0.00    -0.068 N 
ATOM      3  H12 <0> d   1      21.175   0.141  12.847  0.00  0.00     0.277 HD
ATOM      4  H13 <0> d   1      20.386  -1.192  13.410  0.00  0.00     0.277 HD
BRANCH   2   5
ATOM      5  C8  <0> d   1      19.628   0.569  14.109  0.00  0.00     0.186 C 
ATOM      6  C10 <0> d   1      19.026  -0.346  15.177  0.00  0.00     0.040 C 
BRANCH   5   7
ATOM      7  C7  <0> d   1      18.521   1.415  13.479  0.00  0.00     0.071 C 
BRANCH   7   8
ATOM      8  C6  <0> d   1      18.741   2.866  13.819  0.00  0.00    -0.056 A 
ATOM      9  C5  <0> d   1      19.235   3.733  12.861  0.00  0.00     0.010 A 
ATOM     10  C4  <0> d   1      19.438   5.064  13.170  0.00  0.00     0.037 A 
ATOM     11  C3  <0> d   1      19.146   5.531  14.443  0.00  0.00     0.068 A 
ATOM     12  C29 <0> d   1      18.656   4.659  15.405  0.00  0.00     0.037 A 
ATOM     13  C28 <0> d   1      18.450   3.330  15.088  0.00  0.00     0.010 A 
BRANCH  11  14
ATOM     14  O2  <0> d   1      19.345   6.839  14.750  0.00  0.00    -0.356 OA
ATOM     15  C1  <0> d   1      18.240   7.551  15.310  0.00  0.00     0.210 C 
ENDBRANCH  11  14
ENDBRANCH   7   8
ENDBRANCH   5   7
ENDBRANCH   2   5
ENDBRANCH   1   2
BRANCH   1  16
ATOM     16  C15 <0> d   1      20.198  -0.912  10.715  0.00  0.00     0.176 C 
BRANCH  16  17
ATOM     17  O17 <0> d   1      21.576  -0.543  10.792  0.00  0.00    -0.389 OA
ATOM     18  H42 <0> d   1      21.842   0.120  10.141  0.00  0.00     0.210 HD
ENDBRANCH  16  17
BRANCH  16  19
ATOM     19  C18 <0> d   1      19.625  -0.445   9.402  0.00  0.00    -0.026 A 
ATOM     20  C27 <0> d   1      19.213  -1.371   8.460  0.00  0.00     0.042 A 
ATOM     21  C23 <0> d   1      18.681  -0.942   7.254  0.00  0.00     0.071 A 
ATOM     22  C21 <0> d   1      18.574   0.422   6.989  0.00  0.00     0.134 A 
ATOM     23  C20 <0> d   1      18.994   1.343   7.935  0.00  0.00     0.043 A 
ATOM     24  O22 <0> d   1      18.058   0.848   5.805  0.00  0.00    -0.190 OA
ATOM     25  C19 <0> d   1      19.519   0.908   9.138  0.00  0.00     0.013 A 
BRANCH  21  26
ATOM     26  N24 <0> d   1      18.258  -1.877   6.300  0.00  0.00    -0.332 N 
ATOM     27  H45 <0> d   1      17.315  -2.084   6.208  0.00  0.00     0.168 HD
BRANCH  26  28
ATOM     28  C25 <0> d   1      19.163  -2.491   5.512  0.00  0.00     0.353 C 
ATOM     29  O26 <0> d   1      19.691  -1.881   4.606  0.00  0.00    -0.283 OA
ENDBRANCH  26  28
ENDBRANCH  21  26
ENDBRANCH  16  19
ENDBRANCH   1  16
TORSDOF 10
ENDMDL
MODEL 9
REMARK VINA RESULT:      -6.4      2.965      4.994
REMARK  10 active torsions:
REMARK  status: ('A' for Active; 'I' for Inactive)
REMARK    1  A    between atoms: O2_2  and  C3_3 
REMARK    2  A    between atoms: C6_6  and  C7_7 
REMARK    3  A    between atoms: C7_7  and  C8_8 
REMARK    4  A    between atoms: C8_8  and  N11_10 
REMARK    5  A    between atoms: N11_10  and  C14_13 
REMARK    6  A    between atoms: C14_13  and  C15_14 
REMARK    7  A    between atoms: C15_14  and  O17_15 
REMARK    8  A    between atoms: C15_14  and  C18_16 
REMARK    9  A    between atoms: C23_21  and  N24_22 
REMARK   10  A    between atoms: N24_22  and  C25_23 
ROOT
ATOM      1  C14 <0> d   1      18.302   2.926  11.419  0.00  0.00     0.269 C 
ENDROOT
BRANCH   1   2
ATOM      2  N11 <0> d   1      18.885   2.849  10.073  0.00  0.00    -0.068 N 
ATOM      3  H12 <0> d   1      19.888   2.760  10.145  0.00  0.00     0.277 HD
ATOM      4  H13 <0> d   1      18.658   3.688   9.560  0.00  0.00     0.277 HD
BRANCH   2   5
ATOM      5  C8  <0> d   1      18.339   1.681   9.369  0.00  0.00     0.186 C 
ATOM      6  C10 <0> d   1      17.413   0.907  10.309  0.00  0.00     0.040 C 
BRANCH   5   7
ATOM      7  C7  <0> d   1      19.486   0.774   8.921  0.00  0.00     0.071 C 
BRANCH   7   8
ATOM      8  C6  <0> d   1      19.073   0.015   7.686  0.00  0.00    -0.056 A 
ATOM      9  C5  <0> d   1      18.488   0.686   6.627  0.00  0.00     0.010 A 
ATOM     10  C4  <0> d   1      18.110  -0.007   5.494  0.00  0.00     0.037 A 
ATOM     11  C3  <0> d   1      18.317  -1.377   5.418  0.00  0.00     0.068 A 
ATOM     12  C29 <0> d   1      18.899  -2.048   6.483  0.00  0.00     0.037 A 
ATOM     13  C28 <0> d   1      19.281  -1.350   7.612  0.00  0.00     0.010 A 
BRANCH  11  14
ATOM     14  O2  <0> d   1      17.944  -2.060   4.304  0.00  0.00    -0.356 OA
ATOM     15  C1  <0> d   1      18.339  -3.431   4.222  0.00  0.00     0.210 C 
ENDBRANCH  11  14
ENDBRANCH   7   8
ENDBRANCH   5   7
ENDBRANCH   2   5
ENDBRANCH   1   2
BRANCH   1  16
ATOM     16  C15 <0> d   1      19.423   3.033  12.454  0.00  0.00     0.176 C 
BRANCH  16  17
ATOM     17  O17 <0> d   1      20.689   2.942  11.797  0.00  0.00    -0.389 OA
ATOM     18  H42 <0> d   1      21.428   3.275  12.324  0.00  0.00     0.210 HD
ENDBRANCH  16  17
BRANCH  16  19
ATOM     19  C18 <0> d   1      19.293   1.911  13.452  0.00  0.00    -0.026 A 
ATOM     20  C27 <0> d   1      18.801   2.168  14.719  0.00  0.00     0.042 A 
ATOM     21  C23 <0> d   1      18.676   1.135  15.636  0.00  0.00     0.071 A 
ATOM     22  C21 <0> d   1      19.059  -0.157  15.281  0.00  0.00     0.134 A 
ATOM     23  C20 <0> d   1      19.555  -0.405  14.012  0.00  0.00     0.043 A 
ATOM     24  O22 <0> d   1      18.944  -1.173  16.178  0.00  0.00    -0.190 OA
ATOM     25  C19 <0> d   1      19.672   0.628  13.101  0.00  0.00     0.013 A 
BRANCH  21  26
ATOM     26  N24 <0> d   1      18.173   1.391  16.918  0.00  0.00    -0.332 N 
ATOM     27  H45 <0> d   1      17.272   1.119  17.149  0.00  0.00     0.168 HD
BRANCH  26  28
ATOM     28  C25 <0> d   1      18.943   2.017  17.831  0.00  0.00     0.353 C 
ATOM     29  O26 <0> d   1      19.767   1.390  18.464  0.00  0.00    -0.283 OA
ENDBRANCH  26  28
ENDBRANCH  21  26
ENDBRANCH  16  19
ENDBRANCH   1  16
TORSDOF 10
ENDMDL
