MODEL 1
REMARK VINA RESULT:      -8.7      0.000      0.000
REMARK  5 active torsions:
REMARK  status: ('A' for Active; 'I' for Inactive)
REMARK    1  A    between atoms: C2_2  and  C3_3 
REMARK    2  A    between atoms: C3_3  and  N5_4 
REMARK    3  A    between atoms: C3_3  and  C15_14 
REMARK    4  A    between atoms: N5_4  and  C6_5 
REMARK    5  A    between atoms: N26_25  and  C27_26 
ROOT
ATOM      1  C15 ZIN A   1      19.003  -3.561   7.188  0.00  0.00     0.137 A 
ATOM      2  N16 ZIN A   1      19.340  -2.850   6.155  0.00  0.00    -0.232 NA
ATOM      3  C17 ZIN A   1      19.172  -1.504   6.132  0.00  0.00     0.077 A 
ATOM      4  C18 ZIN A   1      19.535  -0.740   5.022  0.00  0.00     0.033 A 
ATOM      5  C19 ZIN A   1      19.347   0.624   5.041  0.00  0.00     0.005 A 
ATOM      6  C20 ZIN A   1      18.801   1.253   6.151  0.00  0.00     0.043 A 
ATOM      7  C21 ZIN A   1      18.434   0.520   7.262  0.00  0.00     0.134 A 
ATOM      8  F22 ZIN A   1      17.903   1.138   8.340  0.00  0.00    -0.205 F 
ATOM      9  C23 ZIN A   1      18.616  -0.864   7.263  0.00  0.00     0.100 A 
ATOM     10  C24 ZIN A   1      18.245  -1.695   8.415  0.00  0.00     0.269 A 
ATOM     11  O25 ZIN A   1      17.761  -1.205   9.418  0.00  0.00    -0.266 OA
ATOM     12  N26 ZIN A   1      18.456  -3.029   8.315  0.00  0.00    -0.264 N 
ENDROOT
BRANCH   1  13
ATOM     13  C3  ZIN A   1      19.221  -5.051   7.135  0.00  0.00     0.153 C 
BRANCH  13  14
ATOM     14  C2  ZIN A   1      20.707  -5.356   7.336  0.00  0.00     0.028 C 
ATOM     15  C1  ZIN A   1      20.899  -6.111   8.652  0.00  0.00     0.007 C 
ENDBRANCH  13  14
BRANCH  13  16
ATOM     16  N5  ZIN A   1      18.792  -5.560   5.830  0.00  0.00    -0.361 N 
ATOM     17  H38 ZIN A   1      19.450  -5.874   5.190  0.00  0.00     0.162 HD
BRANCH  16  18
ATOM     18  C6  ZIN A   1      17.445  -5.591   5.508  0.00  0.00     0.158 A 
ATOM     19  N14 ZIN A   1      16.563  -6.148   6.331  0.00  0.00    -0.222 NA
ATOM     20  C13 ZIN A   1      15.276  -6.180   6.033  0.00  0.00     0.237 A 
ATOM     21  N12 ZIN A   1      14.797  -5.675   4.916  0.00  0.00    -0.222 NA
ATOM     22  C11 ZIN A   1      15.604  -5.101   4.030  0.00  0.00     0.162 A 
ATOM     23  C7  ZIN A   1      16.982  -5.040   4.302  0.00  0.00     0.149 A 
ATOM     24  N10 ZIN A   1      15.433  -4.500   2.810  0.00  0.00    -0.333 N 
ATOM     25  N8  ZIN A   1      17.568  -4.414   3.253  0.00  0.00    -0.236 NA
ATOM     26  C9  ZIN A   1      16.660  -4.097   2.375  0.00  0.00     0.209 A 
ATOM     27  H40 ZIN A   1      14.591  -4.381   2.341  0.00  0.00     0.168 HD
ENDBRANCH  16  18
ENDBRANCH  13  16
ENDBRANCH   1  13
BRANCH  12  28
ATOM     28  C27 ZIN A   1      18.119  -3.867   9.386  0.00  0.00     0.044 A 
ATOM     29  C32 ZIN A   1      16.941  -4.601   9.351  0.00  0.00     0.030 A 
ATOM     30  C31 ZIN A   1      16.614  -5.430  10.406  0.00  0.00     0.002 A 
ATOM     31  C30 ZIN A   1      17.454  -5.521  11.502  0.00  0.00     0.000 A 
ATOM     32  C29 ZIN A   1      18.625  -4.786  11.542  0.00  0.00     0.002 A 
ATOM     33  C28 ZIN A   1      18.960  -3.960  10.487  0.00  0.00     0.030 A 
ENDBRANCH  12  28
TORSDOF 5
ENDMDL
MODEL 2
REMARK VINA RESULT:      -8.6      3.970      8.268
REMARK  5 active torsions:
REMARK  status: ('A' for Active; 'I' for Inactive)
REMARK    1  A    between atoms: C2_2  and  C3_3 
REMARK    2  A    between atoms: C3_3  and  N5_4 
REMARK    3  A    between atoms: C3_3  and  C15_14 
REMARK    4  A    between atoms: N5_4  and  C6_5 
REMARK    5  A    between atoms: N26_25  and  C27_26 
ROOT
ATOM      1  C15 ZIN A   1      17.842  -1.392   9.486  0.00  0.00     0.137 A 
ATOM      2  N16 ZIN A   1      17.676  -2.001  10.621  0.00  0.00    -0.232 NA
ATOM      3  C17 ZIN A   1      17.639  -3.355  10.702  0.00  0.00     0.077 A 
ATOM      4  C18 ZIN A   1      17.460  -4.009  11.922  0.00  0.00     0.033 A 
ATOM      5  C19 ZIN A   1      17.428  -5.386  11.959  0.00  0.00     0.005 A 
ATOM      6  C20 ZIN A   1      17.572  -6.134  10.800  0.00  0.00     0.043 A 
ATOM      7  C21 ZIN A   1      17.751  -5.510   9.581  0.00  0.00     0.134 A 
ATOM      8  F22 ZIN A   1      17.892  -6.244   8.455  0.00  0.00    -0.205 F 
ATOM      9  C23 ZIN A   1      17.786  -4.116   9.521  0.00  0.00     0.100 A 
ATOM     10  C24 ZIN A   1      17.973  -3.398   8.255  0.00  0.00     0.269 A 
ATOM     11  O25 ZIN A   1      18.105  -3.995   7.202  0.00  0.00    -0.266 OA
ATOM     12  N26 ZIN A   1      17.986  -2.045   8.301  0.00  0.00    -0.264 N 
ENDROOT
BRANCH   1  13
ATOM     13  C3  ZIN A   1      17.871   0.115   9.479  0.00  0.00     0.153 C 
BRANCH  13  14
ATOM     14  C2  ZIN A   1      19.318   0.598   9.606  0.00  0.00     0.028 C 
ATOM     15  C1  ZIN A   1      19.605   1.639   8.523  0.00  0.00     0.007 C 
ENDBRANCH  13  14
BRANCH  13  16
ATOM     16  N5  ZIN A   1      17.088   0.623  10.608  0.00  0.00    -0.361 N 
ATOM     17  H38 ZIN A   1      16.224   0.233  10.815  0.00  0.00     0.162 HD
BRANCH  16  18
ATOM     18  C6  ZIN A   1      17.579   1.663  11.379  0.00  0.00     0.158 A 
ATOM     19  N14 ZIN A   1      17.330   2.927  11.054  0.00  0.00    -0.222 NA
ATOM     20  C13 ZIN A   1      17.793   3.925  11.786  0.00  0.00     0.237 A 
ATOM     21  N12 ZIN A   1      18.526   3.731  12.862  0.00  0.00    -0.222 NA
ATOM     22  C11 ZIN A   1      18.831   2.501  13.262  0.00  0.00     0.162 A 
ATOM     23  C7  ZIN A   1      18.359   1.405  12.519  0.00  0.00     0.149 A 
ATOM     24  N10 ZIN A   1      19.550   1.971  14.302  0.00  0.00    -0.333 N 
ATOM     25  N8  ZIN A   1      18.806   0.284  13.135  0.00  0.00    -0.236 NA
ATOM     26  C9  ZIN A   1      19.506   0.614  14.182  0.00  0.00     0.209 A 
ATOM     27  H40 ZIN A   1      20.007   2.470  14.998  0.00  0.00     0.168 HD
ENDBRANCH  16  18
ENDBRANCH  13  16
ENDBRANCH   1  13
BRANCH  12  28
ATOM     28  C27 ZIN A   1      18.161  -1.311   7.121  0.00  0.00     0.044 A 
ATOM     29  C32 ZIN A   1      17.155  -0.466   6.671  0.00  0.00     0.030 A 
ATOM     30  C31 ZIN A   1      17.332   0.259   5.509  0.00  0.00     0.002 A 
ATOM     31  C30 ZIN A   1      18.506   0.136   4.788  0.00  0.00     0.000 A 
ATOM     32  C29 ZIN A   1      19.508  -0.709   5.230  0.00  0.00     0.002 A 
ATOM     33  C28 ZIN A   1      19.338  -1.433   6.394  0.00  0.00     0.030 A 
ENDBRANCH  12  28
TORSDOF 5
ENDMDL
MODEL 3
REMARK VINA RESULT:      -8.6      1.193      2.295
REMARK  5 active torsions:
REMARK  status: ('A' for Active; 'I' for Inactive)
REMARK    1  A    between atoms: C2_2  and  C3_3 
REMARK    2  A    between atoms: C3_3  and  N5_4 
REMARK    3  A    between atoms: C3_3  and  C15_14 
REMARK    4  A    between atoms: N5_4  and  C6_5 
REMARK    5  A    between atoms: N26_25  and  C27_26 
ROOT
ATOM      1  C15 ZIN A   1      19.046  -3.604   7.193  0.00  0.00     0.137 A 
ATOM      2  N16 ZIN A   1      19.382  -2.890   6.162  0.00  0.00    -0.232 NA
ATOM      3  C17 ZIN A   1      19.181  -1.548   6.131  0.00  0.00     0.077 A 
ATOM      4  C18 ZIN A   1      19.542  -0.780   5.023  0.00  0.00     0.033 A 
ATOM      5  C19 ZIN A   1      19.319   0.580   5.033  0.00  0.00     0.005 A 
ATOM      6  C20 ZIN A   1      18.741   1.199   6.132  0.00  0.00     0.043 A 
ATOM      7  C21 ZIN A   1      18.375   0.461   7.240  0.00  0.00     0.134 A 
ATOM      8  F22 ZIN A   1      17.813   1.070   8.308  0.00  0.00    -0.205 F 
ATOM      9  C23 ZIN A   1      18.591  -0.917   7.250  0.00  0.00     0.100 A 
ATOM     10  C24 ZIN A   1      18.224  -1.753   8.400  0.00  0.00     0.269 A 
ATOM     11  O25 ZIN A   1      17.713  -1.272   9.394  0.00  0.00    -0.266 OA
ATOM     12  N26 ZIN A   1      18.469  -3.082   8.309  0.00  0.00    -0.264 N 
ENDROOT
BRANCH   1  13
ATOM     13  C3  ZIN A   1      19.302  -5.089   7.149  0.00  0.00     0.153 C 
BRANCH  13  14
ATOM     14  C2  ZIN A   1      20.800  -5.353   7.321  0.00  0.00     0.028 C 
ATOM     15  C1  ZIN A   1      21.038  -6.105   8.632  0.00  0.00     0.007 C 
ENDBRANCH  13  14
BRANCH  13  16
ATOM     16  N5  ZIN A   1      18.858  -5.623   5.859  0.00  0.00    -0.361 N 
ATOM     17  H38 ZIN A   1      19.463  -5.628   5.101  0.00  0.00     0.162 HD
BRANCH  16  18
ATOM     18  C6  ZIN A   1      17.573  -6.117   5.721  0.00  0.00     0.158 A 
ATOM     19  N14 ZIN A   1      16.618  -5.380   5.163  0.00  0.00    -0.222 NA
ATOM     20  C13 ZIN A   1      15.389  -5.846   5.025  0.00  0.00     0.237 A 
ATOM     21  N12 ZIN A   1      15.038  -7.047   5.434  0.00  0.00    -0.222 NA
ATOM     22  C11 ZIN A   1      15.924  -7.854   6.008  0.00  0.00     0.162 A 
ATOM     23  C7  ZIN A   1      17.246  -7.406   6.175  0.00  0.00     0.149 A 
ATOM     24  N10 ZIN A   1      15.886  -9.122   6.528  0.00  0.00    -0.333 N 
ATOM     25  N8  ZIN A   1      17.933  -8.407   6.776  0.00  0.00    -0.236 NA
ATOM     26  C9  ZIN A   1      17.136  -9.415   6.985  0.00  0.00     0.209 A 
ATOM     27  H40 ZIN A   1      15.110  -9.705   6.564  0.00  0.00     0.168 HD
ENDBRANCH  16  18
ENDBRANCH  13  16
ENDBRANCH   1  13
BRANCH  12  28
ATOM     28  C27 ZIN A   1      18.137  -3.923   9.378  0.00  0.00     0.044 A 
ATOM     29  C32 ZIN A   1      18.950  -3.974  10.503  0.00  0.00     0.030 A 
ATOM     30  C31 ZIN A   1      18.617  -4.802  11.557  0.00  0.00     0.002 A 
ATOM     31  C30 ZIN A   1      17.480  -5.587  11.489  0.00  0.00     0.000 A 
ATOM     32  C29 ZIN A   1      16.672  -5.543  10.368  0.00  0.00     0.002 A 
ATOM     33  C28 ZIN A   1      16.997  -4.713   9.313  0.00  0.00     0.030 A 
ENDBRANCH  12  28
TORSDOF 5
ENDMDL
MODEL 4
REMARK VINA RESULT:      -8.5      5.648      8.445
REMARK  5 active torsions:
REMARK  status: ('A' for Active; 'I' for Inactive)
REMARK    1  A    between atoms: C2_2  and  C3_3 
REMARK    2  A    between atoms: C3_3  and  N5_4 
REMARK    3  A    between atoms: C3_3  and  C15_14 
REMARK    4  A    between atoms: N5_4  and  C6_5 
REMARK    5  A    between atoms: N26_25  and  C27_26 
ROOT
ATOM      1  C15 ZIN A   1      18.746   0.342  13.745  0.00  0.00     0.137 A 
ATOM      2  N16 ZIN A   1      18.850  -0.396  14.808  0.00  0.00    -0.232 NA
ATOM      3  C17 ZIN A   1      18.958   0.150  16.046  0.00  0.00     0.077 A 
ATOM      4  C18 ZIN A   1      19.070  -0.644  17.188  0.00  0.00     0.033 A 
ATOM      5  C19 ZIN A   1      19.177  -0.048  18.425  0.00  0.00     0.005 A 
ATOM      6  C20 ZIN A   1      19.175   1.333  18.553  0.00  0.00     0.043 A 
ATOM      7  C21 ZIN A   1      19.065   2.141  17.439  0.00  0.00     0.134 A 
ATOM      8  F22 ZIN A   1      19.063   3.486  17.570  0.00  0.00    -0.205 F 
ATOM      9  C23 ZIN A   1      18.956   1.557  16.176  0.00  0.00     0.100 A 
ATOM     10  C24 ZIN A   1      18.835   2.364  14.955  0.00  0.00     0.269 A 
ATOM     11  O25 ZIN A   1      18.827   3.580  14.999  0.00  0.00    -0.266 OA
ATOM     12  N26 ZIN A   1      18.741   1.703  13.777  0.00  0.00    -0.264 N 
ENDROOT
BRANCH   1  13
ATOM     13  C3  ZIN A   1      18.631  -0.341  12.407  0.00  0.00     0.153 C 
BRANCH  13  14
ATOM     14  C2  ZIN A   1      17.203  -0.858  12.219  0.00  0.00     0.028 C 
ATOM     15  C1  ZIN A   1      16.528  -0.091  11.081  0.00  0.00     0.007 C 
ENDBRANCH  13  14
BRANCH  13  16
ATOM     16  N5  ZIN A   1      19.568  -1.466  12.351  0.00  0.00    -0.361 N 
ATOM     17  H38 ZIN A   1      20.315  -1.507  12.969  0.00  0.00     0.162 HD
BRANCH  16  18
ATOM     18  C6  ZIN A   1      19.388  -2.471  11.416  0.00  0.00     0.158 A 
ATOM     19  N14 ZIN A   1      19.215  -3.732  11.797  0.00  0.00    -0.222 NA
ATOM     20  C13 ZIN A   1      19.041  -4.696  10.911  0.00  0.00     0.237 A 
ATOM     21  N12 ZIN A   1      19.035  -4.471   9.614  0.00  0.00    -0.222 NA
ATOM     22  C11 ZIN A   1      19.204  -3.242   9.138  0.00  0.00     0.162 A 
ATOM     23  C7  ZIN A   1      19.391  -2.181  10.041  0.00  0.00     0.149 A 
ATOM     24  N10 ZIN A   1      19.250  -2.685   7.886  0.00  0.00    -0.333 N 
ATOM     25  N8  ZIN A   1      19.537  -1.052   9.305  0.00  0.00    -0.236 NA
ATOM     26  C9  ZIN A   1      19.455  -1.346   8.040  0.00  0.00     0.209 A 
ATOM     27  H40 ZIN A   1      19.153  -3.158   7.043  0.00  0.00     0.168 HD
ENDBRANCH  16  18
ENDBRANCH  13  16
ENDBRANCH   1  13
BRANCH  12  28
ATOM     28  C27 ZIN A   1      18.625   2.425  12.583  0.00  0.00     0.044 A 
ATOM     29  C32 ZIN A   1      17.481   3.170  12.328  0.00  0.00     0.030 A 
ATOM     30  C31 ZIN A   1      17.371   3.885  11.152  0.00  0.00     0.002 A 
ATOM     31  C30 ZIN A   1      18.396   3.852  10.223  0.00  0.00     0.000 A 
ATOM     32  C29 ZIN A   1      19.534   3.106  10.471  0.00  0.00     0.002 A 
ATOM     33  C28 ZIN A   1      19.651   2.394  11.649  0.00  0.00     0.030 A 
ENDBRANCH  12  28
TORSDOF 5
ENDMDL
MODEL 5
REMARK VINA RESULT:      -8.5      6.999     10.114
REMARK  5 active torsions:
REMARK  status: ('A' for Active; 'I' for Inactive)
REMARK    1  A    between atoms: C2_2  and  C3_3 
REMARK    2  A    between atoms: C3_3  and  N5_4 
REMARK    3  A    between atoms: C3_3  and  C15_14 
REMARK    4  A    between atoms: N5_4  and  C6_5 
REMARK    5  A    between atoms: N26_25  and  C27_26 
ROOT
ATOM      1  C15 ZIN A   1      18.965   2.384  13.991  0.00  0.00     0.137 A 
ATOM      2  N16 ZIN A   1      19.070   1.090  14.038  0.00  0.00    -0.232 NA
ATOM      3  C17 ZIN A   1      19.064   0.419  15.218  0.00  0.00     0.077 A 
ATOM      4  C18 ZIN A   1      19.176  -0.971  15.268  0.00  0.00     0.033 A 
ATOM      5  C19 ZIN A   1      19.166  -1.613  16.487  0.00  0.00     0.005 A 
ATOM      6  C20 ZIN A   1      19.045  -0.896  17.669  0.00  0.00     0.043 A 
ATOM      7  C21 ZIN A   1      18.931   0.480  17.645  0.00  0.00     0.134 A 
ATOM      8  F22 ZIN A   1      18.813   1.173  18.800  0.00  0.00    -0.205 F 
ATOM      9  C23 ZIN A   1      18.940   1.150  16.421  0.00  0.00     0.100 A 
ATOM     10  C24 ZIN A   1      18.823   2.610  16.334  0.00  0.00     0.269 A 
ATOM     11  O25 ZIN A   1      18.714   3.297  17.333  0.00  0.00    -0.266 OA
ATOM     12  N26 ZIN A   1      18.848   3.166  15.099  0.00  0.00    -0.264 N 
ENDROOT
BRANCH   1  13
ATOM     13  C3  ZIN A   1      18.980   3.055  12.642  0.00  0.00     0.153 C 
BRANCH  13  14
ATOM     14  C2  ZIN A   1      17.637   2.829  11.945  0.00  0.00     0.028 C 
ATOM     15  C1  ZIN A   1      17.062   4.174  11.497  0.00  0.00     0.007 C 
ENDBRANCH  13  14
BRANCH  13  16
ATOM     16  N5  ZIN A   1      20.055   2.484  11.825  0.00  0.00    -0.361 N 
ATOM     17  H38 ZIN A   1      20.980   2.594  12.094  0.00  0.00     0.162 HD
BRANCH  16  18
ATOM     18  C6  ZIN A   1      19.749   1.788  10.668  0.00  0.00     0.158 A 
ATOM     19  N14 ZIN A   1      19.394   2.433   9.561  0.00  0.00    -0.222 NA
ATOM     20  C13 ZIN A   1      19.103   1.777   8.452  0.00  0.00     0.237 A 
ATOM     21  N12 ZIN A   1      19.137   0.463   8.379  0.00  0.00    -0.222 NA
ATOM     22  C11 ZIN A   1      19.477  -0.267   9.436  0.00  0.00     0.162 A 
ATOM     23  C7  ZIN A   1      19.799   0.384  10.639  0.00  0.00     0.149 A 
ATOM     24  N10 ZIN A   1      19.606  -1.609   9.686  0.00  0.00    -0.333 N 
ATOM     25  N8  ZIN A   1      20.104  -0.577  11.544  0.00  0.00    -0.236 NA
ATOM     26  C9  ZIN A   1      19.991  -1.748  10.987  0.00  0.00     0.209 A 
ATOM     27  H40 ZIN A   1      19.453  -2.329   9.053  0.00  0.00     0.168 HD
ENDBRANCH  16  18
ENDBRANCH  13  16
ENDBRANCH   1  13
BRANCH  12  28
ATOM     28  C27 ZIN A   1      18.740   4.555  14.960  0.00  0.00     0.044 A 
ATOM     29  C32 ZIN A   1      19.884   5.333  14.839  0.00  0.00     0.030 A 
ATOM     30  C31 ZIN A   1      19.774   6.703  14.698  0.00  0.00     0.002 A 
ATOM     31  C30 ZIN A   1      18.526   7.300  14.687  0.00  0.00     0.000 A 
ATOM     32  C29 ZIN A   1      17.386   6.528  14.813  0.00  0.00     0.002 A 
ATOM     33  C28 ZIN A   1      17.489   5.158  14.949  0.00  0.00     0.030 A 
ENDBRANCH  12  28
TORSDOF 5
ENDMDL
MODEL 6
REMARK VINA RESULT:      -8.5      4.208      7.479
REMARK  5 active torsions:
REMARK  status: ('A' for Active; 'I' for Inactive)
REMARK    1  A    between atoms: C2_2  and  C3_3 
REMARK    2  A    between atoms: C3_3  and  N5_4 
REMARK    3  A    between atoms: C3_3  and  C15_14 
REMARK    4  A    between atoms: N5_4  and  C6_5 
REMARK    5  A    between atoms: N26_25  and  C27_26 
ROOT
ATOM      1  C15 ZIN A   1      18.693  -0.844   9.231  0.00  0.00     0.137 A 
ATOM      2  N16 ZIN A   1      18.840   0.076   8.326  0.00  0.00    -0.232 NA
ATOM      3  C17 ZIN A   1      18.948  -0.233   7.009  0.00  0.00     0.077 A 
ATOM      4  C18 ZIN A   1      19.106   0.755   6.037  0.00  0.00     0.033 A 
ATOM      5  C19 ZIN A   1      19.213   0.397   4.711  0.00  0.00     0.005 A 
ATOM      6  C20 ZIN A   1      19.164  -0.935   4.326  0.00  0.00     0.043 A 
ATOM      7  C21 ZIN A   1      19.008  -1.931   5.269  0.00  0.00     0.134 A 
ATOM      8  F22 ZIN A   1      18.961  -3.227   4.888  0.00  0.00    -0.205 F 
ATOM      9  C23 ZIN A   1      18.899  -1.591   6.618  0.00  0.00     0.100 A 
ATOM     10  C24 ZIN A   1      18.731  -2.606   7.665  0.00  0.00     0.269 A 
ATOM     11  O25 ZIN A   1      18.681  -3.791   7.393  0.00  0.00    -0.266 OA
ATOM     12  N26 ZIN A   1      18.641  -2.173   8.945  0.00  0.00    -0.264 N 
ENDROOT
BRANCH   1  13
ATOM     13  C3  ZIN A   1      18.581  -0.419  10.673  0.00  0.00     0.153 C 
BRANCH  13  14
ATOM     14  C2  ZIN A   1      17.263   0.331  10.882  0.00  0.00     0.028 C 
ATOM     15  C1  ZIN A   1      16.500  -0.296  12.050  0.00  0.00     0.007 C 
ENDBRANCH  13  14
BRANCH  13  16
ATOM     16  N5  ZIN A   1      19.701   0.462  11.010  0.00  0.00    -0.361 N 
ATOM     17  H38 ZIN A   1      20.608   0.204  10.782  0.00  0.00     0.162 HD
BRANCH  16  18
ATOM     18  C6  ZIN A   1      19.466   1.663  11.657  0.00  0.00     0.158 A 
ATOM     19  N14 ZIN A   1      19.339   2.793  10.969  0.00  0.00    -0.222 NA
ATOM     20  C13 ZIN A   1      19.112   3.943  11.578  0.00  0.00     0.237 A 
ATOM     21  N12 ZIN A   1      19.008   4.040  12.887  0.00  0.00    -0.222 NA
ATOM     22  C11 ZIN A   1      19.125   2.964  13.658  0.00  0.00     0.162 A 
ATOM     23  C7  ZIN A   1      19.364   1.717  13.058  0.00  0.00     0.149 A 
ATOM     24  N10 ZIN A   1      19.071   2.730  15.008  0.00  0.00    -0.333 N 
ATOM     25  N8  ZIN A   1      19.440   0.802  14.054  0.00  0.00    -0.236 NA
ATOM     26  C9  ZIN A   1      19.269   1.395  15.200  0.00  0.00     0.209 A 
ATOM     27  H40 ZIN A   1      18.918   3.392  15.701  0.00  0.00     0.168 HD
ENDBRANCH  16  18
ENDBRANCH  13  16
ENDBRANCH   1  13
BRANCH  12  28
ATOM     28  C27 ZIN A   1      18.481  -3.101   9.981  0.00  0.00     0.044 A 
ATOM     29  C32 ZIN A   1      19.593  -3.609  10.639  0.00  0.00     0.030 A 
ATOM     30  C31 ZIN A   1      19.432  -4.521  11.663  0.00  0.00     0.002 A 
ATOM     31  C30 ZIN A   1      18.163  -4.936  12.028  0.00  0.00     0.000 A 
ATOM     32  C29 ZIN A   1      17.053  -4.436  11.371  0.00  0.00     0.002 A 
ATOM     33  C28 ZIN A   1      17.209  -3.520  10.349  0.00  0.00     0.030 A 
ENDBRANCH  12  28
TORSDOF 5
ENDMDL
MODEL 7
REMARK VINA RESULT:      -8.5      5.189      9.189
REMARK  5 active torsions:
REMARK  status: ('A' for Active; 'I' for Inactive)
REMARK    1  A    between atoms: C2_2  and  C3_3 
REMARK    2  A    between atoms: C3_3  and  N5_4 
REMARK    3  A    between atoms: C3_3  and  C15_14 
REMARK    4  A    between atoms: N5_4  and  C6_5 
REMARK    5  A    between atoms: N26_25  and  C27_26 
ROOT
ATOM      1  C15 ZIN A   1      18.290  -1.573  11.756  0.00  0.00     0.137 A 
ATOM      2  N16 ZIN A   1      18.116  -2.771  12.224  0.00  0.00    -0.232 NA
ATOM      3  C17 ZIN A   1      17.818  -3.816  11.412  0.00  0.00     0.077 A 
ATOM      4  C18 ZIN A   1      17.632  -5.104  11.915  0.00  0.00     0.033 A 
ATOM      5  C19 ZIN A   1      17.330  -6.136  11.054  0.00  0.00     0.005 A 
ATOM      6  C20 ZIN A   1      17.209  -5.914   9.690  0.00  0.00     0.043 A 
ATOM      7  C21 ZIN A   1      17.389  -4.649   9.167  0.00  0.00     0.134 A 
ATOM      8  F22 ZIN A   1      17.271  -4.439   7.837  0.00  0.00    -0.205 F 
ATOM      9  C23 ZIN A   1      17.695  -3.589  10.022  0.00  0.00     0.100 A 
ATOM     10  C24 ZIN A   1      17.898  -2.223   9.524  0.00  0.00     0.269 A 
ATOM     11  O25 ZIN A   1      17.805  -1.962   8.339  0.00  0.00    -0.266 OA
ATOM     12  N26 ZIN A   1      18.185  -1.263  10.435  0.00  0.00    -0.264 N 
ENDROOT
BRANCH   1  13
ATOM     13  C3  ZIN A   1      18.618  -0.465  12.725  0.00  0.00     0.153 C 
BRANCH  13  14
ATOM     14  C2  ZIN A   1      20.095  -0.552  13.116  0.00  0.00     0.028 C 
ATOM     15  C1  ZIN A   1      20.858   0.616  12.490  0.00  0.00     0.007 C 
ENDBRANCH  13  14
BRANCH  13  16
ATOM     16  N5  ZIN A   1      17.787  -0.604  13.923  0.00  0.00    -0.361 N 
ATOM     17  H38 ZIN A   1      16.885  -0.954  13.852  0.00  0.00     0.162 HD
BRANCH  16  18
ATOM     18  C6  ZIN A   1      18.288  -0.232  15.159  0.00  0.00     0.158 A 
ATOM     19  N14 ZIN A   1      18.563  -1.146  16.084  0.00  0.00    -0.222 NA
ATOM     20  C13 ZIN A   1      19.044  -0.799  17.265  0.00  0.00     0.237 A 
ATOM     21  N12 ZIN A   1      19.269   0.455  17.596  0.00  0.00    -0.222 NA
ATOM     22  C11 ZIN A   1      19.020   1.438  16.737  0.00  0.00     0.162 A 
ATOM     23  C7  ZIN A   1      18.510   1.121  15.466  0.00  0.00     0.149 A 
ATOM     24  N10 ZIN A   1      19.139   2.804  16.767  0.00  0.00    -0.333 N 
ATOM     25  N8  ZIN A   1      18.349   2.289  14.799  0.00  0.00    -0.236 NA
ATOM     26  C9  ZIN A   1      18.717   3.278  15.561  0.00  0.00     0.209 A 
ATOM     27  H40 ZIN A   1      19.464   3.336  17.511  0.00  0.00     0.168 HD
ENDBRANCH  16  18
ENDBRANCH  13  16
ENDBRANCH   1  13
BRANCH  12  28
ATOM     28  C27 ZIN A   1      18.387   0.056  10.012  0.00  0.00     0.044 A 
ATOM     29  C32 ZIN A   1      17.557   1.070  10.473  0.00  0.00     0.030 A 
ATOM     30  C31 ZIN A   1      17.761   2.371  10.057  0.00  0.00     0.002 A 
ATOM     31  C30 ZIN A   1      18.786   2.663   9.175  0.00  0.00     0.000 A 
ATOM     32  C29 ZIN A   1      19.611   1.655   8.710  0.00  0.00     0.002 A 
ATOM     33  C28 ZIN A   1      19.414   0.353   9.126  0.00  0.00     0.030 A 
ENDBRANCH  12  28
TORSDOF 5
ENDMDL
MODEL 8
REMARK VINA RESULT:      -8.4      5.477      7.364
REMARK  5 active torsions:
REMARK  status: ('A' for Active; 'I' for Inactive)
REMARK    1  A    between atoms: C2_2  and  C3_3 
REMARK    2  A    between atoms: C3_3  and  N5_4 
REMARK    3  A    between atoms: C3_3  and  C15_14 
REMARK    4  A    between atoms: N5_4  and  C6_5 
REMARK    5  A    between atoms: N26_25  and  C27_26 
ROOT
ATOM      1  C15 ZIN A   1      17.983   0.953  13.051  0.00  0.00     0.137 A 
ATOM      2  N16 ZIN A   1      17.897   1.449  11.855  0.00  0.00    -0.232 NA
ATOM      3  C17 ZIN A   1      17.780   2.784  11.645  0.00  0.00     0.077 A 
ATOM      4  C18 ZIN A   1      17.689   3.318  10.359  0.00  0.00     0.033 A 
ATOM      5  C19 ZIN A   1      17.571   4.680  10.191  0.00  0.00     0.005 A 
ATOM      6  C20 ZIN A   1      17.542   5.532  11.285  0.00  0.00     0.043 A 
ATOM      7  C21 ZIN A   1      17.631   5.030  12.568  0.00  0.00     0.134 A 
ATOM      8  F22 ZIN A   1      17.603   5.865  13.631  0.00  0.00    -0.205 F 
ATOM      9  C23 ZIN A   1      17.751   3.653  12.760  0.00  0.00     0.100 A 
ATOM     10  C24 ZIN A   1      17.850   3.060  14.100  0.00  0.00     0.269 A 
ATOM     11  O25 ZIN A   1      17.830   3.753  15.100  0.00  0.00    -0.266 OA
ATOM     12  N26 ZIN A   1      17.957   1.713  14.180  0.00  0.00    -0.264 N 
ENDROOT
BRANCH   1  13
ATOM     13  C3  ZIN A   1      18.110  -0.542  13.200  0.00  0.00     0.153 C 
BRANCH  13  14
ATOM     14  C2  ZIN A   1      19.585  -0.939  13.114  0.00  0.00     0.028 C 
ATOM     15  C1  ZIN A   1      20.002  -1.635  14.410  0.00  0.00     0.007 C 
ENDBRANCH  13  14
BRANCH  13  16
ATOM     16  N5  ZIN A   1      17.364  -1.204  12.127  0.00  0.00    -0.361 N 
ATOM     17  H38 ZIN A   1      16.459  -0.923  11.919  0.00  0.00     0.162 HD
BRANCH  16  18
ATOM     18  C6  ZIN A   1      17.951  -2.232  11.409  0.00  0.00     0.158 A 
ATOM     19  N14 ZIN A   1      18.006  -3.463  11.908  0.00  0.00    -0.222 NA
ATOM     20  C13 ZIN A   1      18.562  -4.451  11.230  0.00  0.00     0.237 A 
ATOM     21  N12 ZIN A   1      19.095  -4.278  10.038  0.00  0.00    -0.222 NA
ATOM     22  C11 ZIN A   1      19.090  -3.081   9.461  0.00  0.00     0.162 A 
ATOM     23  C7  ZIN A   1      18.507  -1.998  10.141  0.00  0.00     0.149 A 
ATOM     24  N10 ZIN A   1      19.545  -2.578   8.269  0.00  0.00    -0.333 N 
ATOM     25  N8  ZIN A   1      18.634  -0.911   9.342  0.00  0.00    -0.236 NA
ATOM     26  C9  ZIN A   1      19.244  -1.249   8.243  0.00  0.00     0.209 A 
ATOM     27  H40 ZIN A   1      19.998  -3.077   7.571  0.00  0.00     0.168 HD
ENDBRANCH  16  18
ENDBRANCH  13  16
ENDBRANCH   1  13
BRANCH  12  28
ATOM     28  C27 ZIN A   1      18.053   1.098  15.434  0.00  0.00     0.044 A 
ATOM     29  C32 ZIN A   1      19.163   1.325  16.237  0.00  0.00     0.030 A 
ATOM     30  C31 ZIN A   1      19.253   0.720  17.476  0.00  0.00     0.002 A 
ATOM     31  C30 ZIN A   1      18.244  -0.119  17.912  0.00  0.00     0.000 A 
ATOM     32  C29 ZIN A   1      17.140  -0.351  17.112  0.00  0.00     0.002 A 
ATOM     33  C28 ZIN A   1      17.042   0.255  15.875  0.00  0.00     0.030 A 
ENDBRANCH  12  28
TORSDOF 5
ENDMDL
MODEL 9
REMARK VINA RESULT:      -8.4      5.788      8.729
REMARK  5 active torsions:
REMARK  status: ('A' for Active; 'I' for Inactive)
REMARK    1  A    between atoms: C2_2  and  C3_3 
REMARK    2  A    between atoms: C3_3  and  N5_4 
REMARK    3  A    between atoms: C3_3  and  C15_14 
REMARK    4  A    between atoms: N5_4  and  C6_5 
REMARK    5  A    between atoms: N26_25  and  C27_26 
ROOT
ATOM      1  C15 ZIN A   1      18.334   0.366  13.932  0.00  0.00     0.137 A 
ATOM      2  N16 ZIN A   1      18.344  -0.215  15.093  0.00  0.00    -0.232 NA
ATOM      3  C17 ZIN A   1      18.617   0.473  16.231  0.00  0.00     0.077 A 
ATOM      4  C18 ZIN A   1      18.627  -0.152  17.479  0.00  0.00     0.033 A 
ATOM      5  C19 ZIN A   1      18.909   0.584  18.608  0.00  0.00     0.005 A 
ATOM      6  C20 ZIN A   1      19.184   1.941  18.524  0.00  0.00     0.043 A 
ATOM      7  C21 ZIN A   1      19.180   2.583  17.301  0.00  0.00     0.134 A 
ATOM      8  F22 ZIN A   1      19.447   3.906  17.226  0.00  0.00    -0.205 F 
ATOM      9  C23 ZIN A   1      18.896   1.856  16.145  0.00  0.00     0.100 A 
ATOM     10  C24 ZIN A   1      18.877   2.483  14.818  0.00  0.00     0.269 A 
ATOM     11  O25 ZIN A   1      19.109   3.669  14.676  0.00  0.00    -0.266 OA
ATOM     12  N26 ZIN A   1      18.597   1.690  13.756  0.00  0.00    -0.264 N 
ENDROOT
BRANCH   1  13
ATOM     13  C3  ZIN A   1      18.022  -0.468  12.716  0.00  0.00     0.153 C 
BRANCH  13  14
ATOM     14  C2  ZIN A   1      16.627  -0.111  12.198  0.00  0.00     0.028 C 
ATOM     15  C1  ZIN A   1      16.630  -0.135  10.668  0.00  0.00     0.007 C 
ENDBRANCH  13  14
BRANCH  13  16
ATOM     16  N5  ZIN A   1      18.060  -1.887  13.075  0.00  0.00    -0.361 N 
ATOM     17  H38 ZIN A   1      17.649  -2.191  13.899  0.00  0.00     0.162 HD
BRANCH  16  18
ATOM     18  C6  ZIN A   1      18.687  -2.796  12.239  0.00  0.00     0.158 A 
ATOM     19  N14 ZIN A   1      20.005  -2.770  12.075  0.00  0.00    -0.222 NA
ATOM     20  C13 ZIN A   1      20.612  -3.635  11.281  0.00  0.00     0.237 A 
ATOM     21  N12 ZIN A   1      19.955  -4.556  10.607  0.00  0.00    -0.222 NA
ATOM     22  C11 ZIN A   1      18.634  -4.655  10.705  0.00  0.00     0.162 A 
ATOM     23  C7  ZIN A   1      17.943  -3.760  11.539  0.00  0.00     0.149 A 
ATOM     24  N10 ZIN A   1      17.680  -5.473  10.156  0.00  0.00    -0.333 N 
ATOM     25  N8  ZIN A   1      16.627  -4.074  11.459  0.00  0.00    -0.236 NA
ATOM     26  C9  ZIN A   1      16.471  -5.080  10.646  0.00  0.00     0.209 A 
ATOM     27  H40 ZIN A   1      17.837  -6.201   9.533  0.00  0.00     0.168 HD
ENDBRANCH  16  18
ENDBRANCH  13  16
ENDBRANCH   1  13
BRANCH  12  28
ATOM     28  C27 ZIN A   1      18.567   2.239  12.468  0.00  0.00     0.044 A 
ATOM     29  C32 ZIN A   1      19.579   1.948  11.563  0.00  0.00     0.030 A 
ATOM     30  C31 ZIN A   1      19.543   2.488  10.292  0.00  0.00     0.002 A 
ATOM     31  C30 ZIN A   1      18.506   3.325   9.924  0.00  0.00     0.000 A 
ATOM     32  C29 ZIN A   1      17.499   3.622  10.825  0.00  0.00     0.002 A 
ATOM     33  C28 ZIN A   1      17.527   3.081  12.096  0.00  0.00     0.030 A 
ENDBRANCH  12  28
TORSDOF 5
ENDMDL
