MODEL 1
REMARK VINA RESULT:      -8.3      0.000      0.000
REMARK  6 active torsions:
REMARK  status: ('A' for Active; 'I' for Inactive)
REMARK    1  A    between atoms: O2_2  and  N3_3 
REMARK    2  A    between atoms: N6_6  and  C7_7 
REMARK    3  A    between atoms: C16_16  and  C17_17 
REMARK    4  A    between atoms: N21_21  and  C22_22 
REMARK    5  A    between atoms: C26_26  and  C28_27 
REMARK    6  A    between atoms: C28_27  and  N29_28 
ROOT
ATOM      1  C7  ZIN A   1      17.863  -0.912  10.276  0.00  0.00     0.147 A 
ATOM      2  N8  ZIN A   1      18.236   0.294  10.669  0.00  0.00    -0.215 NA
ATOM      3  C9  ZIN A   1      18.350   0.601  11.956  0.00  0.00     0.146 A 
ATOM      4  C10 ZIN A   1      18.068  -0.372  12.930  0.00  0.00     0.064 A 
ATOM      5  C11 ZIN A   1      17.672  -1.657  12.538  0.00  0.00     0.065 A 
ATOM      6  C12 ZIN A   1      17.566  -1.920  11.198  0.00  0.00     0.157 A 
ATOM      7  F13 ZIN A   1      17.187  -3.146  10.772  0.00  0.00    -0.203 F 
ATOM      8  C14 ZIN A   1      18.199  -0.014  14.351  0.00  0.00     0.204 A 
ATOM      9  O15 ZIN A   1      17.968  -0.821  15.234  0.00  0.00    -0.286 OA
ATOM     10  C16 ZIN A   1      18.622   1.363  14.660  0.00  0.00     0.107 A 
ATOM     11  C20 ZIN A   1      18.871   2.233  13.616  0.00  0.00     0.115 A 
ATOM     12  N21 ZIN A   1      18.740   1.865  12.335  0.00  0.00    -0.335 N 
ENDROOT
BRANCH   1  13
ATOM     13  N6  ZIN A   1      17.760  -1.182   8.921  0.00  0.00    -0.259 NA
ATOM     14  C5  ZIN A   1      18.981  -1.864   8.419  0.00  0.00     0.154 C 
ATOM     15  C4  ZIN A   1      18.982  -1.609   6.921  0.00  0.00     0.059 C 
ATOM     16  N3  ZIN A   1      19.557  -2.312   6.019  0.00  0.00    -0.142 NA
ATOM     17  C26 ZIN A   1      18.168  -0.344   6.718  0.00  0.00     0.076 C 
ATOM     18  C25 ZIN A   1      17.707   0.075   8.130  0.00  0.00     0.110 C 
BRANCH  16  19
ATOM     19  O2  ZIN A   1      20.283  -3.472   6.380  0.00  0.00    -0.262 OA
ATOM     20  C1  ZIN A   1      19.496  -4.664   6.417  0.00  0.00     0.240 C 
ENDBRANCH  16  19
BRANCH  17  21
ATOM     21  C28 ZIN A   1      19.027   0.756   6.092  0.00  0.00     0.241 C 
BRANCH  21  22
ATOM     22  N29 ZIN A   1      19.506   0.314   4.775  0.00  0.00    -0.079 N 
ATOM     23  H30 ZIN A   1      20.100   1.027   4.378  0.00  0.00     0.274 HD
ATOM     24  H31 ZIN A   1      20.032  -0.541   4.879  0.00  0.00     0.274 HD
ATOM     25  H32 ZIN A   1      18.719   0.154   4.167  0.00  0.00     0.274 HD
ENDBRANCH  21  22
ENDBRANCH  17  21
ENDBRANCH   1  13
BRANCH  12  26
ATOM     26  C22 ZIN A   1      19.025   2.852  11.292  0.00  0.00     0.091 A 
ATOM     27  C24 ZIN A   1      19.017   4.328  11.694  0.00  0.00     0.028 A 
ATOM     28  C23 ZIN A   1      17.877   3.761  10.846  0.00  0.00     0.028 A 
ENDBRANCH  12  26
BRANCH  10  29
ATOM     29  C17 ZIN A   1      18.778   1.803  16.051  0.00  0.00     0.214 C 
ATOM     30  O18 ZIN A   1      19.335   1.076  16.864  0.00  0.00    -0.644 OA
ATOM     31  O19 ZIN A   1      18.351   2.896  16.399  0.00  0.00    -0.644 OA
ENDBRANCH  10  29
TORSDOF 6
ENDMDL
MODEL 2
REMARK VINA RESULT:      -8.3      2.677      8.269
REMARK  6 active torsions:
REMARK  status: ('A' for Active; 'I' for Inactive)
REMARK    1  A    between atoms: O2_2  and  N3_3 
REMARK    2  A    between atoms: N6_6  and  C7_7 
REMARK    3  A    between atoms: C16_16  and  C17_17 
REMARK    4  A    between atoms: N21_21  and  C22_22 
REMARK    5  A    between atoms: C26_26  and  C28_27 
REMARK    6  A    between atoms: C28_27  and  N29_28 
ROOT
ATOM      1  C7  ZIN A   1      17.914   0.660  12.711  0.00  0.00     0.147 A 
ATOM      2  N8  ZIN A   1      18.275  -0.549  12.314  0.00  0.00    -0.215 NA
ATOM      3  C9  ZIN A   1      18.421  -0.842  11.026  0.00  0.00     0.146 A 
ATOM      4  C10 ZIN A   1      18.189   0.149  10.057  0.00  0.00     0.064 A 
ATOM      5  C11 ZIN A   1      17.806   1.436  10.455  0.00  0.00     0.065 A 
ATOM      6  C12 ZIN A   1      17.665   1.685  11.794  0.00  0.00     0.157 A 
ATOM      7  F13 ZIN A   1      17.297   2.912  12.224  0.00  0.00    -0.203 F 
ATOM      8  C14 ZIN A   1      18.356  -0.193   8.637  0.00  0.00     0.204 A 
ATOM      9  O15 ZIN A   1      18.167   0.629   7.758  0.00  0.00    -0.286 OA
ATOM     10  C16 ZIN A   1      18.761  -1.576   8.322  0.00  0.00     0.107 A 
ATOM     11  C20 ZIN A   1      18.961  -2.463   9.361  0.00  0.00     0.115 A 
ATOM     12  N21 ZIN A   1      18.798  -2.109  10.643  0.00  0.00    -0.335 N 
ENDROOT
BRANCH   1  13
ATOM     13  N6  ZIN A   1      17.776   0.914  14.066  0.00  0.00    -0.259 NA
ATOM     14  C5  ZIN A   1      18.944   1.669  14.589  0.00  0.00     0.154 C 
ATOM     15  C4  ZIN A   1      18.940   1.407  16.085  0.00  0.00     0.059 C 
ATOM     16  N3  ZIN A   1      19.456   2.139  16.998  0.00  0.00    -0.142 NA
ATOM     17  C26 ZIN A   1      18.206   0.091  16.271  0.00  0.00     0.076 C 
ATOM     18  C25 ZIN A   1      17.792  -0.348  14.850  0.00  0.00     0.110 C 
BRANCH  16  19
ATOM     19  O2  ZIN A   1      20.112   3.345  16.654  0.00  0.00    -0.262 OA
ATOM     20  C1  ZIN A   1      19.279   4.503  16.731  0.00  0.00     0.240 C 
ENDBRANCH  16  19
BRANCH  17  21
ATOM     21  C28 ZIN A   1      19.124  -0.956  16.903  0.00  0.00     0.241 C 
BRANCH  21  22
ATOM     22  N29 ZIN A   1      19.540  -0.501  18.237  0.00  0.00    -0.079 N 
ATOM     23  H30 ZIN A   1      19.469   0.504  18.286  0.00  0.00     0.274 HD
ATOM     24  H31 ZIN A   1      18.940  -0.915  18.935  0.00  0.00     0.274 HD
ATOM     25  H32 ZIN A   1      20.494  -0.780  18.404  0.00  0.00     0.274 HD
ENDBRANCH  21  22
ENDBRANCH  17  21
ENDBRANCH   1  13
BRANCH  12  26
ATOM     26  C22 ZIN A   1      19.032  -3.114  11.681  0.00  0.00     0.091 A 
ATOM     27  C24 ZIN A   1      19.261  -4.558  11.228  0.00  0.00     0.028 A 
ATOM     28  C23 ZIN A   1      17.944  -4.168  11.902  0.00  0.00     0.028 A 
ENDBRANCH  12  26
BRANCH  10  29
ATOM     29  C17 ZIN A   1      18.950  -2.000   6.931  0.00  0.00     0.214 C 
ATOM     30  O18 ZIN A   1      18.064  -1.812   6.108  0.00  0.00    -0.644 OA
ATOM     31  O19 ZIN A   1      19.994  -2.544   6.593  0.00  0.00    -0.644 OA
ENDBRANCH  10  29
TORSDOF 6
ENDMDL
MODEL 3
REMARK VINA RESULT:      -8.2      3.775      7.509
REMARK  6 active torsions:
REMARK  status: ('A' for Active; 'I' for Inactive)
REMARK    1  A    between atoms: O2_2  and  N3_3 
REMARK    2  A    between atoms: N6_6  and  C7_7 
REMARK    3  A    between atoms: C16_16  and  C17_17 
REMARK    4  A    between atoms: N21_21  and  C22_22 
REMARK    5  A    between atoms: C26_26  and  C28_27 
REMARK    6  A    between atoms: C28_27  and  N29_28 
ROOT
ATOM      1  C7  ZIN A   1      18.598   2.942  11.585  0.00  0.00     0.147 A 
ATOM      2  N8  ZIN A   1      18.718   2.050  12.554  0.00  0.00    -0.215 NA
ATOM      3  C9  ZIN A   1      18.900   0.760  12.292  0.00  0.00     0.146 A 
ATOM      4  C10 ZIN A   1      18.967   0.325  10.957  0.00  0.00     0.064 A 
ATOM      5  C11 ZIN A   1      18.843   1.252   9.915  0.00  0.00     0.065 A 
ATOM      6  C12 ZIN A   1      18.652   2.568  10.239  0.00  0.00     0.157 A 
ATOM      7  F13 ZIN A   1      18.527   3.499   9.267  0.00  0.00    -0.203 F 
ATOM      8  C14 ZIN A   1      19.169  -1.106  10.686  0.00  0.00     0.204 A 
ATOM      9  O15 ZIN A   1      19.234  -1.535   9.548  0.00  0.00    -0.286 OA
ATOM     10  C16 ZIN A   1      19.288  -2.001  11.852  0.00  0.00     0.107 A 
ATOM     11  C20 ZIN A   1      19.206  -1.457  13.118  0.00  0.00     0.115 A 
ATOM     12  N21 ZIN A   1      19.023  -0.145  13.321  0.00  0.00    -0.335 N 
ENDROOT
BRANCH   1  13
ATOM     13  N6  ZIN A   1      18.410   4.275  11.911  0.00  0.00    -0.259 NA
ATOM     14  C5  ZIN A   1      19.013   4.591  13.233  0.00  0.00     0.154 C 
ATOM     15  C4  ZIN A   1      18.295   5.846  13.698  0.00  0.00     0.059 C 
ATOM     16  N3  ZIN A   1      18.726   6.718  14.530  0.00  0.00    -0.142 NA
ATOM     17  C26 ZIN A   1      16.957   5.847  12.981  0.00  0.00     0.076 C 
ATOM     18  C25 ZIN A   1      16.967   4.579  12.100  0.00  0.00     0.110 C 
BRANCH  16  19
ATOM     19  O2  ZIN A   1      20.006   6.567  15.115  0.00  0.00    -0.262 OA
ATOM     20  C1  ZIN A   1      20.022   5.730  16.273  0.00  0.00     0.240 C 
ENDBRANCH  16  19
BRANCH  17  21
ATOM     21  C28 ZIN A   1      15.805   5.785  13.985  0.00  0.00     0.241 C 
BRANCH  21  22
ATOM     22  N29 ZIN A   1      16.300   5.271  15.269  0.00  0.00    -0.079 N 
ATOM     23  H30 ZIN A   1      16.973   5.918  15.652  0.00  0.00     0.274 HD
ATOM     24  H31 ZIN A   1      15.528   5.170  15.910  0.00  0.00     0.274 HD
ATOM     25  H32 ZIN A   1      16.739   4.374  15.125  0.00  0.00     0.274 HD
ENDBRANCH  21  22
ENDBRANCH  17  21
ENDBRANCH   1  13
BRANCH  12  26
ATOM     26  C22 ZIN A   1      18.948   0.346  14.698  0.00  0.00     0.091 A 
ATOM     27  C24 ZIN A   1      18.807  -0.693  15.812  0.00  0.00     0.028 A 
ATOM     28  C23 ZIN A   1      17.615   0.188  15.434  0.00  0.00     0.028 A 
ENDBRANCH  12  26
BRANCH  10  29
ATOM     29  C17 ZIN A   1      19.491  -3.442  11.670  0.00  0.00     0.214 C 
ATOM     30  O18 ZIN A   1      18.526  -4.190  11.588  0.00  0.00    -0.644 OA
ATOM     31  O19 ZIN A   1      20.626  -3.897  11.602  0.00  0.00    -0.644 OA
ENDBRANCH  10  29
TORSDOF 6
ENDMDL
MODEL 4
REMARK VINA RESULT:      -8.1      2.909      4.503
REMARK  6 active torsions:
REMARK  status: ('A' for Active; 'I' for Inactive)
REMARK    1  A    between atoms: O2_2  and  N3_3 
REMARK    2  A    between atoms: N6_6  and  C7_7 
REMARK    3  A    between atoms: C16_16  and  C17_17 
REMARK    4  A    between atoms: N21_21  and  C22_22 
REMARK    5  A    between atoms: C26_26  and  C28_27 
REMARK    6  A    between atoms: C28_27  and  N29_28 
ROOT
ATOM      1  C7  ZIN A   1      18.376  -2.073  11.494  0.00  0.00     0.147 A 
ATOM      2  N8  ZIN A   1      18.482  -1.300  10.428  0.00  0.00    -0.215 NA
ATOM      3  C9  ZIN A   1      18.378   0.022  10.514  0.00  0.00     0.146 A 
ATOM      4  C10 ZIN A   1      18.149   0.620  11.765  0.00  0.00     0.064 A 
ATOM      5  C11 ZIN A   1      18.034  -0.179  12.909  0.00  0.00     0.065 A 
ATOM      6  C12 ZIN A   1      18.144  -1.536  12.764  0.00  0.00     0.157 A 
ATOM      7  F13 ZIN A   1      18.039  -2.347  13.840  0.00  0.00    -0.203 F 
ATOM      8  C14 ZIN A   1      18.037   2.084  11.842  0.00  0.00     0.204 A 
ATOM      9  O15 ZIN A   1      17.839   2.652  12.902  0.00  0.00    -0.286 OA
ATOM     10  C16 ZIN A   1      18.173   2.836  10.581  0.00  0.00     0.107 A 
ATOM     11  C20 ZIN A   1      18.397   2.137   9.412  0.00  0.00     0.115 A 
ATOM     12  N21 ZIN A   1      18.494   0.801   9.386  0.00  0.00    -0.335 N 
ENDROOT
BRANCH   1  13
ATOM     13  N6  ZIN A   1      18.492  -3.446  11.351  0.00  0.00    -0.259 NA
ATOM     14  C5  ZIN A   1      19.152  -3.794  10.065  0.00  0.00     0.154 C 
ATOM     15  C4  ZIN A   1      18.735  -5.228   9.788  0.00  0.00     0.059 C 
ATOM     16  N3  ZIN A   1      19.351  -6.085   9.065  0.00  0.00    -0.142 NA
ATOM     17  C26 ZIN A   1      17.431  -5.430  10.537  0.00  0.00     0.076 C 
ATOM     18  C25 ZIN A   1      17.155  -4.086  11.245  0.00  0.00     0.110 C 
BRANCH  16  19
ATOM     19  O2  ZIN A   1      20.566  -5.733   8.429  0.00  0.00    -0.262 OA
ATOM     20  C1  ZIN A   1      20.409  -5.288   7.079  0.00  0.00     0.240 C 
ENDBRANCH  16  19
BRANCH  17  21
ATOM     21  C28 ZIN A   1      16.295  -5.761   9.568  0.00  0.00     0.241 C 
BRANCH  21  22
ATOM     22  N29 ZIN A   1      16.434  -4.945   8.354  0.00  0.00    -0.079 N 
ATOM     23  H30 ZIN A   1      16.245  -3.979   8.575  0.00  0.00     0.274 HD
ATOM     24  H31 ZIN A   1      17.374  -5.031   7.997  0.00  0.00     0.274 HD
ATOM     25  H32 ZIN A   1      15.779  -5.265   7.657  0.00  0.00     0.274 HD
ENDBRANCH  21  22
ENDBRANCH  17  21
ENDBRANCH   1  13
BRANCH  12  26
ATOM     26  C22 ZIN A   1      18.732   0.142   8.101  0.00  0.00     0.091 A 
ATOM     27  C24 ZIN A   1      18.673   1.008   6.840  0.00  0.00     0.028 A 
ATOM     28  C23 ZIN A   1      17.547   0.016   7.140  0.00  0.00     0.028 A 
ENDBRANCH  12  26
BRANCH  10  29
ATOM     29  C17 ZIN A   1      18.074   4.300  10.569  0.00  0.00     0.214 C 
ATOM     30  O18 ZIN A   1      18.511   4.950  11.510  0.00  0.00    -0.644 OA
ATOM     31  O19 ZIN A   1      17.554   4.870   9.619  0.00  0.00    -0.644 OA
ENDBRANCH  10  29
TORSDOF 6
ENDMDL
MODEL 5
REMARK VINA RESULT:      -8.0      2.794      8.141
REMARK  6 active torsions:
REMARK  status: ('A' for Active; 'I' for Inactive)
REMARK    1  A    between atoms: O2_2  and  N3_3 
REMARK    2  A    between atoms: N6_6  and  C7_7 
REMARK    3  A    between atoms: C16_16  and  C17_17 
REMARK    4  A    between atoms: N21_21  and  C22_22 
REMARK    5  A    between atoms: C26_26  and  C28_27 
REMARK    6  A    between atoms: C28_27  and  N29_28 
ROOT
ATOM      1  C7  ZIN A   1      18.186   1.461  10.865  0.00  0.00     0.147 A 
ATOM      2  N8  ZIN A   1      18.279   0.143  10.908  0.00  0.00    -0.215 NA
ATOM      3  C9  ZIN A   1      18.555  -0.569   9.821  0.00  0.00     0.146 A 
ATOM      4  C10 ZIN A   1      18.752   0.085   8.593  0.00  0.00     0.064 A 
ATOM      5  C11 ZIN A   1      18.660   1.480   8.524  0.00  0.00     0.065 A 
ATOM      6  C12 ZIN A   1      18.368   2.167   9.672  0.00  0.00     0.157 A 
ATOM      7  F13 ZIN A   1      18.269   3.515   9.654  0.00  0.00    -0.203 F 
ATOM      8  C14 ZIN A   1      19.057  -0.720   7.400  0.00  0.00     0.204 A 
ATOM      9  O15 ZIN A   1      19.237  -0.202   6.313  0.00  0.00    -0.286 OA
ATOM     10  C16 ZIN A   1      19.133  -2.182   7.578  0.00  0.00     0.107 A 
ATOM     11  C20 ZIN A   1      18.920  -2.711   8.835  0.00  0.00     0.115 A 
ATOM     12  N21 ZIN A   1      18.646  -1.940   9.897  0.00  0.00    -0.335 N 
ENDROOT
BRANCH   1  13
ATOM     13  N6  ZIN A   1      17.897   2.158  12.027  0.00  0.00    -0.259 NA
ATOM     14  C5  ZIN A   1      19.015   3.065  12.398  0.00  0.00     0.154 C 
ATOM     15  C4  ZIN A   1      18.830   3.325  13.883  0.00  0.00     0.059 C 
ATOM     16  N3  ZIN A   1      19.254   4.332  14.548  0.00  0.00    -0.142 NA
ATOM     17  C26 ZIN A   1      18.046   2.139  14.415  0.00  0.00     0.076 C 
ATOM     18  C25 ZIN A   1      17.790   1.237  13.189  0.00  0.00     0.110 C 
BRANCH  16  19
ATOM     19  O2  ZIN A   1      19.976   5.360  13.895  0.00  0.00    -0.262 OA
ATOM     20  C1  ZIN A   1      20.695   6.220  14.782  0.00  0.00     0.240 C 
ENDBRANCH  16  19
BRANCH  17  21
ATOM     21  C28 ZIN A   1      18.858   1.384  15.468  0.00  0.00     0.241 C 
BRANCH  21  22
ATOM     22  N29 ZIN A   1      18.890   2.163  16.714  0.00  0.00    -0.079 N 
ATOM     23  H30 ZIN A   1      19.363   3.039  16.550  0.00  0.00     0.274 HD
ATOM     24  H31 ZIN A   1      17.946   2.343  17.021  0.00  0.00     0.274 HD
ATOM     25  H32 ZIN A   1      19.382   1.642  17.423  0.00  0.00     0.274 HD
ENDBRANCH  21  22
ENDBRANCH  17  21
ENDBRANCH   1  13
BRANCH  12  26
ATOM     26  C22 ZIN A   1      18.433  -2.586  11.193  0.00  0.00     0.091 A 
ATOM     27  C24 ZIN A   1      18.718  -4.086  11.291  0.00  0.00     0.028 A 
ATOM     28  C23 ZIN A   1      17.274  -3.579  11.307  0.00  0.00     0.028 A 
ENDBRANCH  12  26
BRANCH  10  29
ATOM     29  C17 ZIN A   1      19.432  -3.058   6.440  0.00  0.00     0.214 C 
ATOM     30  O18 ZIN A   1      18.638  -3.149   5.513  0.00  0.00    -0.644 OA
ATOM     31  O19 ZIN A   1      20.475  -3.699   6.418  0.00  0.00    -0.644 OA
ENDBRANCH  10  29
TORSDOF 6
ENDMDL
MODEL 6
REMARK VINA RESULT:      -7.9      1.532      1.860
REMARK  6 active torsions:
REMARK  status: ('A' for Active; 'I' for Inactive)
REMARK    1  A    between atoms: O2_2  and  N3_3 
REMARK    2  A    between atoms: N6_6  and  C7_7 
REMARK    3  A    between atoms: C16_16  and  C17_17 
REMARK    4  A    between atoms: N21_21  and  C22_22 
REMARK    5  A    between atoms: C26_26  and  C28_27 
REMARK    6  A    between atoms: C28_27  and  N29_28 
ROOT
ATOM      1  C7  ZIN A   1      17.794  -0.359  11.818  0.00  0.00     0.147 A 
ATOM      2  N8  ZIN A   1      18.052   0.842  12.308  0.00  0.00    -0.215 NA
ATOM      3  C9  ZIN A   1      18.306   1.025  13.599  0.00  0.00     0.146 A 
ATOM      4  C10 ZIN A   1      18.302  -0.076  14.472  0.00  0.00     0.064 A 
ATOM      5  C11 ZIN A   1      18.032  -1.357  13.975  0.00  0.00     0.065 A 
ATOM      6  C12 ZIN A   1      17.772  -1.492  12.638  0.00  0.00     0.157 A 
ATOM      7  F13 ZIN A   1      17.506  -2.709  12.114  0.00  0.00    -0.203 F 
ATOM      8  C14 ZIN A   1      18.586   0.146  15.898  0.00  0.00     0.204 A 
ATOM      9  O15 ZIN A   1      18.595  -0.775  16.695  0.00  0.00    -0.286 OA
ATOM     10  C16 ZIN A   1      18.857   1.532  16.321  0.00  0.00     0.107 A 
ATOM     11  C20 ZIN A   1      18.833   2.534  15.370  0.00  0.00     0.115 A 
ATOM     12  N21 ZIN A   1      18.571   2.287  14.080  0.00  0.00    -0.335 N 
ENDROOT
BRANCH   1  13
ATOM     13  N6  ZIN A   1      17.536  -0.497  10.465  0.00  0.00    -0.259 NA
ATOM     14  C5  ZIN A   1      18.519  -1.410   9.824  0.00  0.00     0.154 C 
ATOM     15  C4  ZIN A   1      18.477  -1.055   8.348  0.00  0.00     0.059 C 
ATOM     16  N3  ZIN A   1      18.801  -1.805   7.364  0.00  0.00    -0.142 NA
ATOM     17  C26 ZIN A   1      17.980   0.378   8.283  0.00  0.00     0.076 C 
ATOM     18  C25 ZIN A   1      17.733   0.791   9.750  0.00  0.00     0.110 C 
BRANCH  16  19
ATOM     19  O2  ZIN A   1      19.250  -3.127   7.599  0.00  0.00    -0.262 OA
ATOM     20  C1  ZIN A   1      19.873  -3.740   6.468  0.00  0.00     0.240 C 
ENDBRANCH  16  19
BRANCH  17  21
ATOM     21  C28 ZIN A   1      19.034   1.287   7.647  0.00  0.00     0.241 C 
BRANCH  21  22
ATOM     22  N29 ZIN A   1      19.936   1.795   8.689  0.00  0.00    -0.079 N 
ATOM     23  H30 ZIN A   1      20.738   1.187   8.765  0.00  0.00     0.274 HD
ATOM     24  H31 ZIN A   1      20.242   2.725   8.444  0.00  0.00     0.274 HD
ATOM     25  H32 ZIN A   1      19.450   1.822   9.572  0.00  0.00     0.274 HD
ENDBRANCH  21  22
ENDBRANCH  17  21
ENDBRANCH   1  13
BRANCH  12  26
ATOM     26  C22 ZIN A   1      18.566   3.410  13.141  0.00  0.00     0.091 A 
ATOM     27  C24 ZIN A   1      18.934   4.791  13.688  0.00  0.00     0.028 A 
ATOM     28  C23 ZIN A   1      17.483   4.476  13.318  0.00  0.00     0.028 A 
ENDBRANCH  12  26
BRANCH  10  29
ATOM     29  C17 ZIN A   1      19.150   1.841  17.724  0.00  0.00     0.214 C 
ATOM     30  O18 ZIN A   1      19.948   1.155  18.349  0.00  0.00    -0.644 OA
ATOM     31  O19 ZIN A   1      18.594   2.785  18.272  0.00  0.00    -0.644 OA
ENDBRANCH  10  29
TORSDOF 6
ENDMDL
MODEL 7
REMARK VINA RESULT:      -7.8      2.510      8.027
REMARK  6 active torsions:
REMARK  status: ('A' for Active; 'I' for Inactive)
REMARK    1  A    between atoms: O2_2  and  N3_3 
REMARK    2  A    between atoms: N6_6  and  C7_7 
REMARK    3  A    between atoms: C16_16  and  C17_17 
REMARK    4  A    between atoms: N21_21  and  C22_22 
REMARK    5  A    between atoms: C26_26  and  C28_27 
REMARK    6  A    between atoms: C28_27  and  N29_28 
ROOT
ATOM      1  C7  ZIN A   1      19.327   1.206  10.919  0.00  0.00     0.147 A 
ATOM      2  N8  ZIN A   1      19.265  -0.038  10.477  0.00  0.00    -0.215 NA
ATOM      3  C9  ZIN A   1      19.137  -0.311   9.184  0.00  0.00     0.146 A 
ATOM      4  C10 ZIN A   1      19.063   0.741   8.255  0.00  0.00     0.064 A 
ATOM      5  C11 ZIN A   1      19.127   2.068   8.699  0.00  0.00     0.065 A 
ATOM      6  C12 ZIN A   1      19.254   2.295  10.044  0.00  0.00     0.157 A 
ATOM      7  F13 ZIN A   1      19.320   3.558  10.519  0.00  0.00    -0.203 F 
ATOM      8  C14 ZIN A   1      18.921   0.420   6.827  0.00  0.00     0.204 A 
ATOM      9  O15 ZIN A   1      18.854   1.295   5.982  0.00  0.00    -0.286 OA
ATOM     10  C16 ZIN A   1      18.864  -1.007   6.462  0.00  0.00     0.107 A 
ATOM     11  C20 ZIN A   1      18.946  -1.954   7.464  0.00  0.00     0.115 A 
ATOM     12  N21 ZIN A   1      19.076  -1.618   8.754  0.00  0.00    -0.335 N 
ENDROOT
BRANCH   1  13
ATOM     13  N6  ZIN A   1      19.461   1.438  12.278  0.00  0.00    -0.259 NA
ATOM     14  C5  ZIN A   1      18.427   0.700  13.049  0.00  0.00     0.154 C 
ATOM     15  C4  ZIN A   1      18.331   1.434  14.375  0.00  0.00     0.059 C 
ATOM     16  N3  ZIN A   1      17.921   0.961  15.491  0.00  0.00    -0.142 NA
ATOM     17  C26 ZIN A   1      18.815   2.846  14.101  0.00  0.00     0.076 C 
ATOM     18  C25 ZIN A   1      19.194   2.863  12.604  0.00  0.00     0.110 C 
BRANCH  16  19
ATOM     19  O2  ZIN A   1      17.501  -0.388  15.578  0.00  0.00    -0.262 OA
ATOM     20  C1  ZIN A   1      18.399  -1.231  16.302  0.00  0.00     0.240 C 
ENDBRANCH  16  19
BRANCH  17  21
ATOM     21  C28 ZIN A   1      17.704   3.861  14.378  0.00  0.00     0.241 C 
BRANCH  21  22
ATOM     22  N29 ZIN A   1      17.659   4.158  15.816  0.00  0.00    -0.079 N 
ATOM     23  H30 ZIN A   1      17.259   5.074  15.957  0.00  0.00     0.274 HD
ATOM     24  H31 ZIN A   1      17.090   3.467  16.283  0.00  0.00     0.274 HD
ATOM     25  H32 ZIN A   1      18.593   4.136  16.193  0.00  0.00     0.274 HD
ENDBRANCH  21  22
ENDBRANCH  17  21
ENDBRANCH   1  13
BRANCH  12  26
ATOM     26  C22 ZIN A   1      19.155  -2.687   9.751  0.00  0.00     0.091 A 
ATOM     27  C24 ZIN A   1      18.688  -4.082   9.330  0.00  0.00     0.028 A 
ATOM     28  C23 ZIN A   1      17.839  -3.249  10.292  0.00  0.00     0.028 A 
ENDBRANCH  12  26
BRANCH  10  29
ATOM     29  C17 ZIN A   1      18.723  -1.414   5.060  0.00  0.00     0.214 C 
ATOM     30  O18 ZIN A   1      19.717  -1.682   4.398  0.00  0.00    -0.644 OA
ATOM     31  O19 ZIN A   1      17.611  -1.486   4.552  0.00  0.00    -0.644 OA
ENDBRANCH  10  29
TORSDOF 6
ENDMDL
MODEL 8
REMARK VINA RESULT:      -7.7      3.279      4.993
REMARK  6 active torsions:
REMARK  status: ('A' for Active; 'I' for Inactive)
REMARK    1  A    between atoms: O2_2  and  N3_3 
REMARK    2  A    between atoms: N6_6  and  C7_7 
REMARK    3  A    between atoms: C16_16  and  C17_17 
REMARK    4  A    between atoms: N21_21  and  C22_22 
REMARK    5  A    between atoms: C26_26  and  C28_27 
REMARK    6  A    between atoms: C28_27  and  N29_28 
ROOT
ATOM      1  C7  ZIN A   1      17.654  -3.522   9.860  0.00  0.00     0.147 A 
ATOM      2  N8  ZIN A   1      17.801  -2.510   9.022  0.00  0.00    -0.215 NA
ATOM      3  C9  ZIN A   1      17.879  -1.256   9.454  0.00  0.00     0.146 A 
ATOM      4  C10 ZIN A   1      17.803  -0.989  10.831  0.00  0.00     0.064 A 
ATOM      5  C11 ZIN A   1      17.647  -2.045  11.738  0.00  0.00     0.065 A 
ATOM      6  C12 ZIN A   1      17.567  -3.319  11.240  0.00  0.00     0.157 A 
ATOM      7  F13 ZIN A   1      17.416  -4.369  12.077  0.00  0.00    -0.203 F 
ATOM      8  C14 ZIN A   1      17.891   0.405  11.291  0.00  0.00     0.204 A 
ATOM      9  O15 ZIN A   1      17.831   0.689  12.474  0.00  0.00    -0.286 OA
ATOM     10  C16 ZIN A   1      18.055   1.444  10.258  0.00  0.00     0.107 A 
ATOM     11  C20 ZIN A   1      18.117   1.060   8.933  0.00  0.00     0.115 A 
ATOM     12  N21 ZIN A   1      18.033  -0.223   8.557  0.00  0.00    -0.335 N 
ENDROOT
BRANCH   1  13
ATOM     13  N6  ZIN A   1      17.578  -4.811   9.359  0.00  0.00    -0.259 NA
ATOM     14  C5  ZIN A   1      17.677  -4.814   7.876  0.00  0.00     0.154 C 
ATOM     15  C4  ZIN A   1      17.053  -6.130   7.446  0.00  0.00     0.059 C 
ATOM     16  N3  ZIN A   1      17.273  -6.770   6.360  0.00  0.00    -0.142 NA
ATOM     17  C26 ZIN A   1      16.108  -6.524   8.566  0.00  0.00     0.076 C 
ATOM     18  C25 ZIN A   1      16.242  -5.408   9.624  0.00  0.00     0.110 C 
BRANCH  16  19
ATOM     19  O2  ZIN A   1      18.192  -6.261   5.411  0.00  0.00    -0.262 OA
ATOM     20  C1  ZIN A   1      17.762  -6.395   4.055  0.00  0.00     0.240 C 
ENDBRANCH  16  19
BRANCH  17  21
ATOM     21  C28 ZIN A   1      14.667  -6.600   8.056  0.00  0.00     0.241 C 
BRANCH  21  22
ATOM     22  N29 ZIN A   1      14.455  -7.885   7.377  0.00  0.00    -0.079 N 
ATOM     23  H30 ZIN A   1      13.531  -8.230   7.593  0.00  0.00     0.274 HD
ATOM     24  H31 ZIN A   1      14.541  -7.756   6.380  0.00  0.00     0.274 HD
ATOM     25  H32 ZIN A   1      15.145  -8.550   7.691  0.00  0.00     0.274 HD
ENDBRANCH  21  22
ENDBRANCH  17  21
ENDBRANCH   1  13
BRANCH  12  26
ATOM     26  C22 ZIN A   1      18.109  -0.540   7.130  0.00  0.00     0.091 A 
ATOM     27  C24 ZIN A   1      18.409   0.610   6.166  0.00  0.00     0.028 A 
ATOM     28  C23 ZIN A   1      17.003   0.008   6.224  0.00  0.00     0.028 A 
ENDBRANCH  12  26
BRANCH  10  29
ATOM     29  C17 ZIN A   1      18.151   2.859  10.631  0.00  0.00     0.214 C 
ATOM     30  O18 ZIN A   1      17.135   3.534  10.741  0.00  0.00    -0.644 OA
ATOM     31  O19 ZIN A   1      19.248   3.366  10.831  0.00  0.00    -0.644 OA
ENDBRANCH  10  29
TORSDOF 6
ENDMDL
MODEL 9
REMARK VINA RESULT:      -7.7      2.511      7.716
REMARK  6 active torsions:
REMARK  status: ('A' for Active; 'I' for Inactive)
REMARK    1  A    between atoms: O2_2  and  N3_3 
REMARK    2  A    between atoms: N6_6  and  C7_7 
REMARK    3  A    between atoms: C16_16  and  C17_17 
REMARK    4  A    between atoms: N21_21  and  C22_22 
REMARK    5  A    between atoms: C26_26  and  C28_27 
REMARK    6  A    between atoms: C28_27  and  N29_28 
ROOT
ATOM      1  C7  ZIN A   1      19.132   1.450   9.443  0.00  0.00     0.147 A 
ATOM      2  N8  ZIN A   1      19.194   0.235   9.961  0.00  0.00    -0.215 NA
ATOM      3  C9  ZIN A   1      19.087  -0.850   9.203  0.00  0.00     0.146 A 
ATOM      4  C10 ZIN A   1      18.902  -0.714   7.817  0.00  0.00     0.064 A 
ATOM      5  C11 ZIN A   1      18.834   0.563   7.245  0.00  0.00     0.065 A 
ATOM      6  C12 ZIN A   1      18.945   1.649   8.072  0.00  0.00     0.157 A 
ATOM      7  F13 ZIN A   1      18.885   2.901   7.565  0.00  0.00    -0.203 F 
ATOM      8  C14 ZIN A   1      18.785  -1.926   6.992  0.00  0.00     0.204 A 
ATOM      9  O15 ZIN A   1      18.625  -1.862   5.786  0.00  0.00    -0.286 OA
ATOM     10  C16 ZIN A   1      18.871  -3.222   7.689  0.00  0.00     0.107 A 
ATOM     11  C20 ZIN A   1      19.054  -3.231   9.058  0.00  0.00     0.115 A 
ATOM     12  N21 ZIN A   1      19.156  -2.101   9.771  0.00  0.00    -0.335 N 
ENDROOT
BRANCH   1  13
ATOM     13  N6  ZIN A   1      19.249   2.550  10.277  0.00  0.00    -0.259 NA
ATOM     14  C5  ZIN A   1      18.996   2.175  11.693  0.00  0.00     0.154 C 
ATOM     15  C4  ZIN A   1      18.620   3.476  12.380  0.00  0.00     0.059 C 
ATOM     16  N3  ZIN A   1      18.726   3.750  13.625  0.00  0.00    -0.142 NA
ATOM     17  C26 ZIN A   1      18.085   4.381  11.285  0.00  0.00     0.076 C 
ATOM     18  C25 ZIN A   1      18.195   3.556   9.984  0.00  0.00     0.110 C 
BRANCH  16  19
ATOM     19  O2  ZIN A   1      19.249   2.787  14.521  0.00  0.00    -0.262 OA
ATOM     20  C1  ZIN A   1      19.224   3.192  15.891  0.00  0.00     0.240 C 
ENDBRANCH  16  19
BRANCH  17  21
ATOM     21  C28 ZIN A   1      16.626   4.752  11.555  0.00  0.00     0.241 C 
BRANCH  21  22
ATOM     22  N29 ZIN A   1      16.559   5.685  12.688  0.00  0.00    -0.079 N 
ATOM     23  H30 ZIN A   1      15.698   6.209  12.641  0.00  0.00     0.274 HD
ATOM     24  H31 ZIN A   1      16.590   5.166  13.553  0.00  0.00     0.274 HD
ATOM     25  H32 ZIN A   1      17.342   6.319  12.648  0.00  0.00     0.274 HD
ENDBRANCH  21  22
ENDBRANCH  17  21
ENDBRANCH   1  13
BRANCH  12  26
ATOM     26  C22 ZIN A   1      19.350  -2.204  11.219  0.00  0.00     0.091 A 
ATOM     27  C24 ZIN A   1      19.146  -3.576  11.864  0.00  0.00     0.028 A 
ATOM     28  C23 ZIN A   1      18.113  -2.469  12.080  0.00  0.00     0.028 A 
ENDBRANCH  12  26
BRANCH  10  29
ATOM     29  C17 ZIN A   1      18.764  -4.480   6.942  0.00  0.00     0.214 C 
ATOM     30  O18 ZIN A   1      17.663  -4.938   6.668  0.00  0.00    -0.644 OA
ATOM     31  O19 ZIN A   1      19.778  -5.073   6.593  0.00  0.00    -0.644 OA
ENDBRANCH  10  29
TORSDOF 6
ENDMDL
