MODEL 1
REMARK VINA RESULT:      -7.7      0.000      0.000
REMARK  8 active torsions:
REMARK  status: ('A' for Active; 'I' for Inactive)
REMARK    1  A    between atoms: C2_2  and  N4_4 
REMARK    2  A    between atoms: N4_4  and  C6_6 
REMARK    3  A    between atoms: N4_4  and  C24_24 
REMARK    4  A    between atoms: C6_6  and  C7_7 
REMARK    5  A    between atoms: C7_7  and  C8_8 
REMARK    6  A    between atoms: C8_8  and  C9_9 
REMARK    7  A    between atoms: C8_8  and  C12_12 
REMARK    8  A    between atoms: C8_8  and  C18_18 
REMARK       I    between atoms: C9_9  and  N10_10 
ROOT
ATOM      1  C8  ZIN A   1      18.837  -0.500  12.737  0.00  0.00     0.113 C 
ENDROOT
BRANCH   1   2
ATOM      2  C7  ZIN A   1      17.847   0.464  12.082  0.00  0.00     0.058 C 
BRANCH   2   3
ATOM      3  C6  ZIN A   1      18.609   1.645  11.476  0.00  0.00     0.237 C 
BRANCH   3   4
ATOM      4  N4  ZIN A   1      18.021   2.903  11.955  0.00  0.00    -0.064 N 
ATOM      5  H5  ZIN A   1      17.051   2.754  12.189  0.00  0.00     0.280 HD
BRANCH   4   6
ATOM      6  C2  ZIN A   1      18.121   3.922  10.902  0.00  0.00     0.180 C 
ATOM      7  C1  ZIN A   1      18.421   3.245   9.564  0.00  0.00     0.039 C 
ATOM      8  C3  ZIN A   1      16.798   4.684  10.804  0.00  0.00     0.039 C 
ENDBRANCH   4   6
BRANCH   4   9
ATOM      9  C24 ZIN A   1      18.747   3.360  13.149  0.00  0.00     0.180 C 
ATOM     10  C25 ZIN A   1      19.702   4.491  12.763  0.00  0.00     0.039 C 
ATOM     11  C26 ZIN A   1      17.746   3.868  14.189  0.00  0.00     0.039 C 
ENDBRANCH   4   9
ENDBRANCH   3   4
ENDBRANCH   2   3
ENDBRANCH   1   2
BRANCH   1  12
ATOM     12  C9  ZIN A   1      20.242   0.001  12.521  0.00  0.00     0.234 C 
ATOM     13  N10 ZIN A   1      20.856  -0.200  11.338  0.00  0.00    -0.369 N 
ATOM     14  H38 ZIN A   1      20.373  -0.616  10.606  0.00  0.00     0.159 HD
ATOM     15  H39 ZIN A   1      21.779   0.069  11.218  0.00  0.00     0.159 HD
ATOM     16  O11 ZIN A   1      20.821   0.585  13.412  0.00  0.00    -0.272 OA
ENDBRANCH   1  12
BRANCH   1  17
ATOM     17  C12 ZIN A   1      18.555  -0.584  14.214  0.00  0.00    -0.034 A 
ATOM     18  C17 ZIN A   1      19.257  -1.476  15.003  0.00  0.00     0.009 A 
ATOM     19  C16 ZIN A   1      19.001  -1.549  16.359  0.00  0.00     0.001 A 
ATOM     20  C15 ZIN A   1      18.037  -0.737  16.926  0.00  0.00     0.000 A 
ATOM     21  C14 ZIN A   1      17.331   0.152  16.136  0.00  0.00     0.001 A 
ATOM     22  C13 ZIN A   1      17.590   0.228  14.780  0.00  0.00     0.009 A 
ENDBRANCH   1  17
BRANCH   1  23
ATOM     23  C18 ZIN A   1      18.692  -1.867  12.119  0.00  0.00     0.056 A 
ATOM     24  N23 ZIN A   1      19.727  -2.685  12.096  0.00  0.00    -0.264 NA
ATOM     25  C22 ZIN A   1      19.645  -3.891  11.570  0.00  0.00     0.117 A 
ATOM     26  C21 ZIN A   1      18.464  -4.340  11.011  0.00  0.00     0.019 A 
ATOM     27  C20 ZIN A   1      17.355  -3.507  11.013  0.00  0.00     0.003 A 
ATOM     28  C19 ZIN A   1      17.478  -2.247  11.578  0.00  0.00     0.029 A 
ENDBRANCH   1  23
TORSDOF 8
ENDMDL
MODEL 2
REMARK VINA RESULT:      -7.7      0.986      1.934
REMARK  8 active torsions:
REMARK  status: ('A' for Active; 'I' for Inactive)
REMARK    1  A    between atoms: C2_2  and  N4_4 
REMARK    2  A    between atoms: N4_4  and  C6_6 
REMARK    3  A    between atoms: N4_4  and  C24_24 
REMARK    4  A    between atoms: C6_6  and  C7_7 
REMARK    5  A    between atoms: C7_7  and  C8_8 
REMARK    6  A    between atoms: C8_8  and  C9_9 
REMARK    7  A    between atoms: C8_8  and  C12_12 
REMARK    8  A    between atoms: C8_8  and  C18_18 
REMARK       I    between atoms: C9_9  and  N10_10 
ROOT
ATOM      1  C8  ZIN A   1      18.828  -0.719  12.683  0.00  0.00     0.113 C 
ENDROOT
BRANCH   1   2
ATOM      2  C7  ZIN A   1      17.773   0.141  11.984  0.00  0.00     0.058 C 
BRANCH   2   3
ATOM      3  C6  ZIN A   1      18.299   1.570  11.831  0.00  0.00     0.237 C 
BRANCH   3   4
ATOM      4  N4  ZIN A   1      17.923   2.091  10.510  0.00  0.00    -0.064 N 
ATOM      5  H5  ZIN A   1      16.917   2.090  10.422  0.00  0.00     0.280 HD
BRANCH   4   6
ATOM      6  C2  ZIN A   1      18.508   1.242   9.464  0.00  0.00     0.180 C 
ATOM      7  C1  ZIN A   1      17.416   0.368   8.846  0.00  0.00     0.039 C 
ATOM      8  C3  ZIN A   1      19.130   2.126   8.380  0.00  0.00     0.039 C 
ENDBRANCH   4   6
BRANCH   4   9
ATOM      9  C24 ZIN A   1      18.425   3.464  10.364  0.00  0.00     0.180 C 
ATOM     10  C25 ZIN A   1      17.263   4.449  10.498  0.00  0.00     0.039 C 
ATOM     11  C26 ZIN A   1      19.462   3.745  11.453  0.00  0.00     0.039 C 
ENDBRANCH   4   9
ENDBRANCH   3   4
ENDBRANCH   2   3
ENDBRANCH   1   2
BRANCH   1  12
ATOM     12  C9  ZIN A   1      20.195  -0.132  12.439  0.00  0.00     0.234 C 
ATOM     13  N10 ZIN A   1      20.824  -0.349  11.268  0.00  0.00    -0.369 N 
ATOM     14  H38 ZIN A   1      20.373  -0.835  10.558  0.00  0.00     0.159 HD
ATOM     15  H39 ZIN A   1      21.726  -0.022  11.133  0.00  0.00     0.159 HD
ATOM     16  O11 ZIN A   1      20.729   0.537  13.299  0.00  0.00    -0.272 OA
ENDBRANCH   1  12
BRANCH   1  17
ATOM     17  C12 ZIN A   1      18.551  -0.750  14.163  0.00  0.00    -0.034 A 
ATOM     18  C17 ZIN A   1      17.535   0.022  14.694  0.00  0.00     0.009 A 
ATOM     19  C16 ZIN A   1      17.278  -0.011  16.051  0.00  0.00     0.001 A 
ATOM     20  C15 ZIN A   1      18.042  -0.810  16.880  0.00  0.00     0.000 A 
ATOM     21  C14 ZIN A   1      19.061  -1.580  16.350  0.00  0.00     0.001 A 
ATOM     22  C13 ZIN A   1      19.315  -1.550  14.992  0.00  0.00     0.009 A 
ENDBRANCH   1  17
BRANCH   1  23
ATOM     23  C18 ZIN A   1      18.779  -2.121  12.133  0.00  0.00     0.056 A 
ATOM     24  N23 ZIN A   1      19.890  -2.828  12.053  0.00  0.00    -0.264 NA
ATOM     25  C22 ZIN A   1      19.895  -4.060  11.582  0.00  0.00     0.117 A 
ATOM     26  C21 ZIN A   1      18.727  -4.654  11.144  0.00  0.00     0.019 A 
ATOM     27  C20 ZIN A   1      17.540  -3.940  11.208  0.00  0.00     0.003 A 
ATOM     28  C19 ZIN A   1      17.574  -2.648  11.712  0.00  0.00     0.029 A 
ENDBRANCH   1  23
TORSDOF 8
ENDMDL
MODEL 3
REMARK VINA RESULT:      -7.6      1.616      5.461
REMARK  8 active torsions:
REMARK  status: ('A' for Active; 'I' for Inactive)
REMARK    1  A    between atoms: C2_2  and  N4_4 
REMARK    2  A    between atoms: N4_4  and  C6_6 
REMARK    3  A    between atoms: N4_4  and  C24_24 
REMARK    4  A    between atoms: C6_6  and  C7_7 
REMARK    5  A    between atoms: C7_7  and  C8_8 
REMARK    6  A    between atoms: C8_8  and  C9_9 
REMARK    7  A    between atoms: C8_8  and  C12_12 
REMARK    8  A    between atoms: C8_8  and  C18_18 
REMARK       I    between atoms: C9_9  and  N10_10 
ROOT
ATOM      1  C8  ZIN A   1      18.991   0.461  11.552  0.00  0.00     0.113 C 
ENDROOT
BRANCH   1   2
ATOM      2  C7  ZIN A   1      18.049  -0.243  10.574  0.00  0.00     0.058 C 
BRANCH   2   3
ATOM      3  C6  ZIN A   1      17.822  -1.685  11.033  0.00  0.00     0.237 C 
BRANCH   3   4
ATOM      4  N4  ZIN A   1      18.649  -2.591  10.224  0.00  0.00    -0.064 N 
ATOM      5  H5  ZIN A   1      19.557  -2.176  10.076  0.00  0.00     0.280 HD
BRANCH   4   6
ATOM      6  C2  ZIN A   1      17.999  -2.822   8.928  0.00  0.00     0.180 C 
ATOM      7  C1  ZIN A   1      18.961  -2.447   7.800  0.00  0.00     0.039 C 
ATOM      8  C3  ZIN A   1      17.619  -4.300   8.805  0.00  0.00     0.039 C 
ENDBRANCH   4   6
BRANCH   4   9
ATOM      9  C24 ZIN A   1      18.806  -3.872  10.928  0.00  0.00     0.180 C 
ATOM     10  C25 ZIN A   1      20.243  -4.004  11.433  0.00  0.00     0.039 C 
ATOM     11  C26 ZIN A   1      17.840  -3.922  12.114  0.00  0.00     0.039 C 
ENDBRANCH   4   9
ENDBRANCH   3   4
ENDBRANCH   2   3
ENDBRANCH   1   2
BRANCH   1  12
ATOM     12  C9  ZIN A   1      20.420   0.157  11.179  0.00  0.00     0.234 C 
ATOM     13  N10 ZIN A   1      21.424   0.530  11.995  0.00  0.00    -0.369 N 
ATOM     14  H38 ZIN A   1      21.226   0.942  12.852  0.00  0.00     0.159 HD
ATOM     15  H39 ZIN A   1      22.345   0.388  11.729  0.00  0.00     0.159 HD
ATOM     16  O11 ZIN A   1      20.665  -0.422  10.142  0.00  0.00    -0.272 OA
ENDBRANCH   1  12
BRANCH   1  17
ATOM     17  C12 ZIN A   1      18.761   1.948  11.491  0.00  0.00    -0.034 A 
ATOM     18  C17 ZIN A   1      19.423   2.788  12.366  0.00  0.00     0.009 A 
ATOM     19  C16 ZIN A   1      19.215   4.153  12.306  0.00  0.00     0.001 A 
ATOM     20  C15 ZIN A   1      18.337   4.678  11.376  0.00  0.00     0.000 A 
ATOM     21  C14 ZIN A   1      17.672   3.838  10.503  0.00  0.00     0.001 A 
ATOM     22  C13 ZIN A   1      17.883   2.473  10.560  0.00  0.00     0.009 A 
ENDBRANCH   1  17
BRANCH   1  23
ATOM     23  C18 ZIN A   1      18.724  -0.031  12.951  0.00  0.00     0.056 A 
ATOM     24  N23 ZIN A   1      19.515  -0.943  13.484  0.00  0.00    -0.264 NA
ATOM     25  C22 ZIN A   1      19.322  -1.400  14.706  0.00  0.00     0.117 A 
ATOM     26  C21 ZIN A   1      18.268  -0.942  15.473  0.00  0.00     0.019 A 
ATOM     27  C20 ZIN A   1      17.412   0.013  14.946  0.00  0.00     0.003 A 
ATOM     28  C19 ZIN A   1      17.649   0.473  13.659  0.00  0.00     0.029 A 
ENDBRANCH   1  23
TORSDOF 8
ENDMDL
MODEL 4
REMARK VINA RESULT:      -7.6      2.320      6.822
REMARK  8 active torsions:
REMARK  status: ('A' for Active; 'I' for Inactive)
REMARK    1  A    between atoms: C2_2  and  N4_4 
REMARK    2  A    between atoms: N4_4  and  C6_6 
REMARK    3  A    between atoms: N4_4  and  C24_24 
REMARK    4  A    between atoms: C6_6  and  C7_7 
REMARK    5  A    between atoms: C7_7  and  C8_8 
REMARK    6  A    between atoms: C8_8  and  C9_9 
REMARK    7  A    between atoms: C8_8  and  C12_12 
REMARK    8  A    between atoms: C8_8  and  C18_18 
REMARK       I    between atoms: C9_9  and  N10_10 
ROOT
ATOM      1  C8  ZIN A   1      18.316   0.847   9.991  0.00  0.00     0.113 C 
ENDROOT
BRANCH   1   2
ATOM      2  C7  ZIN A   1      17.312  -0.109  10.639  0.00  0.00     0.058 C 
BRANCH   2   3
ATOM      3  C6  ZIN A   1      18.014  -0.928  11.724  0.00  0.00     0.237 C 
BRANCH   3   4
ATOM      4  N4  ZIN A   1      18.516  -2.181  11.144  0.00  0.00    -0.064 N 
ATOM      5  H5  ZIN A   1      19.189  -1.971  10.422  0.00  0.00     0.280 HD
BRANCH   4   6
ATOM      6  C2  ZIN A   1      17.396  -2.936  10.567  0.00  0.00     0.180 C 
ATOM      7  C1  ZIN A   1      17.790  -3.454   9.183  0.00  0.00     0.039 C 
ATOM      8  C3  ZIN A   1      17.058  -4.119  11.477  0.00  0.00     0.039 C 
ENDBRANCH   4   6
BRANCH   4   9
ATOM      9  C24 ZIN A   1      19.158  -2.984  12.194  0.00  0.00     0.180 C 
ATOM     10  C25 ZIN A   1      20.465  -3.571  11.659  0.00  0.00     0.039 C 
ATOM     11  C26 ZIN A   1      19.455  -2.096  13.405  0.00  0.00     0.039 C 
ENDBRANCH   4   9
ENDBRANCH   3   4
ENDBRANCH   2   3
ENDBRANCH   1   2
BRANCH   1  12
ATOM     12  C9  ZIN A   1      19.708   0.500  10.453  0.00  0.00     0.234 C 
ATOM     13  N10 ZIN A   1      20.282   1.199  11.451  0.00  0.00    -0.369 N 
ATOM     14  H38 ZIN A   1      19.777   1.888  11.913  0.00  0.00     0.159 HD
ATOM     15  H39 ZIN A   1      21.198   1.015  11.709  0.00  0.00     0.159 HD
ATOM     16  O11 ZIN A   1      20.313  -0.409   9.924  0.00  0.00    -0.272 OA
ENDBRANCH   1  12
BRANCH   1  17
ATOM     17  C12 ZIN A   1      18.237   0.719   8.492  0.00  0.00    -0.034 A 
ATOM     18  C17 ZIN A   1      17.238  -0.041   7.914  0.00  0.00     0.009 A 
ATOM     19  C16 ZIN A   1      17.162  -0.155   6.539  0.00  0.00     0.001 A 
ATOM     20  C15 ZIN A   1      18.092   0.485   5.741  0.00  0.00     0.000 A 
ATOM     21  C14 ZIN A   1      19.094   1.243   6.319  0.00  0.00     0.001 A 
ATOM     22  C13 ZIN A   1      19.166   1.360   7.694  0.00  0.00     0.009 A 
ENDBRANCH   1  17
BRANCH   1  23
ATOM     23  C18 ZIN A   1      17.993   2.263  10.392  0.00  0.00     0.056 A 
ATOM     24  N23 ZIN A   1      17.500   2.505  11.592  0.00  0.00    -0.264 NA
ATOM     25  C22 ZIN A   1      17.207   3.728  11.987  0.00  0.00     0.117 A 
ATOM     26  C21 ZIN A   1      17.398   4.807  11.146  0.00  0.00     0.019 A 
ATOM     27  C20 ZIN A   1      17.910   4.592   9.876  0.00  0.00     0.003 A 
ATOM     28  C19 ZIN A   1      18.210   3.293   9.497  0.00  0.00     0.029 A 
ENDBRANCH   1  23
TORSDOF 8
ENDMDL
MODEL 5
REMARK VINA RESULT:      -7.5      2.065      6.588
REMARK  8 active torsions:
REMARK  status: ('A' for Active; 'I' for Inactive)
REMARK    1  A    between atoms: C2_2  and  N4_4 
REMARK    2  A    between atoms: N4_4  and  C6_6 
REMARK    3  A    between atoms: N4_4  and  C24_24 
REMARK    4  A    between atoms: C6_6  and  C7_7 
REMARK    5  A    between atoms: C7_7  and  C8_8 
REMARK    6  A    between atoms: C8_8  and  C9_9 
REMARK    7  A    between atoms: C8_8  and  C12_12 
REMARK    8  A    between atoms: C8_8  and  C18_18 
REMARK       I    between atoms: C9_9  and  N10_10 
ROOT
ATOM      1  C8  ZIN A   1      18.397   1.338  10.514  0.00  0.00     0.113 C 
ENDROOT
BRANCH   1   2
ATOM      2  C7  ZIN A   1      17.509   0.357  11.282  0.00  0.00     0.058 C 
BRANCH   2   3
ATOM      3  C6  ZIN A   1      17.981   0.274  12.736  0.00  0.00     0.237 C 
BRANCH   3   4
ATOM      4  N4  ZIN A   1      17.984  -1.130  13.169  0.00  0.00    -0.064 N 
ATOM      5  H5  ZIN A   1      17.062  -1.386  13.488  0.00  0.00     0.280 HD
BRANCH   4   6
ATOM      6  C2  ZIN A   1      18.948  -1.303  14.263  0.00  0.00     0.180 C 
ATOM      7  C1  ZIN A   1      19.776  -0.026  14.420  0.00  0.00     0.039 C 
ATOM      8  C3  ZIN A   1      18.194  -1.584  15.565  0.00  0.00     0.039 C 
ENDBRANCH   4   6
BRANCH   4   9
ATOM      9  C24 ZIN A   1      18.368  -1.990  12.040  0.00  0.00     0.180 C 
ATOM     10  C25 ZIN A   1      19.700  -2.674  12.349  0.00  0.00     0.039 C 
ATOM     11  C26 ZIN A   1      17.288  -3.051  11.819  0.00  0.00     0.039 C 
ENDBRANCH   4   9
ENDBRANCH   3   4
ENDBRANCH   2   3
ENDBRANCH   1   2
BRANCH   1  12
ATOM     12  C9  ZIN A   1      19.825   1.189  10.975  0.00  0.00     0.234 C 
ATOM     13  N10 ZIN A   1      20.420   2.185  11.659  0.00  0.00    -0.369 N 
ATOM     14  H38 ZIN A   1      19.912   2.975  11.906  0.00  0.00     0.159 HD
ATOM     15  H39 ZIN A   1      21.355   2.115  11.905  0.00  0.00     0.159 HD
ATOM     16  O11 ZIN A   1      20.438   0.172  10.729  0.00  0.00    -0.272 OA
ENDBRANCH   1  12
BRANCH   1  17
ATOM     17  C12 ZIN A   1      18.312   1.044   9.039  0.00  0.00    -0.034 A 
ATOM     18  C17 ZIN A   1      17.397   0.121   8.569  0.00  0.00     0.009 A 
ATOM     19  C16 ZIN A   1      17.315  -0.145   7.215  0.00  0.00     0.001 A 
ATOM     20  C15 ZIN A   1      18.155   0.506   6.331  0.00  0.00     0.000 A 
ATOM     21  C14 ZIN A   1      19.074   1.426   6.802  0.00  0.00     0.001 A 
ATOM     22  C13 ZIN A   1      19.152   1.695   8.155  0.00  0.00     0.009 A 
ENDBRANCH   1  17
BRANCH   1  23
ATOM     23  C18 ZIN A   1      17.931   2.747  10.773  0.00  0.00     0.056 A 
ATOM     24  N23 ZIN A   1      17.444   3.065  11.957  0.00  0.00    -0.264 NA
ATOM     25  C22 ZIN A   1      17.028   4.286  12.230  0.00  0.00     0.117 A 
ATOM     26  C21 ZIN A   1      17.079   5.281  11.273  0.00  0.00     0.019 A 
ATOM     27  C20 ZIN A   1      17.581   4.983  10.015  0.00  0.00     0.003 A 
ATOM     28  C19 ZIN A   1      18.012   3.689   9.766  0.00  0.00     0.029 A 
ENDBRANCH   1  23
TORSDOF 8
ENDMDL
MODEL 6
REMARK VINA RESULT:      -7.5      1.772      3.950
REMARK  8 active torsions:
REMARK  status: ('A' for Active; 'I' for Inactive)
REMARK    1  A    between atoms: C2_2  and  N4_4 
REMARK    2  A    between atoms: N4_4  and  C6_6 
REMARK    3  A    between atoms: N4_4  and  C24_24 
REMARK    4  A    between atoms: C6_6  and  C7_7 
REMARK    5  A    between atoms: C7_7  and  C8_8 
REMARK    6  A    between atoms: C8_8  and  C9_9 
REMARK    7  A    between atoms: C8_8  and  C12_12 
REMARK    8  A    between atoms: C8_8  and  C18_18 
REMARK       I    between atoms: C9_9  and  N10_10 
ROOT
ATOM      1  C8  ZIN A   1      19.008  -0.610  11.432  0.00  0.00     0.113 C 
ENDROOT
BRANCH   1   2
ATOM      2  C7  ZIN A   1      18.002   0.019  12.398  0.00  0.00     0.058 C 
BRANCH   2   3
ATOM      3  C6  ZIN A   1      17.732   1.466  11.981  0.00  0.00     0.237 C 
BRANCH   3   4
ATOM      4  N4  ZIN A   1      18.562   2.371  12.789  0.00  0.00    -0.064 N 
ATOM      5  H5  ZIN A   1      19.448   1.929  12.985  0.00  0.00     0.280 HD
BRANCH   4   6
ATOM      6  C2  ZIN A   1      17.873   2.671  14.051  0.00  0.00     0.180 C 
ATOM      7  C1  ZIN A   1      18.726   2.187  15.225  0.00  0.00     0.039 C 
ATOM      8  C3  ZIN A   1      17.657   4.181  14.166  0.00  0.00     0.039 C 
ENDBRANCH   4   6
BRANCH   4   9
ATOM      9  C24 ZIN A   1      18.790   3.619  12.048  0.00  0.00     0.180 C 
ATOM     10  C25 ZIN A   1      20.264   3.714  11.651  0.00  0.00     0.039 C 
ATOM     11  C26 ZIN A   1      17.920   3.630  10.789  0.00  0.00     0.039 C 
ENDBRANCH   4   9
ENDBRANCH   3   4
ENDBRANCH   2   3
ENDBRANCH   1   2
BRANCH   1  12
ATOM     12  C9  ZIN A   1      20.408  -0.250  11.860  0.00  0.00     0.234 C 
ATOM     13  N10 ZIN A   1      21.450  -0.512  11.048  0.00  0.00    -0.369 N 
ATOM     14  H38 ZIN A   1      21.295  -0.880  10.163  0.00  0.00     0.159 HD
ATOM     15  H39 ZIN A   1      22.355  -0.334  11.346  0.00  0.00     0.159 HD
ATOM     16  O11 ZIN A   1      20.596   0.277  12.936  0.00  0.00    -0.272 OA
ENDBRANCH   1  12
BRANCH   1  17
ATOM     17  C12 ZIN A   1      18.848  -2.108  11.445  0.00  0.00    -0.034 A 
ATOM     18  C17 ZIN A   1      17.639  -2.672  11.803  0.00  0.00     0.009 A 
ATOM     19  C16 ZIN A   1      17.491  -4.046  11.809  0.00  0.00     0.001 A 
ATOM     20  C15 ZIN A   1      18.556  -4.858  11.467  0.00  0.00     0.000 A 
ATOM     21  C14 ZIN A   1      19.768  -4.293  11.113  0.00  0.00     0.001 A 
ATOM     22  C13 ZIN A   1      19.914  -2.919  11.102  0.00  0.00     0.009 A 
ENDBRANCH   1  17
BRANCH   1  23
ATOM     23  C18 ZIN A   1      18.760  -0.091  10.039  0.00  0.00     0.056 A 
ATOM     24  N23 ZIN A   1      19.589   0.793   9.516  0.00  0.00    -0.264 NA
ATOM     25  C22 ZIN A   1      19.414   1.272   8.300  0.00  0.00     0.117 A 
ATOM     26  C21 ZIN A   1      18.341   0.868   7.529  0.00  0.00     0.019 A 
ATOM     27  C20 ZIN A   1      17.446  -0.056   8.046  0.00  0.00     0.003 A 
ATOM     28  C19 ZIN A   1      17.665  -0.540   9.327  0.00  0.00     0.029 A 
ENDBRANCH   1  23
TORSDOF 8
ENDMDL
MODEL 7
REMARK VINA RESULT:      -7.3      1.027      2.193
REMARK  8 active torsions:
REMARK  status: ('A' for Active; 'I' for Inactive)
REMARK    1  A    between atoms: C2_2  and  N4_4 
REMARK    2  A    between atoms: N4_4  and  C6_6 
REMARK    3  A    between atoms: N4_4  and  C24_24 
REMARK    4  A    between atoms: C6_6  and  C7_7 
REMARK    5  A    between atoms: C7_7  and  C8_8 
REMARK    6  A    between atoms: C8_8  and  C9_9 
REMARK    7  A    between atoms: C8_8  and  C12_12 
REMARK    8  A    between atoms: C8_8  and  C18_18 
REMARK       I    between atoms: C9_9  and  N10_10 
ROOT
ATOM      1  C8  ZIN A   1      18.617  -0.621  12.660  0.00  0.00     0.113 C 
ENDROOT
BRANCH   1   2
ATOM      2  C7  ZIN A   1      17.532   0.251  12.025  0.00  0.00     0.058 C 
BRANCH   2   3
ATOM      3  C6  ZIN A   1      17.701   1.698  12.494  0.00  0.00     0.237 C 
BRANCH   3   4
ATOM      4  N4  ZIN A   1      18.579   2.415  11.560  0.00  0.00    -0.064 N 
ATOM      5  H5  ZIN A   1      19.355   1.823  11.305  0.00  0.00     0.280 HD
BRANCH   4   6
ATOM      6  C2  ZIN A   1      19.082   3.637  12.200  0.00  0.00     0.180 C 
ATOM      7  C1  ZIN A   1      18.839   3.559  13.708  0.00  0.00     0.039 C 
ATOM      8  C3  ZIN A   1      20.583   3.771  11.932  0.00  0.00     0.039 C 
ENDBRANCH   4   6
BRANCH   4   9
ATOM      9  C24 ZIN A   1      17.820   2.773  10.352  0.00  0.00     0.180 C 
ATOM     10  C25 ZIN A   1      17.476   4.263  10.389  0.00  0.00     0.039 C 
ATOM     11  C26 ZIN A   1      18.667   2.475   9.113  0.00  0.00     0.039 C 
ENDBRANCH   4   9
ENDBRANCH   3   4
ENDBRANCH   2   3
ENDBRANCH   1   2
BRANCH   1  12
ATOM     12  C9  ZIN A   1      19.973  -0.049  12.337  0.00  0.00     0.234 C 
ATOM     13  N10 ZIN A   1      20.798   0.334  13.331  0.00  0.00    -0.369 N 
ATOM     14  H38 ZIN A   1      20.543   0.188  14.256  0.00  0.00     0.159 HD
ATOM     15  H39 ZIN A   1      21.646   0.755  13.124  0.00  0.00     0.159 HD
ATOM     16  O11 ZIN A   1      20.323   0.067  11.181  0.00  0.00    -0.272 OA
ENDBRANCH   1  12
BRANCH   1  17
ATOM     17  C12 ZIN A   1      18.427  -0.651  14.154  0.00  0.00    -0.034 A 
ATOM     18  C17 ZIN A   1      19.183  -1.508  14.931  0.00  0.00     0.009 A 
ATOM     19  C16 ZIN A   1      19.012  -1.532  16.302  0.00  0.00     0.001 A 
ATOM     20  C15 ZIN A   1      18.078  -0.705  16.897  0.00  0.00     0.000 A 
ATOM     21  C14 ZIN A   1      17.319   0.150  16.119  0.00  0.00     0.001 A 
ATOM     22  C13 ZIN A   1      17.493   0.177  14.749  0.00  0.00     0.009 A 
ENDBRANCH   1  17
BRANCH   1  23
ATOM     23  C18 ZIN A   1      18.520  -2.022  12.113  0.00  0.00     0.056 A 
ATOM     24  N23 ZIN A   1      17.348  -2.493  11.732  0.00  0.00    -0.264 NA
ATOM     25  C22 ZIN A   1      17.217  -3.711  11.244  0.00  0.00     0.117 A 
ATOM     26  C21 ZIN A   1      18.311  -4.546  11.124  0.00  0.00     0.019 A 
ATOM     27  C20 ZIN A   1      19.558  -4.088  11.518  0.00  0.00     0.003 A 
ATOM     28  C19 ZIN A   1      19.658  -2.800  12.023  0.00  0.00     0.029 A 
ENDBRANCH   1  23
TORSDOF 8
ENDMDL
MODEL 8
REMARK VINA RESULT:      -7.2      2.699      7.117
REMARK  8 active torsions:
REMARK  status: ('A' for Active; 'I' for Inactive)
REMARK    1  A    between atoms: C2_2  and  N4_4 
REMARK    2  A    between atoms: N4_4  and  C6_6 
REMARK    3  A    between atoms: N4_4  and  C24_24 
REMARK    4  A    between atoms: C6_6  and  C7_7 
REMARK    5  A    between atoms: C7_7  and  C8_8 
REMARK    6  A    between atoms: C8_8  and  C9_9 
REMARK    7  A    between atoms: C8_8  and  C12_12 
REMARK    8  A    between atoms: C8_8  and  C18_18 
REMARK       I    between atoms: C9_9  and  N10_10 
ROOT
ATOM      1  C8  ZIN A   1      18.667   0.299  10.061  0.00  0.00     0.113 C 
ENDROOT
BRANCH   1   2
ATOM      2  C7  ZIN A   1      17.846  -0.859  10.631  0.00  0.00     0.058 C 
BRANCH   2   3
ATOM      3  C6  ZIN A   1      18.719  -2.113  10.710  0.00  0.00     0.237 C 
BRANCH   3   4
ATOM      4  N4  ZIN A   1      17.892  -3.301  10.457  0.00  0.00    -0.064 N 
ATOM      5  H5  ZIN A   1      16.997  -3.191  10.911  0.00  0.00     0.280 HD
BRANCH   4   6
ATOM      6  C2  ZIN A   1      18.569  -4.491  10.988  0.00  0.00     0.180 C 
ATOM      7  C1  ZIN A   1      19.940  -4.095  11.539  0.00  0.00     0.039 C 
ATOM      8  C3  ZIN A   1      17.724  -5.098  12.111  0.00  0.00     0.039 C 
ENDBRANCH   4   6
BRANCH   4   9
ATOM      9  C24 ZIN A   1      17.690  -3.459   9.010  0.00  0.00     0.180 C 
ATOM     10  C25 ZIN A   1      19.045  -3.445   8.301  0.00  0.00     0.039 C 
ATOM     11  C26 ZIN A   1      16.983  -4.788   8.736  0.00  0.00     0.039 C 
ENDBRANCH   4   9
ENDBRANCH   3   4
ENDBRANCH   2   3
ENDBRANCH   1   2
BRANCH   1  12
ATOM     12  C9  ZIN A   1      20.133   0.041  10.301  0.00  0.00     0.234 C 
ATOM     13  N10 ZIN A   1      20.738   0.552  11.390  0.00  0.00    -0.369 N 
ATOM     14  H38 ZIN A   1      20.219   1.039  12.051  0.00  0.00     0.159 HD
ATOM     15  H39 ZIN A   1      21.692   0.437  11.515  0.00  0.00     0.159 HD
ATOM     16  O11 ZIN A   1      20.768  -0.628   9.513  0.00  0.00    -0.272 OA
ENDBRANCH   1  12
BRANCH   1  17
ATOM     17  C12 ZIN A   1      18.413   0.413   8.580  0.00  0.00    -0.034 A 
ATOM     18  C17 ZIN A   1      19.268   1.154   7.787  0.00  0.00     0.009 A 
ATOM     19  C16 ZIN A   1      19.037   1.255   6.428  0.00  0.00     0.001 A 
ATOM     20  C15 ZIN A   1      17.946   0.623   5.863  0.00  0.00     0.000 A 
ATOM     21  C14 ZIN A   1      17.088  -0.116   6.658  0.00  0.00     0.001 A 
ATOM     22  C13 ZIN A   1      17.321  -0.220   8.016  0.00  0.00     0.009 A 
ENDBRANCH   1  17
BRANCH   1  23
ATOM     23  C18 ZIN A   1      18.266   1.583  10.740  0.00  0.00     0.056 A 
ATOM     24  N23 ZIN A   1      18.076   1.597  12.045  0.00  0.00    -0.264 NA
ATOM     25  C22 ZIN A   1      17.728   2.698  12.683  0.00  0.00     0.117 A 
ATOM     26  C21 ZIN A   1      17.541   3.883  11.997  0.00  0.00     0.019 A 
ATOM     27  C20 ZIN A   1      17.727   3.905  10.623  0.00  0.00     0.003 A 
ATOM     28  C19 ZIN A   1      18.096   2.729   9.988  0.00  0.00     0.029 A 
ENDBRANCH   1  23
TORSDOF 8
ENDMDL
MODEL 9
REMARK VINA RESULT:      -7.2      1.903      6.350
REMARK  8 active torsions:
REMARK  status: ('A' for Active; 'I' for Inactive)
REMARK    1  A    between atoms: C2_2  and  N4_4 
REMARK    2  A    between atoms: N4_4  and  C6_6 
REMARK    3  A    between atoms: N4_4  and  C24_24 
REMARK    4  A    between atoms: C6_6  and  C7_7 
REMARK    5  A    between atoms: C7_7  and  C8_8 
REMARK    6  A    between atoms: C8_8  and  C9_9 
REMARK    7  A    between atoms: C8_8  and  C12_12 
REMARK    8  A    between atoms: C8_8  and  C18_18 
REMARK       I    between atoms: C9_9  and  N10_10 
ROOT
ATOM      1  C8  ZIN A   1      18.521   1.805  11.328  0.00  0.00     0.113 C 
ENDROOT
BRANCH   1   2
ATOM      2  C7  ZIN A   1      17.781   0.846  12.262  0.00  0.00     0.058 C 
BRANCH   2   3
ATOM      3  C6  ZIN A   1      18.541   0.734  13.585  0.00  0.00     0.237 C 
BRANCH   3   4
ATOM      4  N4  ZIN A   1      17.891  -0.269  14.440  0.00  0.00    -0.064 N 
ATOM      5  H5  ZIN A   1      16.898  -0.273  14.258  0.00  0.00     0.280 HD
BRANCH   4   6
ATOM      6  C2  ZIN A   1      18.131   0.059  15.850  0.00  0.00     0.180 C 
ATOM      7  C1  ZIN A   1      18.390   1.560  15.988  0.00  0.00     0.039 C 
ATOM      8  C3  ZIN A   1      16.903  -0.325  16.679  0.00  0.00     0.039 C 
ENDBRANCH   4   6
BRANCH   4   9
ATOM      9  C24 ZIN A   1      18.447  -1.598  14.145  0.00  0.00     0.180 C 
ATOM     10  C25 ZIN A   1      18.081  -1.998  12.715  0.00  0.00     0.039 C 
ATOM     11  C26 ZIN A   1      19.970  -1.556  14.290  0.00  0.00     0.039 C 
ENDBRANCH   4   9
ENDBRANCH   3   4
ENDBRANCH   2   3
ENDBRANCH   1   2
BRANCH   1  12
ATOM     12  C9  ZIN A   1      19.978   1.855  11.712  0.00  0.00     0.234 C 
ATOM     13  N10 ZIN A   1      20.573   3.040  11.948  0.00  0.00    -0.369 N 
ATOM     14  H38 ZIN A   1      20.051   3.858  11.927  0.00  0.00     0.159 HD
ATOM     15  H39 ZIN A   1      21.523   3.077  12.137  0.00  0.00     0.159 HD
ATOM     16  O11 ZIN A   1      20.614   0.827  11.809  0.00  0.00    -0.272 OA
ENDBRANCH   1  12
BRANCH   1  17
ATOM     17  C12 ZIN A   1      18.392   1.322   9.907  0.00  0.00    -0.034 A 
ATOM     18  C17 ZIN A   1      19.213   1.839   8.923  0.00  0.00     0.009 A 
ATOM     19  C16 ZIN A   1      19.097   1.393   7.620  0.00  0.00     0.001 A 
ATOM     20  C15 ZIN A   1      18.154   0.435   7.299  0.00  0.00     0.000 A 
ATOM     21  C14 ZIN A   1      17.329  -0.079   8.282  0.00  0.00     0.001 A 
ATOM     22  C13 ZIN A   1      17.448   0.364   9.586  0.00  0.00     0.009 A 
ENDBRANCH   1  17
BRANCH   1  23
ATOM     23  C18 ZIN A   1      17.924   3.184  11.447  0.00  0.00     0.056 A 
ATOM     24  N23 ZIN A   1      17.633   3.667  12.639  0.00  0.00    -0.264 NA
ATOM     25  C22 ZIN A   1      17.113   4.870  12.791  0.00  0.00     0.117 A 
ATOM     26  C21 ZIN A   1      16.844   5.667  11.695  0.00  0.00     0.019 A 
ATOM     27  C20 ZIN A   1      17.133   5.191  10.426  0.00  0.00     0.003 A 
ATOM     28  C19 ZIN A   1      17.682   3.924  10.305  0.00  0.00     0.029 A 
ENDBRANCH   1  23
TORSDOF 8
ENDMDL
