MODEL 1
REMARK VINA RESULT:      -7.3      0.000      0.000
REMARK  4 active torsions:
REMARK  status: ('A' for Active; 'I' for Inactive)
REMARK    1  A    between atoms: O2_2  and  C3_3 
REMARK    2  A    between atoms: C8_8  and  O9_9 
REMARK    3  A    between atoms: C16_15  and  C18_16 
REMARK    4  A    between atoms: C18_16  and  C19_17 
ROOT
ATOM      1  C3  ZIN A   1      17.804   2.796  11.425  0.00  0.00     0.102 A 
ATOM      2  C4  ZIN A   1      17.597   2.243  10.174  0.00  0.00     0.047 A 
ATOM      3  C5  ZIN A   1      18.398   1.203   9.726  0.00  0.00    -0.045 A 
ATOM      4  C6  ZIN A   1      19.410   0.717  10.531  0.00  0.00    -0.018 A 
ATOM      5  C7  ZIN A   1      19.620   1.267  11.786  0.00  0.00     0.049 A 
ATOM      6  C8  ZIN A   1      18.827   2.309  12.234  0.00  0.00     0.102 A 
ATOM      7  C11 ZIN A   1      20.301  -0.401  10.067  0.00  0.00     0.228 C 
ATOM      8  C13 ZIN A   1      20.686  -1.309  11.231  0.00  0.00     0.116 C 
ATOM      9  C14 ZIN A   1      19.471  -2.114  11.646  0.00  0.00     0.135 C 
ATOM     10  O15 ZIN A   1      19.147  -2.211  12.805  0.00  0.00    -0.297 OA
ATOM     11  C16 ZIN A   1      18.679  -2.790  10.546  0.00  0.00     0.081 C 
ATOM     12  C22 ZIN A   1      18.397  -1.749   9.459  0.00  0.00     0.247 C 
ATOM     13  N23 ZIN A   1      19.653  -1.168   9.003  0.00  0.00    -0.061 N 
ATOM     14  H24 ZIN A   1      20.267  -1.894   8.665  0.00  0.00     0.280 HD
ATOM     15  C25 ZIN A   1      19.344  -0.218   7.913  0.00  0.00     0.240 C 
ATOM     16  C26 ZIN A   1      18.135   0.623   8.360  0.00  0.00     0.067 C 
ENDROOT
BRANCH  11  17
ATOM     17  C18 ZIN A   1      17.361  -3.323  11.110  0.00  0.00     0.017 C 
BRANCH  17  18
ATOM     18  C19 ZIN A   1      17.292  -4.837  10.903  0.00  0.00    -0.022 C 
ATOM     19  C20 ZIN A   1      18.433  -5.278   9.984  0.00  0.00     0.009 C 
ATOM     20  C21 ZIN A   1      17.423  -5.543  12.254  0.00  0.00     0.009 C 
ENDBRANCH  17  18
ENDBRANCH  11  17
BRANCH   6  21
ATOM     21  O9  ZIN A   1      19.038   2.846  13.466  0.00  0.00    -0.353 OA
ATOM     22  C10 ZIN A   1      18.645   2.061  14.593  0.00  0.00     0.210 C 
ENDBRANCH   6  21
BRANCH   1  23
ATOM     23  O2  ZIN A   1      17.018   3.817  11.859  0.00  0.00    -0.353 OA
ATOM     24  C1  ZIN A   1      16.878   4.942  10.990  0.00  0.00     0.210 C 
ENDBRANCH   1  23
TORSDOF 4
ENDMDL
MODEL 2
REMARK VINA RESULT:      -7.0      2.108      6.558
REMARK  4 active torsions:
REMARK  status: ('A' for Active; 'I' for Inactive)
REMARK    1  A    between atoms: O2_2  and  C3_3 
REMARK    2  A    between atoms: C8_8  and  O9_9 
REMARK    3  A    between atoms: C16_15  and  C18_16 
REMARK    4  A    between atoms: C18_16  and  C19_17 
ROOT
ATOM      1  C3  ZIN A   1      17.894  -2.774  11.253  0.00  0.00     0.102 A 
ATOM      2  C4  ZIN A   1      17.606  -2.276  12.511  0.00  0.00     0.047 A 
ATOM      3  C5  ZIN A   1      18.381  -1.264  13.058  0.00  0.00    -0.045 A 
ATOM      4  C6  ZIN A   1      19.448  -0.751  12.346  0.00  0.00    -0.018 A 
ATOM      5  C7  ZIN A   1      19.738  -1.245  11.084  0.00  0.00     0.049 A 
ATOM      6  C8  ZIN A   1      18.971  -2.259  10.536  0.00  0.00     0.102 A 
ATOM      7  C11 ZIN A   1      20.311   0.337  12.919  0.00  0.00     0.228 C 
ATOM      8  C13 ZIN A   1      20.778   1.294  11.826  0.00  0.00     0.116 C 
ATOM      9  C14 ZIN A   1      19.598   2.127  11.369  0.00  0.00     0.135 C 
ATOM     10  O15 ZIN A   1      19.353   2.280  10.196  0.00  0.00    -0.297 OA
ATOM     11  C16 ZIN A   1      18.738   2.760  12.444  0.00  0.00     0.081 C 
ATOM     12  C22 ZIN A   1      18.378   1.672  13.461  0.00  0.00     0.247 C 
ATOM     13  N23 ZIN A   1      19.597   1.060  13.972  0.00  0.00    -0.061 N 
ATOM     14  H24 ZIN A   1      20.192   1.766  14.383  0.00  0.00     0.280 HD
ATOM     15  C25 ZIN A   1      19.212   0.065  14.995  0.00  0.00     0.240 C 
ATOM     16  C26 ZIN A   1      18.031  -0.745  14.429  0.00  0.00     0.067 C 
ENDROOT
BRANCH  11  17
ATOM     17  C18 ZIN A   1      17.463   3.328  11.818  0.00  0.00     0.017 C 
BRANCH  17  18
ATOM     18  C19 ZIN A   1      17.577   4.851  11.723  0.00  0.00    -0.022 C 
ATOM     19  C20 ZIN A   1      17.413   5.284  10.264  0.00  0.00     0.009 C 
ATOM     20  C21 ZIN A   1      16.481   5.498  12.573  0.00  0.00     0.009 C 
ENDBRANCH  17  18
ENDBRANCH  11  17
BRANCH   6  21
ATOM     21  O9  ZIN A   1      19.261  -2.741   9.298  0.00  0.00    -0.353 OA
ATOM     22  C10 ZIN A   1      18.891  -1.930   8.182  0.00  0.00     0.210 C 
ENDBRANCH   6  21
BRANCH   1  23
ATOM     23  O2  ZIN A   1      17.133  -3.767  10.721  0.00  0.00    -0.353 OA
ATOM     24  C1  ZIN A   1      16.930  -4.930  11.526  0.00  0.00     0.210 C 
ENDBRANCH   1  23
TORSDOF 4
ENDMDL
MODEL 3
REMARK VINA RESULT:      -6.9      2.466      4.760
REMARK  4 active torsions:
REMARK  status: ('A' for Active; 'I' for Inactive)
REMARK    1  A    between atoms: O2_2  and  C3_3 
REMARK    2  A    between atoms: C8_8  and  O9_9 
REMARK    3  A    between atoms: C16_15  and  C18_16 
REMARK    4  A    between atoms: C18_16  and  C19_17 
ROOT
ATOM      1  C3  ZIN A   1      17.884  -0.336   8.174  0.00  0.00     0.102 A 
ATOM      2  C4  ZIN A   1      17.864  -1.550   8.837  0.00  0.00     0.047 A 
ATOM      3  C5  ZIN A   1      18.744  -1.794   9.880  0.00  0.00    -0.045 A 
ATOM      4  C6  ZIN A   1      19.648  -0.821  10.261  0.00  0.00    -0.018 A 
ATOM      5  C7  ZIN A   1      19.670   0.399   9.602  0.00  0.00     0.049 A 
ATOM      6  C8  ZIN A   1      18.797   0.643   8.556  0.00  0.00     0.102 A 
ATOM      7  C11 ZIN A   1      20.620  -1.061  11.381  0.00  0.00     0.228 C 
ATOM      8  C13 ZIN A   1      20.863   0.219  12.175  0.00  0.00     0.116 C 
ATOM      9  C14 ZIN A   1      19.623   0.533  12.986  0.00  0.00     0.135 C 
ATOM     10  O15 ZIN A   1      19.145   1.643  12.999  0.00  0.00    -0.297 OA
ATOM     11  C16 ZIN A   1      19.006  -0.600  13.780  0.00  0.00     0.081 C 
ATOM     12  C22 ZIN A   1      18.851  -1.802  12.842  0.00  0.00     0.247 C 
ATOM     13  N23 ZIN A   1      20.144  -2.133  12.256  0.00  0.00    -0.061 N 
ATOM     14  H24 ZIN A   1      20.816  -2.320  12.986  0.00  0.00     0.280 HD
ATOM     15  C25 ZIN A   1      19.966  -3.333  11.412  0.00  0.00     0.240 C 
ATOM     16  C26 ZIN A   1      18.686  -3.127  10.580  0.00  0.00     0.067 C 
ENDROOT
BRANCH  11  17
ATOM     17  C18 ZIN A   1      17.636  -0.176  14.310  0.00  0.00     0.017 C 
BRANCH  17  18
ATOM     18  C19 ZIN A   1      17.642  -0.230  15.839  0.00  0.00    -0.022 C 
ATOM     19  C20 ZIN A   1      18.320  -1.522  16.301  0.00  0.00     0.009 C 
ATOM     20  C21 ZIN A   1      18.412   0.974  16.389  0.00  0.00     0.009 C 
ENDBRANCH  17  18
ENDBRANCH  11  17
BRANCH   6  21
ATOM     21  O9  ZIN A   1      18.823   1.841   7.912  0.00  0.00    -0.353 OA
ATOM     22  C10 ZIN A   1      18.764   3.016   8.722  0.00  0.00     0.210 C 
ENDBRANCH   6  21
BRANCH   1  23
ATOM     23  O2  ZIN A   1      17.021  -0.102   7.150  0.00  0.00    -0.353 OA
ATOM     24  C1  ZIN A   1      17.462  -0.454   5.838  0.00  0.00     0.210 C 
ENDBRANCH   1  23
TORSDOF 4
ENDMDL
MODEL 4
REMARK VINA RESULT:      -6.8      4.544      6.217
REMARK  4 active torsions:
REMARK  status: ('A' for Active; 'I' for Inactive)
REMARK    1  A    between atoms: O2_2  and  C3_3 
REMARK    2  A    between atoms: C8_8  and  O9_9 
REMARK    3  A    between atoms: C16_15  and  C18_16 
REMARK    4  A    between atoms: C18_16  and  C19_17 
ROOT
ATOM      1  C3  ZIN A   1      15.413   6.202  15.454  0.00  0.00     0.102 A 
ATOM      2  C4  ZIN A   1      15.835   5.764  14.211  0.00  0.00     0.047 A 
ATOM      3  C5  ZIN A   1      17.083   5.177  14.062  0.00  0.00    -0.045 A 
ATOM      4  C6  ZIN A   1      17.911   5.031  15.157  0.00  0.00    -0.018 A 
ATOM      5  C7  ZIN A   1      17.491   5.466  16.405  0.00  0.00     0.049 A 
ATOM      6  C8  ZIN A   1      16.249   6.057  16.557  0.00  0.00     0.102 A 
ATOM      7  C11 ZIN A   1      19.273   4.409  15.024  0.00  0.00     0.228 C 
ATOM      8  C13 ZIN A   1      19.622   3.591  16.262  0.00  0.00     0.116 C 
ATOM      9  C14 ZIN A   1      18.776   2.335  16.273  0.00  0.00     0.135 C 
ATOM     10  O15 ZIN A   1      18.186   1.982  17.266  0.00  0.00    -0.297 OA
ATOM     11  C16 ZIN A   1      18.698   1.539  14.986  0.00  0.00     0.081 C 
ATOM     12  C22 ZIN A   1      18.360   2.511  13.851  0.00  0.00     0.247 C 
ATOM     13  N23 ZIN A   1      19.345   3.584  13.817  0.00  0.00    -0.061 N 
ATOM     14  H24 ZIN A   1      20.272   3.198  13.707  0.00  0.00     0.280 HD
ATOM     15  C25 ZIN A   1      19.023   4.461  12.673  0.00  0.00     0.240 C 
ATOM     16  C26 ZIN A   1      17.503   4.708  12.693  0.00  0.00     0.067 C 
ENDROOT
BRANCH  11  17
ATOM     17  C18 ZIN A   1      17.606   0.474  15.100  0.00  0.00     0.017 C 
BRANCH  17  18
ATOM     18  C19 ZIN A   1      18.238  -0.916  15.008  0.00  0.00    -0.022 C 
ATOM     19  C20 ZIN A   1      19.567  -0.823  14.255  0.00  0.00     0.009 C 
ATOM     20  C21 ZIN A   1      18.487  -1.458  16.417  0.00  0.00     0.009 C 
ENDBRANCH  17  18
ENDBRANCH  11  17
BRANCH   6  21
ATOM     21  O9  ZIN A   1      15.842   6.484  17.783  0.00  0.00    -0.353 OA
ATOM     22  C10 ZIN A   1      15.500   5.479  18.739  0.00  0.00     0.210 C 
ENDBRANCH   6  21
BRANCH   1  23
ATOM     23  O2  ZIN A   1      14.189   6.778  15.595  0.00  0.00    -0.353 OA
ATOM     24  C1  ZIN A   1      13.106   6.184  14.877  0.00  0.00     0.210 C 
ENDBRANCH   1  23
TORSDOF 4
ENDMDL
MODEL 5
REMARK VINA RESULT:      -6.7      4.087      7.926
REMARK  4 active torsions:
REMARK  status: ('A' for Active; 'I' for Inactive)
REMARK    1  A    between atoms: O2_2  and  C3_3 
REMARK    2  A    between atoms: C8_8  and  O9_9 
REMARK    3  A    between atoms: C16_15  and  C18_16 
REMARK    4  A    between atoms: C18_16  and  C19_17 
ROOT
ATOM      1  C3  ZIN A   1      15.339  -6.189   7.597  0.00  0.00     0.102 A 
ATOM      2  C4  ZIN A   1      15.746  -5.729   8.836  0.00  0.00     0.047 A 
ATOM      3  C5  ZIN A   1      17.011  -5.183   9.000  0.00  0.00    -0.045 A 
ATOM      4  C6  ZIN A   1      17.870  -5.098   7.922  0.00  0.00    -0.018 A 
ATOM      5  C7  ZIN A   1      17.464  -5.555   6.677  0.00  0.00     0.049 A 
ATOM      6  C8  ZIN A   1      16.205  -6.106   6.511  0.00  0.00     0.102 A 
ATOM      7  C11 ZIN A   1      19.249  -4.521   8.072  0.00  0.00     0.228 C 
ATOM      8  C13 ZIN A   1      19.657  -3.752   6.820  0.00  0.00     0.116 C 
ATOM      9  C14 ZIN A   1      18.857  -2.468   6.752  0.00  0.00     0.135 C 
ATOM     10  O15 ZIN A   1      18.304  -2.124   5.734  0.00  0.00    -0.297 OA
ATOM     11  C16 ZIN A   1      18.777  -1.633   8.013  0.00  0.00     0.081 C 
ATOM     12  C22 ZIN A   1      18.376  -2.558   9.166  0.00  0.00     0.247 C 
ATOM     13  N23 ZIN A   1      19.322  -3.663   9.255  0.00  0.00    -0.061 N 
ATOM     14  H24 ZIN A   1      20.259  -3.307   9.377  0.00  0.00     0.280 HD
ATOM     15  C25 ZIN A   1      18.941  -4.494  10.416  0.00  0.00     0.240 C 
ATOM     16  C26 ZIN A   1      17.414  -4.688  10.365  0.00  0.00     0.067 C 
ENDROOT
BRANCH  11  17
ATOM     17  C18 ZIN A   1      17.727  -0.534   7.840  0.00  0.00     0.017 C 
BRANCH  17  18
ATOM     18  C19 ZIN A   1      18.405   0.836   7.912  0.00  0.00    -0.022 C 
ATOM     19  C20 ZIN A   1      19.598   0.764   8.867  0.00  0.00     0.009 C 
ATOM     20  C21 ZIN A   1      18.892   1.237   6.517  0.00  0.00     0.009 C 
ENDBRANCH  17  18
ENDBRANCH  11  17
BRANCH   6  21
ATOM     21  O9  ZIN A   1      15.814  -6.554   5.288  0.00  0.00    -0.353 OA
ATOM     22  C10 ZIN A   1      15.426  -5.569   4.329  0.00  0.00     0.210 C 
ENDBRANCH   6  21
BRANCH   1  23
ATOM     23  O2  ZIN A   1      14.099  -6.726   7.442  0.00  0.00    -0.353 OA
ATOM     24  C1  ZIN A   1      13.030  -6.106   8.158  0.00  0.00     0.210 C 
ENDBRANCH   1  23
TORSDOF 4
ENDMDL
MODEL 6
REMARK VINA RESULT:      -6.6      2.943      4.529
REMARK  4 active torsions:
REMARK  status: ('A' for Active; 'I' for Inactive)
REMARK    1  A    between atoms: O2_2  and  C3_3 
REMARK    2  A    between atoms: C8_8  and  O9_9 
REMARK    3  A    between atoms: C16_15  and  C18_16 
REMARK    4  A    between atoms: C18_16  and  C19_17 
ROOT
ATOM      1  C3  ZIN A   1      17.828   0.459  15.203  0.00  0.00     0.102 A 
ATOM      2  C4  ZIN A   1      17.839   1.649  14.498  0.00  0.00     0.047 A 
ATOM      3  C5  ZIN A   1      18.731   1.836  13.452  0.00  0.00    -0.045 A 
ATOM      4  C6  ZIN A   1      19.614   0.829  13.111  0.00  0.00    -0.018 A 
ATOM      5  C7  ZIN A   1      19.604  -0.366  13.813  0.00  0.00     0.049 A 
ATOM      6  C8  ZIN A   1      18.720  -0.554  14.862  0.00  0.00     0.102 A 
ATOM      7  C11 ZIN A   1      20.598   1.008  11.990  0.00  0.00     0.228 C 
ATOM      8  C13 ZIN A   1      20.816  -0.304  11.243  0.00  0.00     0.116 C 
ATOM      9  C14 ZIN A   1      19.573  -0.619  10.436  0.00  0.00     0.135 C 
ATOM     10  O15 ZIN A   1      19.070  -1.717  10.459  0.00  0.00    -0.297 OA
ATOM     11  C16 ZIN A   1      18.987   0.500   9.599  0.00  0.00     0.081 C 
ATOM     12  C22 ZIN A   1      18.855   1.737  10.493  0.00  0.00     0.247 C 
ATOM     13  N23 ZIN A   1      20.151   2.059  11.075  0.00  0.00    -0.061 N 
ATOM     14  H24 ZIN A   1      20.832   2.205  10.344  0.00  0.00     0.280 HD
ATOM     15  C25 ZIN A   1      19.996   3.292  11.876  0.00  0.00     0.240 C 
ATOM     16  C26 ZIN A   1      18.707   3.145  12.706  0.00  0.00     0.067 C 
ENDROOT
BRANCH  11  17
ATOM     17  C18 ZIN A   1      17.611   0.088   9.075  0.00  0.00     0.017 C 
BRANCH  17  18
ATOM     18  C19 ZIN A   1      17.655  -0.011   7.549  0.00  0.00    -0.022 C 
ATOM     19  C20 ZIN A   1      18.663   1.001   7.001  0.00  0.00     0.009 C 
ATOM     20  C21 ZIN A   1      18.080  -1.424   7.142  0.00  0.00     0.009 C 
ENDBRANCH  17  18
ENDBRANCH  11  17
BRANCH   6  21
ATOM     21  O9  ZIN A   1      18.715  -1.728  15.548  0.00  0.00    -0.353 OA
ATOM     22  C10 ZIN A   1      19.499  -1.787  16.740  0.00  0.00     0.210 C 
ENDBRANCH   6  21
BRANCH   1  23
ATOM     23  O2  ZIN A   1      16.954   0.281  16.229  0.00  0.00    -0.353 OA
ATOM     24  C1  ZIN A   1      17.337   0.800  17.504  0.00  0.00     0.210 C 
ENDBRANCH   1  23
TORSDOF 4
ENDMDL
MODEL 7
REMARK VINA RESULT:      -6.6      2.450      3.412
REMARK  4 active torsions:
REMARK  status: ('A' for Active; 'I' for Inactive)
REMARK    1  A    between atoms: O2_2  and  C3_3 
REMARK    2  A    between atoms: C8_8  and  O9_9 
REMARK    3  A    between atoms: C16_15  and  C18_16 
REMARK    4  A    between atoms: C18_16  and  C19_17 
ROOT
ATOM      1  C3  ZIN A   1      17.483   0.057  10.799  0.00  0.00     0.102 A 
ATOM      2  C4  ZIN A   1      17.604  -0.316   9.473  0.00  0.00     0.047 A 
ATOM      3  C5  ZIN A   1      18.216  -1.514   9.134  0.00  0.00    -0.045 A 
ATOM      4  C6  ZIN A   1      18.708  -2.340  10.126  0.00  0.00    -0.018 A 
ATOM      5  C7  ZIN A   1      18.586  -1.972  11.457  0.00  0.00     0.049 A 
ATOM      6  C8  ZIN A   1      17.982  -0.774  11.798  0.00  0.00     0.102 A 
ATOM      7  C11 ZIN A   1      19.385  -3.638   9.789  0.00  0.00     0.228 C 
ATOM      8  C13 ZIN A   1      19.077  -4.702  10.837  0.00  0.00     0.116 C 
ATOM      9  C14 ZIN A   1      17.631  -5.130  10.690  0.00  0.00     0.135 C 
ATOM     10  O15 ZIN A   1      16.898  -5.208  11.646  0.00  0.00    -0.297 OA
ATOM     11  C16 ZIN A   1      17.142  -5.453   9.293  0.00  0.00     0.081 C 
ATOM     12  C22 ZIN A   1      17.550  -4.299   8.372  0.00  0.00     0.247 C 
ATOM     13  N23 ZIN A   1      18.990  -4.094   8.455  0.00  0.00    -0.061 N 
ATOM     14  H24 ZIN A   1      19.475  -4.946   8.213  0.00  0.00     0.280 HD
ATOM     15  C25 ZIN A   1      19.351  -3.019   7.507  0.00  0.00     0.240 C 
ATOM     16  C26 ZIN A   1      18.323  -1.886   7.678  0.00  0.00     0.067 C 
ENDROOT
BRANCH  11  17
ATOM     17  C18 ZIN A   1      15.620  -5.601   9.298  0.00  0.00     0.017 C 
BRANCH  17  18
ATOM     18  C19 ZIN A   1      15.159  -6.179   7.958  0.00  0.00    -0.022 C 
ATOM     19  C20 ZIN A   1      15.754  -7.576   7.774  0.00  0.00     0.009 C 
ATOM     20  C21 ZIN A   1      13.631  -6.268   7.940  0.00  0.00     0.009 C 
ENDBRANCH  17  18
ENDBRANCH  11  17
BRANCH   6  21
ATOM     21  O9  ZIN A   1      17.866  -0.417  13.105  0.00  0.00    -0.353 OA
ATOM     22  C10 ZIN A   1      18.528  -1.243  14.065  0.00  0.00     0.210 C 
ENDBRANCH   6  21
BRANCH   1  23
ATOM     23  O2  ZIN A   1      16.885   1.234  11.126  0.00  0.00    -0.353 OA
ATOM     24  C1  ZIN A   1      17.642   2.427  10.914  0.00  0.00     0.210 C 
ENDBRANCH   1  23
TORSDOF 4
ENDMDL
MODEL 8
REMARK VINA RESULT:      -6.4      3.010      4.451
REMARK  4 active torsions:
REMARK  status: ('A' for Active; 'I' for Inactive)
REMARK    1  A    between atoms: O2_2  and  C3_3 
REMARK    2  A    between atoms: C8_8  and  O9_9 
REMARK    3  A    between atoms: C16_15  and  C18_16 
REMARK    4  A    between atoms: C18_16  and  C19_17 
ROOT
ATOM      1  C3  ZIN A   1      18.425  -0.477   8.735  0.00  0.00     0.102 A 
ATOM      2  C4  ZIN A   1      18.634  -1.305   7.647  0.00  0.00     0.047 A 
ATOM      3  C5  ZIN A   1      18.935  -2.646   7.834  0.00  0.00    -0.045 A 
ATOM      4  C6  ZIN A   1      19.029  -3.159   9.113  0.00  0.00    -0.018 A 
ATOM      5  C7  ZIN A   1      18.817  -2.333  10.207  0.00  0.00     0.049 A 
ATOM      6  C8  ZIN A   1      18.522  -0.993  10.024  0.00  0.00     0.102 A 
ATOM      7  C11 ZIN A   1      19.365  -4.605   9.347  0.00  0.00     0.228 C 
ATOM      8  C13 ZIN A   1      18.624  -5.146  10.565  0.00  0.00     0.116 C 
ATOM      9  C14 ZIN A   1      17.155  -5.284  10.223  0.00  0.00     0.135 C 
ATOM     10  O15 ZIN A   1      16.295  -4.868  10.962  0.00  0.00    -0.297 OA
ATOM     11  C16 ZIN A   1      16.808  -5.964   8.914  0.00  0.00     0.081 C 
ATOM     12  C22 ZIN A   1      17.649  -5.316   7.809  0.00  0.00     0.247 C 
ATOM     13  N23 ZIN A   1      19.061  -5.402   8.158  0.00  0.00    -0.061 N 
ATOM     14  H24 ZIN A   1      19.323  -6.367   8.302  0.00  0.00     0.280 HD
ATOM     15  C25 ZIN A   1      19.840  -4.827   7.041  0.00  0.00     0.240 C 
ATOM     16  C26 ZIN A   1      19.150  -3.516   6.623  0.00  0.00     0.067 C 
ENDROOT
BRANCH  11  17
ATOM     17  C18 ZIN A   1      15.321  -5.777   8.611  0.00  0.00     0.017 C 
BRANCH  17  18
ATOM     18  C19 ZIN A   1      14.947  -6.589   7.370  0.00  0.00    -0.022 C 
ATOM     19  C20 ZIN A   1      15.261  -8.067   7.614  0.00  0.00     0.009 C 
ATOM     20  C21 ZIN A   1      13.452  -6.426   7.085  0.00  0.00     0.009 C 
ENDBRANCH  17  18
ENDBRANCH  11  17
BRANCH   6  21
ATOM     21  O9  ZIN A   1      18.317  -0.187  11.100  0.00  0.00    -0.353 OA
ATOM     22  C10 ZIN A   1      17.062  -0.308  11.772  0.00  0.00     0.210 C 
ENDBRANCH   6  21
BRANCH   1  23
ATOM     23  O2  ZIN A   1      18.132   0.837   8.546  0.00  0.00    -0.353 OA
ATOM     24  C1  ZIN A   1      19.225   1.708   8.247  0.00  0.00     0.210 C 
ENDBRANCH   1  23
TORSDOF 4
ENDMDL
MODEL 9
REMARK VINA RESULT:      -6.4      1.654      2.286
REMARK  4 active torsions:
REMARK  status: ('A' for Active; 'I' for Inactive)
REMARK    1  A    between atoms: O2_2  and  C3_3 
REMARK    2  A    between atoms: C8_8  and  O9_9 
REMARK    3  A    between atoms: C16_15  and  C18_16 
REMARK    4  A    between atoms: C18_16  and  C19_17 
ROOT
ATOM      1  C3  ZIN A   1      17.487   4.053  13.599  0.00  0.00     0.102 A 
ATOM      2  C4  ZIN A   1      17.315   3.851  12.241  0.00  0.00     0.047 A 
ATOM      3  C5  ZIN A   1      18.201   3.053  11.533  0.00  0.00    -0.045 A 
ATOM      4  C6  ZIN A   1      19.264   2.458  12.185  0.00  0.00    -0.018 A 
ATOM      5  C7  ZIN A   1      19.439   2.656  13.546  0.00  0.00     0.049 A 
ATOM      6  C8  ZIN A   1      18.560   3.456  14.255  0.00  0.00     0.102 A 
ATOM      7  C11 ZIN A   1      20.246   1.598  11.442  0.00  0.00     0.228 C 
ATOM      8  C13 ZIN A   1      20.727   0.442  12.313  0.00  0.00     0.116 C 
ATOM      9  C14 ZIN A   1      19.596  -0.553  12.473  0.00  0.00     0.135 C 
ATOM     10  O15 ZIN A   1      19.297  -0.997  13.556  0.00  0.00    -0.297 OA
ATOM     11  C16 ZIN A   1      18.855  -0.968  11.219  0.00  0.00     0.081 C 
ATOM     12  C22 ZIN A   1      18.465   0.304  10.459  0.00  0.00     0.247 C 
ATOM     13  N23 ZIN A   1      19.657   1.100  10.198  0.00  0.00    -0.061 N 
ATOM     14  H24 ZIN A   1      20.330   0.555   9.680  0.00  0.00     0.280 HD
ATOM     15  C25 ZIN A   1      19.250   2.282   9.409  0.00  0.00     0.240 C 
ATOM     16  C26 ZIN A   1      17.975   2.854  10.057  0.00  0.00     0.067 C 
ENDROOT
BRANCH  11  17
ATOM     17  C18 ZIN A   1      17.597  -1.753  11.596  0.00  0.00     0.017 C 
BRANCH  17  18
ATOM     18  C19 ZIN A   1      17.559  -3.064  10.808  0.00  0.00    -0.022 C 
ATOM     19  C20 ZIN A   1      18.969  -3.410  10.326  0.00  0.00     0.009 C 
ATOM     20  C21 ZIN A   1      17.038  -4.186  11.709  0.00  0.00     0.009 C 
ENDBRANCH  17  18
ENDBRANCH  11  17
BRANCH   6  21
ATOM     21  O9  ZIN A   1      18.737   3.648  15.590  0.00  0.00    -0.353 OA
ATOM     22  C10 ZIN A   1      19.026   2.493  16.379  0.00  0.00     0.210 C 
ENDBRANCH   6  21
BRANCH   1  23
ATOM     23  O2  ZIN A   1      16.617   4.838  14.288  0.00  0.00    -0.353 OA
ATOM     24  C1  ZIN A   1      16.068   5.961  13.596  0.00  0.00     0.210 C 
ENDBRANCH   1  23
TORSDOF 4
ENDMDL
