MODEL 1
REMARK VINA RESULT:      -6.8      0.000      0.000
REMARK  10 active torsions:
REMARK  status: ('A' for Active; 'I' for Inactive)
REMARK    1  A    between atoms: C2_2  and  N3_3 
REMARK    2  A    between atoms: N3_3  and  C5_5 
REMARK    3  A    between atoms: N3_3  and  C8_8 
REMARK    4  A    between atoms: C5_5  and  C6_6 
REMARK    5  A    between atoms: C6_6  and  O7_7 
REMARK    6  A    between atoms: C8_8  and  C9_9 
REMARK    7  A    between atoms: C9_9  and  C10_10 
REMARK    8  A    between atoms: C10_10  and  C11_11 
REMARK    9  A    between atoms: C11_11  and  N14_13 
REMARK   10  A    between atoms: N14_13  and  C15_14 
ROOT
ATOM      1  C11 ZIN A   1      18.468   4.248  11.399  0.00  0.00     0.077 C 
ATOM      2  C13 ZIN A   1      17.524   4.784  10.321  0.00  0.00     0.032 C 
ENDROOT
BRANCH   1   3
ATOM      3  C10 ZIN A   1      19.280   3.082  10.833  0.00  0.00     0.026 C 
BRANCH   3   4
ATOM      4  C9  ZIN A   1      18.468   2.375   9.745  0.00  0.00     0.030 C 
BRANCH   4   5
ATOM      5  C8  ZIN A   1      18.181   0.936  10.177  0.00  0.00     0.235 C 
BRANCH   5   6
ATOM      6  N3  ZIN A   1      18.596   0.014   9.111  0.00  0.00    -0.069 N 
ATOM      7  H4  ZIN A   1      18.049  -0.833   9.168  0.00  0.00     0.279 HD
BRANCH   6   8
ATOM      8  C2  ZIN A   1      18.382   0.648   7.804  0.00  0.00     0.230 C 
ATOM      9  C1  ZIN A   1      17.283  -0.100   7.047  0.00  0.00     0.034 C 
ENDBRANCH   6   8
BRANCH   6  10
ATOM     10  C5  ZIN A   1      20.020  -0.311   9.271  0.00  0.00     0.260 C 
BRANCH  10  11
ATOM     11  C6  ZIN A   1      20.298  -0.683  10.729  0.00  0.00     0.192 C 
BRANCH  11  12
ATOM     12  O7  ZIN A   1      21.697  -0.563  10.992  0.00  0.00    -0.399 OA
ATOM     13  H35 ZIN A   1      22.102   0.230  10.613  0.00  0.00     0.209 HD
ENDBRANCH  11  12
ENDBRANCH  10  11
ENDBRANCH   6  10
ENDBRANCH   5   6
ENDBRANCH   4   5
ENDBRANCH   3   4
ENDBRANCH   1   3
BRANCH   1  14
ATOM     14  N14 ZIN A   1      17.683   3.784  12.547  0.00  0.00    -0.385 N 
ATOM     15  H45 ZIN A   1      16.737   3.599  12.445  0.00  0.00     0.160 HD
BRANCH  14  16
ATOM     16  C15 ZIN A   1      18.294   3.613  13.780  0.00  0.00     0.042 A 
ATOM     17  C25 ZIN A   1      18.889   4.678  14.438  0.00  0.00     0.049 A 
ATOM     18  C24 ZIN A   1      19.489   4.475  15.673  0.00  0.00     0.119 A 
ATOM     19  N23 ZIN A   1      19.519   3.293  16.242  0.00  0.00    -0.260 NA
ATOM     20  C22 ZIN A   1      18.970   2.220  15.663  0.00  0.00     0.070 A 
ATOM     21  C16 ZIN A   1      18.334   2.344  14.404  0.00  0.00     0.019 A 
ATOM     22  C21 ZIN A   1      19.011   0.960  16.286  0.00  0.00     0.056 A 
ATOM     23  C17 ZIN A   1      17.759   1.216  13.801  0.00  0.00     0.018 A 
ATOM     24  C18 ZIN A   1      17.818   0.010  14.433  0.00  0.00     0.025 A 
ATOM     25  C19 ZIN A   1      18.444  -0.116  15.673  0.00  0.00     0.036 A 
ATOM     26 Cl20 ZIN A   1      18.500  -1.669  16.447  0.00  0.00    -0.084 Cl
ENDBRANCH  14  16
ENDBRANCH   1  14
TORSDOF 10
ENDMDL
MODEL 2
REMARK VINA RESULT:      -6.7      3.414      7.069
REMARK  10 active torsions:
REMARK  status: ('A' for Active; 'I' for Inactive)
REMARK    1  A    between atoms: C2_2  and  N3_3 
REMARK    2  A    between atoms: N3_3  and  C5_5 
REMARK    3  A    between atoms: N3_3  and  C8_8 
REMARK    4  A    between atoms: C5_5  and  C6_6 
REMARK    5  A    between atoms: C6_6  and  O7_7 
REMARK    6  A    between atoms: C8_8  and  C9_9 
REMARK    7  A    between atoms: C9_9  and  C10_10 
REMARK    8  A    between atoms: C10_10  and  C11_11 
REMARK    9  A    between atoms: C11_11  and  N14_13 
REMARK   10  A    between atoms: N14_13  and  C15_14 
ROOT
ATOM      1  C11 ZIN A   1      18.576   2.846  11.237  0.00  0.00     0.077 C 
ATOM      2  C13 ZIN A   1      17.923   3.927  10.373  0.00  0.00     0.032 C 
ENDROOT
BRANCH   1   3
ATOM      3  C10 ZIN A   1      19.154   3.483  12.501  0.00  0.00     0.026 C 
BRANCH   3   4
ATOM      4  C9  ZIN A   1      18.223   3.207  13.684  0.00  0.00     0.030 C 
BRANCH   4   5
ATOM      5  C8  ZIN A   1      18.519   1.819  14.253  0.00  0.00     0.235 C 
BRANCH   5   6
ATOM      6  N3  ZIN A   1      17.963   1.717  15.609  0.00  0.00    -0.069 N 
ATOM      7  H4  ZIN A   1      17.116   2.263  15.666  0.00  0.00     0.279 HD
BRANCH   6   8
ATOM      8  C2  ZIN A   1      17.662   0.312  15.911  0.00  0.00     0.230 C 
ATOM      9  C1  ZIN A   1      18.207  -0.579  14.792  0.00  0.00     0.034 C 
ENDBRANCH   6   8
BRANCH   6  10
ATOM     10  C5  ZIN A   1      18.942   2.228  16.579  0.00  0.00     0.260 C 
BRANCH  10  11
ATOM     11  C6  ZIN A   1      18.534   1.797  17.989  0.00  0.00     0.192 C 
BRANCH  11  12
ATOM     12  O7  ZIN A   1      19.665   1.881  18.858  0.00  0.00    -0.399 OA
ATOM     13  H35 ZIN A   1      19.484   1.604  19.767  0.00  0.00     0.209 HD
ENDBRANCH  11  12
ENDBRANCH  10  11
ENDBRANCH   6  10
ENDBRANCH   5   6
ENDBRANCH   4   5
ENDBRANCH   3   4
ENDBRANCH   1   3
BRANCH   1  14
ATOM     14  N14 ZIN A   1      19.652   2.200  10.479  0.00  0.00    -0.385 N 
ATOM     15  H45 ZIN A   1      20.460   2.692  10.270  0.00  0.00     0.160 HD
BRANCH  14  16
ATOM     16  C15 ZIN A   1      19.512   0.885  10.061  0.00  0.00     0.042 A 
ATOM     17  C25 ZIN A   1      19.598  -0.164  10.962  0.00  0.00     0.049 A 
ATOM     18  C24 ZIN A   1      19.450  -1.470  10.513  0.00  0.00     0.119 A 
ATOM     19  N23 ZIN A   1      19.238  -1.747   9.248  0.00  0.00    -0.260 NA
ATOM     20  C22 ZIN A   1      19.149  -0.785   8.323  0.00  0.00     0.070 A 
ATOM     21  C16 ZIN A   1      19.284   0.573   8.700  0.00  0.00     0.019 A 
ATOM     22  C21 ZIN A   1      18.921  -1.099   6.972  0.00  0.00     0.056 A 
ATOM     23  C17 ZIN A   1      19.190   1.577   7.727  0.00  0.00     0.018 A 
ATOM     24  C18 ZIN A   1      18.969   1.237   6.426  0.00  0.00     0.025 A 
ATOM     25  C19 ZIN A   1      18.836  -0.099   6.051  0.00  0.00     0.036 A 
ATOM     26 Cl20 ZIN A   1      18.556  -0.494   4.384  0.00  0.00    -0.084 Cl
ENDBRANCH  14  16
ENDBRANCH   1  14
TORSDOF 10
ENDMDL
MODEL 3
REMARK VINA RESULT:      -6.7      4.027      8.314
REMARK  10 active torsions:
REMARK  status: ('A' for Active; 'I' for Inactive)
REMARK    1  A    between atoms: C2_2  and  N3_3 
REMARK    2  A    between atoms: N3_3  and  C5_5 
REMARK    3  A    between atoms: N3_3  and  C8_8 
REMARK    4  A    between atoms: C5_5  and  C6_6 
REMARK    5  A    between atoms: C6_6  and  O7_7 
REMARK    6  A    between atoms: C8_8  and  C9_9 
REMARK    7  A    between atoms: C9_9  and  C10_10 
REMARK    8  A    between atoms: C10_10  and  C11_11 
REMARK    9  A    between atoms: C11_11  and  N14_13 
REMARK   10  A    between atoms: N14_13  and  C15_14 
ROOT
ATOM      1  C11 ZIN A   1      18.444  -5.022  10.952  0.00  0.00     0.077 C 
ATOM      2  C13 ZIN A   1      17.377  -5.517  11.931  0.00  0.00     0.032 C 
ENDROOT
BRANCH   1   3
ATOM      3  C10 ZIN A   1      19.347  -4.005  11.652  0.00  0.00     0.026 C 
BRANCH   3   4
ATOM      4  C9  ZIN A   1      18.502  -2.831  12.151  0.00  0.00     0.030 C 
BRANCH   4   5
ATOM      5  C8  ZIN A   1      19.350  -1.558  12.155  0.00  0.00     0.235 C 
BRANCH   5   6
ATOM      6  N3  ZIN A   1      18.702  -0.542  12.996  0.00  0.00    -0.069 N 
ATOM      7  H4  ZIN A   1      17.931  -0.131  12.492  0.00  0.00     0.279 HD
BRANCH   6   8
ATOM      8  C2  ZIN A   1      18.205  -1.169  14.227  0.00  0.00     0.230 C 
ATOM      9  C1  ZIN A   1      19.321  -1.192  15.275  0.00  0.00     0.034 C 
ENDBRANCH   6   8
BRANCH   6  10
ATOM     10  C5  ZIN A   1      19.676   0.504  13.338  0.00  0.00     0.260 C 
BRANCH  10  11
ATOM     11  C6  ZIN A   1      20.408   0.953  12.071  0.00  0.00     0.192 C 
BRANCH  11  12
ATOM     12  O7  ZIN A   1      21.804   0.678  12.205  0.00  0.00    -0.399 OA
ATOM     13  H35 ZIN A   1      22.187   0.988  13.039  0.00  0.00     0.209 HD
ENDBRANCH  11  12
ENDBRANCH  10  11
ENDBRANCH   6  10
ENDBRANCH   5   6
ENDBRANCH   4   5
ENDBRANCH   3   4
ENDBRANCH   1   3
BRANCH   1  14
ATOM     14  N14 ZIN A   1      17.795  -4.389   9.801  0.00  0.00    -0.385 N 
ATOM     15  H45 ZIN A   1      16.855  -4.156   9.843  0.00  0.00     0.160 HD
BRANCH  14  16
ATOM     16  C15 ZIN A   1      18.525  -4.124   8.652  0.00  0.00     0.042 A 
ATOM     17  C25 ZIN A   1      19.248  -5.122   8.018  0.00  0.00     0.049 A 
ATOM     18  C24 ZIN A   1      19.965  -4.827   6.867  0.00  0.00     0.119 A 
ATOM     19  N23 ZIN A   1      19.991  -3.617   6.359  0.00  0.00    -0.260 NA
ATOM     20  C22 ZIN A   1      19.323  -2.604   6.921  0.00  0.00     0.070 A 
ATOM     21  C16 ZIN A   1      18.562  -2.824   8.095  0.00  0.00     0.019 A 
ATOM     22  C21 ZIN A   1      19.360  -1.314   6.364  0.00  0.00     0.056 A 
ATOM     23  C17 ZIN A   1      17.863  -1.759   8.680  0.00  0.00     0.018 A 
ATOM     24  C18 ZIN A   1      17.922  -0.521   8.114  0.00  0.00     0.025 A 
ATOM     25  C19 ZIN A   1      18.671  -0.301   6.958  0.00  0.00     0.036 A 
ATOM     26 Cl20 ZIN A   1      18.722   1.291   6.266  0.00  0.00    -0.084 Cl
ENDBRANCH  14  16
ENDBRANCH   1  14
TORSDOF 10
ENDMDL
MODEL 4
REMARK VINA RESULT:      -6.5      2.688      6.221
REMARK  10 active torsions:
REMARK  status: ('A' for Active; 'I' for Inactive)
REMARK    1  A    between atoms: C2_2  and  N3_3 
REMARK    2  A    between atoms: N3_3  and  C5_5 
REMARK    3  A    between atoms: N3_3  and  C8_8 
REMARK    4  A    between atoms: C5_5  and  C6_6 
REMARK    5  A    between atoms: C6_6  and  O7_7 
REMARK    6  A    between atoms: C8_8  and  C9_9 
REMARK    7  A    between atoms: C9_9  and  C10_10 
REMARK    8  A    between atoms: C10_10  and  C11_11 
REMARK    9  A    between atoms: C11_11  and  N14_13 
REMARK   10  A    between atoms: N14_13  and  C15_14 
ROOT
ATOM      1  C11 ZIN A   1      18.906   3.257  11.656  0.00  0.00     0.077 C 
ATOM      2  C13 ZIN A   1      19.643   4.364  12.412  0.00  0.00     0.032 C 
ENDROOT
BRANCH   1   3
ATOM      3  C10 ZIN A   1      17.844   2.638  12.565  0.00  0.00     0.026 C 
BRANCH   3   4
ATOM      4  C9  ZIN A   1      18.435   2.408  13.958  0.00  0.00     0.030 C 
BRANCH   4   5
ATOM      5  C8  ZIN A   1      17.972   1.051  14.491  0.00  0.00     0.235 C 
BRANCH   5   6
ATOM      6  N3  ZIN A   1      17.624   1.177  15.912  0.00  0.00    -0.069 N 
ATOM      7  H4  ZIN A   1      16.831   1.793  16.011  0.00  0.00     0.279 HD
BRANCH   6   8
ATOM      8  C2  ZIN A   1      17.288  -0.146  16.454  0.00  0.00     0.230 C 
ATOM      9  C1  ZIN A   1      18.219  -1.198  15.846  0.00  0.00     0.034 C 
ENDBRANCH   6   8
BRANCH   6  10
ATOM     10  C5  ZIN A   1      18.769   1.731  16.649  0.00  0.00     0.260 C 
BRANCH  10  11
ATOM     11  C6  ZIN A   1      18.448   1.756  18.145  0.00  0.00     0.192 C 
BRANCH  11  12
ATOM     12  O7  ZIN A   1      19.645   2.009  18.884  0.00  0.00    -0.399 OA
ATOM     13  H35 ZIN A   1      19.907   1.283  19.468  0.00  0.00     0.209 HD
ENDBRANCH  11  12
ENDBRANCH  10  11
ENDBRANCH   6  10
ENDBRANCH   5   6
ENDBRANCH   4   5
ENDBRANCH   3   4
ENDBRANCH   1   3
BRANCH   1  14
ATOM     14  N14 ZIN A   1      19.863   2.224  11.247  0.00  0.00    -0.385 N 
ATOM     15  H45 ZIN A   1      20.724   2.161  11.687  0.00  0.00     0.160 HD
BRANCH  14  16
ATOM     16  C15 ZIN A   1      19.536   1.340  10.231  0.00  0.00     0.042 A 
ATOM     17  C25 ZIN A   1      19.279   1.790   8.946  0.00  0.00     0.049 A 
ATOM     18  C24 ZIN A   1      18.958   0.878   7.949  0.00  0.00     0.119 A 
ATOM     19  N23 ZIN A   1      18.880  -0.410   8.189  0.00  0.00    -0.260 NA
ATOM     20  C22 ZIN A   1      19.108  -0.914   9.406  0.00  0.00     0.070 A 
ATOM     21  C16 ZIN A   1      19.447  -0.051  10.476  0.00  0.00     0.019 A 
ATOM     22  C21 ZIN A   1      19.020  -2.296   9.645  0.00  0.00     0.056 A 
ATOM     23  C17 ZIN A   1      19.686  -0.585  11.750  0.00  0.00     0.018 A 
ATOM     24  C18 ZIN A   1      19.591  -1.929  11.947  0.00  0.00     0.025 A 
ATOM     25  C19 ZIN A   1      19.258  -2.782  10.895  0.00  0.00     0.036 A 
ATOM     26 Cl20 ZIN A   1      19.146  -4.491  11.184  0.00  0.00    -0.084 Cl
ENDBRANCH  14  16
ENDBRANCH   1  14
TORSDOF 10
ENDMDL
MODEL 5
REMARK VINA RESULT:      -6.5      2.948      4.830
REMARK  10 active torsions:
REMARK  status: ('A' for Active; 'I' for Inactive)
REMARK    1  A    between atoms: C2_2  and  N3_3 
REMARK    2  A    between atoms: N3_3  and  C5_5 
REMARK    3  A    between atoms: N3_3  and  C8_8 
REMARK    4  A    between atoms: C5_5  and  C6_6 
REMARK    5  A    between atoms: C6_6  and  O7_7 
REMARK    6  A    between atoms: C8_8  and  C9_9 
REMARK    7  A    between atoms: C9_9  and  C10_10 
REMARK    8  A    between atoms: C10_10  and  C11_11 
REMARK    9  A    between atoms: C11_11  and  N14_13 
REMARK   10  A    between atoms: N14_13  and  C15_14 
ROOT
ATOM      1  C11 ZIN A   1      19.042  -2.900  12.026  0.00  0.00     0.077 C 
ATOM      2  C13 ZIN A   1      19.976  -3.931  11.391  0.00  0.00     0.032 C 
ENDROOT
BRANCH   1   3
ATOM      3  C10 ZIN A   1      18.127  -2.310  10.953  0.00  0.00     0.026 C 
BRANCH   3   4
ATOM      4  C9  ZIN A   1      18.966  -1.874   9.749  0.00  0.00     0.030 C 
BRANCH   4   5
ATOM      5  C8  ZIN A   1      18.090  -1.856   8.496  0.00  0.00     0.235 C 
BRANCH   5   6
ATOM      6  N3  ZIN A   1      18.122  -0.515   7.897  0.00  0.00    -0.069 N 
ATOM      7  H4  ZIN A   1      17.301  -0.001   8.181  0.00  0.00     0.279 HD
BRANCH   6   8
ATOM      8  C2  ZIN A   1      19.325   0.196   8.349  0.00  0.00     0.230 C 
ATOM      9  C1  ZIN A   1      19.126   1.703   8.171  0.00  0.00     0.034 C 
ENDBRANCH   6   8
BRANCH   6  10
ATOM     10  C5  ZIN A   1      18.144  -0.633   6.433  0.00  0.00     0.260 C 
BRANCH  10  11
ATOM     11  C6  ZIN A   1      19.333  -1.498   6.009  0.00  0.00     0.192 C 
BRANCH  11  12
ATOM     12  O7  ZIN A   1      19.823  -1.046   4.745  0.00  0.00    -0.399 OA
ATOM     13  H35 ZIN A   1      19.820  -1.726   4.056  0.00  0.00     0.209 HD
ENDBRANCH  11  12
ENDBRANCH  10  11
ENDBRANCH   6  10
ENDBRANCH   5   6
ENDBRANCH   4   5
ENDBRANCH   3   4
ENDBRANCH   1   3
BRANCH   1  14
ATOM     14  N14 ZIN A   1      19.837  -1.829  12.633  0.00  0.00    -0.385 N 
ATOM     15  H45 ZIN A   1      20.785  -1.762  12.443  0.00  0.00     0.160 HD
BRANCH  14  16
ATOM     16  C15 ZIN A   1      19.233  -0.913  13.481  0.00  0.00     0.042 A 
ATOM     17  C25 ZIN A   1      18.591  -1.323  14.638  0.00  0.00     0.049 A 
ATOM     18  C24 ZIN A   1      18.000  -0.381  15.468  0.00  0.00     0.119 A 
ATOM     19  N23 ZIN A   1      18.021   0.901  15.186  0.00  0.00    -0.260 NA
ATOM     20  C22 ZIN A   1      18.617   1.368  14.084  0.00  0.00     0.070 A 
ATOM     21  C16 ZIN A   1      19.248   0.472  13.188  0.00  0.00     0.019 A 
ATOM     22  C21 ZIN A   1      18.631   2.743  13.796  0.00  0.00     0.056 A 
ATOM     23  C17 ZIN A   1      19.872   0.966  12.034  0.00  0.00     0.018 A 
ATOM     24  C18 ZIN A   1      19.866   2.306  11.785  0.00  0.00     0.025 A 
ATOM     25  C19 ZIN A   1      19.245   3.191  12.666  0.00  0.00     0.036 A 
ATOM     26 Cl20 ZIN A   1      19.257   4.892  12.315  0.00  0.00    -0.084 Cl
ENDBRANCH  14  16
ENDBRANCH   1  14
TORSDOF 10
ENDMDL
MODEL 6
REMARK VINA RESULT:      -6.5      2.644      4.220
REMARK  10 active torsions:
REMARK  status: ('A' for Active; 'I' for Inactive)
REMARK    1  A    between atoms: C2_2  and  N3_3 
REMARK    2  A    between atoms: N3_3  and  C5_5 
REMARK    3  A    between atoms: N3_3  and  C8_8 
REMARK    4  A    between atoms: C5_5  and  C6_6 
REMARK    5  A    between atoms: C6_6  and  O7_7 
REMARK    6  A    between atoms: C8_8  and  C9_9 
REMARK    7  A    between atoms: C9_9  and  C10_10 
REMARK    8  A    between atoms: C10_10  and  C11_11 
REMARK    9  A    between atoms: C11_11  and  N14_13 
REMARK   10  A    between atoms: N14_13  and  C15_14 
ROOT
ATOM      1  C11 ZIN A   1      19.023   0.483   8.579  0.00  0.00     0.077 C 
ATOM      2  C13 ZIN A   1      18.845   0.980   7.143  0.00  0.00     0.032 C 
ENDROOT
BRANCH   1   3
ATOM      3  C10 ZIN A   1      19.351  -1.010   8.565  0.00  0.00     0.026 C 
BRANCH   3   4
ATOM      4  C9  ZIN A   1      18.056  -1.817   8.451  0.00  0.00     0.030 C 
BRANCH   4   5
ATOM      5  C8  ZIN A   1      18.154  -3.067   9.326  0.00  0.00     0.235 C 
BRANCH   5   6
ATOM      6  N3  ZIN A   1      19.339  -3.843   8.938  0.00  0.00    -0.069 N 
ATOM      7  H4  ZIN A   1      20.079  -3.214   8.664  0.00  0.00     0.279 HD
BRANCH   6   8
ATOM      8  C2  ZIN A   1      19.786  -4.657  10.077  0.00  0.00     0.230 C 
ATOM      9  C1  ZIN A   1      18.994  -4.265  11.327  0.00  0.00     0.034 C 
ENDBRANCH   6   8
BRANCH   6  10
ATOM     10  C5  ZIN A   1      19.001  -4.723   7.811  0.00  0.00     0.260 C 
BRANCH  10  11
ATOM     11  C6  ZIN A   1      19.782  -4.285   6.570  0.00  0.00     0.192 C 
BRANCH  11  12
ATOM     12  O7  ZIN A   1      21.179  -4.268   6.868  0.00  0.00    -0.399 OA
ATOM     13  H35 ZIN A   1      21.747  -4.210   6.087  0.00  0.00     0.209 HD
ENDBRANCH  11  12
ENDBRANCH  10  11
ENDBRANCH   6  10
ENDBRANCH   5   6
ENDBRANCH   4   5
ENDBRANCH   3   4
ENDBRANCH   1   3
BRANCH   1  14
ATOM     14  N14 ZIN A   1      17.784   0.704   9.330  0.00  0.00    -0.385 N 
ATOM     15  H45 ZIN A   1      16.957   0.299   9.029  0.00  0.00     0.160 HD
BRANCH  14  16
ATOM     16  C15 ZIN A   1      17.796   1.494  10.469  0.00  0.00     0.042 A 
ATOM     17  C25 ZIN A   1      17.804   2.877  10.381  0.00  0.00     0.049 A 
ATOM     18  C24 ZIN A   1      17.811   3.641  11.540  0.00  0.00     0.119 A 
ATOM     19  N23 ZIN A   1      17.820   3.090  12.731  0.00  0.00    -0.260 NA
ATOM     20  C22 ZIN A   1      17.819   1.763  12.892  0.00  0.00     0.070 A 
ATOM     21  C16 ZIN A   1      17.806   0.914  11.760  0.00  0.00     0.019 A 
ATOM     22  C21 ZIN A   1      17.828   1.189  14.175  0.00  0.00     0.056 A 
ATOM     23  C17 ZIN A   1      17.804  -0.477  11.933  0.00  0.00     0.018 A 
ATOM     24  C18 ZIN A   1      17.815  -1.000  13.192  0.00  0.00     0.025 A 
ATOM     25  C19 ZIN A   1      17.827  -0.166  14.310  0.00  0.00     0.036 A 
ATOM     26 Cl20 ZIN A   1      17.840  -0.869  15.898  0.00  0.00    -0.084 Cl
ENDBRANCH  14  16
ENDBRANCH   1  14
TORSDOF 10
ENDMDL
MODEL 7
REMARK VINA RESULT:      -6.5      3.156      7.028
REMARK  10 active torsions:
REMARK  status: ('A' for Active; 'I' for Inactive)
REMARK    1  A    between atoms: C2_2  and  N3_3 
REMARK    2  A    between atoms: N3_3  and  C5_5 
REMARK    3  A    between atoms: N3_3  and  C8_8 
REMARK    4  A    between atoms: C5_5  and  C6_6 
REMARK    5  A    between atoms: C6_6  and  O7_7 
REMARK    6  A    between atoms: C8_8  and  C9_9 
REMARK    7  A    between atoms: C9_9  and  C10_10 
REMARK    8  A    between atoms: C10_10  and  C11_11 
REMARK    9  A    between atoms: C11_11  and  N14_13 
REMARK   10  A    between atoms: N14_13  and  C15_14 
ROOT
ATOM      1  C11 ZIN A   1      18.852   3.030  11.255  0.00  0.00     0.077 C 
ATOM      2  C13 ZIN A   1      17.798   3.733  10.398  0.00  0.00     0.032 C 
ENDROOT
BRANCH   1   3
ATOM      3  C10 ZIN A   1      19.586   4.062  12.110  0.00  0.00     0.026 C 
BRANCH   3   4
ATOM      4  C9  ZIN A   1      18.583   4.784  13.013  0.00  0.00     0.030 C 
BRANCH   4   5
ATOM      5  C8  ZIN A   1      18.143   3.846  14.139  0.00  0.00     0.235 C 
BRANCH   5   6
ATOM      6  N3  ZIN A   1      19.311   3.466  14.944  0.00  0.00    -0.069 N 
ATOM      7  H4  ZIN A   1      20.151   3.592  14.398  0.00  0.00     0.279 HD
BRANCH   6   8
ATOM      8  C2  ZIN A   1      19.375   4.311  16.144  0.00  0.00     0.230 C 
ATOM      9  C1  ZIN A   1      20.492   5.345  15.981  0.00  0.00     0.034 C 
ENDBRANCH   6   8
BRANCH   6  10
ATOM     10  C5  ZIN A   1      19.193   2.057  15.343  0.00  0.00     0.260 C 
BRANCH  10  11
ATOM     11  C6  ZIN A   1      17.972   1.435  14.663  0.00  0.00     0.192 C 
BRANCH  11  12
ATOM     12  O7  ZIN A   1      17.123   0.849  15.652  0.00  0.00    -0.399 OA
ATOM     13  H35 ZIN A   1      16.198   1.128  15.591  0.00  0.00     0.209 HD
ENDBRANCH  11  12
ENDBRANCH  10  11
ENDBRANCH   6  10
ENDBRANCH   5   6
ENDBRANCH   4   5
ENDBRANCH   3   4
ENDBRANCH   1   3
BRANCH   1  14
ATOM     14  N14 ZIN A   1      19.811   2.345  10.384  0.00  0.00    -0.385 N 
ATOM     15  H45 ZIN A   1      20.583   2.822  10.044  0.00  0.00     0.160 HD
BRANCH  14  16
ATOM     16  C15 ZIN A   1      19.614   1.015  10.046  0.00  0.00     0.042 A 
ATOM     17  C25 ZIN A   1      19.700   0.013  11.000  0.00  0.00     0.049 A 
ATOM     18  C24 ZIN A   1      19.493  -1.308  10.630  0.00  0.00     0.119 A 
ATOM     19  N23 ZIN A   1      19.224  -1.647   9.391  0.00  0.00    -0.260 NA
ATOM     20  C22 ZIN A   1      19.131  -0.735   8.418  0.00  0.00     0.070 A 
ATOM     21  C16 ZIN A   1      19.324   0.636   8.713  0.00  0.00     0.019 A 
ATOM     22  C21 ZIN A   1      18.842  -1.114   7.096  0.00  0.00     0.056 A 
ATOM     23  C17 ZIN A   1      19.226   1.589   7.689  0.00  0.00     0.018 A 
ATOM     24  C18 ZIN A   1      18.945   1.186   6.418  0.00  0.00     0.025 A 
ATOM     25  C19 ZIN A   1      18.755  -0.163   6.124  0.00  0.00     0.036 A 
ATOM     26 Cl20 ZIN A   1      18.399  -0.639   4.492  0.00  0.00    -0.084 Cl
ENDBRANCH  14  16
ENDBRANCH   1  14
TORSDOF 10
ENDMDL
MODEL 8
REMARK VINA RESULT:      -6.5      4.261      6.728
REMARK  10 active torsions:
REMARK  status: ('A' for Active; 'I' for Inactive)
REMARK    1  A    between atoms: C2_2  and  N3_3 
REMARK    2  A    between atoms: N3_3  and  C5_5 
REMARK    3  A    between atoms: N3_3  and  C8_8 
REMARK    4  A    between atoms: C5_5  and  C6_6 
REMARK    5  A    between atoms: C6_6  and  O7_7 
REMARK    6  A    between atoms: C8_8  and  C9_9 
REMARK    7  A    between atoms: C9_9  and  C10_10 
REMARK    8  A    between atoms: C10_10  and  C11_11 
REMARK    9  A    between atoms: C11_11  and  N14_13 
REMARK   10  A    between atoms: N14_13  and  C15_14 
ROOT
ATOM      1  C11 ZIN A   1      19.403  -2.034  11.911  0.00  0.00     0.077 C 
ATOM      2  C13 ZIN A   1      19.136  -1.784  13.396  0.00  0.00     0.032 C 
ENDROOT
BRANCH   1   3
ATOM      3  C10 ZIN A   1      19.955  -3.448  11.722  0.00  0.00     0.026 C 
BRANCH   3   4
ATOM      4  C9  ZIN A   1      18.797  -4.420  11.482  0.00  0.00     0.030 C 
BRANCH   4   5
ATOM      5  C8  ZIN A   1      18.526  -4.530   9.981  0.00  0.00     0.235 C 
BRANCH   5   6
ATOM      6  N3  ZIN A   1      19.066  -5.800   9.478  0.00  0.00    -0.069 N 
ATOM      7  H4  ZIN A   1      19.305  -6.396  10.257  0.00  0.00     0.279 HD
BRANCH   6   8
ATOM      8  C2  ZIN A   1      18.056  -6.466   8.645  0.00  0.00     0.230 C 
ATOM      9  C1  ZIN A   1      16.660  -6.161   9.194  0.00  0.00     0.034 C 
ENDBRANCH   6   8
BRANCH   6  10
ATOM     10  C5  ZIN A   1      20.268  -5.538   8.675  0.00  0.00     0.260 C 
BRANCH  10  11
ATOM     11  C6  ZIN A   1      19.876  -4.786   7.401  0.00  0.00     0.192 C 
BRANCH  11  12
ATOM     12  O7  ZIN A   1      21.044  -4.218   6.807  0.00  0.00    -0.399 OA
ATOM     13  H35 ZIN A   1      21.234  -3.314   7.099  0.00  0.00     0.209 HD
ENDBRANCH  11  12
ENDBRANCH  10  11
ENDBRANCH   6  10
ENDBRANCH   5   6
ENDBRANCH   4   5
ENDBRANCH   3   4
ENDBRANCH   1   3
BRANCH   1  14
ATOM     14  N14 ZIN A   1      20.380  -1.058  11.419  0.00  0.00    -0.385 N 
ATOM     15  H45 ZIN A   1      21.328  -1.223  11.533  0.00  0.00     0.160 HD
BRANCH  14  16
ATOM     16  C15 ZIN A   1      19.947   0.100  10.791  0.00  0.00     0.042 A 
ATOM     17  C25 ZIN A   1      19.862   1.299  11.481  0.00  0.00     0.049 A 
ATOM     18  C24 ZIN A   1      19.429   2.442  10.823  0.00  0.00     0.119 A 
ATOM     19  N23 ZIN A   1      19.084   2.423   9.557  0.00  0.00    -0.260 NA
ATOM     20  C22 ZIN A   1      19.135   1.301   8.831  0.00  0.00     0.070 A 
ATOM     21  C16 ZIN A   1      19.571   0.093   9.427  0.00  0.00     0.019 A 
ATOM     22  C21 ZIN A   1      18.761   1.297   7.476  0.00  0.00     0.056 A 
ATOM     23  C17 ZIN A   1      19.623  -1.081   8.662  0.00  0.00     0.018 A 
ATOM     24  C18 ZIN A   1      19.253  -1.048   7.351  0.00  0.00     0.025 A 
ATOM     25  C19 ZIN A   1      18.822   0.140   6.761  0.00  0.00     0.036 A 
ATOM     26 Cl20 ZIN A   1      18.359   0.142   5.087  0.00  0.00    -0.084 Cl
ENDBRANCH  14  16
ENDBRANCH   1  14
TORSDOF 10
ENDMDL
MODEL 9
REMARK VINA RESULT:      -6.4      3.386      7.274
REMARK  10 active torsions:
REMARK  status: ('A' for Active; 'I' for Inactive)
REMARK    1  A    between atoms: C2_2  and  N3_3 
REMARK    2  A    between atoms: N3_3  and  C5_5 
REMARK    3  A    between atoms: N3_3  and  C8_8 
REMARK    4  A    between atoms: C5_5  and  C6_6 
REMARK    5  A    between atoms: C6_6  and  O7_7 
REMARK    6  A    between atoms: C8_8  and  C9_9 
REMARK    7  A    between atoms: C9_9  and  C10_10 
REMARK    8  A    between atoms: C10_10  and  C11_11 
REMARK    9  A    between atoms: C11_11  and  N14_13 
REMARK   10  A    between atoms: N14_13  and  C15_14 
ROOT
ATOM      1  C11 ZIN A   1      19.383  -1.452  11.934  0.00  0.00     0.077 C 
ATOM      2  C13 ZIN A   1      19.828  -2.816  11.404  0.00  0.00     0.032 C 
ENDROOT
BRANCH   1   3
ATOM      3  C10 ZIN A   1      18.847  -1.607  13.358  0.00  0.00     0.026 C 
BRANCH   3   4
ATOM      4  C9  ZIN A   1      19.041  -0.295  14.122  0.00  0.00     0.030 C 
BRANCH   4   5
ATOM      5  C8  ZIN A   1      17.675   0.318  14.437  0.00  0.00     0.235 C 
BRANCH   5   6
ATOM      6  N3  ZIN A   1      17.832   1.363  15.458  0.00  0.00    -0.069 N 
ATOM      7  H4  ZIN A   1      17.005   1.940  15.478  0.00  0.00     0.279 HD
BRANCH   6   8
ATOM      8  C2  ZIN A   1      18.026   0.738  16.773  0.00  0.00     0.230 C 
ATOM      9  C1  ZIN A   1      16.984  -0.366  16.972  0.00  0.00     0.034 C 
ENDBRANCH   6   8
BRANCH   6  10
ATOM     10  C5  ZIN A   1      19.000   2.193  15.133  0.00  0.00     0.260 C 
BRANCH  10  11
ATOM     11  C6  ZIN A   1      19.022   3.421  16.045  0.00  0.00     0.192 C 
BRANCH  11  12
ATOM     12  O7  ZIN A   1      20.321   3.561  16.624  0.00  0.00    -0.399 OA
ATOM     13  H35 ZIN A   1      20.809   4.337  16.311  0.00  0.00     0.209 HD
ENDBRANCH  11  12
ENDBRANCH  10  11
ENDBRANCH   6  10
ENDBRANCH   5   6
ENDBRANCH   4   5
ENDBRANCH   3   4
ENDBRANCH   1   3
BRANCH   1  14
ATOM     14  N14 ZIN A   1      18.328  -0.913  11.071  0.00  0.00    -0.385 N 
ATOM     15  H45 ZIN A   1      17.458  -1.340  11.044  0.00  0.00     0.160 HD
BRANCH  14  16
ATOM     16  C15 ZIN A   1      18.575   0.207  10.291  0.00  0.00     0.042 A 
ATOM     17  C25 ZIN A   1      18.719   1.460  10.865  0.00  0.00     0.049 A 
ATOM     18  C24 ZIN A   1      18.969   2.562  10.058  0.00  0.00     0.119 A 
ATOM     19  N23 ZIN A   1      19.067   2.456   8.753  0.00  0.00    -0.260 NA
ATOM     20  C22 ZIN A   1      18.934   1.280   8.132  0.00  0.00     0.070 A 
ATOM     21  C16 ZIN A   1      18.682   0.107   8.884  0.00  0.00     0.019 A 
ATOM     22  C21 ZIN A   1      19.042   1.183   6.733  0.00  0.00     0.056 A 
ATOM     23  C17 ZIN A   1      18.543  -1.124   8.227  0.00  0.00     0.018 A 
ATOM     24  C18 ZIN A   1      18.653  -1.181   6.870  0.00  0.00     0.025 A 
ATOM     25  C19 ZIN A   1      18.901  -0.028   6.126  0.00  0.00     0.036 A 
ATOM     26 Cl20 ZIN A   1      19.034  -0.139   4.398  0.00  0.00    -0.084 Cl
ENDBRANCH  14  16
ENDBRANCH   1  14
TORSDOF 10
ENDMDL
