MODEL 1
REMARK VINA RESULT:      -6.7      0.000      0.000
REMARK  10 active torsions:
REMARK  status: ('A' for Active; 'I' for Inactive)
REMARK    1  A    between atoms: C2_2  and  C3_3 
REMARK    2  A    between atoms: C3_3  and  C4_4 
REMARK    3  A    between atoms: C4_4  and  O5_5 
REMARK    4  A    between atoms: O5_5  and  C6_6 
REMARK    5  A    between atoms: C8_8  and  C9_9 
REMARK       I    between atoms: C9_9  and  N11_11 
REMARK    6  A    between atoms: N11_11  and  C12_12 
REMARK    7  A    between atoms: C12_12  and  C13_13 
REMARK    8  A    between atoms: C13_13  and  N14_14 
REMARK    9  A    between atoms: N14_14  and  C16_16 
REMARK   10  A    between atoms: N14_14  and  C18_18 
ROOT
ATOM      1  C6  ZIN A   1      18.658   3.063  14.812  0.00  0.00     0.165 A 
ATOM      2  C7  ZIN A   1      18.709   2.243  13.679  0.00  0.00     0.076 A 
ATOM      3  C8  ZIN A   1      18.859   0.873  13.833  0.00  0.00     0.048 A 
ATOM      4  C20 ZIN A   1      18.954   0.361  15.153  0.00  0.00     0.009 A 
ATOM      5  C21 ZIN A   1      19.107  -1.011  15.391  0.00  0.00     0.015 A 
ATOM      6  C22 ZIN A   1      19.196  -1.467  16.673  0.00  0.00     0.001 A 
ATOM      7  C23 ZIN A   1      19.137  -0.586  17.750  0.00  0.00     0.002 A 
ATOM      8  C24 ZIN A   1      18.989   0.753  17.554  0.00  0.00     0.032 A 
ATOM      9  C25 ZIN A   1      18.894   1.260  16.245  0.00  0.00     0.070 A 
ATOM     10  N26 ZIN A   1      18.753   2.571  16.027  0.00  0.00    -0.224 NA
ENDROOT
BRANCH   3  11
ATOM     11  C9  ZIN A   1      18.917  -0.026  12.660  0.00  0.00     0.252 C 
ATOM     12  O10 ZIN A   1      17.907  -0.567  12.257  0.00  0.00    -0.268 OA
ATOM     13  N11 ZIN A   1      20.093  -0.245  12.036  0.00  0.00    -0.355 N 
ATOM     14  H37 ZIN A   1      20.900   0.188  12.357  0.00  0.00     0.162 HD
BRANCH  13  15
ATOM     15  C12 ZIN A   1      20.151  -1.135  10.875  0.00  0.00     0.150 C 
BRANCH  15  16
ATOM     16  C13 ZIN A   1      20.044  -0.308   9.592  0.00  0.00     0.254 C 
BRANCH  16  17
ATOM     17  N14 ZIN A   1      18.658  -0.335   9.106  0.00  0.00    -0.070 N 
ATOM     18  H15 ZIN A   1      18.109  -0.945   9.692  0.00  0.00     0.279 HD
BRANCH  17  19
ATOM     19  C16 ZIN A   1      18.098   1.022   9.148  0.00  0.00     0.230 C 
ATOM     20  C17 ZIN A   1      19.234   2.038   9.281  0.00  0.00     0.034 C 
ENDBRANCH  17  19
BRANCH  17  21
ATOM     21  C18 ZIN A   1      18.635  -0.832   7.724  0.00  0.00     0.230 C 
ATOM     22  C19 ZIN A   1      17.437  -0.232   6.986  0.00  0.00     0.034 C 
ENDBRANCH  17  21
ENDBRANCH  16  17
ENDBRANCH  15  16
ENDBRANCH  13  15
ENDBRANCH   3  11
BRANCH   1  23
ATOM     23  O5  ZIN A   1      18.512   4.402  14.652  0.00  0.00    -0.334 OA
BRANCH  23  24
ATOM     24  C4  ZIN A   1      17.186   4.888  14.432  0.00  0.00     0.177 C 
BRANCH  24  25
ATOM     25  C3  ZIN A   1      17.180   5.823  13.221  0.00  0.00     0.026 C 
BRANCH  25  26
ATOM     26  C2  ZIN A   1      16.415   5.163  12.072  0.00  0.00    -0.002 C 
ATOM     27  C1  ZIN A   1      17.386   4.832  10.937  0.00  0.00     0.005 C 
ENDBRANCH  25  26
ENDBRANCH  24  25
ENDBRANCH  23  24
ENDBRANCH   1  23
TORSDOF 10
ENDMDL
MODEL 2
REMARK VINA RESULT:      -6.6      2.778      3.827
REMARK  10 active torsions:
REMARK  status: ('A' for Active; 'I' for Inactive)
REMARK    1  A    between atoms: C2_2  and  C3_3 
REMARK    2  A    between atoms: C3_3  and  C4_4 
REMARK    3  A    between atoms: C4_4  and  O5_5 
REMARK    4  A    between atoms: O5_5  and  C6_6 
REMARK    5  A    between atoms: C8_8  and  C9_9 
REMARK       I    between atoms: C9_9  and  N11_11 
REMARK    6  A    between atoms: N11_11  and  C12_12 
REMARK    7  A    between atoms: C12_12  and  C13_13 
REMARK    8  A    between atoms: C13_13  and  N14_14 
REMARK    9  A    between atoms: N14_14  and  C16_16 
REMARK   10  A    between atoms: N14_14  and  C18_18 
ROOT
ATOM      1  C6  ZIN A   1      17.554   1.200  12.500  0.00  0.00     0.165 A 
ATOM      2  C7  ZIN A   1      17.869  -0.058  11.971  0.00  0.00     0.076 A 
ATOM      3  C8  ZIN A   1      18.286  -1.071  12.820  0.00  0.00     0.048 A 
ATOM      4  C20 ZIN A   1      18.375  -0.781  14.207  0.00  0.00     0.009 A 
ATOM      5  C21 ZIN A   1      18.788  -1.751  15.128  0.00  0.00     0.015 A 
ATOM      6  C22 ZIN A   1      18.863  -1.436  16.452  0.00  0.00     0.001 A 
ATOM      7  C23 ZIN A   1      18.532  -0.160  16.902  0.00  0.00     0.002 A 
ATOM      8  C24 ZIN A   1      18.126   0.807  16.033  0.00  0.00     0.032 A 
ATOM      9  C25 ZIN A   1      18.038   0.518  14.659  0.00  0.00     0.070 A 
ATOM     10  N26 ZIN A   1      17.647   1.452  13.787  0.00  0.00    -0.224 NA
ENDROOT
BRANCH   3  11
ATOM     11  C9  ZIN A   1      18.627  -2.413  12.299  0.00  0.00     0.252 C 
ATOM     12  O10 ZIN A   1      19.781  -2.687  12.034  0.00  0.00    -0.268 OA
ATOM     13  N11 ZIN A   1      17.657  -3.332  12.116  0.00  0.00    -0.355 N 
ATOM     14  H37 ZIN A   1      16.736  -3.113  12.328  0.00  0.00     0.162 HD
BRANCH  13  15
ATOM     15  C12 ZIN A   1      17.995  -4.660  11.599  0.00  0.00     0.150 C 
BRANCH  15  16
ATOM     16  C13 ZIN A   1      17.762  -4.694  10.087  0.00  0.00     0.254 C 
BRANCH  16  17
ATOM     17  N14 ZIN A   1      19.049  -4.566   9.391  0.00  0.00    -0.070 N 
ATOM     18  H15 ZIN A   1      19.725  -4.141  10.008  0.00  0.00     0.279 HD
BRANCH  17  19
ATOM     19  C16 ZIN A   1      19.523  -5.898   8.990  0.00  0.00     0.230 C 
ATOM     20  C17 ZIN A   1      18.377  -6.670   8.332  0.00  0.00     0.034 C 
ENDBRANCH  17  19
BRANCH  17  21
ATOM     21  C18 ZIN A   1      18.879  -3.728   8.198  0.00  0.00     0.230 C 
ATOM     22  C19 ZIN A   1      18.910  -2.253   8.603  0.00  0.00     0.034 C 
ENDBRANCH  17  21
ENDBRANCH  16  17
ENDBRANCH  15  16
ENDBRANCH  13  15
ENDBRANCH   3  11
BRANCH   1  23
ATOM     23  O5  ZIN A   1      17.147   2.185  11.662  0.00  0.00    -0.334 OA
BRANCH  23  24
ATOM     24  C4  ZIN A   1      18.056   3.266  11.441  0.00  0.00     0.177 C 
BRANCH  24  25
ATOM     25  C3  ZIN A   1      18.311   3.418   9.940  0.00  0.00     0.026 C 
BRANCH  25  26
ATOM     26  C2  ZIN A   1      19.347   2.385   9.492  0.00  0.00    -0.002 C 
ATOM     27  C1  ZIN A   1      18.709   1.428   8.484  0.00  0.00     0.005 C 
ENDBRANCH  25  26
ENDBRANCH  24  25
ENDBRANCH  23  24
ENDBRANCH   1  23
TORSDOF 10
ENDMDL
MODEL 3
REMARK VINA RESULT:      -6.6      2.979      8.561
REMARK  10 active torsions:
REMARK  status: ('A' for Active; 'I' for Inactive)
REMARK    1  A    between atoms: C2_2  and  C3_3 
REMARK    2  A    between atoms: C3_3  and  C4_4 
REMARK    3  A    between atoms: C4_4  and  O5_5 
REMARK    4  A    between atoms: O5_5  and  C6_6 
REMARK    5  A    between atoms: C8_8  and  C9_9 
REMARK       I    between atoms: C9_9  and  N11_11 
REMARK    6  A    between atoms: N11_11  and  C12_12 
REMARK    7  A    between atoms: C12_12  and  C13_13 
REMARK    8  A    between atoms: C13_13  and  N14_14 
REMARK    9  A    between atoms: N14_14  and  C16_16 
REMARK   10  A    between atoms: N14_14  and  C18_18 
ROOT
ATOM      1  C6  ZIN A   1      19.127  -3.424   7.856  0.00  0.00     0.165 A 
ATOM      2  C7  ZIN A   1      19.012  -2.541   8.936  0.00  0.00     0.076 A 
ATOM      3  C8  ZIN A   1      18.965  -1.175   8.701  0.00  0.00     0.048 A 
ATOM      4  C20 ZIN A   1      19.037  -0.731   7.355  0.00  0.00     0.009 A 
ATOM      5  C21 ZIN A   1      18.996   0.632   7.036  0.00  0.00     0.015 A 
ATOM      6  C22 ZIN A   1      19.069   1.022   5.732  0.00  0.00     0.001 A 
ATOM      7  C23 ZIN A   1      19.183   0.082   4.711  0.00  0.00     0.002 A 
ATOM      8  C24 ZIN A   1      19.226  -1.251   4.986  0.00  0.00     0.032 A 
ATOM      9  C25 ZIN A   1      19.153  -1.691   6.320  0.00  0.00     0.070 A 
ATOM     10  N26 ZIN A   1      19.198  -2.993   6.616  0.00  0.00    -0.224 NA
ENDROOT
BRANCH   3  11
ATOM     11  C9  ZIN A   1      18.843  -0.212   9.817  0.00  0.00     0.252 C 
ATOM     12  O10 ZIN A   1      17.745   0.145  10.195  0.00  0.00    -0.268 OA
ATOM     13  N11 ZIN A   1      19.951   0.270  10.415  0.00  0.00    -0.355 N 
ATOM     14  H37 ZIN A   1      20.828  -0.016  10.113  0.00  0.00     0.162 HD
BRANCH  13  15
ATOM     15  C12 ZIN A   1      19.831   1.224  11.520  0.00  0.00     0.150 C 
BRANCH  15  16
ATOM     16  C13 ZIN A   1      19.860   0.470  12.851  0.00  0.00     0.254 C 
BRANCH  16  17
ATOM     17  N14 ZIN A   1      18.505   0.008  13.181  0.00  0.00    -0.070 N 
ATOM     18  H15 ZIN A   1      17.951  -0.036  12.339  0.00  0.00     0.279 HD
BRANCH  17  19
ATOM     19  C16 ZIN A   1      18.578  -1.326  13.791  0.00  0.00     0.230 C 
ATOM     20  C17 ZIN A   1      19.177  -2.313  12.787  0.00  0.00     0.034 C 
ENDBRANCH  17  19
BRANCH  17  21
ATOM     21  C18 ZIN A   1      17.886   0.946  14.126  0.00  0.00     0.230 C 
ATOM     22  C19 ZIN A   1      17.638   0.237  15.459  0.00  0.00     0.034 C 
ENDBRANCH  17  21
ENDBRANCH  16  17
ENDBRANCH  15  16
ENDBRANCH  13  15
ENDBRANCH   3  11
BRANCH   1  23
ATOM     23  O5  ZIN A   1      19.173  -4.757   8.095  0.00  0.00    -0.334 OA
BRANCH  23  24
ATOM     24  C4  ZIN A   1      19.218  -5.170   9.463  0.00  0.00     0.177 C 
BRANCH  24  25
ATOM     25  C3  ZIN A   1      17.968  -5.990   9.789  0.00  0.00     0.026 C 
BRANCH  25  26
ATOM     26  C2  ZIN A   1      17.577  -5.762  11.251  0.00  0.00    -0.002 C 
ATOM     27  C1  ZIN A   1      16.575  -4.609  11.337  0.00  0.00     0.005 C 
ENDBRANCH  25  26
ENDBRANCH  24  25
ENDBRANCH  23  24
ENDBRANCH   1  23
TORSDOF 10
ENDMDL
MODEL 4
REMARK VINA RESULT:      -6.6      1.104      1.672
REMARK  10 active torsions:
REMARK  status: ('A' for Active; 'I' for Inactive)
REMARK    1  A    between atoms: C2_2  and  C3_3 
REMARK    2  A    between atoms: C3_3  and  C4_4 
REMARK    3  A    between atoms: C4_4  and  O5_5 
REMARK    4  A    between atoms: O5_5  and  C6_6 
REMARK    5  A    between atoms: C8_8  and  C9_9 
REMARK       I    between atoms: C9_9  and  N11_11 
REMARK    6  A    between atoms: N11_11  and  C12_12 
REMARK    7  A    between atoms: C12_12  and  C13_13 
REMARK    8  A    between atoms: C13_13  and  N14_14 
REMARK    9  A    between atoms: N14_14  and  C16_16 
REMARK   10  A    between atoms: N14_14  and  C18_18 
ROOT
ATOM      1  C6  ZIN A   1      18.828   3.157  14.574  0.00  0.00     0.165 A 
ATOM      2  C7  ZIN A   1      18.821   2.426  13.380  0.00  0.00     0.076 A 
ATOM      3  C8  ZIN A   1      18.859   1.041  13.426  0.00  0.00     0.048 A 
ATOM      4  C20 ZIN A   1      18.903   0.420  14.702  0.00  0.00     0.009 A 
ATOM      5  C21 ZIN A   1      18.943  -0.973  14.832  0.00  0.00     0.015 A 
ATOM      6  C22 ZIN A   1      18.986  -1.534  16.074  0.00  0.00     0.001 A 
ATOM      7  C23 ZIN A   1      18.990  -0.739  17.217  0.00  0.00     0.002 A 
ATOM      8  C24 ZIN A   1      18.952   0.620  17.126  0.00  0.00     0.032 A 
ATOM      9  C25 ZIN A   1      18.907   1.234  15.861  0.00  0.00     0.070 A 
ATOM     10  N26 ZIN A   1      18.874   2.564  15.747  0.00  0.00    -0.224 NA
ENDROOT
BRANCH   3  11
ATOM     11  C9  ZIN A   1      18.853   0.234  12.186  0.00  0.00     0.252 C 
ATOM     12  O10 ZIN A   1      19.902  -0.126  11.690  0.00  0.00    -0.268 OA
ATOM     13  N11 ZIN A   1      17.683  -0.101  11.606  0.00  0.00    -0.355 N 
ATOM     14  H37 ZIN A   1      16.845   0.186  12.002  0.00  0.00     0.162 HD
BRANCH  13  15
ATOM     15  C12 ZIN A   1      17.677  -0.899  10.377  0.00  0.00     0.150 C 
BRANCH  15  16
ATOM     16  C13 ZIN A   1      17.626   0.032   9.164  0.00  0.00     0.254 C 
BRANCH  16  17
ATOM     17  N14 ZIN A   1      18.974   0.170   8.596  0.00  0.00    -0.070 N 
ATOM     18  H15 ZIN A   1      19.659  -0.090   9.290  0.00  0.00     0.279 HD
BRANCH  17  19
ATOM     19  C16 ZIN A   1      19.104  -0.709   7.426  0.00  0.00     0.230 C 
ATOM     20  C17 ZIN A   1      18.747   0.072   6.160  0.00  0.00     0.034 C 
ENDBRANCH  17  19
BRANCH  17  21
ATOM     21  C18 ZIN A   1      19.193   1.563   8.189  0.00  0.00     0.230 C 
ATOM     22  C19 ZIN A   1      18.868   2.494   9.359  0.00  0.00     0.034 C 
ENDBRANCH  17  21
ENDBRANCH  16  17
ENDBRANCH  15  16
ENDBRANCH  13  15
ENDBRANCH   3  11
BRANCH   1  23
ATOM     23  O5  ZIN A   1      18.791   4.511  14.519  0.00  0.00    -0.334 OA
BRANCH  23  24
ATOM     24  C4  ZIN A   1      17.536   5.137  14.792  0.00  0.00     0.177 C 
BRANCH  24  25
ATOM     25  C3  ZIN A   1      17.194   6.107  13.659  0.00  0.00     0.026 C 
BRANCH  25  26
ATOM     26  C2  ZIN A   1      16.258   5.417  12.664  0.00  0.00    -0.002 C 
ATOM     27  C1  ZIN A   1      17.022   5.109  11.375  0.00  0.00     0.005 C 
ENDBRANCH  25  26
ENDBRANCH  24  25
ENDBRANCH  23  24
ENDBRANCH   1  23
TORSDOF 10
ENDMDL
MODEL 5
REMARK VINA RESULT:      -6.6      1.560      4.675
REMARK  10 active torsions:
REMARK  status: ('A' for Active; 'I' for Inactive)
REMARK    1  A    between atoms: C2_2  and  C3_3 
REMARK    2  A    between atoms: C3_3  and  C4_4 
REMARK    3  A    between atoms: C4_4  and  O5_5 
REMARK    4  A    between atoms: O5_5  and  C6_6 
REMARK    5  A    between atoms: C8_8  and  C9_9 
REMARK       I    between atoms: C9_9  and  N11_11 
REMARK    6  A    between atoms: N11_11  and  C12_12 
REMARK    7  A    between atoms: C12_12  and  C13_13 
REMARK    8  A    between atoms: C13_13  and  N14_14 
REMARK    9  A    between atoms: N14_14  and  C16_16 
REMARK   10  A    between atoms: N14_14  and  C18_18 
ROOT
ATOM      1  C6  ZIN A   1      18.460   2.479  14.983  0.00  0.00     0.165 A 
ATOM      2  C7  ZIN A   1      18.925   1.479  14.121  0.00  0.00     0.076 A 
ATOM      3  C8  ZIN A   1      18.779   1.636  12.751  0.00  0.00     0.048 A 
ATOM      4  C20 ZIN A   1      18.156   2.821  12.282  0.00  0.00     0.009 A 
ATOM      5  C21 ZIN A   1      17.972   3.053  10.913  0.00  0.00     0.015 A 
ATOM      6  C22 ZIN A   1      17.369   4.203  10.498  0.00  0.00     0.001 A 
ATOM      7  C23 ZIN A   1      16.933   5.153  11.419  0.00  0.00     0.002 A 
ATOM      8  C24 ZIN A   1      17.096   4.958  12.757  0.00  0.00     0.032 A 
ATOM      9  C25 ZIN A   1      17.714   3.784  13.222  0.00  0.00     0.070 A 
ATOM     10  N26 ZIN A   1      17.881   3.568  14.530  0.00  0.00    -0.224 NA
ENDROOT
BRANCH   3  11
ATOM     11  C9  ZIN A   1      19.258   0.601  11.809  0.00  0.00     0.252 C 
ATOM     12  O10 ZIN A   1      20.416   0.601  11.441  0.00  0.00    -0.268 OA
ATOM     13  N11 ZIN A   1      18.408  -0.344  11.357  0.00  0.00    -0.355 N 
ATOM     14  H37 ZIN A   1      17.483  -0.345  11.651  0.00  0.00     0.162 HD
BRANCH  13  15
ATOM     15  C12 ZIN A   1      18.881  -1.369  10.423  0.00  0.00     0.150 C 
BRANCH  15  16
ATOM     16  C13 ZIN A   1      18.135  -1.232   9.094  0.00  0.00     0.254 C 
BRANCH  16  17
ATOM     17  N14 ZIN A   1      19.057  -0.738   8.063  0.00  0.00    -0.070 N 
ATOM     18  H15 ZIN A   1      19.963  -0.573   8.474  0.00  0.00     0.279 HD
BRANCH  17  19
ATOM     19  C16 ZIN A   1      19.177  -1.737   6.994  0.00  0.00     0.230 C 
ATOM     20  C17 ZIN A   1      19.211  -1.031   5.637  0.00  0.00     0.034 C 
ENDBRANCH  17  19
BRANCH  17  21
ATOM     21  C18 ZIN A   1      18.538   0.517   7.505  0.00  0.00     0.230 C 
ATOM     22  C19 ZIN A   1      19.357   1.692   8.042  0.00  0.00     0.034 C 
ENDBRANCH  17  21
ENDBRANCH  16  17
ENDBRANCH  15  16
ENDBRANCH  13  15
ENDBRANCH   3  11
BRANCH   1  23
ATOM     23  O5  ZIN A   1      18.607   2.317  16.321  0.00  0.00    -0.334 OA
BRANCH  23  24
ATOM     24  C4  ZIN A   1      18.861   0.991  16.791  0.00  0.00     0.177 C 
BRANCH  24  25
ATOM     25  C3  ZIN A   1      17.627   0.466  17.527  0.00  0.00     0.026 C 
BRANCH  25  26
ATOM     26  C2  ZIN A   1      17.119  -0.800  16.832  0.00  0.00    -0.002 C 
ATOM     27  C1  ZIN A   1      18.302  -1.562  16.233  0.00  0.00     0.005 C 
ENDBRANCH  25  26
ENDBRANCH  24  25
ENDBRANCH  23  24
ENDBRANCH   1  23
TORSDOF 10
ENDMDL
MODEL 6
REMARK VINA RESULT:      -6.6      3.323      7.423
REMARK  10 active torsions:
REMARK  status: ('A' for Active; 'I' for Inactive)
REMARK    1  A    between atoms: C2_2  and  C3_3 
REMARK    2  A    between atoms: C3_3  and  C4_4 
REMARK    3  A    between atoms: C4_4  and  O5_5 
REMARK    4  A    between atoms: O5_5  and  C6_6 
REMARK    5  A    between atoms: C8_8  and  C9_9 
REMARK       I    between atoms: C9_9  and  N11_11 
REMARK    6  A    between atoms: N11_11  and  C12_12 
REMARK    7  A    between atoms: C12_12  and  C13_13 
REMARK    8  A    between atoms: C13_13  and  N14_14 
REMARK    9  A    between atoms: N14_14  and  C16_16 
REMARK   10  A    between atoms: N14_14  and  C18_18 
ROOT
ATOM      1  C6  ZIN A   1      19.227  -2.864   7.530  0.00  0.00     0.165 A 
ATOM      2  C7  ZIN A   1      19.106  -1.883   8.521  0.00  0.00     0.076 A 
ATOM      3  C8  ZIN A   1      18.540  -2.213   9.744  0.00  0.00     0.048 A 
ATOM      4  C20 ZIN A   1      18.104  -3.550   9.934  0.00  0.00     0.009 A 
ATOM      5  C21 ZIN A   1      17.523  -3.960  11.140  0.00  0.00     0.015 A 
ATOM      6  C22 ZIN A   1      17.114  -5.252  11.287  0.00  0.00     0.001 A 
ATOM      7  C23 ZIN A   1      17.268  -6.172  10.252  0.00  0.00     0.002 A 
ATOM      8  C24 ZIN A   1      17.830  -5.806   9.066  0.00  0.00     0.032 A 
ATOM      9  C25 ZIN A   1      18.263  -4.481   8.879  0.00  0.00     0.070 A 
ATOM     10  N26 ZIN A   1      18.812  -4.097   7.723  0.00  0.00    -0.224 NA
ENDROOT
BRANCH   3  11
ATOM     11  C9  ZIN A   1      18.396  -1.203  10.815  0.00  0.00     0.252 C 
ATOM     12  O10 ZIN A   1      19.324  -0.977  11.566  0.00  0.00    -0.268 OA
ATOM     13  N11 ZIN A   1      17.234  -0.535  10.959  0.00  0.00    -0.355 N 
ATOM     14  H37 ZIN A   1      16.493  -0.715  10.359  0.00  0.00     0.162 HD
BRANCH  13  15
ATOM     15  C12 ZIN A   1      17.090   0.465  12.020  0.00  0.00     0.150 C 
BRANCH  15  16
ATOM     16  C13 ZIN A   1      17.468   1.844  11.477  0.00  0.00     0.254 C 
BRANCH  16  17
ATOM     17  N14 ZIN A   1      18.858   2.149  11.840  0.00  0.00    -0.070 N 
ATOM     18  H15 ZIN A   1      19.323   1.303  12.132  0.00  0.00     0.279 HD
BRANCH  17  19
ATOM     19  C16 ZIN A   1      19.555   2.715  10.677  0.00  0.00     0.230 C 
ATOM     20  C17 ZIN A   1      18.792   2.356   9.401  0.00  0.00     0.034 C 
ENDBRANCH  17  19
BRANCH  17  21
ATOM     21  C18 ZIN A   1      18.874   3.121  12.941  0.00  0.00     0.230 C 
ATOM     22  C19 ZIN A   1      19.563   4.406  12.478  0.00  0.00     0.034 C 
ENDBRANCH  17  21
ENDBRANCH  16  17
ENDBRANCH  15  16
ENDBRANCH  13  15
ENDBRANCH   3  11
BRANCH   1  23
ATOM     23  O5  ZIN A   1      19.781  -2.533   6.338  0.00  0.00    -0.334 OA
BRANCH  23  24
ATOM     24  C4  ZIN A   1      18.975  -2.724   5.172  0.00  0.00     0.177 C 
BRANCH  24  25
ATOM     25  C3  ZIN A   1      18.325  -1.397   4.780  0.00  0.00     0.026 C 
BRANCH  25  26
ATOM     26  C2  ZIN A   1      19.361  -0.275   4.872  0.00  0.00    -0.002 C 
ATOM     27  C1  ZIN A   1      18.891   0.772   5.884  0.00  0.00     0.005 C 
ENDBRANCH  25  26
ENDBRANCH  24  25
ENDBRANCH  23  24
ENDBRANCH   1  23
TORSDOF 10
ENDMDL
MODEL 7
REMARK VINA RESULT:      -6.5      1.773      2.381
REMARK  10 active torsions:
REMARK  status: ('A' for Active; 'I' for Inactive)
REMARK    1  A    between atoms: C2_2  and  C3_3 
REMARK    2  A    between atoms: C3_3  and  C4_4 
REMARK    3  A    between atoms: C4_4  and  O5_5 
REMARK    4  A    between atoms: O5_5  and  C6_6 
REMARK    5  A    between atoms: C8_8  and  C9_9 
REMARK       I    between atoms: C9_9  and  N11_11 
REMARK    6  A    between atoms: N11_11  and  C12_12 
REMARK    7  A    between atoms: C12_12  and  C13_13 
REMARK    8  A    between atoms: C13_13  and  N14_14 
REMARK    9  A    between atoms: N14_14  and  C16_16 
REMARK   10  A    between atoms: N14_14  and  C18_18 
ROOT
ATOM      1  C6  ZIN A   1      18.227   2.699  14.211  0.00  0.00     0.165 A 
ATOM      2  C7  ZIN A   1      17.999   1.720  13.236  0.00  0.00     0.076 A 
ATOM      3  C8  ZIN A   1      18.107   0.380  13.576  0.00  0.00     0.048 A 
ATOM      4  C20 ZIN A   1      18.448   0.061  14.916  0.00  0.00     0.009 A 
ATOM      5  C21 ZIN A   1      18.575  -1.269  15.337  0.00  0.00     0.015 A 
ATOM      6  C22 ZIN A   1      18.905  -1.539  16.631  0.00  0.00     0.001 A 
ATOM      7  C23 ZIN A   1      19.116  -0.507  17.544  0.00  0.00     0.002 A 
ATOM      8  C24 ZIN A   1      19.000   0.796  17.168  0.00  0.00     0.032 A 
ATOM      9  C25 ZIN A   1      18.661   1.112  15.840  0.00  0.00     0.070 A 
ATOM     10  N26 ZIN A   1      18.547   2.384  15.446  0.00  0.00    -0.224 NA
ENDROOT
BRANCH   3  11
ATOM     11  C9  ZIN A   1      17.873  -0.683  12.574  0.00  0.00     0.252 C 
ATOM     12  O10 ZIN A   1      16.742  -0.940  12.212  0.00  0.00    -0.268 OA
ATOM     13  N11 ZIN A   1      18.917  -1.366  12.062  0.00  0.00    -0.355 N 
ATOM     14  H37 ZIN A   1      19.820  -1.160  12.350  0.00  0.00     0.162 HD
BRANCH  13  15
ATOM     15  C12 ZIN A   1      18.686  -2.419  11.069  0.00  0.00     0.150 C 
BRANCH  15  16
ATOM     16  C13 ZIN A   1      19.170  -1.943   9.698  0.00  0.00     0.254 C 
BRANCH  16  17
ATOM     17  N14 ZIN A   1      19.340  -3.101   8.810  0.00  0.00    -0.070 N 
ATOM     18  H15 ZIN A   1      20.312  -3.187   8.552  0.00  0.00     0.279 HD
BRANCH  17  19
ATOM     19  C16 ZIN A   1      18.908  -4.320   9.507  0.00  0.00     0.230 C 
ATOM     20  C17 ZIN A   1      19.965  -5.412   9.326  0.00  0.00     0.034 C 
ENDBRANCH  17  19
BRANCH  17  21
ATOM     21  C18 ZIN A   1      18.528  -2.913   7.602  0.00  0.00     0.230 C 
ATOM     22  C19 ZIN A   1      19.446  -2.775   6.386  0.00  0.00     0.034 C 
ENDBRANCH  17  21
ENDBRANCH  16  17
ENDBRANCH  15  16
ENDBRANCH  13  15
ENDBRANCH   3  11
BRANCH   1  23
ATOM     23  O5  ZIN A   1      18.120   4.007  13.870  0.00  0.00    -0.334 OA
BRANCH  23  24
ATOM     24  C4  ZIN A   1      18.443   4.355  12.522  0.00  0.00     0.177 C 
BRANCH  24  25
ATOM     25  C3  ZIN A   1      17.231   5.016  11.863  0.00  0.00     0.026 C 
BRANCH  25  26
ATOM     26  C2  ZIN A   1      17.336   4.872  10.343  0.00  0.00    -0.002 C 
ATOM     27  C1  ZIN A   1      18.207   3.661  10.004  0.00  0.00     0.005 C 
ENDBRANCH  25  26
ENDBRANCH  24  25
ENDBRANCH  23  24
ENDBRANCH   1  23
TORSDOF 10
ENDMDL
MODEL 8
REMARK VINA RESULT:      -6.4      2.510      7.723
REMARK  10 active torsions:
REMARK  status: ('A' for Active; 'I' for Inactive)
REMARK    1  A    between atoms: C2_2  and  C3_3 
REMARK    2  A    between atoms: C3_3  and  C4_4 
REMARK    3  A    between atoms: C4_4  and  O5_5 
REMARK    4  A    between atoms: O5_5  and  C6_6 
REMARK    5  A    between atoms: C8_8  and  C9_9 
REMARK       I    between atoms: C9_9  and  N11_11 
REMARK    6  A    between atoms: N11_11  and  C12_12 
REMARK    7  A    between atoms: C12_12  and  C13_13 
REMARK    8  A    between atoms: C13_13  and  N14_14 
REMARK    9  A    between atoms: N14_14  and  C16_16 
REMARK   10  A    between atoms: N14_14  and  C18_18 
ROOT
ATOM      1  C6  ZIN A   1      17.824  -1.479  10.285  0.00  0.00     0.165 A 
ATOM      2  C7  ZIN A   1      18.009  -0.194  10.810  0.00  0.00     0.076 A 
ATOM      3  C8  ZIN A   1      18.363   0.845   9.963  0.00  0.00     0.048 A 
ATOM      4  C20 ZIN A   1      18.523   0.552   8.584  0.00  0.00     0.009 A 
ATOM      5  C21 ZIN A   1      18.880   1.547   7.665  0.00  0.00     0.015 A 
ATOM      6  C22 ZIN A   1      19.026   1.229   6.348  0.00  0.00     0.001 A 
ATOM      7  C23 ZIN A   1      18.824  -0.075   5.902  0.00  0.00     0.002 A 
ATOM      8  C24 ZIN A   1      18.477  -1.067   6.769  0.00  0.00     0.032 A 
ATOM      9  C25 ZIN A   1      18.317  -0.775   8.135  0.00  0.00     0.070 A 
ATOM     10  N26 ZIN A   1      17.982  -1.732   9.005  0.00  0.00    -0.224 NA
ENDROOT
BRANCH   3  11
ATOM     11  C9  ZIN A   1      18.567   2.216  10.480  0.00  0.00     0.252 C 
ATOM     12  O10 ZIN A   1      19.691   2.628  10.684  0.00  0.00    -0.268 OA
ATOM     13  N11 ZIN A   1      17.504   3.009  10.726  0.00  0.00    -0.355 N 
ATOM     14  H37 ZIN A   1      16.605   2.680  10.562  0.00  0.00     0.162 HD
BRANCH  13  15
ATOM     15  C12 ZIN A   1      17.705   4.366  11.238  0.00  0.00     0.150 C 
BRANCH  15  16
ATOM     16  C13 ZIN A   1      17.568   4.362  12.762  0.00  0.00     0.254 C 
BRANCH  16  17
ATOM     17  N14 ZIN A   1      18.864   4.035  13.370  0.00  0.00    -0.070 N 
ATOM     18  H15 ZIN A   1      19.432   3.536  12.702  0.00  0.00     0.279 HD
BRANCH  17  19
ATOM     19  C16 ZIN A   1      19.547   5.275  13.765  0.00  0.00     0.230 C 
ATOM     20  C17 ZIN A   1      18.565   6.181  14.510  0.00  0.00     0.034 C 
ENDBRANCH  17  19
BRANCH  17  21
ATOM     21  C18 ZIN A   1      18.651   3.195  14.554  0.00  0.00     0.230 C 
ATOM     22  C19 ZIN A   1      17.991   1.880  14.135  0.00  0.00     0.034 C 
ENDBRANCH  17  21
ENDBRANCH  16  17
ENDBRANCH  15  16
ENDBRANCH  13  15
ENDBRANCH   3  11
BRANCH   1  23
ATOM     23  O5  ZIN A   1      17.478  -2.489  11.121  0.00  0.00    -0.334 OA
BRANCH  23  24
ATOM     24  C4  ZIN A   1      18.366  -2.767  12.205  0.00  0.00     0.177 C 
BRANCH  24  25
ATOM     25  C3  ZIN A   1      19.544  -3.601  11.698  0.00  0.00     0.026 C 
BRANCH  25  26
ATOM     26  C2  ZIN A   1      19.016  -4.851  10.990  0.00  0.00    -0.002 C 
ATOM     27  C1  ZIN A   1      19.716  -5.006   9.639  0.00  0.00     0.005 C 
ENDBRANCH  25  26
ENDBRANCH  24  25
ENDBRANCH  23  24
ENDBRANCH   1  23
TORSDOF 10
ENDMDL
MODEL 9
REMARK VINA RESULT:      -6.3      2.375      5.464
REMARK  10 active torsions:
REMARK  status: ('A' for Active; 'I' for Inactive)
REMARK    1  A    between atoms: C2_2  and  C3_3 
REMARK    2  A    between atoms: C3_3  and  C4_4 
REMARK    3  A    between atoms: C4_4  and  O5_5 
REMARK    4  A    between atoms: O5_5  and  C6_6 
REMARK    5  A    between atoms: C8_8  and  C9_9 
REMARK       I    between atoms: C9_9  and  N11_11 
REMARK    6  A    between atoms: N11_11  and  C12_12 
REMARK    7  A    between atoms: C12_12  and  C13_13 
REMARK    8  A    between atoms: C13_13  and  N14_14 
REMARK    9  A    between atoms: N14_14  and  C16_16 
REMARK   10  A    between atoms: N14_14  and  C18_18 
ROOT
ATOM      1  C6  ZIN A   1      19.209   1.279  13.764  0.00  0.00     0.165 A 
ATOM      2  C7  ZIN A   1      19.356   0.314  12.760  0.00  0.00     0.076 A 
ATOM      3  C8  ZIN A   1      19.115   0.660  11.439  0.00  0.00     0.048 A 
ATOM      4  C20 ZIN A   1      18.725   1.997  11.164  0.00  0.00     0.009 A 
ATOM      5  C21 ZIN A   1      18.463   2.423   9.856  0.00  0.00     0.015 A 
ATOM      6  C22 ZIN A   1      18.089   3.714   9.629  0.00  0.00     0.001 A 
ATOM      7  C23 ZIN A   1      17.964   4.617  10.683  0.00  0.00     0.002 A 
ATOM      8  C24 ZIN A   1      18.211   4.235  11.966  0.00  0.00     0.032 A 
ATOM      9  C25 ZIN A   1      18.599   2.910  12.238  0.00  0.00     0.070 A 
ATOM     10  N26 ZIN A   1      18.841   2.511  13.490  0.00  0.00    -0.224 NA
ENDROOT
BRANCH   3  11
ATOM     11  C9  ZIN A   1      19.260  -0.332  10.351  0.00  0.00     0.252 C 
ATOM     12  O10 ZIN A   1      20.349  -0.530   9.851  0.00  0.00    -0.268 OA
ATOM     13  N11 ZIN A   1      18.183  -1.015   9.915  0.00  0.00    -0.355 N 
ATOM     14  H37 ZIN A   1      17.313  -0.857  10.315  0.00  0.00     0.162 HD
BRANCH  13  15
ATOM     15  C12 ZIN A   1      18.326  -1.998   8.837  0.00  0.00     0.150 C 
BRANCH  15  16
ATOM     16  C13 ZIN A   1      18.305  -3.409   9.427  0.00  0.00     0.254 C 
BRANCH  16  17
ATOM     17  N14 ZIN A   1      19.676  -3.827   9.747  0.00  0.00    -0.070 N 
ATOM     18  H15 ZIN A   1      20.329  -3.170   9.349  0.00  0.00     0.279 HD
BRANCH  17  19
ATOM     19  C16 ZIN A   1      19.848  -3.867  11.206  0.00  0.00     0.230 C 
ATOM     20  C17 ZIN A   1      18.479  -3.986  11.877  0.00  0.00     0.034 C 
ENDBRANCH  17  19
BRANCH  17  21
ATOM     21  C18 ZIN A   1      19.923  -5.162   9.189  0.00  0.00     0.230 C 
ATOM     22  C19 ZIN A   1      18.614  -5.739   8.647  0.00  0.00     0.034 C 
ENDBRANCH  17  21
ENDBRANCH  16  17
ENDBRANCH  15  16
ENDBRANCH  13  15
ENDBRANCH   3  11
BRANCH   1  23
ATOM     23  O5  ZIN A   1      19.446   0.932  15.053  0.00  0.00    -0.334 OA
BRANCH  23  24
ATOM     24  C4  ZIN A   1      18.332   0.460  15.814  0.00  0.00     0.177 C 
BRANCH  24  25
ATOM     25  C3  ZIN A   1      18.420  -1.060  15.957  0.00  0.00     0.026 C 
BRANCH  25  26
ATOM     26  C2  ZIN A   1      19.267  -1.409  17.182  0.00  0.00    -0.002 C 
ATOM     27  C1  ZIN A   1      19.197  -0.263  18.194  0.00  0.00     0.005 C 
ENDBRANCH  25  26
ENDBRANCH  24  25
ENDBRANCH  23  24
ENDBRANCH   1  23
TORSDOF 10
ENDMDL
