MODEL 1
REMARK VINA RESULT:      -9.6      0.000      0.000
REMARK  5 active torsions:
REMARK  status: ('A' for Active; 'I' for Inactive)
REMARK    1  A    between atoms: C3_3  and  C4_4 
REMARK    2  A    between atoms: C4_4  and  C5_5 
REMARK    3  A    between atoms: C5_5  and  N6_6 
REMARK    4  A    between atoms: C10_10  and  C11_11 
REMARK    5  A    between atoms: C29_29  and  O31_30 
ROOT
ATOM      1  N6  ZIN A   1      18.813   2.108  11.329  0.00  0.00    -0.071 N 
ATOM      2  H7  ZIN A   1      18.072   1.588  11.773  0.00  0.00     0.279 HD
ATOM      3  C8  ZIN A   1      20.067   1.352  11.430  0.00  0.00     0.235 C 
ATOM      4  C9  ZIN A   1      19.884  -0.033  10.805  0.00  0.00     0.038 C 
ATOM      5  C10 ZIN A   1      19.500   0.124   9.331  0.00  0.00     0.044 C 
ATOM      6  C21 ZIN A   1      18.232   0.977   9.233  0.00  0.00     0.038 C 
ATOM      7  C22 ZIN A   1      18.478   2.325   9.916  0.00  0.00     0.235 C 
ENDROOT
BRANCH   1   8
ATOM      8  C5  ZIN A   1      18.969   3.405  11.998  0.00  0.00     0.239 C 
BRANCH   8   9
ATOM      9  C4  ZIN A   1      17.877   3.568  13.057  0.00  0.00     0.074 C 
BRANCH   9  10
ATOM     10  C3  ZIN A   1      18.315   2.903  14.336  0.00  0.00     0.036 A 
ATOM     11  C2  ZIN A   1      19.018   3.592  15.278  0.00  0.00     0.044 A 
ATOM     12  C1  ZIN A   1      19.364   5.042  15.057  0.00  0.00     0.071 C 
ATOM     13  N33 ZIN A   1      19.403   2.975  16.393  0.00  0.00    -0.237 NA
ATOM     14  C32 ZIN A   1      19.114   1.715  16.640  0.00  0.00     0.138 A 
ATOM     15  N25 ZIN A   1      18.407   0.990  15.760  0.00  0.00    -0.300 N 
ATOM     16  C29 ZIN A   1      19.624   1.147  17.942  0.00  0.00     0.188 C 
ATOM     17  C23 ZIN A   1      18.009   1.554  14.590  0.00  0.00     0.257 A 
ATOM     18  C26 ZIN A   1      18.015  -0.402  15.989  0.00  0.00     0.134 C 
ATOM     19  O24 ZIN A   1      17.393   0.897  13.768  0.00  0.00    -0.267 OA
ATOM     20  C27 ZIN A   1      18.879  -1.047  17.067  0.00  0.00     0.023 C 
ATOM     21  C28 ZIN A   1      18.872  -0.134  18.299  0.00  0.00     0.041 C 
BRANCH  16  22
ATOM     22  O31 ZIN A   1      19.434   2.110  18.981  0.00  0.00    -0.388 OA
ATOM     23  H59 ZIN A   1      18.630   2.639  18.885  0.00  0.00     0.210 HD
ENDBRANCH  16  22
ENDBRANCH   9  10
ENDBRANCH   8   9
ENDBRANCH   1   8
BRANCH   5  24
ATOM     24  C11 ZIN A   1      19.242  -1.233   8.730  0.00  0.00     0.079 A 
ATOM     25  C20 ZIN A   1      19.142  -1.543   7.302  0.00  0.00     0.027 A 
ATOM     26  C14 ZIN A   1      18.899  -2.925   7.211  0.00  0.00     0.116 A 
ATOM     27  C19 ZIN A   1      19.252  -0.779   6.137  0.00  0.00     0.019 A 
ATOM     28  O13 ZIN A   1      18.849  -3.401   8.472  0.00  0.00    -0.212 OA
ATOM     29  C15 ZIN A   1      18.760  -3.514   5.962  0.00  0.00     0.082 A 
ATOM     30  N12 ZIN A   1      19.062  -2.340   9.381  0.00  0.00    -0.131 NA
ATOM     31  C16 ZIN A   1      18.866  -2.740   4.823  0.00  0.00     0.119 A 
ATOM     32  F17 ZIN A   1      18.730  -3.315   3.608  0.00  0.00    -0.206 F 
ATOM     33  C18 ZIN A   1      19.112  -1.376   4.916  0.00  0.00     0.043 A 
ENDBRANCH   5  24
TORSDOF 5
ENDMDL
MODEL 2
REMARK VINA RESULT:      -9.5      1.642      1.929
REMARK  5 active torsions:
REMARK  status: ('A' for Active; 'I' for Inactive)
REMARK    1  A    between atoms: C3_3  and  C4_4 
REMARK    2  A    between atoms: C4_4  and  C5_5 
REMARK    3  A    between atoms: C5_5  and  N6_6 
REMARK    4  A    between atoms: C10_10  and  C11_11 
REMARK    5  A    between atoms: C29_29  and  O31_30 
ROOT
ATOM      1  N6  ZIN A   1      17.769   2.377  10.792  0.00  0.00    -0.071 N 
ATOM      2  H7  ZIN A   1      17.113   2.871  10.207  0.00  0.00     0.279 HD
ATOM      3  C8  ZIN A   1      17.486   0.938  10.733  0.00  0.00     0.235 C 
ATOM      4  C9  ZIN A   1      17.543   0.461   9.280  0.00  0.00     0.038 C 
ATOM      5  C10 ZIN A   1      18.940   0.731   8.713  0.00  0.00     0.044 C 
ATOM      6  C21 ZIN A   1      19.253   2.224   8.847  0.00  0.00     0.038 C 
ATOM      7  C22 ZIN A   1      19.135   2.633  10.317  0.00  0.00     0.235 C 
ENDROOT
BRANCH   1   8
ATOM      8  C5  ZIN A   1      17.638   2.844  12.178  0.00  0.00     0.239 C 
BRANCH   8   9
ATOM      9  C4  ZIN A   1      19.029   3.023  12.790  0.00  0.00     0.074 C 
BRANCH   9  10
ATOM     10  C3  ZIN A   1      18.981   2.677  14.255  0.00  0.00     0.036 A 
ATOM     11  C2  ZIN A   1      18.942   3.654  15.204  0.00  0.00     0.044 A 
ATOM     12  C1  ZIN A   1      18.937   5.105  14.798  0.00  0.00     0.071 C 
ATOM     13  N33 ZIN A   1      18.915   3.319  16.492  0.00  0.00    -0.237 NA
ATOM     14  C32 ZIN A   1      18.904   2.067  16.897  0.00  0.00     0.138 A 
ATOM     15  N25 ZIN A   1      18.920   1.060  16.010  0.00  0.00    -0.300 N 
ATOM     16  C29 ZIN A   1      18.879   1.838  18.389  0.00  0.00     0.188 C 
ATOM     17  C23 ZIN A   1      18.977   1.336  14.681  0.00  0.00     0.257 A 
ATOM     18  C26 ZIN A   1      18.866  -0.353  16.389  0.00  0.00     0.134 C 
ATOM     19  O24 ZIN A   1      19.024   0.431  13.866  0.00  0.00    -0.267 OA
ATOM     20  C27 ZIN A   1      19.266  -0.548  17.847  0.00  0.00     0.023 C 
ATOM     21  C28 ZIN A   1      18.433   0.413  18.706  0.00  0.00     0.041 C 
BRANCH  16  22
ATOM     22  O31 ZIN A   1      17.970   2.762  18.991  0.00  0.00    -0.388 OA
ATOM     23  H59 ZIN A   1      17.329   2.351  19.588  0.00  0.00     0.210 HD
ENDBRANCH  16  22
ENDBRANCH   9  10
ENDBRANCH   8   9
ENDBRANCH   1   8
BRANCH   5  24
ATOM     24  C11 ZIN A   1      18.978   0.337   7.260  0.00  0.00     0.079 A 
ATOM     25  C20 ZIN A   1      18.889  -1.025   6.729  0.00  0.00     0.027 A 
ATOM     26  C14 ZIN A   1      18.965  -0.913   5.330  0.00  0.00     0.116 A 
ATOM     27  C19 ZIN A   1      18.739  -2.284   7.317  0.00  0.00     0.019 A 
ATOM     28  O13 ZIN A   1      19.097   0.399   5.045  0.00  0.00    -0.212 OA
ATOM     29  C15 ZIN A   1      18.902  -2.058   4.547  0.00  0.00     0.082 A 
ATOM     30  N12 ZIN A   1      19.103   1.140   6.249  0.00  0.00    -0.131 NA
ATOM     31  C16 ZIN A   1      18.760  -3.292   5.149  0.00  0.00     0.119 A 
ATOM     32  F17 ZIN A   1      18.700  -4.406   4.386  0.00  0.00    -0.206 F 
ATOM     33  C18 ZIN A   1      18.680  -3.400   6.531  0.00  0.00     0.043 A 
ENDBRANCH   5  24
TORSDOF 5
ENDMDL
MODEL 3
REMARK VINA RESULT:      -9.4      2.048      2.630
REMARK  5 active torsions:
REMARK  status: ('A' for Active; 'I' for Inactive)
REMARK    1  A    between atoms: C3_3  and  C4_4 
REMARK    2  A    between atoms: C4_4  and  C5_5 
REMARK    3  A    between atoms: C5_5  and  N6_6 
REMARK    4  A    between atoms: C10_10  and  C11_11 
REMARK    5  A    between atoms: C29_29  and  O31_30 
ROOT
ATOM      1  N6  ZIN A   1      18.675   2.016  11.441  0.00  0.00    -0.071 N 
ATOM      2  H7  ZIN A   1      18.139   1.431  12.064  0.00  0.00     0.279 HD
ATOM      3  C8  ZIN A   1      20.012   1.437  11.259  0.00  0.00     0.235 C 
ATOM      4  C9  ZIN A   1      19.886   0.006  10.733  0.00  0.00     0.038 C 
ATOM      5  C10 ZIN A   1      19.149   0.023   9.390  0.00  0.00     0.044 C 
ATOM      6  C21 ZIN A   1      17.786   0.695   9.577  0.00  0.00     0.038 C 
ATOM      7  C22 ZIN A   1      17.992   2.102  10.144  0.00  0.00     0.235 C 
ENDROOT
BRANCH   1   8
ATOM      8  C5  ZIN A   1      18.798   3.360  12.018  0.00  0.00     0.239 C 
BRANCH   8   9
ATOM      9  C4  ZIN A   1      17.743   3.546  13.109  0.00  0.00     0.074 C 
BRANCH   9  10
ATOM     10  C3  ZIN A   1      18.204   2.872  14.375  0.00  0.00     0.036 A 
ATOM     11  C2  ZIN A   1      18.919   3.556  15.312  0.00  0.00     0.044 A 
ATOM     12  C1  ZIN A   1      19.254   5.010  15.098  0.00  0.00     0.071 C 
ATOM     13  N33 ZIN A   1      19.326   2.931  16.414  0.00  0.00    -0.237 NA
ATOM     14  C32 ZIN A   1      19.047   1.667  16.654  0.00  0.00     0.138 A 
ATOM     15  N25 ZIN A   1      18.329   0.946  15.780  0.00  0.00    -0.300 N 
ATOM     16  C29 ZIN A   1      19.581   1.090  17.943  0.00  0.00     0.188 C 
ATOM     17  C23 ZIN A   1      17.910   1.519  14.622  0.00  0.00     0.257 A 
ATOM     18  C26 ZIN A   1      17.948  -0.450  16.002  0.00  0.00     0.134 C 
ATOM     19  O24 ZIN A   1      17.284   0.866  13.804  0.00  0.00    -0.267 OA
ATOM     20  C27 ZIN A   1      18.833  -1.100  17.060  0.00  0.00     0.023 C 
ATOM     21  C28 ZIN A   1      18.842  -0.198  18.300  0.00  0.00     0.041 C 
BRANCH  16  22
ATOM     22  O31 ZIN A   1      19.403   2.042  18.994  0.00  0.00    -0.388 OA
ATOM     23  H59 ZIN A   1      19.050   1.665  19.811  0.00  0.00     0.210 HD
ENDBRANCH  16  22
ENDBRANCH   9  10
ENDBRANCH   8   9
ENDBRANCH   1   8
BRANCH   5  24
ATOM     24  C11 ZIN A   1      18.952  -1.389   8.905  0.00  0.00     0.079 A 
ATOM     25  C20 ZIN A   1      18.377  -2.497   9.672  0.00  0.00     0.027 A 
ATOM     26  C14 ZIN A   1      18.388  -3.617   8.823  0.00  0.00     0.116 A 
ATOM     27  C19 ZIN A   1      17.858  -2.609  10.965  0.00  0.00     0.019 A 
ATOM     28  O13 ZIN A   1      18.930  -3.221   7.653  0.00  0.00    -0.212 OA
ATOM     29  C15 ZIN A   1      17.893  -4.829   9.284  0.00  0.00     0.082 A 
ATOM     30  N12 ZIN A   1      19.267  -1.850   7.734  0.00  0.00    -0.131 NA
ATOM     31  C16 ZIN A   1      17.390  -4.921  10.567  0.00  0.00     0.119 A 
ATOM     32  F17 ZIN A   1      16.908  -6.101  11.014  0.00  0.00    -0.206 F 
ATOM     33  C18 ZIN A   1      17.375  -3.811  11.401  0.00  0.00     0.043 A 
ENDBRANCH   5  24
TORSDOF 5
ENDMDL
MODEL 4
REMARK VINA RESULT:      -9.4      3.335      8.953
REMARK  5 active torsions:
REMARK  status: ('A' for Active; 'I' for Inactive)
REMARK    1  A    between atoms: C3_3  and  C4_4 
REMARK    2  A    between atoms: C4_4  and  C5_5 
REMARK    3  A    between atoms: C5_5  and  N6_6 
REMARK    4  A    between atoms: C10_10  and  C11_11 
REMARK    5  A    between atoms: C29_29  and  O31_30 
ROOT
ATOM      1  N6  ZIN A   1      19.047   1.790   9.823  0.00  0.00    -0.071 N 
ATOM      2  H7  ZIN A   1      19.453   2.708   9.920  0.00  0.00     0.279 HD
ATOM      3  C8  ZIN A   1      19.889   0.809  10.518  0.00  0.00     0.235 C 
ATOM      4  C9  ZIN A   1      20.046   1.214  11.985  0.00  0.00     0.038 C 
ATOM      5  C10 ZIN A   1      18.666   1.262  12.647  0.00  0.00     0.044 C 
ATOM      6  C21 ZIN A   1      17.773   2.233  11.870  0.00  0.00     0.038 C 
ATOM      7  C22 ZIN A   1      17.700   1.788  10.407  0.00  0.00     0.235 C 
ENDROOT
BRANCH   1   8
ATOM      8  C5  ZIN A   1      18.962   1.440   8.400  0.00  0.00     0.239 C 
BRANCH   8   9
ATOM      9  C4  ZIN A   1      17.810   0.457   8.183  0.00  0.00     0.074 C 
BRANCH   9  10
ATOM     10  C3  ZIN A   1      18.364  -0.930   7.984  0.00  0.00     0.036 A 
ATOM     11  C2  ZIN A   1      19.000  -1.270   6.828  0.00  0.00     0.044 A 
ATOM     12  C1  ZIN A   1      19.169  -0.254   5.728  0.00  0.00     0.071 C 
ATOM     13  N33 ZIN A   1      19.467  -2.507   6.674  0.00  0.00    -0.237 NA
ATOM     14  C32 ZIN A   1      19.357  -3.426   7.610  0.00  0.00     0.138 A 
ATOM     15  N25 ZIN A   1      18.759  -3.146   8.778  0.00  0.00    -0.300 N 
ATOM     16  C29 ZIN A   1      19.927  -4.787   7.292  0.00  0.00     0.188 C 
ATOM     17  C23 ZIN A   1      18.236  -1.909   8.985  0.00  0.00     0.257 A 
ATOM     18  C26 ZIN A   1      18.639  -4.106   9.877  0.00  0.00     0.134 C 
ATOM     19  O24 ZIN A   1      17.662  -1.651  10.029  0.00  0.00    -0.267 OA
ATOM     20  C27 ZIN A   1      18.827  -5.536   9.381  0.00  0.00     0.023 C 
ATOM     21  C28 ZIN A   1      20.128  -5.597   8.571  0.00  0.00     0.041 C 
BRANCH  16  22
ATOM     22  O31 ZIN A   1      21.185  -4.627   6.632  0.00  0.00    -0.388 OA
ATOM     23  H59 ZIN A   1      21.854  -4.175   7.165  0.00  0.00     0.210 HD
ENDBRANCH  16  22
ENDBRANCH   9  10
ENDBRANCH   8   9
ENDBRANCH   1   8
BRANCH   5  24
ATOM     24  C11 ZIN A   1      18.807   1.736  14.070  0.00  0.00     0.079 A 
ATOM     25  C20 ZIN A   1      18.885   0.888  15.262  0.00  0.00     0.027 A 
ATOM     26  C14 ZIN A   1      19.011   1.756  16.360  0.00  0.00     0.116 A 
ATOM     27  C19 ZIN A   1      18.873  -0.494  15.467  0.00  0.00     0.019 A 
ATOM     28  O13 ZIN A   1      19.001   3.014  15.873  0.00  0.00    -0.212 OA
ATOM     29  C15 ZIN A   1      19.112   1.229  17.641  0.00  0.00     0.082 A 
ATOM     30  N12 ZIN A   1      18.874   2.970  14.466  0.00  0.00    -0.131 NA
ATOM     31  C16 ZIN A   1      19.092  -0.139  17.822  0.00  0.00     0.119 A 
ATOM     32  F17 ZIN A   1      19.190  -0.651  19.069  0.00  0.00    -0.206 F 
ATOM     33  C18 ZIN A   1      18.972  -0.995  16.734  0.00  0.00     0.043 A 
ENDBRANCH   5  24
TORSDOF 5
ENDMDL
MODEL 5
REMARK VINA RESULT:      -9.4      3.193      8.950
REMARK  5 active torsions:
REMARK  status: ('A' for Active; 'I' for Inactive)
REMARK    1  A    between atoms: C3_3  and  C4_4 
REMARK    2  A    between atoms: C4_4  and  C5_5 
REMARK    3  A    between atoms: C5_5  and  N6_6 
REMARK    4  A    between atoms: C10_10  and  C11_11 
REMARK    5  A    between atoms: C29_29  and  O31_30 
ROOT
ATOM      1  N6  ZIN A   1      19.131  -2.721  11.108  0.00  0.00    -0.071 N 
ATOM      2  H7  ZIN A   1      18.611  -2.252  10.382  0.00  0.00     0.279 HD
ATOM      3  C8  ZIN A   1      20.374  -1.986  11.369  0.00  0.00     0.235 C 
ATOM      4  C9  ZIN A   1      20.047  -0.538  11.742  0.00  0.00     0.038 C 
ATOM      5  C10 ZIN A   1      19.172  -0.525  12.999  0.00  0.00     0.044 C 
ATOM      6  C21 ZIN A   1      17.913  -1.356  12.740  0.00  0.00     0.038 C 
ATOM      7  C22 ZIN A   1      18.321  -2.774  12.332  0.00  0.00     0.235 C 
ENDROOT
BRANCH   1   8
ATOM      8  C5  ZIN A   1      19.452  -4.087  10.676  0.00  0.00     0.239 C 
BRANCH   8   9
ATOM      9  C4  ZIN A   1      18.520  -4.493   9.534  0.00  0.00     0.074 C 
BRANCH   9  10
ATOM     10  C3  ZIN A   1      18.752  -3.591   8.350  0.00  0.00     0.036 A 
ATOM     11  C2  ZIN A   1      19.615  -3.946   7.358  0.00  0.00     0.044 A 
ATOM     12  C1  ZIN A   1      20.349  -5.261   7.426  0.00  0.00     0.071 C 
ATOM     13  N33 ZIN A   1      19.811  -3.122   6.331  0.00  0.00    -0.237 NA
ATOM     14  C32 ZIN A   1      19.184  -1.971   6.218  0.00  0.00     0.138 A 
ATOM     15  N25 ZIN A   1      18.306  -1.575   7.152  0.00  0.00    -0.300 N 
ATOM     16  C29 ZIN A   1      19.513  -1.138   5.002  0.00  0.00     0.188 C 
ATOM     17  C23 ZIN A   1      18.084  -2.358   8.240  0.00  0.00     0.257 A 
ATOM     18  C26 ZIN A   1      17.544  -0.328   7.069  0.00  0.00     0.134 C 
ATOM     19  O24 ZIN A   1      17.313  -1.995   9.112  0.00  0.00    -0.267 OA
ATOM     20  C27 ZIN A   1      18.192   0.650   6.095  0.00  0.00     0.023 C 
ATOM     21  C28 ZIN A   1      18.435  -0.082   4.769  0.00  0.00     0.041 C 
BRANCH  16  22
ATOM     22  O31 ZIN A   1      19.593  -1.990   3.857  0.00  0.00    -0.388 OA
ATOM     23  H59 ZIN A   1      19.093  -1.671   3.093  0.00  0.00     0.210 HD
ENDBRANCH  16  22
ENDBRANCH   9  10
ENDBRANCH   8   9
ENDBRANCH   1   8
BRANCH   5  24
ATOM     24  C11 ZIN A   1      18.782   0.893  13.326  0.00  0.00     0.079 A 
ATOM     25  C20 ZIN A   1      18.312   1.904  12.376  0.00  0.00     0.027 A 
ATOM     26  C14 ZIN A   1      18.065   3.068  13.123  0.00  0.00     0.116 A 
ATOM     27  C19 ZIN A   1      18.076   1.899  10.999  0.00  0.00     0.019 A 
ATOM     28  O13 ZIN A   1      18.368   2.786  14.407  0.00  0.00    -0.212 OA
ATOM     29  C15 ZIN A   1      17.600   4.207  12.481  0.00  0.00     0.082 A 
ATOM     30  N12 ZIN A   1      18.805   1.445  14.500  0.00  0.00    -0.131 NA
ATOM     31  C16 ZIN A   1      17.380   4.184  11.118  0.00  0.00     0.119 A 
ATOM     32  F17 ZIN A   1      16.928   5.294  10.494  0.00  0.00    -0.206 F 
ATOM     33  C18 ZIN A   1      17.619   3.030  10.383  0.00  0.00     0.043 A 
ENDBRANCH   5  24
TORSDOF 5
ENDMDL
MODEL 6
REMARK VINA RESULT:      -9.3      3.763      9.959
REMARK  5 active torsions:
REMARK  status: ('A' for Active; 'I' for Inactive)
REMARK    1  A    between atoms: C3_3  and  C4_4 
REMARK    2  A    between atoms: C4_4  and  C5_5 
REMARK    3  A    between atoms: C5_5  and  N6_6 
REMARK    4  A    between atoms: C10_10  and  C11_11 
REMARK    5  A    between atoms: C29_29  and  O31_30 
ROOT
ATOM      1  N6  ZIN A   1      18.950  -1.976  11.670  0.00  0.00    -0.071 N 
ATOM      2  H7  ZIN A   1      18.249  -1.461  11.160  0.00  0.00     0.279 HD
ATOM      3  C8  ZIN A   1      20.208  -1.219  11.667  0.00  0.00     0.235 C 
ATOM      4  C9  ZIN A   1      19.973   0.172  12.261  0.00  0.00     0.038 C 
ATOM      5  C10 ZIN A   1      19.466   0.028  13.699  0.00  0.00     0.044 C 
ATOM      6  C21 ZIN A   1      18.194  -0.825  13.698  0.00  0.00     0.038 C 
ATOM      7  C22 ZIN A   1      18.497  -2.179  13.052  0.00  0.00     0.235 C 
ENDROOT
BRANCH   1   8
ATOM      8  C5  ZIN A   1      19.163  -3.280  11.029  0.00  0.00     0.239 C 
BRANCH   8   9
ATOM      9  C4  ZIN A   1      18.062  -3.527   9.997  0.00  0.00     0.074 C 
BRANCH   9  10
ATOM     10  C3  ZIN A   1      18.448  -2.891   8.687  0.00  0.00     0.036 A 
ATOM     11  C2  ZIN A   1      19.108  -3.602   7.731  0.00  0.00     0.044 A 
ATOM     12  C1  ZIN A   1      19.456  -5.049   7.968  0.00  0.00     0.071 C 
ATOM     13  N33 ZIN A   1      19.448  -3.010   6.589  0.00  0.00    -0.237 NA
ATOM     14  C32 ZIN A   1      19.155  -1.753   6.329  0.00  0.00     0.138 A 
ATOM     15  N25 ZIN A   1      18.488  -1.007   7.222  0.00  0.00    -0.300 N 
ATOM     16  C29 ZIN A   1      19.612  -1.214   4.994  0.00  0.00     0.188 C 
ATOM     17  C23 ZIN A   1      18.137  -1.545   8.419  0.00  0.00     0.257 A 
ATOM     18  C26 ZIN A   1      18.093   0.382   6.981  0.00  0.00     0.134 C 
ATOM     19  O24 ZIN A   1      17.560  -0.869   9.252  0.00  0.00    -0.267 OA
ATOM     20  C27 ZIN A   1      18.914   1.001   5.855  0.00  0.00     0.023 C 
ATOM     21  C28 ZIN A   1      18.851   0.062   4.643  0.00  0.00     0.041 C 
BRANCH  16  22
ATOM     22  O31 ZIN A   1      19.374  -2.197   3.985  0.00  0.00    -0.388 OA
ATOM     23  H59 ZIN A   1      18.475  -2.187   3.629  0.00  0.00     0.210 HD
ENDBRANCH  16  22
ENDBRANCH   9  10
ENDBRANCH   8   9
ENDBRANCH   1   8
BRANCH   5  24
ATOM     24  C11 ZIN A   1      19.158   1.391  14.263  0.00  0.00     0.079 A 
ATOM     25  C20 ZIN A   1      19.058   1.739  15.682  0.00  0.00     0.027 A 
ATOM     26  C14 ZIN A   1      18.759   3.111  15.734  0.00  0.00     0.116 A 
ATOM     27  C19 ZIN A   1      19.211   1.016  16.867  0.00  0.00     0.019 A 
ATOM     28  O13 ZIN A   1      18.677   3.548  14.460  0.00  0.00    -0.212 OA
ATOM     29  C15 ZIN A   1      18.607   3.732  16.967  0.00  0.00     0.082 A 
ATOM     30  N12 ZIN A   1      18.925   2.470  13.581  0.00  0.00    -0.131 NA
ATOM     31  C16 ZIN A   1      18.756   2.997  18.127  0.00  0.00     0.119 A 
ATOM     32  F17 ZIN A   1      18.608   3.602  19.326  0.00  0.00    -0.206 F 
ATOM     33  C18 ZIN A   1      19.058   1.642  18.072  0.00  0.00     0.043 A 
ENDBRANCH   5  24
TORSDOF 5
ENDMDL
MODEL 7
REMARK VINA RESULT:      -9.3      3.920     10.430
REMARK  5 active torsions:
REMARK  status: ('A' for Active; 'I' for Inactive)
REMARK    1  A    between atoms: C3_3  and  C4_4 
REMARK    2  A    between atoms: C4_4  and  C5_5 
REMARK    3  A    between atoms: C5_5  and  N6_6 
REMARK    4  A    between atoms: C10_10  and  C11_11 
REMARK    5  A    between atoms: C29_29  and  O31_30 
ROOT
ATOM      1  N6  ZIN A   1      18.445  -4.436  10.373  0.00  0.00    -0.071 N 
ATOM      2  H7  ZIN A   1      18.587  -3.755   9.643  0.00  0.00     0.279 HD
ATOM      3  C8  ZIN A   1      19.648  -4.512  11.210  0.00  0.00     0.235 C 
ATOM      4  C9  ZIN A   1      19.971  -3.127  11.774  0.00  0.00     0.038 C 
ATOM      5  C10 ZIN A   1      18.791  -2.638  12.619  0.00  0.00     0.044 C 
ATOM      6  C21 ZIN A   1      17.526  -2.633  11.756  0.00  0.00     0.038 C 
ATOM      7  C22 ZIN A   1      17.295  -4.038  11.194  0.00  0.00     0.235 C 
ENDROOT
BRANCH   1   8
ATOM      8  C5  ZIN A   1      18.184  -5.750   9.772  0.00  0.00     0.239 C 
BRANCH   8   9
ATOM      9  C4  ZIN A   1      19.140  -5.974   8.600  0.00  0.00     0.074 C 
BRANCH   9  10
ATOM     10  C3  ZIN A   1      18.655  -5.202   7.400  0.00  0.00     0.036 A 
ATOM     11  C2  ZIN A   1      17.819  -5.775   6.490  0.00  0.00     0.044 A 
ATOM     12  C1  ZIN A   1      17.356  -7.197   6.676  0.00  0.00     0.071 C 
ATOM     13  N33 ZIN A   1      17.417  -5.073   5.433  0.00  0.00    -0.237 NA
ATOM     14  C32 ZIN A   1      17.782  -3.825   5.233  0.00  0.00     0.138 A 
ATOM     15  N25 ZIN A   1      18.587  -3.198   6.105  0.00  0.00    -0.300 N 
ATOM     16  C29 ZIN A   1      17.254  -3.157   3.986  0.00  0.00     0.188 C 
ATOM     17  C23 ZIN A   1      19.054  -3.870   7.189  0.00  0.00     0.257 A 
ATOM     18  C26 ZIN A   1      18.997  -1.800   5.967  0.00  0.00     0.134 C 
ATOM     19  O24 ZIN A   1      19.813  -3.323   7.972  0.00  0.00    -0.267 OA
ATOM     20  C27 ZIN A   1      18.810  -1.310   4.534  0.00  0.00     0.023 C 
ATOM     21  C28 ZIN A   1      17.377  -1.639   4.097  0.00  0.00     0.041 C 
BRANCH  16  22
ATOM     22  O31 ZIN A   1      15.879  -3.506   3.813  0.00  0.00    -0.388 OA
ATOM     23  H59 ZIN A   1      15.734  -4.241   3.200  0.00  0.00     0.210 HD
ENDBRANCH  16  22
ENDBRANCH   9  10
ENDBRANCH   8   9
ENDBRANCH   1   8
BRANCH   5  24
ATOM     24  C11 ZIN A   1      19.069  -1.242  13.113  0.00  0.00     0.079 A 
ATOM     25  C20 ZIN A   1      18.918  -0.763  14.489  0.00  0.00     0.027 A 
ATOM     26  C14 ZIN A   1      19.290   0.592  14.482  0.00  0.00     0.116 A 
ATOM     27  C19 ZIN A   1      18.523  -1.369  15.684  0.00  0.00     0.019 A 
ATOM     28  O13 ZIN A   1      19.627   0.903  13.213  0.00  0.00    -0.212 OA
ATOM     29  C15 ZIN A   1      19.250   1.318  15.664  0.00  0.00     0.082 A 
ATOM     30  N12 ZIN A   1      19.480  -0.241  12.397  0.00  0.00    -0.131 NA
ATOM     31  C16 ZIN A   1      18.851   0.703  16.834  0.00  0.00     0.119 A 
ATOM     32  F17 ZIN A   1      18.813   1.411  17.984  0.00  0.00    -0.206 F 
ATOM     33  C18 ZIN A   1      18.489  -0.639  16.839  0.00  0.00     0.043 A 
ENDBRANCH   5  24
TORSDOF 5
ENDMDL
MODEL 8
REMARK VINA RESULT:      -9.2      1.701      3.439
REMARK  5 active torsions:
REMARK  status: ('A' for Active; 'I' for Inactive)
REMARK    1  A    between atoms: C3_3  and  C4_4 
REMARK    2  A    between atoms: C4_4  and  C5_5 
REMARK    3  A    between atoms: C5_5  and  N6_6 
REMARK    4  A    between atoms: C10_10  and  C11_11 
REMARK    5  A    between atoms: C29_29  and  O31_30 
ROOT
ATOM      1  N6  ZIN A   1      18.698  -1.045  12.533  0.00  0.00    -0.071 N 
ATOM      2  H7  ZIN A   1      18.021  -0.312  12.381  0.00  0.00     0.279 HD
ATOM      3  C8  ZIN A   1      18.282  -2.250  11.805  0.00  0.00     0.235 C 
ATOM      4  C9  ZIN A   1      18.117  -1.923  10.319  0.00  0.00     0.038 C 
ATOM      5  C10 ZIN A   1      19.453  -1.423   9.761  0.00  0.00     0.044 C 
ATOM      6  C21 ZIN A   1      19.913  -0.211  10.575  0.00  0.00     0.038 C 
ATOM      7  C22 ZIN A   1      20.012  -0.604  12.051  0.00  0.00     0.235 C 
ENDROOT
BRANCH   1   8
ATOM      8  C5  ZIN A   1      18.779  -1.345  13.968  0.00  0.00     0.239 C 
BRANCH   8   9
ATOM      9  C4  ZIN A   1      17.722  -0.534  14.720  0.00  0.00     0.074 C 
BRANCH   9  10
ATOM     10  C3  ZIN A   1      18.255   0.845  15.006  0.00  0.00     0.036 A 
ATOM     11  C2  ZIN A   1      18.883   1.123  16.183  0.00  0.00     0.044 A 
ATOM     12  C1  ZIN A   1      19.062   0.044  17.220  0.00  0.00     0.071 C 
ATOM     13  N33 ZIN A   1      19.331   2.355  16.414  0.00  0.00    -0.237 NA
ATOM     14  C32 ZIN A   1      19.212   3.327  15.535  0.00  0.00     0.138 A 
ATOM     15  N25 ZIN A   1      18.622   3.111  14.350  0.00  0.00    -0.300 N 
ATOM     16  C29 ZIN A   1      19.762   4.674  15.939  0.00  0.00     0.188 C 
ATOM     17  C23 ZIN A   1      18.118   1.882  14.065  0.00  0.00     0.257 A 
ATOM     18  C26 ZIN A   1      18.494   4.135  13.311  0.00  0.00     0.134 C 
ATOM     19  O24 ZIN A   1      17.551   1.680  13.005  0.00  0.00    -0.267 OA
ATOM     20  C27 ZIN A   1      18.660   5.534  13.894  0.00  0.00     0.023 C 
ATOM     21  C28 ZIN A   1      19.957   5.563  14.712  0.00  0.00     0.041 C 
BRANCH  16  22
ATOM     22  O31 ZIN A   1      21.019   4.492  16.593  0.00  0.00    -0.388 OA
ATOM     23  H59 ZIN A   1      21.710   5.101  16.297  0.00  0.00     0.210 HD
ENDBRANCH  16  22
ENDBRANCH   9  10
ENDBRANCH   8   9
ENDBRANCH   1   8
BRANCH   5  24
ATOM     24  C11 ZIN A   1      19.278  -1.025   8.318  0.00  0.00     0.079 A 
ATOM     25  C20 ZIN A   1      19.171  -1.934   7.175  0.00  0.00     0.027 A 
ATOM     26  C14 ZIN A   1      19.017  -1.124   6.037  0.00  0.00     0.116 A 
ATOM     27  C19 ZIN A   1      19.177  -3.325   7.043  0.00  0.00     0.019 A 
ATOM     28  O13 ZIN A   1      19.039   0.158   6.456  0.00  0.00    -0.212 OA
ATOM     29  C15 ZIN A   1      18.885  -1.718   4.788  0.00  0.00     0.082 A 
ATOM     30  N12 ZIN A   1      19.201   0.187   7.860  0.00  0.00    -0.131 NA
ATOM     31  C16 ZIN A   1      18.901  -3.094   4.678  0.00  0.00     0.119 A 
ATOM     32  F17 ZIN A   1      18.772  -3.670   3.463  0.00  0.00    -0.206 F 
ATOM     33  C18 ZIN A   1      19.046  -3.891   5.807  0.00  0.00     0.043 A 
ENDBRANCH   5  24
TORSDOF 5
ENDMDL
MODEL 9
REMARK VINA RESULT:      -9.2      1.803      3.500
REMARK  5 active torsions:
REMARK  status: ('A' for Active; 'I' for Inactive)
REMARK    1  A    between atoms: C3_3  and  C4_4 
REMARK    2  A    between atoms: C4_4  and  C5_5 
REMARK    3  A    between atoms: C5_5  and  N6_6 
REMARK    4  A    between atoms: C10_10  and  C11_11 
REMARK    5  A    between atoms: C29_29  and  O31_30 
ROOT
ATOM      1  N6  ZIN A   1      19.534  -1.410  13.287  0.00  0.00    -0.071 N 
ATOM      2  H7  ZIN A   1      20.066  -2.261  13.193  0.00  0.00     0.279 HD
ATOM      3  C8  ZIN A   1      20.143  -0.362  12.459  0.00  0.00     0.235 C 
ATOM      4  C9  ZIN A   1      20.217  -0.833  11.005  0.00  0.00     0.038 C 
ATOM      5  C10 ZIN A   1      18.803  -1.130  10.496  0.00  0.00     0.044 C 
ATOM      6  C21 ZIN A   1      18.151  -2.170  11.411  0.00  0.00     0.038 C 
ATOM      7  C22 ZIN A   1      18.152  -1.647  12.850  0.00  0.00     0.235 C 
ENDROOT
BRANCH   1   8
ATOM      8  C5  ZIN A   1      19.535  -0.984  14.692  0.00  0.00     0.239 C 
BRANCH   8   9
ATOM      9  C4  ZIN A   1      18.211  -0.289  15.016  0.00  0.00     0.074 C 
BRANCH   9  10
ATOM     10  C3  ZIN A   1      18.456   1.181  15.238  0.00  0.00     0.036 A 
ATOM     11  C2  ZIN A   1      18.942   1.638  16.426  0.00  0.00     0.044 A 
ATOM     12  C1  ZIN A   1      19.252   0.672  17.540  0.00  0.00     0.071 C 
ATOM     13  N33 ZIN A   1      19.135   2.943  16.598  0.00  0.00    -0.237 NA
ATOM     14  C32 ZIN A   1      18.893   3.825  15.652  0.00  0.00     0.138 A 
ATOM     15  N25 ZIN A   1      18.433   3.435  14.453  0.00  0.00    -0.300 N 
ATOM     16  C29 ZIN A   1      19.153   5.273  15.994  0.00  0.00     0.188 C 
ATOM     17  C23 ZIN A   1      18.188   2.119  14.224  0.00  0.00     0.257 A 
ATOM     18  C26 ZIN A   1      18.183   4.357  13.344  0.00  0.00     0.134 C 
ATOM     19  O24 ZIN A   1      17.740   1.754  13.151  0.00  0.00    -0.267 OA
ATOM     20  C27 ZIN A   1      18.045   5.792  13.840  0.00  0.00     0.023 C 
ATOM     21  C28 ZIN A   1      19.257   6.114  14.723  0.00  0.00     0.041 C 
BRANCH  16  22
ATOM     22  O31 ZIN A   1      20.376   5.371  16.725  0.00  0.00    -0.388 OA
ATOM     23  H59 ZIN A   1      20.428   6.143  17.305  0.00  0.00     0.210 HD
ENDBRANCH  16  22
ENDBRANCH   9  10
ENDBRANCH   8   9
ENDBRANCH   1   8
BRANCH   5  24
ATOM     24  C11 ZIN A   1      18.876  -1.670   9.092  0.00  0.00     0.079 A 
ATOM     25  C20 ZIN A   1      18.889  -0.879   7.859  0.00  0.00     0.027 A 
ATOM     26  C14 ZIN A   1      18.968  -1.797   6.798  0.00  0.00     0.116 A 
ATOM     27  C19 ZIN A   1      18.857   0.492   7.591  0.00  0.00     0.019 A 
ATOM     28  O13 ZIN A   1      18.991  -3.031   7.343  0.00  0.00    -0.212 OA
ATOM     29  C15 ZIN A   1      19.001  -1.331   5.491  0.00  0.00     0.082 A 
ATOM     30  N12 ZIN A   1      18.933  -2.921   8.751  0.00  0.00    -0.131 NA
ATOM     31  C16 ZIN A   1      18.962   0.028   5.246  0.00  0.00     0.119 A 
ATOM     32  F17 ZIN A   1      18.994   0.481   3.974  0.00  0.00    -0.206 F 
ATOM     33  C18 ZIN A   1      18.890   0.933   6.298  0.00  0.00     0.043 A 
ENDBRANCH   5  24
TORSDOF 5
ENDMDL
