MODEL 1
REMARK VINA RESULT:      -7.0      0.000      0.000
REMARK  4 active torsions:
REMARK  status: ('A' for Active; 'I' for Inactive)
REMARK    1  A    between atoms: C2_2  and  O3_3 
REMARK    2  A    between atoms: O3_3  and  C4_4 
REMARK    3  A    between atoms: C4_4  and  C6_6 
REMARK    4  A    between atoms: C6_6  and  C7_7 
ROOT
ATOM      1  C6  <0> d   1      18.256   0.610  10.154  0.00  0.00     0.078 C 
ATOM      2  C13 <0> d   1      19.496  -0.159  10.617  0.00  0.00     0.055 C 
ATOM      3  C14 <0> d   1      19.536  -0.183  12.146  0.00  0.00     0.273 C 
ATOM      4  N15 <0> d   1      18.318  -0.827  12.658  0.00  0.00     0.084 N 
ATOM      5  C16 <0> d   1      18.384  -0.992  14.117  0.00  0.00     0.309 C 
ATOM      6  C17 <0> d   1      17.117  -0.079  12.266  0.00  0.00     0.273 C 
ATOM      7  C18 <0> d   1      17.006  -0.052  10.740  0.00  0.00     0.055 C 
ENDROOT
BRANCH   1   8
ATOM      8  C4  <0> d   1      18.341   2.036  10.632  0.00  0.00     0.272 C 
ATOM      9  O5  <0> d   1      19.416   2.524  10.891  0.00  0.00    -0.264 OA
BRANCH   8  10
ATOM     10  O3  <0> d   1      17.223   2.767  10.769  0.00  0.00    -0.321 OA
BRANCH  10  11
ATOM     11  C2  <0> d   1      17.330   3.999  11.528  0.00  0.00     0.174 C 
ATOM     12  C1  <0> d   1      17.155   5.194  10.589  0.00  0.00     0.034 C 
ENDBRANCH  10  11
ENDBRANCH   8  10
ENDBRANCH   1   8
BRANCH   1  13
ATOM     13  C7  <0> d   1      18.178   0.587   8.649  0.00  0.00    -0.040 A 
ATOM     14  C12 <0> d   1      17.211  -0.175   8.019  0.00  0.00     0.008 A 
ATOM     15  C11 <0> d   1      17.136  -0.193   6.639  0.00  0.00     0.001 A 
ATOM     16  C10 <0> d   1      18.034   0.544   5.889  0.00  0.00     0.000 A 
ATOM     17  C9  <0> d   1      19.003   1.303   6.519  0.00  0.00     0.001 A 
ATOM     18  C8  <0> d   1      19.075   1.323   7.899  0.00  0.00     0.008 A 
ENDBRANCH   1  13
TORSDOF 4
ENDMDL
MODEL 2
REMARK VINA RESULT:      -6.8      2.005      3.518
REMARK  4 active torsions:
REMARK  status: ('A' for Active; 'I' for Inactive)
REMARK    1  A    between atoms: C2_2  and  O3_3 
REMARK    2  A    between atoms: O3_3  and  C4_4 
REMARK    3  A    between atoms: C4_4  and  C6_6 
REMARK    4  A    between atoms: C6_6  and  C7_7 
ROOT
ATOM      1  C6  <0> d   1      18.495   0.580  10.189  0.00  0.00     0.078 C 
ATOM      2  C13 <0> d   1      17.133   0.443  10.876  0.00  0.00     0.055 C 
ATOM      3  C14 <0> d   1      17.322   0.524  12.393  0.00  0.00     0.273 C 
ATOM      4  N15 <0> d   1      17.941   1.810  12.742  0.00  0.00     0.084 N 
ATOM      5  C16 <0> d   1      18.010   1.981  14.200  0.00  0.00     0.309 C 
ATOM      6  C17 <0> d   1      19.269   1.943  12.132  0.00  0.00     0.273 C 
ATOM      7  C18 <0> d   1      19.139   1.904  10.607  0.00  0.00     0.055 C 
ENDROOT
BRANCH   1   8
ATOM      8  C4  <0> d   1      19.384  -0.565  10.601  0.00  0.00     0.272 C 
ATOM      9  O5  <0> d   1      20.583  -0.417  10.632  0.00  0.00    -0.264 OA
BRANCH   8  10
ATOM     10  O3  <0> d   1      18.845  -1.748  10.934  0.00  0.00    -0.321 OA
BRANCH  10  11
ATOM     11  C2  <0> d   1      19.480  -2.482  12.013  0.00  0.00     0.174 C 
ATOM     12  C1  <0> d   1      20.020  -3.810  11.480  0.00  0.00     0.034 C 
ENDBRANCH  10  11
ENDBRANCH   8  10
ENDBRANCH   1   8
BRANCH   1  13
ATOM     13  C7  <0> d   1      18.310   0.561   8.693  0.00  0.00    -0.040 A 
ATOM     14  C12 <0> d   1      17.306  -0.206   8.131  0.00  0.00     0.008 A 
ATOM     15  C11 <0> d   1      17.133  -0.219   6.759  0.00  0.00     0.001 A 
ATOM     16  C10 <0> d   1      17.971   0.525   5.950  0.00  0.00     0.000 A 
ATOM     17  C9  <0> d   1      18.978   1.288   6.512  0.00  0.00     0.001 A 
ATOM     18  C8  <0> d   1      19.147   1.305   7.883  0.00  0.00     0.008 A 
ENDBRANCH   1  13
TORSDOF 4
ENDMDL
MODEL 3
REMARK VINA RESULT:      -6.8      2.795      6.427
REMARK  4 active torsions:
REMARK  status: ('A' for Active; 'I' for Inactive)
REMARK    1  A    between atoms: C2_2  and  O3_3 
REMARK    2  A    between atoms: O3_3  and  C4_4 
REMARK    3  A    between atoms: C4_4  and  C6_6 
REMARK    4  A    between atoms: C6_6  and  C7_7 
ROOT
ATOM      1  C6  <0> d   1      18.391  -0.062  12.763  0.00  0.00     0.078 C 
ATOM      2  C13 <0> d   1      19.838   0.260  12.379  0.00  0.00     0.055 C 
ATOM      3  C14 <0> d   1      19.901   0.612  10.891  0.00  0.00     0.273 C 
ATOM      4  N15 <0> d   1      19.035   1.768  10.624  0.00  0.00     0.084 N 
ATOM      5  C16 <0> d   1      19.176   2.220   9.233  0.00  0.00     0.309 C 
ATOM      6  C17 <0> d   1      17.634   1.466  10.940  0.00  0.00     0.273 C 
ATOM      7  C18 <0> d   1      17.503   1.140  12.430  0.00  0.00     0.055 C 
ENDROOT
BRANCH   1   8
ATOM      8  C4  <0> d   1      17.921  -1.265  11.989  0.00  0.00     0.272 C 
ATOM      9  O5  <0> d   1      16.739  -1.498  11.892  0.00  0.00    -0.264 OA
BRANCH   8  10
ATOM     10  O3  <0> d   1      18.814  -2.080  11.406  0.00  0.00    -0.321 OA
BRANCH  10  11
ATOM     11  C2  <0> d   1      18.777  -3.481  11.787  0.00  0.00     0.174 C 
ATOM     12  C1  <0> d   1      20.087  -4.157  11.375  0.00  0.00     0.034 C 
ENDBRANCH  10  11
ENDBRANCH   8  10
ENDBRANCH   1   8
BRANCH   1  13
ATOM     13  C7  <0> d   1      18.312  -0.351  14.240  0.00  0.00    -0.040 A 
ATOM     14  C12 <0> d   1      17.411   0.338  15.031  0.00  0.00     0.008 A 
ATOM     15  C11 <0> d   1      17.334   0.069  16.385  0.00  0.00     0.001 A 
ATOM     16  C10 <0> d   1      18.164  -0.881  16.949  0.00  0.00     0.000 A 
ATOM     17  C9  <0> d   1      19.068  -1.567  16.159  0.00  0.00     0.001 A 
ATOM     18  C8  <0> d   1      19.142  -1.301  14.805  0.00  0.00     0.008 A 
ENDBRANCH   1  13
TORSDOF 4
ENDMDL
MODEL 4
REMARK VINA RESULT:      -6.7      2.243      5.731
REMARK  4 active torsions:
REMARK  status: ('A' for Active; 'I' for Inactive)
REMARK    1  A    between atoms: C2_2  and  O3_3 
REMARK    2  A    between atoms: O3_3  and  C4_4 
REMARK    3  A    between atoms: C4_4  and  C6_6 
REMARK    4  A    between atoms: C6_6  and  C7_7 
ROOT
ATOM      1  C6  <0> d   1      18.579  -0.576  12.874  0.00  0.00     0.078 C 
ATOM      2  C13 <0> d   1      17.197  -0.480  12.222  0.00  0.00     0.055 C 
ATOM      3  C14 <0> d   1      17.354  -0.506  10.700  0.00  0.00     0.273 C 
ATOM      4  N15 <0> d   1      18.021  -1.751  10.296  0.00  0.00     0.084 N 
ATOM      5  C16 <0> d   1      18.064  -1.874   8.833  0.00  0.00     0.309 C 
ATOM      6  C17 <0> d   1      19.368  -1.843  10.873  0.00  0.00     0.273 C 
ATOM      7  C18 <0> d   1      19.272  -1.857  12.400  0.00  0.00     0.055 C 
ENDROOT
BRANCH   1   8
ATOM      8  C4  <0> d   1      19.407   0.619  12.480  0.00  0.00     0.272 C 
ATOM      9  O5  <0> d   1      20.613   0.549  12.489  0.00  0.00    -0.264 OA
BRANCH   8  10
ATOM     10  O3  <0> d   1      18.805   1.763  12.117  0.00  0.00    -0.321 OA
BRANCH  10  11
ATOM     11  C2  <0> d   1      19.530   2.630  11.206  0.00  0.00     0.174 C 
ATOM     12  C1  <0> d   1      18.680   2.884   9.959  0.00  0.00     0.034 C 
ENDBRANCH  10  11
ENDBRANCH   8  10
ENDBRANCH   1   8
BRANCH   1  13
ATOM     13  C7  <0> d   1      18.429  -0.611  14.374  0.00  0.00    -0.040 A 
ATOM     14  C12 <0> d   1      19.221  -1.459  15.127  0.00  0.00     0.008 A 
ATOM     15  C11 <0> d   1      19.087  -1.488  16.503  0.00  0.00     0.001 A 
ATOM     16  C10 <0> d   1      18.156  -0.676  17.124  0.00  0.00     0.000 A 
ATOM     17  C9  <0> d   1      17.363   0.168  16.370  0.00  0.00     0.001 A 
ATOM     18  C8  <0> d   1      17.499   0.200  14.995  0.00  0.00     0.008 A 
ENDBRANCH   1  13
TORSDOF 4
ENDMDL
MODEL 5
REMARK VINA RESULT:      -6.7      1.913      3.399
REMARK  4 active torsions:
REMARK  status: ('A' for Active; 'I' for Inactive)
REMARK    1  A    between atoms: C2_2  and  O3_3 
REMARK    2  A    between atoms: O3_3  and  C4_4 
REMARK    3  A    between atoms: C4_4  and  C6_6 
REMARK    4  A    between atoms: C6_6  and  C7_7 
ROOT
ATOM      1  C6  <0> d   1      18.115   0.869  10.179  0.00  0.00     0.078 C 
ATOM      2  C13 <0> d   1      17.585   2.248  10.581  0.00  0.00     0.055 C 
ATOM      3  C14 <0> d   1      17.623   2.379  12.105  0.00  0.00     0.273 C 
ATOM      4  N15 <0> d   1      19.003   2.208  12.578  0.00  0.00     0.084 N 
ATOM      5  C16 <0> d   1      19.100   2.464  14.022  0.00  0.00     0.309 C 
ATOM      6  C17 <0> d   1      19.517   0.874  12.244  0.00  0.00     0.273 C 
ATOM      7  C18 <0> d   1      19.535   0.697  10.724  0.00  0.00     0.055 C 
ENDROOT
BRANCH   1   8
ATOM      8  C4  <0> d   1      17.222  -0.201  10.752  0.00  0.00     0.272 C 
ATOM      9  O5  <0> d   1      16.169   0.101  11.263  0.00  0.00    -0.264 OA
BRANCH   8  10
ATOM     10  O3  <0> d   1      17.595  -1.489  10.696  0.00  0.00    -0.321 OA
BRANCH  10  11
ATOM     11  C2  <0> d   1      17.592  -2.232  11.943  0.00  0.00     0.174 C 
ATOM     12  C1  <0> d   1      18.919  -2.979  12.096  0.00  0.00     0.034 C 
ENDBRANCH  10  11
ENDBRANCH   8  10
ENDBRANCH   1   8
BRANCH   1  13
ATOM     13  C7  <0> d   1      18.136   0.754   8.676  0.00  0.00    -0.040 A 
ATOM     14  C12 <0> d   1      17.238  -0.079   8.035  0.00  0.00     0.008 A 
ATOM     15  C11 <0> d   1      17.254  -0.181   6.656  0.00  0.00     0.001 A 
ATOM     16  C10 <0> d   1      18.174   0.543   5.920  0.00  0.00     0.000 A 
ATOM     17  C9  <0> d   1      19.074   1.373   6.562  0.00  0.00     0.001 A 
ATOM     18  C8  <0> d   1      19.055   1.478   7.940  0.00  0.00     0.008 A 
ENDBRANCH   1  13
TORSDOF 4
ENDMDL
MODEL 6
REMARK VINA RESULT:      -6.7      2.086      3.604
REMARK  4 active torsions:
REMARK  status: ('A' for Active; 'I' for Inactive)
REMARK    1  A    between atoms: C2_2  and  O3_3 
REMARK    2  A    between atoms: O3_3  and  C4_4 
REMARK    3  A    between atoms: C4_4  and  C6_6 
REMARK    4  A    between atoms: C6_6  and  C7_7 
ROOT
ATOM      1  C6  <0> d   1      18.655   0.983  10.127  0.00  0.00     0.078 C 
ATOM      2  C13 <0> d   1      17.327   1.085  10.882  0.00  0.00     0.055 C 
ATOM      3  C14 <0> d   1      17.605   1.352  12.362  0.00  0.00     0.273 C 
ATOM      4  N15 <0> d   1      18.364   2.603  12.500  0.00  0.00     0.084 N 
ATOM      5  C16 <0> d   1      18.530   2.963  13.915  0.00  0.00     0.309 C 
ATOM      6  C17 <0> d   1      19.664   2.512  11.824  0.00  0.00     0.273 C 
ATOM      7  C18 <0> d   1      19.447   2.278  10.327  0.00  0.00     0.055 C 
ENDROOT
BRANCH   1   8
ATOM      8  C4  <0> d   1      19.450  -0.180  10.661  0.00  0.00     0.272 C 
ATOM      9  O5  <0> d   1      20.587  -0.356  10.291  0.00  0.00    -0.264 OA
BRANCH   8  10
ATOM     10  O3  <0> d   1      18.896  -1.023  11.547  0.00  0.00    -0.321 OA
BRANCH  10  11
ATOM     11  C2  <0> d   1      18.996  -2.442  11.260  0.00  0.00     0.174 C 
ATOM     12  C1  <0> d   1      17.611  -2.992  10.913  0.00  0.00     0.034 C 
ENDBRANCH  10  11
ENDBRANCH   8  10
ENDBRANCH   1   8
BRANCH   1  13
ATOM     13  C7  <0> d   1      18.389   0.779   8.658  0.00  0.00    -0.040 A 
ATOM     14  C12 <0> d   1      19.149   1.451   7.718  0.00  0.00     0.008 A 
ATOM     15  C11 <0> d   1      18.908   1.260   6.370  0.00  0.00     0.001 A 
ATOM     16  C10 <0> d   1      17.902   0.404   5.963  0.00  0.00     0.000 A 
ATOM     17  C9  <0> d   1      17.140  -0.265   6.903  0.00  0.00     0.001 A 
ATOM     18  C8  <0> d   1      17.384  -0.077   8.250  0.00  0.00     0.008 A 
ENDBRANCH   1  13
TORSDOF 4
ENDMDL
MODEL 7
REMARK VINA RESULT:      -6.5      2.722      4.607
REMARK  4 active torsions:
REMARK  status: ('A' for Active; 'I' for Inactive)
REMARK    1  A    between atoms: C2_2  and  O3_3 
REMARK    2  A    between atoms: O3_3  and  C4_4 
REMARK    3  A    between atoms: C4_4  and  C6_6 
REMARK    4  A    between atoms: C6_6  and  C7_7 
ROOT
ATOM      1  C6  <0> d   1      18.840  -0.934  12.403  0.00  0.00     0.078 C 
ATOM      2  C13 <0> d   1      19.511  -0.935  13.779  0.00  0.00     0.055 C 
ATOM      3  C14 <0> d   1      19.616   0.503  14.292  0.00  0.00     0.273 C 
ATOM      4  N15 <0> d   1      18.273   1.090  14.383  0.00  0.00     0.084 N 
ATOM      5  C16 <0> d   1      18.322   2.422  15.002  0.00  0.00     0.309 C 
ATOM      6  C17 <0> d   1      17.627   1.145  13.066  0.00  0.00     0.273 C 
ATOM      7  C18 <0> d   1      17.463  -0.273  12.516  0.00  0.00     0.055 C 
ENDROOT
BRANCH   1   8
ATOM      8  C4  <0> d   1      19.690  -0.162  11.428  0.00  0.00     0.272 C 
ATOM      9  O5  <0> d   1      20.838   0.101  11.703  0.00  0.00    -0.264 OA
BRANCH   8  10
ATOM     10  O3  <0> d   1      19.175   0.235  10.254  0.00  0.00    -0.321 OA
BRANCH  10  11
ATOM     11  C2  <0> d   1      19.883  -0.168   9.053  0.00  0.00     0.174 C 
ATOM     12  C1  <0> d   1      19.205  -1.399   8.449  0.00  0.00     0.034 C 
ENDBRANCH  10  11
ENDBRANCH   8  10
ENDBRANCH   1   8
BRANCH   1  13
ATOM     13  C7  <0> d   1      18.679  -2.352  11.917  0.00  0.00    -0.040 A 
ATOM     14  C12 <0> d   1      17.429  -2.818  11.552  0.00  0.00     0.008 A 
ATOM     15  C11 <0> d   1      17.282  -4.117  11.101  0.00  0.00     0.001 A 
ATOM     16  C10 <0> d   1      18.382  -4.951  11.025  0.00  0.00     0.000 A 
ATOM     17  C9  <0> d   1      19.630  -4.485  11.394  0.00  0.00     0.001 A 
ATOM     18  C8  <0> d   1      19.778  -3.186  11.841  0.00  0.00     0.008 A 
ENDBRANCH   1  13
TORSDOF 4
ENDMDL
MODEL 8
REMARK VINA RESULT:      -6.4      2.240      4.049
REMARK  4 active torsions:
REMARK  status: ('A' for Active; 'I' for Inactive)
REMARK    1  A    between atoms: C2_2  and  O3_3 
REMARK    2  A    between atoms: O3_3  and  C4_4 
REMARK    3  A    between atoms: C4_4  and  C6_6 
REMARK    4  A    between atoms: C6_6  and  C7_7 
ROOT
ATOM      1  C6  <0> d   1      18.381   0.502  12.276  0.00  0.00     0.078 C 
ATOM      2  C13 <0> d   1      17.973   1.639  13.218  0.00  0.00     0.055 C 
ATOM      3  C14 <0> d   1      17.738   1.074  14.620  0.00  0.00     0.273 C 
ATOM      4  N15 <0> d   1      18.968   0.432  15.103  0.00  0.00     0.084 N 
ATOM      5  C16 <0> d   1      18.822  -0.000  16.500  0.00  0.00     0.309 C 
ATOM      6  C17 <0> d   1      19.352  -0.693  14.241  0.00  0.00     0.273 C 
ATOM      7  C18 <0> d   1      19.635  -0.181  12.827  0.00  0.00     0.055 C 
ENDROOT
BRANCH   1   8
ATOM      8  C4  <0> d   1      17.261  -0.501  12.183  0.00  0.00     0.272 C 
ATOM      9  O5  <0> d   1      16.151  -0.141  11.866  0.00  0.00    -0.264 OA
BRANCH   8  10
ATOM     10  O3  <0> d   1      17.493  -1.795  12.453  0.00  0.00    -0.321 OA
BRANCH  10  11
ATOM     11  C2  <0> d   1      17.496  -2.713  11.328  0.00  0.00     0.174 C 
ATOM     12  C1  <0> d   1      18.731  -3.614  11.408  0.00  0.00     0.034 C 
ENDBRANCH  10  11
ENDBRANCH   8  10
ENDBRANCH   1   8
BRANCH   1  13
ATOM     13  C7  <0> d   1      18.672   1.060  10.906  0.00  0.00    -0.040 A 
ATOM     14  C12 <0> d   1      19.202   0.240   9.926  0.00  0.00     0.008 A 
ATOM     15  C11 <0> d   1      19.465   0.750   8.668  0.00  0.00     0.001 A 
ATOM     16  C10 <0> d   1      19.206   2.080   8.393  0.00  0.00     0.000 A 
ATOM     17  C9  <0> d   1      18.679   2.899   9.374  0.00  0.00     0.001 A 
ATOM     18  C8  <0> d   1      18.413   2.389  10.631  0.00  0.00     0.008 A 
ENDBRANCH   1  13
TORSDOF 4
ENDMDL
MODEL 9
REMARK VINA RESULT:      -6.4      2.051      4.687
REMARK  4 active torsions:
REMARK  status: ('A' for Active; 'I' for Inactive)
REMARK    1  A    between atoms: C2_2  and  O3_3 
REMARK    2  A    between atoms: O3_3  and  C4_4 
REMARK    3  A    between atoms: C4_4  and  C6_6 
REMARK    4  A    between atoms: C6_6  and  C7_7 
ROOT
ATOM      1  C6  <0> d   1      18.317   0.714  10.508  0.00  0.00     0.078 C 
ATOM      2  C13 <0> d   1      19.713   0.084  10.485  0.00  0.00     0.055 C 
ATOM      3  C14 <0> d   1      19.619  -1.333   9.913  0.00  0.00     0.273 C 
ATOM      4  N15 <0> d   1      19.064  -1.277   8.553  0.00  0.00     0.084 N 
ATOM      5  C16 <0> d   1      19.088  -2.603   7.921  0.00  0.00     0.309 C 
ATOM      6  C17 <0> d   1      17.706  -0.719   8.557  0.00  0.00     0.273 C 
ATOM      7  C18 <0> d   1      17.743   0.715   9.088  0.00  0.00     0.055 C 
ENDROOT
BRANCH   1   8
ATOM      8  C4  <0> d   1      17.418  -0.086  11.414  0.00  0.00     0.272 C 
ATOM      9  O5  <0> d   1      16.230   0.136  11.436  0.00  0.00    -0.264 OA
BRANCH   8  10
ATOM     10  O3  <0> d   1      17.935  -1.046  12.197  0.00  0.00    -0.321 OA
BRANCH  10  11
ATOM     11  C2  <0> d   1      17.934  -0.803  13.628  0.00  0.00     0.174 C 
ATOM     12  C1  <0> d   1      19.303  -1.162  14.208  0.00  0.00     0.034 C 
ENDBRANCH  10  11
ENDBRANCH   8  10
ENDBRANCH   1   8
BRANCH   1  13
ATOM     13  C7  <0> d   1      18.410   2.130  11.014  0.00  0.00    -0.040 A 
ATOM     14  C12 <0> d   1      19.173   2.415  12.132  0.00  0.00     0.008 A 
ATOM     15  C11 <0> d   1      19.262   3.715  12.594  0.00  0.00     0.001 A 
ATOM     16  C10 <0> d   1      18.582   4.728  11.944  0.00  0.00     0.000 A 
ATOM     17  C9  <0> d   1      17.816   4.442  10.829  0.00  0.00     0.001 A 
ATOM     18  C8  <0> d   1      17.730   3.143  10.365  0.00  0.00     0.008 A 
ENDBRANCH   1  13
TORSDOF 4
ENDMDL
