MODEL 1
REMARK VINA RESULT:      -5.3      0.000      0.000
REMARK  3 active torsions:
REMARK  status: ('A' for Active; 'I' for Inactive)
REMARK    1  A    between atoms: N2_2  and  O4_4 
REMARK    2  A    between atoms: O4_4  and  C5_5 
REMARK    3  A    between atoms: C11_9  and  O13_10 
ROOT
ATOM      1  C5  <0> d   1      17.974   2.684  10.447  0.00  0.00     0.214 C 
ATOM      2  C7  <0> d   1      17.543   1.254  10.058  0.00  0.00     0.205 C 
ATOM      3  O8  <0> d   1      18.656   0.388  10.300  0.00  0.00    -0.378 OA
ATOM      4  C9  <0> d   1      19.768   1.131  10.817  0.00  0.00     0.183 C 
ATOM      5  C11 <0> d   1      20.319   0.397  12.061  0.00  0.00     0.173 C 
ATOM      6  C14 <0> d   1      19.554   1.015  13.246  0.00  0.00     0.202 C 
ATOM      7  O15 <0> d   1      18.617   1.961  12.705  0.00  0.00    -0.378 OA
ATOM      8  C16 <0> d   1      19.148   2.432  11.427  0.00  0.00     0.186 C 
ENDROOT
BRANCH   1   9
ATOM      9  O4  <0> d   1      16.907   3.376  11.099  0.00  0.00    -0.211 OA
BRANCH   9  10
ATOM     10  N2  <0> d   1      16.944   4.781  10.931  0.00  0.00     0.005 N 
ATOM     11  O1  <0> d   1      16.618   5.512  11.849  0.00  0.00    -0.511 OA
ATOM     12  O3  <0> d   1      17.307   5.259   9.871  0.00  0.00    -0.511 OA
ENDBRANCH   9  10
ENDBRANCH   1   9
BRANCH   5  13
ATOM     13  O13 <0> d   1      21.723   0.630  12.196  0.00  0.00    -0.391 OA
ATOM     14  H20 <0> d   1      22.205   0.616  11.359  0.00  0.00     0.210 HD
ENDBRANCH   5  13
TORSDOF 3
ENDMDL
MODEL 2
REMARK VINA RESULT:      -5.0      3.739      5.406
REMARK  3 active torsions:
REMARK  status: ('A' for Active; 'I' for Inactive)
REMARK    1  A    between atoms: N2_2  and  O4_4 
REMARK    2  A    between atoms: O4_4  and  C5_5 
REMARK    3  A    between atoms: C11_9  and  O13_10 
ROOT
ATOM      1  C5  <0> d   1      18.484   0.412   7.548  0.00  0.00     0.214 C 
ATOM      2  C7  <0> d   1      19.458   1.243   8.409  0.00  0.00     0.205 C 
ATOM      3  O8  <0> d   1      18.814   1.500   9.661  0.00  0.00    -0.378 OA
ATOM      4  C9  <0> d   1      17.510   0.903   9.687  0.00  0.00     0.183 C 
ATOM      5  C11 <0> d   1      17.353   0.114  11.008  0.00  0.00     0.173 C 
ATOM      6  C14 <0> d   1      17.829  -1.311  10.666  0.00  0.00     0.202 C 
ATOM      7  O15 <0> d   1      18.271  -1.299   9.299  0.00  0.00    -0.378 OA
ATOM      8  C16 <0> d   1      17.552  -0.229   8.608  0.00  0.00     0.186 C 
ENDROOT
BRANCH   1   9
ATOM      9  O4  <0> d   1      19.187  -0.594   6.815  0.00  0.00    -0.211 OA
BRANCH   9  10
ATOM     10  N2  <0> d   1      19.119  -0.436   5.409  0.00  0.00     0.005 N 
ATOM     11  O1  <0> d   1      18.227   0.230   4.914  0.00  0.00    -0.511 OA
ATOM     12  O3  <0> d   1      19.955  -0.960   4.696  0.00  0.00    -0.511 OA
ENDBRANCH   9  10
ENDBRANCH   1   9
BRANCH   5  13
ATOM     13  O13 <0> d   1      15.985   0.099  11.420  0.00  0.00    -0.391 OA
ATOM     14  H20 <0> d   1      15.864   0.051  12.377  0.00  0.00     0.210 HD
ENDBRANCH   5  13
TORSDOF 3
ENDMDL
MODEL 3
REMARK VINA RESULT:      -5.0      4.021      5.432
REMARK  3 active torsions:
REMARK  status: ('A' for Active; 'I' for Inactive)
REMARK    1  A    between atoms: N2_2  and  O4_4 
REMARK    2  A    between atoms: O4_4  and  C5_5 
REMARK    3  A    between atoms: C11_9  and  O13_10 
ROOT
ATOM      1  C5  <0> d   1      18.909  -0.103   7.150  0.00  0.00     0.214 C 
ATOM      2  C7  <0> d   1      17.383  -0.167   7.367  0.00  0.00     0.205 C 
ATOM      3  O8  <0> d   1      17.138   0.026   8.764  0.00  0.00    -0.378 OA
ATOM      4  C9  <0> d   1      18.373   0.216   9.469  0.00  0.00     0.183 C 
ATOM      5  C11 <0> d   1      18.236   1.455  10.383  0.00  0.00     0.173 C 
ATOM      6  C14 <0> d   1      18.728   2.630   9.518  0.00  0.00     0.202 C 
ATOM      7  O15 <0> d   1      19.049   2.104   8.221  0.00  0.00    -0.378 OA
ATOM      8  C16 <0> d   1      19.397   0.693   8.386  0.00  0.00     0.186 C 
ENDROOT
BRANCH   1   9
ATOM      9  O4  <0> d   1      19.221   0.593   5.941  0.00  0.00    -0.211 OA
BRANCH   9  10
ATOM     10  N2  <0> d   1      19.196  -0.222   4.783  0.00  0.00     0.005 N 
ATOM     11  O1  <0> d   1      20.016  -1.112   4.648  0.00  0.00    -0.511 OA
ATOM     12  O3  <0> d   1      18.351  -0.036   3.926  0.00  0.00    -0.511 OA
ENDBRANCH   9  10
ENDBRANCH   1   9
BRANCH   5  13
ATOM     13  O13 <0> d   1      19.056   1.310  11.545  0.00  0.00    -0.391 OA
ATOM     14  H20 <0> d   1      19.665   0.562  11.504  0.00  0.00     0.210 HD
ENDBRANCH   5  13
TORSDOF 3
ENDMDL
MODEL 4
REMARK VINA RESULT:      -5.0      3.252      4.442
REMARK  3 active torsions:
REMARK  status: ('A' for Active; 'I' for Inactive)
REMARK    1  A    between atoms: N2_2  and  O4_4 
REMARK    2  A    between atoms: O4_4  and  C5_5 
REMARK    3  A    between atoms: C11_9  and  O13_10 
ROOT
ATOM      1  C5  <0> d   1      19.233  -1.213   8.726  0.00  0.00     0.214 C 
ATOM      2  C7  <0> d   1      18.472  -1.943   9.853  0.00  0.00     0.205 C 
ATOM      3  O8  <0> d   1      19.187  -1.716  11.072  0.00  0.00    -0.378 OA
ATOM      4  C9  <0> d   1      20.340  -0.897  10.833  0.00  0.00     0.183 C 
ATOM      5  C11 <0> d   1      20.363   0.242  11.879  0.00  0.00     0.173 C 
ATOM      6  C14 <0> d   1      19.596   1.397  11.210  0.00  0.00     0.202 C 
ATOM      7  O15 <0> d   1      19.133   0.924   9.935  0.00  0.00    -0.378 OA
ATOM      8  C16 <0> d   1      20.039  -0.138   9.499  0.00  0.00     0.186 C 
ENDROOT
BRANCH   1   9
ATOM      9  O4  <0> d   1      18.321  -0.604   7.810  0.00  0.00    -0.211 OA
BRANCH   9  10
ATOM     10  N2  <0> d   1      18.920  -0.167   6.604  0.00  0.00     0.005 N 
ATOM     11  O1  <0> d   1      18.940   1.020   6.329  0.00  0.00    -0.511 OA
ATOM     12  O3  <0> d   1      19.419  -0.977   5.844  0.00  0.00    -0.511 OA
ENDBRANCH   9  10
ENDBRANCH   1   9
BRANCH   5  13
ATOM     13  O13 <0> d   1      21.709   0.631  12.161  0.00  0.00    -0.391 OA
ATOM     14  H20 <0> d   1      22.074   0.233  12.963  0.00  0.00     0.210 HD
ENDBRANCH   5  13
TORSDOF 3
ENDMDL
MODEL 5
REMARK VINA RESULT:      -4.9      3.448      4.988
REMARK  3 active torsions:
REMARK  status: ('A' for Active; 'I' for Inactive)
REMARK    1  A    between atoms: N2_2  and  O4_4 
REMARK    2  A    between atoms: O4_4  and  C5_5 
REMARK    3  A    between atoms: C11_9  and  O13_10 
ROOT
ATOM      1  C5  <0> d   1      19.262   0.927  14.474  0.00  0.00     0.214 C 
ATOM      2  C7  <0> d   1      18.531   1.778  13.415  0.00  0.00     0.205 C 
ATOM      3  O8  <0> d   1      19.257   1.654  12.187  0.00  0.00    -0.378 OA
ATOM      4  C9  <0> d   1      20.390   0.791  12.359  0.00  0.00     0.183 C 
ATOM      5  C11 <0> d   1      20.405  -0.242  11.208  0.00  0.00     0.173 C 
ATOM      6  C14 <0> d   1      19.606  -1.440  11.754  0.00  0.00     0.202 C 
ATOM      7  O15 <0> d   1      19.135  -1.081  13.063  0.00  0.00    -0.378 OA
ATOM      8  C16 <0> d   1      20.056  -0.086  13.610  0.00  0.00     0.186 C 
ENDROOT
BRANCH   1   9
ATOM      9  O4  <0> d   1      18.326   0.251  15.316  0.00  0.00    -0.211 OA
BRANCH   9  10
ATOM     10  N2  <0> d   1      18.895  -0.287  16.496  0.00  0.00     0.005 N 
ATOM     11  O1  <0> d   1      19.259   0.457  17.390  0.00  0.00    -0.511 OA
ATOM     12  O3  <0> d   1      19.014  -1.492  16.620  0.00  0.00    -0.511 OA
ENDBRANCH   9  10
ENDBRANCH   1   9
BRANCH   5  13
ATOM     13  O13 <0> d   1      21.746  -0.631  10.905  0.00  0.00    -0.391 OA
ATOM     14  H20 <0> d   1      21.921  -1.573  11.034  0.00  0.00     0.210 HD
ENDBRANCH   5  13
TORSDOF 3
ENDMDL
MODEL 6
REMARK VINA RESULT:      -4.9      3.955      5.734
REMARK  3 active torsions:
REMARK  status: ('A' for Active; 'I' for Inactive)
REMARK    1  A    between atoms: N2_2  and  O4_4 
REMARK    2  A    between atoms: O4_4  and  C5_5 
REMARK    3  A    between atoms: C11_9  and  O13_10 
ROOT
ATOM      1  C5  <0> d   1      18.560  -0.236  15.416  0.00  0.00     0.214 C 
ATOM      2  C7  <0> d   1      19.606  -0.900  14.497  0.00  0.00     0.205 C 
ATOM      3  O8  <0> d   1      18.985  -1.121  13.227  0.00  0.00    -0.378 OA
ATOM      4  C9  <0> d   1      17.630  -0.651  13.242  0.00  0.00     0.183 C 
ATOM      5  C11 <0> d   1      17.393   0.220  11.986  0.00  0.00     0.173 C 
ATOM      6  C14 <0> d   1      17.732   1.652  12.439  0.00  0.00     0.202 C 
ATOM      7  O15 <0> d   1      18.178   1.578  13.803  0.00  0.00    -0.378 OA
ATOM      8  C16 <0> d   1      17.568   0.393  14.406  0.00  0.00     0.186 C 
ENDROOT
BRANCH   1   9
ATOM      9  O4  <0> d   1      19.166   0.773  16.228  0.00  0.00    -0.211 OA
BRANCH   9  10
ATOM     10  N2  <0> d   1      19.115   0.502  17.617  0.00  0.00     0.005 N 
ATOM     11  O1  <0> d   1      18.284  -0.273  18.056  0.00  0.00    -0.511 OA
ATOM     12  O3  <0> d   1      19.905   1.040  18.372  0.00  0.00    -0.511 OA
ENDBRANCH   9  10
ENDBRANCH   1   9
BRANCH   5  13
ATOM     13  O13 <0> d   1      16.028   0.136  11.571  0.00  0.00    -0.391 OA
ATOM     14  H20 <0> d   1      15.910   0.104  10.613  0.00  0.00     0.210 HD
ENDBRANCH   5  13
TORSDOF 3
ENDMDL
MODEL 7
REMARK VINA RESULT:      -4.8      2.138      3.187
REMARK  3 active torsions:
REMARK  status: ('A' for Active; 'I' for Inactive)
REMARK    1  A    between atoms: N2_2  and  O4_4 
REMARK    2  A    between atoms: O4_4  and  C5_5 
REMARK    3  A    between atoms: C11_9  and  O13_10 
ROOT
ATOM      1  C5  <0> d   1      18.541   1.828  10.383  0.00  0.00     0.214 C 
ATOM      2  C7  <0> d   1      19.013   2.508   9.081  0.00  0.00     0.205 C 
ATOM      3  O8  <0> d   1      19.660   1.510   8.285  0.00  0.00    -0.378 OA
ATOM      4  C9  <0> d   1      19.643   0.242   8.956  0.00  0.00     0.183 C 
ATOM      5  C11 <0> d   1      19.153  -0.838   7.963  0.00  0.00     0.173 C 
ATOM      6  C14 <0> d   1      17.627  -0.884   8.164  0.00  0.00     0.202 C 
ATOM      7  O15 <0> d   1      17.291   0.121   9.133  0.00  0.00    -0.378 OA
ATOM      8  C16 <0> d   1      18.464   0.334   9.981  0.00  0.00     0.186 C 
ENDROOT
BRANCH   1   9
ATOM      9  O4  <0> d   1      17.255   2.316  10.773  0.00  0.00    -0.211 OA
BRANCH   9  10
ATOM     10  N2  <0> d   1      17.286   3.586  11.400  0.00  0.00     0.005 N 
ATOM     11  O1  <0> d   1      18.133   3.828  12.242  0.00  0.00    -0.511 OA
ATOM     12  O3  <0> d   1      16.471   4.437  11.094  0.00  0.00    -0.511 OA
ENDBRANCH   9  10
ENDBRANCH   1   9
BRANCH   5  13
ATOM     13  O13 <0> d   1      19.739  -2.103   8.276  0.00  0.00    -0.391 OA
ATOM     14  H20 <0> d   1      19.137  -2.852   8.166  0.00  0.00     0.210 HD
ENDBRANCH   5  13
TORSDOF 3
ENDMDL
MODEL 8
REMARK VINA RESULT:      -4.7      1.269      2.064
REMARK  3 active torsions:
REMARK  status: ('A' for Active; 'I' for Inactive)
REMARK    1  A    between atoms: N2_2  and  O4_4 
REMARK    2  A    between atoms: O4_4  and  C5_5 
REMARK    3  A    between atoms: C11_9  and  O13_10 
ROOT
ATOM      1  C5  <0> d   1      18.060   2.544  11.543  0.00  0.00     0.214 C 
ATOM      2  C7  <0> d   1      19.471   3.167  11.584  0.00  0.00     0.205 C 
ATOM      3  O8  <0> d   1      20.398   2.115  11.871  0.00  0.00    -0.378 OA
ATOM      4  C9  <0> d   1      19.710   0.864  12.013  0.00  0.00     0.183 C 
ATOM      5  C11 <0> d   1      20.438  -0.201  11.160  0.00  0.00     0.173 C 
ATOM      6  C14 <0> d   1      19.736  -0.147   9.791  0.00  0.00     0.202 C 
ATOM      7  O15 <0> d   1      18.751   0.897   9.855  0.00  0.00    -0.378 OA
ATOM      8  C16 <0> d   1      18.354   1.050  11.255  0.00  0.00     0.186 C 
ENDROOT
BRANCH   1   9
ATOM      9  O4  <0> d   1      17.282   3.120  10.492  0.00  0.00    -0.211 OA
BRANCH   9  10
ATOM     10  N2  <0> d   1      16.943   4.479  10.704  0.00  0.00     0.005 N 
ATOM     11  O1  <0> d   1      16.319   4.803  11.698  0.00  0.00    -0.511 OA
ATOM     12  O3  <0> d   1      17.281   5.324   9.895  0.00  0.00    -0.511 OA
ENDBRANCH   9  10
ENDBRANCH   1   9
BRANCH   5  13
ATOM     13  O13 <0> d   1      20.291  -1.495  11.748  0.00  0.00    -0.391 OA
ATOM     14  H20 <0> d   1      19.651  -2.061  11.296  0.00  0.00     0.210 HD
ENDBRANCH   5  13
TORSDOF 3
ENDMDL
MODEL 9
REMARK VINA RESULT:      -4.6      2.059      2.423
REMARK  3 active torsions:
REMARK  status: ('A' for Active; 'I' for Inactive)
REMARK    1  A    between atoms: N2_2  and  O4_4 
REMARK    2  A    between atoms: O4_4  and  C5_5 
REMARK    3  A    between atoms: C11_9  and  O13_10 
ROOT
ATOM      1  C5  <0> d   1      17.769   1.050  11.247  0.00  0.00     0.214 C 
ATOM      2  C7  <0> d   1      16.627   0.022  11.388  0.00  0.00     0.205 C 
ATOM      3  O8  <0> d   1      17.137  -1.087  12.137  0.00  0.00    -0.378 OA
ATOM      4  C9  <0> d   1      18.507  -0.863  12.497  0.00  0.00     0.183 C 
ATOM      5  C11 <0> d   1      18.679  -1.165  14.004  0.00  0.00     0.173 C 
ATOM      6  C14 <0> d   1      18.436   0.187  14.700  0.00  0.00     0.202 C 
ATOM      7  O15 <0> d   1      18.097   1.140  13.680  0.00  0.00    -0.378 OA
ATOM      8  C16 <0> d   1      18.704   0.688  12.428  0.00  0.00     0.186 C 
ENDROOT
BRANCH   1   9
ATOM      9  O4  <0> d   1      17.272   2.383  11.382  0.00  0.00    -0.211 OA
BRANCH   9  10
ATOM     10  N2  <0> d   1      17.754   3.281  10.399  0.00  0.00     0.005 N 
ATOM     11  O1  <0> d   1      18.565   2.901   9.573  0.00  0.00    -0.511 OA
ATOM     12  O3  <0> d   1      17.353   4.430  10.375  0.00  0.00    -0.511 OA
ENDBRANCH   9  10
ENDBRANCH   1   9
BRANCH   5  13
ATOM     13  O13 <0> d   1      20.002  -1.635  14.270  0.00  0.00    -0.391 OA
ATOM     14  H20 <0> d   1      20.319  -1.433  15.160  0.00  0.00     0.210 HD
ENDBRANCH   5  13
TORSDOF 3
ENDMDL
