MODEL 1
REMARK VINA RESULT:      -6.9      0.000      0.000
REMARK  5 active torsions:
REMARK  status: ('A' for Active; 'I' for Inactive)
REMARK    1  A    between atoms: N2_2  and  C5_5 
REMARK    2  A    between atoms: C5_5  and  C6_6 
REMARK    3  A    between atoms: C6_6  and  C7_7 
REMARK    4  A    between atoms: C7_7  and  C9_8 
REMARK    5  A    between atoms: C7_7  and  C15_14 
ROOT
ATOM      1  C7  ZIN A   1      18.189   0.637  10.311  0.00  0.00     0.072 C 
ENDROOT
BRANCH   1   2
ATOM      2  C6  ZIN A   1      16.894   0.022  10.845  0.00  0.00     0.043 C 
BRANCH   2   3
ATOM      3  C5  ZIN A   1      17.199  -0.803  12.097  0.00  0.00     0.235 C 
BRANCH   3   4
ATOM      4  N2  ZIN A   1      18.209  -1.822  11.777  0.00  0.00    -0.079 N 
ATOM      5  C1  ZIN A   1      19.066  -2.045  12.948  0.00  0.00     0.269 C 
ATOM      6  H3  ZIN A   1      18.772  -1.506  11.002  0.00  0.00     0.278 HD
ATOM      7  C4  ZIN A   1      17.538  -3.078  11.414  0.00  0.00     0.269 C 
ENDBRANCH   3   4
ENDBRANCH   2   3
ENDBRANCH   1   2
BRANCH   1   8
ATOM      8  C9  ZIN A   1      18.161   0.637   8.805  0.00  0.00    -0.048 A 
ATOM      9  C14 ZIN A   1      17.245  -0.148   8.131  0.00  0.00     0.008 A 
ATOM     10  C13 ZIN A   1      17.216  -0.145   6.748  0.00  0.00     0.001 A 
ATOM     11  C12 ZIN A   1      18.111   0.636   6.040  0.00  0.00     0.000 A 
ATOM     12  C11 ZIN A   1      19.031   1.417   6.715  0.00  0.00     0.001 A 
ATOM     13  C10 ZIN A   1      19.057   1.417   8.097  0.00  0.00     0.008 A 
ENDBRANCH   1   8
BRANCH   1  14
ATOM     14  C15 ZIN A   1      18.316   2.053  10.812  0.00  0.00     0.042 A 
ATOM     15  N20 ZIN A   1      17.295   2.879  10.699  0.00  0.00    -0.265 NA
ATOM     16  C19 ZIN A   1      17.359   4.125  11.127  0.00  0.00     0.117 A 
ATOM     17  C18 ZIN A   1      18.515   4.615  11.705  0.00  0.00     0.019 A 
ATOM     18  C17 ZIN A   1      19.612   3.778  11.836  0.00  0.00     0.003 A 
ATOM     19  C16 ZIN A   1      19.505   2.472  11.379  0.00  0.00     0.028 A 
ENDBRANCH   1  14
TORSDOF 5
ENDMDL
MODEL 2
REMARK VINA RESULT:      -6.8      1.593      2.072
REMARK  5 active torsions:
REMARK  status: ('A' for Active; 'I' for Inactive)
REMARK    1  A    between atoms: N2_2  and  C5_5 
REMARK    2  A    between atoms: C5_5  and  C6_6 
REMARK    3  A    between atoms: C6_6  and  C7_7 
REMARK    4  A    between atoms: C7_7  and  C9_8 
REMARK    5  A    between atoms: C7_7  and  C15_14 
ROOT
ATOM      1  C7  ZIN A   1      19.203   1.753  10.479  0.00  0.00     0.072 C 
ENDROOT
BRANCH   1   2
ATOM      2  C6  ZIN A   1      19.058   0.662  11.543  0.00  0.00     0.043 C 
BRANCH   2   3
ATOM      3  C5  ZIN A   1      20.419   0.396  12.189  0.00  0.00     0.235 C 
BRANCH   3   4
ATOM      4  N2  ZIN A   1      20.222  -0.212  13.513  0.00  0.00    -0.079 N 
ATOM      5  C1  ZIN A   1      19.542   0.745  14.394  0.00  0.00     0.269 C 
ATOM      6  H3  ZIN A   1      21.118  -0.456  13.907  0.00  0.00     0.278 HD
ATOM      7  C4  ZIN A   1      19.402  -1.423  13.377  0.00  0.00     0.269 C 
ENDBRANCH   3   4
ENDBRANCH   2   3
ENDBRANCH   1   2
BRANCH   1   8
ATOM      8  C9  ZIN A   1      18.728   1.225   9.151  0.00  0.00    -0.048 A 
ATOM      9  C14 ZIN A   1      17.655   0.355   9.096  0.00  0.00     0.008 A 
ATOM     10  C13 ZIN A   1      17.217  -0.126   7.876  0.00  0.00     0.001 A 
ATOM     11  C12 ZIN A   1      17.858   0.255   6.712  0.00  0.00     0.000 A 
ATOM     12  C11 ZIN A   1      18.935   1.121   6.767  0.00  0.00     0.001 A 
ATOM     13  C10 ZIN A   1      19.370   1.605   7.987  0.00  0.00     0.008 A 
ENDBRANCH   1   8
BRANCH   1  14
ATOM     14  C15 ZIN A   1      18.374   2.949  10.870  0.00  0.00     0.042 A 
ATOM     15  N20 ZIN A   1      17.929   3.058  12.106  0.00  0.00    -0.265 NA
ATOM     16  C19 ZIN A   1      17.204   4.089  12.495  0.00  0.00     0.117 A 
ATOM     17  C18 ZIN A   1      16.875   5.096  11.606  0.00  0.00     0.019 A 
ATOM     18  C17 ZIN A   1      17.320   5.014  10.296  0.00  0.00     0.003 A 
ATOM     19  C16 ZIN A   1      18.085   3.917   9.926  0.00  0.00     0.028 A 
ENDBRANCH   1  14
TORSDOF 5
ENDMDL
MODEL 3
REMARK VINA RESULT:      -6.6      1.769      4.113
REMARK  5 active torsions:
REMARK  status: ('A' for Active; 'I' for Inactive)
REMARK    1  A    between atoms: N2_2  and  C5_5 
REMARK    2  A    between atoms: C5_5  and  C6_6 
REMARK    3  A    between atoms: C6_6  and  C7_7 
REMARK    4  A    between atoms: C7_7  and  C9_8 
REMARK    5  A    between atoms: C7_7  and  C15_14 
ROOT
ATOM      1  C7  ZIN A   1      17.620   1.896  11.021  0.00  0.00     0.072 C 
ENDROOT
BRANCH   1   2
ATOM      2  C6  ZIN A   1      18.172   3.318  11.151  0.00  0.00     0.043 C 
BRANCH   2   3
ATOM      3  C5  ZIN A   1      17.379   4.077  12.215  0.00  0.00     0.235 C 
BRANCH   3   4
ATOM      4  N2  ZIN A   1      18.307   4.662  13.194  0.00  0.00    -0.079 N 
ATOM      5  C1  ZIN A   1      18.297   3.854  14.420  0.00  0.00     0.269 C 
ATOM      6  H3  ZIN A   1      18.019   5.605  13.409  0.00  0.00     0.278 HD
ATOM      7  C4  ZIN A   1      19.664   4.681  12.630  0.00  0.00     0.269 C 
ENDBRANCH   3   4
ENDBRANCH   2   3
ENDBRANCH   1   2
BRANCH   1   8
ATOM      8  C9  ZIN A   1      17.965   1.346   9.662  0.00  0.00    -0.048 A 
ATOM      9  C14 ZIN A   1      17.374   0.177   9.219  0.00  0.00     0.008 A 
ATOM     10  C13 ZIN A   1      17.687  -0.325   7.969  0.00  0.00     0.001 A 
ATOM     11  C12 ZIN A   1      18.598   0.335   7.167  0.00  0.00     0.000 A 
ATOM     12  C11 ZIN A   1      19.194   1.501   7.612  0.00  0.00     0.001 A 
ATOM     13  C10 ZIN A   1      18.877   2.006   8.860  0.00  0.00     0.008 A 
ENDBRANCH   1   8
BRANCH   1  14
ATOM     14  C15 ZIN A   1      18.228   1.021  12.087  0.00  0.00     0.042 A 
ATOM     15  N20 ZIN A   1      19.528   1.066  12.304  0.00  0.00    -0.265 NA
ATOM     16  C19 ZIN A   1      20.103   0.323  13.229  0.00  0.00     0.117 A 
ATOM     17  C18 ZIN A   1      19.356  -0.545  14.003  0.00  0.00     0.019 A 
ATOM     18  C17 ZIN A   1      17.987  -0.624  13.801  0.00  0.00     0.003 A 
ATOM     19  C16 ZIN A   1      17.417   0.177  12.822  0.00  0.00     0.028 A 
ENDBRANCH   1  14
TORSDOF 5
ENDMDL
MODEL 4
REMARK VINA RESULT:      -6.6      2.279      6.888
REMARK  5 active torsions:
REMARK  status: ('A' for Active; 'I' for Inactive)
REMARK    1  A    between atoms: N2_2  and  C5_5 
REMARK    2  A    between atoms: C5_5  and  C6_6 
REMARK    3  A    between atoms: C6_6  and  C7_7 
REMARK    4  A    between atoms: C7_7  and  C9_8 
REMARK    5  A    between atoms: C7_7  and  C15_14 
ROOT
ATOM      1  C7  ZIN A   1      19.379  -0.920  12.663  0.00  0.00     0.072 C 
ENDROOT
BRANCH   1   2
ATOM      2  C6  ZIN A   1      18.768   0.168  11.779  0.00  0.00     0.043 C 
BRANCH   2   3
ATOM      3  C5  ZIN A   1      19.653   0.383  10.549  0.00  0.00     0.235 C 
BRANCH   3   4
ATOM      4  N2  ZIN A   1      19.829   1.823  10.317  0.00  0.00    -0.079 N 
ATOM      5  C1  ZIN A   1      18.861   2.278   9.311  0.00  0.00     0.269 C 
ATOM      6  H3  ZIN A   1      20.766   1.999   9.988  0.00  0.00     0.278 HD
ATOM      7  C4  ZIN A   1      19.608   2.552  11.574  0.00  0.00     0.269 C 
ENDBRANCH   3   4
ENDBRANCH   2   3
ENDBRANCH   1   2
BRANCH   1   8
ATOM      8  C9  ZIN A   1      18.843  -0.788  14.065  0.00  0.00    -0.048 A 
ATOM      9  C14 ZIN A   1      17.850   0.133  14.341  0.00  0.00     0.008 A 
ATOM     10  C13 ZIN A   1      17.354   0.251  15.627  0.00  0.00     0.001 A 
ATOM     11  C12 ZIN A   1      17.859  -0.545  16.638  0.00  0.00     0.000 A 
ATOM     12  C11 ZIN A   1      18.857  -1.463  16.363  0.00  0.00     0.001 A 
ATOM     13  C10 ZIN A   1      19.349  -1.583  15.076  0.00  0.00     0.008 A 
ENDBRANCH   1   8
BRANCH   1  14
ATOM     14  C15 ZIN A   1      19.019  -2.276  12.113  0.00  0.00     0.042 A 
ATOM     15  N20 ZIN A   1      19.973  -3.148  11.853  0.00  0.00    -0.265 NA
ATOM     16  C19 ZIN A   1      19.705  -4.349  11.376  0.00  0.00     0.117 A 
ATOM     17  C18 ZIN A   1      18.402  -4.732  11.120  0.00  0.00     0.019 A 
ATOM     18  C17 ZIN A   1      17.372  -3.840  11.375  0.00  0.00     0.003 A 
ATOM     19  C16 ZIN A   1      17.692  -2.589  11.882  0.00  0.00     0.028 A 
ENDBRANCH   1  14
TORSDOF 5
ENDMDL
MODEL 5
REMARK VINA RESULT:      -6.6      1.487      4.312
REMARK  5 active torsions:
REMARK  status: ('A' for Active; 'I' for Inactive)
REMARK    1  A    between atoms: N2_2  and  C5_5 
REMARK    2  A    between atoms: C5_5  and  C6_6 
REMARK    3  A    between atoms: C6_6  and  C7_7 
REMARK    4  A    between atoms: C7_7  and  C9_8 
REMARK    5  A    between atoms: C7_7  and  C15_14 
ROOT
ATOM      1  C7  ZIN A   1      18.510   0.533  10.242  0.00  0.00     0.072 C 
ENDROOT
BRANCH   1   2
ATOM      2  C6  ZIN A   1      19.798  -0.214  10.595  0.00  0.00     0.043 C 
BRANCH   2   3
ATOM      3  C5  ZIN A   1      19.452  -1.492  11.361  0.00  0.00     0.235 C 
BRANCH   3   4
ATOM      4  N2  ZIN A   1      19.941  -2.659  10.612  0.00  0.00    -0.079 N 
ATOM      5  C1  ZIN A   1      20.244  -3.749  11.548  0.00  0.00     0.269 C 
ATOM      6  H3  ZIN A   1      20.777  -2.408  10.106  0.00  0.00     0.278 HD
ATOM      7  C4  ZIN A   1      18.909  -3.100   9.664  0.00  0.00     0.269 C 
ENDBRANCH   3   4
ENDBRANCH   2   3
ENDBRANCH   1   2
BRANCH   1   8
ATOM      8  C9  ZIN A   1      18.593   1.947  10.754  0.00  0.00    -0.048 A 
ATOM      9  C14 ZIN A   1      17.552   2.827  10.527  0.00  0.00     0.008 A 
ATOM     10  C13 ZIN A   1      17.626   4.124  11.000  0.00  0.00     0.001 A 
ATOM     11  C12 ZIN A   1      18.747   4.544  11.693  0.00  0.00     0.000 A 
ATOM     12  C11 ZIN A   1      19.791   3.665  11.915  0.00  0.00     0.001 A 
ATOM     13  C10 ZIN A   1      19.714   2.367  11.445  0.00  0.00     0.008 A 
ENDBRANCH   1   8
BRANCH   1  14
ATOM     14  C15 ZIN A   1      18.332   0.549   8.745  0.00  0.00     0.042 A 
ATOM     15  N20 ZIN A   1      17.339  -0.124   8.200  0.00  0.00    -0.265 NA
ATOM     16  C19 ZIN A   1      17.142  -0.135   6.895  0.00  0.00     0.117 A 
ATOM     17  C18 ZIN A   1      17.985   0.559   6.048  0.00  0.00     0.019 A 
ATOM     18  C17 ZIN A   1      19.043   1.275   6.584  0.00  0.00     0.003 A 
ATOM     19  C16 ZIN A   1      19.216   1.267   7.961  0.00  0.00     0.028 A 
ENDBRANCH   1  14
TORSDOF 5
ENDMDL
MODEL 6
REMARK VINA RESULT:      -6.5      1.288      4.259
REMARK  5 active torsions:
REMARK  status: ('A' for Active; 'I' for Inactive)
REMARK    1  A    between atoms: N2_2  and  C5_5 
REMARK    2  A    between atoms: C5_5  and  C6_6 
REMARK    3  A    between atoms: C6_6  and  C7_7 
REMARK    4  A    between atoms: C7_7  and  C9_8 
REMARK    5  A    between atoms: C7_7  and  C15_14 
ROOT
ATOM      1  C7  ZIN A   1      18.148   1.164   9.795  0.00  0.00     0.072 C 
ENDROOT
BRANCH   1   2
ATOM      2  C6  ZIN A   1      19.247   2.184  10.100  0.00  0.00     0.043 C 
BRANCH   2   3
ATOM      3  C5  ZIN A   1      18.712   3.235  11.074  0.00  0.00     0.235 C 
BRANCH   3   4
ATOM      4  N2  ZIN A   1      19.570   3.279  12.267  0.00  0.00    -0.079 N 
ATOM      5  C1  ZIN A   1      19.706   4.669  12.720  0.00  0.00     0.269 C 
ATOM      6  H3  ZIN A   1      20.480   2.908  12.040  0.00  0.00     0.278 HD
ATOM      7  C4  ZIN A   1      18.964   2.472  13.334  0.00  0.00     0.269 C 
ENDBRANCH   3   4
ENDBRANCH   2   3
ENDBRANCH   1   2
BRANCH   1   8
ATOM      8  C9  ZIN A   1      18.166   0.830   8.326  0.00  0.00    -0.048 A 
ATOM      9  C14 ZIN A   1      19.091   1.429   7.492  0.00  0.00     0.008 A 
ATOM     10  C13 ZIN A   1      19.111   1.119   6.145  0.00  0.00     0.001 A 
ATOM     11  C12 ZIN A   1      18.198   0.217   5.630  0.00  0.00     0.000 A 
ATOM     12  C11 ZIN A   1      17.269  -0.378   6.463  0.00  0.00     0.001 A 
ATOM     13  C10 ZIN A   1      17.252  -0.071   7.812  0.00  0.00     0.008 A 
ENDBRANCH   1   8
BRANCH   1  14
ATOM     14  C15 ZIN A   1      18.387  -0.088  10.599  0.00  0.00     0.042 A 
ATOM     15  N20 ZIN A   1      19.564  -0.680  10.548  0.00  0.00    -0.265 NA
ATOM     16  C19 ZIN A   1      19.821  -1.775  11.238  0.00  0.00     0.117 A 
ATOM     17  C18 ZIN A   1      18.850  -2.349  12.038  0.00  0.00     0.019 A 
ATOM     18  C17 ZIN A   1      17.599  -1.758  12.112  0.00  0.00     0.003 A 
ATOM     19  C16 ZIN A   1      17.368  -0.605  11.377  0.00  0.00     0.028 A 
ENDBRANCH   1  14
TORSDOF 5
ENDMDL
MODEL 7
REMARK VINA RESULT:      -6.5      2.156      4.147
REMARK  5 active torsions:
REMARK  status: ('A' for Active; 'I' for Inactive)
REMARK    1  A    between atoms: N2_2  and  C5_5 
REMARK    2  A    between atoms: C5_5  and  C6_6 
REMARK    3  A    between atoms: C6_6  and  C7_7 
REMARK    4  A    between atoms: C7_7  and  C9_8 
REMARK    5  A    between atoms: C7_7  and  C15_14 
ROOT
ATOM      1  C7  ZIN A   1      17.562  -0.237  10.938  0.00  0.00     0.072 C 
ENDROOT
BRANCH   1   2
ATOM      2  C6  ZIN A   1      18.177   0.682  11.995  0.00  0.00     0.043 C 
BRANCH   2   3
ATOM      3  C5  ZIN A   1      17.504   0.429  13.345  0.00  0.00     0.235 C 
BRANCH   3   4
ATOM      4  N2  ZIN A   1      18.533   0.190  14.368  0.00  0.00    -0.079 N 
ATOM      5  C1  ZIN A   1      18.522  -1.227  14.751  0.00  0.00     0.269 C 
ATOM      6  H3  ZIN A   1      18.340   0.760  15.178  0.00  0.00     0.278 HD
ATOM      7  C4  ZIN A   1      19.853   0.541  13.825  0.00  0.00     0.269 C 
ENDBRANCH   3   4
ENDBRANCH   2   3
ENDBRANCH   1   2
BRANCH   1   8
ATOM      8  C9  ZIN A   1      17.969   0.233   9.566  0.00  0.00    -0.048 A 
ATOM      9  C14 ZIN A   1      17.438  -0.372   8.442  0.00  0.00     0.008 A 
ATOM     10  C13 ZIN A   1      17.808   0.062   7.182  0.00  0.00     0.001 A 
ATOM     11  C12 ZIN A   1      18.717   1.094   7.046  0.00  0.00     0.000 A 
ATOM     12  C11 ZIN A   1      19.253   1.696   8.171  0.00  0.00     0.001 A 
ATOM     13  C10 ZIN A   1      18.879   1.265   9.430  0.00  0.00     0.008 A 
ENDBRANCH   1   8
BRANCH   1  14
ATOM     14  C15 ZIN A   1      18.049  -1.647  11.152  0.00  0.00     0.042 A 
ATOM     15  N20 ZIN A   1      17.178  -2.610  11.376  0.00  0.00    -0.265 NA
ATOM     16  C19 ZIN A   1      17.558  -3.860  11.564  0.00  0.00     0.117 A 
ATOM     17  C18 ZIN A   1      18.898  -4.201  11.542  0.00  0.00     0.019 A 
ATOM     18  C17 ZIN A   1      19.843  -3.214  11.315  0.00  0.00     0.003 A 
ATOM     19  C16 ZIN A   1      19.406  -1.913  11.116  0.00  0.00     0.028 A 
ENDBRANCH   1  14
TORSDOF 5
ENDMDL
MODEL 8
REMARK VINA RESULT:      -6.4      1.137      4.161
REMARK  5 active torsions:
REMARK  status: ('A' for Active; 'I' for Inactive)
REMARK    1  A    between atoms: N2_2  and  C5_5 
REMARK    2  A    between atoms: C5_5  and  C6_6 
REMARK    3  A    between atoms: C6_6  and  C7_7 
REMARK    4  A    between atoms: C7_7  and  C9_8 
REMARK    5  A    between atoms: C7_7  and  C15_14 
ROOT
ATOM      1  C7  ZIN A   1      17.813   0.979   9.631  0.00  0.00     0.072 C 
ENDROOT
BRANCH   1   2
ATOM      2  C6  ZIN A   1      18.654   2.183  10.062  0.00  0.00     0.043 C 
BRANCH   2   3
ATOM      3  C5  ZIN A   1      17.755   3.213  10.747  0.00  0.00     0.235 C 
BRANCH   3   4
ATOM      4  N2  ZIN A   1      18.588   4.203  11.446  0.00  0.00    -0.079 N 
ATOM      5  C1  ZIN A   1      17.890   4.666  12.652  0.00  0.00     0.269 C 
ATOM      6  H3  ZIN A   1      18.762   4.987  10.835  0.00  0.00     0.278 HD
ATOM      7  C4  ZIN A   1      19.866   3.586  11.825  0.00  0.00     0.269 C 
ENDBRANCH   3   4
ENDBRANCH   2   3
ENDBRANCH   1   2
BRANCH   1   8
ATOM      8  C9  ZIN A   1      18.034   0.712   8.165  0.00  0.00    -0.048 A 
ATOM      9  C14 ZIN A   1      17.240  -0.205   7.502  0.00  0.00     0.008 A 
ATOM     10  C13 ZIN A   1      17.440  -0.447   6.155  0.00  0.00     0.001 A 
ATOM     11  C12 ZIN A   1      18.441   0.220   5.474  0.00  0.00     0.000 A 
ATOM     12  C11 ZIN A   1      19.240   1.133   6.138  0.00  0.00     0.001 A 
ATOM     13  C10 ZIN A   1      19.037   1.378   7.484  0.00  0.00     0.008 A 
ENDBRANCH   1   8
BRANCH   1  14
ATOM     14  C15 ZIN A   1      18.222  -0.231  10.430  0.00  0.00     0.042 A 
ATOM     15  N20 ZIN A   1      17.302  -0.942  11.051  0.00  0.00    -0.265 NA
ATOM     16  C19 ZIN A   1      17.611  -2.012  11.758  0.00  0.00     0.117 A 
ATOM     17  C18 ZIN A   1      18.926  -2.422  11.881  0.00  0.00     0.019 A 
ATOM     18  C17 ZIN A   1      19.922  -1.695  11.246  0.00  0.00     0.003 A 
ATOM     19  C16 ZIN A   1      19.557  -0.579  10.508  0.00  0.00     0.028 A 
ENDBRANCH   1  14
TORSDOF 5
ENDMDL
MODEL 9
REMARK VINA RESULT:      -6.3      2.698      5.067
REMARK  5 active torsions:
REMARK  status: ('A' for Active; 'I' for Inactive)
REMARK    1  A    between atoms: N2_2  and  C5_5 
REMARK    2  A    between atoms: C5_5  and  C6_6 
REMARK    3  A    between atoms: C6_6  and  C7_7 
REMARK    4  A    between atoms: C7_7  and  C9_8 
REMARK    5  A    between atoms: C7_7  and  C15_14 
ROOT
ATOM      1  C7  ZIN A   1      18.268  -0.476  12.361  0.00  0.00     0.072 C 
ENDROOT
BRANCH   1   2
ATOM      2  C6  ZIN A   1      19.415  -1.335  11.824  0.00  0.00     0.043 C 
BRANCH   2   3
ATOM      3  C5  ZIN A   1      19.059  -1.845  10.427  0.00  0.00     0.235 C 
BRANCH   3   4
ATOM      4  N2  ZIN A   1      19.706  -3.146  10.200  0.00  0.00    -0.079 N 
ATOM      5  C1  ZIN A   1      20.081  -3.736  11.491  0.00  0.00     0.269 C 
ATOM      6  H3  ZIN A   1      20.532  -3.017   9.636  0.00  0.00     0.278 HD
ATOM      7  C4  ZIN A   1      18.772  -4.041   9.504  0.00  0.00     0.269 C 
ENDBRANCH   3   4
ENDBRANCH   2   3
ENDBRANCH   1   2
BRANCH   1   8
ATOM      8  C9  ZIN A   1      18.270  -0.521  13.867  0.00  0.00    -0.048 A 
ATOM      9  C14 ZIN A   1      19.117  -1.387  14.532  0.00  0.00     0.008 A 
ATOM     10  C13 ZIN A   1      19.122  -1.424  15.914  0.00  0.00     0.001 A 
ATOM     11  C12 ZIN A   1      18.272  -0.602  16.631  0.00  0.00     0.000 A 
ATOM     12  C11 ZIN A   1      17.421   0.261  15.966  0.00  0.00     0.001 A 
ATOM     13  C10 ZIN A   1      17.419   0.301  14.583  0.00  0.00     0.008 A 
ENDBRANCH   1   8
BRANCH   1  14
ATOM     14  C15 ZIN A   1      18.448   0.947  11.900  0.00  0.00     0.042 A 
ATOM     15  N20 ZIN A   1      17.436   1.586  11.347  0.00  0.00    -0.265 NA
ATOM     16  C19 ZIN A   1      17.545   2.833  10.933  0.00  0.00     0.117 A 
ATOM     17  C18 ZIN A   1      18.740   3.517  11.057  0.00  0.00     0.019 A 
ATOM     18  C17 ZIN A   1      19.828   2.877  11.629  0.00  0.00     0.003 A 
ATOM     19  C16 ZIN A   1      19.674   1.566  12.057  0.00  0.00     0.028 A 
ENDBRANCH   1  14
TORSDOF 5
ENDMDL
