MODEL 1
REMARK VINA RESULT:      -7.0      0.000      0.000
REMARK  1 active torsions:
REMARK  status: ('A' for Active; 'I' for Inactive)
REMARK    1  A    between atoms: O2_2  and  C3_3 
ROOT
ATOM      1  C3  ZIN A   1      17.951   1.526  14.402  0.00  0.00     0.138 A 
ATOM      2  C4  ZIN A   1      17.593   0.793  13.275  0.00  0.00     0.121 A 
ATOM      3  O5  ZIN A   1      17.099   1.142  12.069  0.00  0.00    -0.319 OA
ATOM      4  C6  ZIN A   1      16.911   0.058  11.295  0.00  0.00     0.143 A 
ATOM      5  C7  ZIN A   1      17.273  -1.050  11.954  0.00  0.00     0.039 A 
ATOM      6  C8  ZIN A   1      17.734  -0.608  13.277  0.00  0.00     0.003 A 
ATOM      7  C9  ZIN A   1      18.227  -1.266  14.397  0.00  0.00     0.028 A 
ATOM      8  C10 ZIN A   1      18.584  -0.525  15.524  0.00  0.00     0.002 A 
ATOM      9  C11 ZIN A   1      18.450   0.878  15.523  0.00  0.00     0.126 A 
ATOM     10  O12 ZIN A   1      18.798   1.585  16.623  0.00  0.00    -0.272 OA
ATOM     11  C13 ZIN A   1      19.273   0.981  17.723  0.00  0.00     0.288 A 
ATOM     12  O14 ZIN A   1      19.573   1.660  18.689  0.00  0.00    -0.260 OA
ATOM     13  C15 ZIN A   1      19.432  -0.420  17.792  0.00  0.00     0.083 A 
ATOM     14  C16 ZIN A   1      19.106  -1.189  16.722  0.00  0.00     0.020 A 
ENDROOT
BRANCH   1  15
ATOM     15  O2  ZIN A   1      17.817   2.880  14.402  0.00  0.00    -0.351 OA
ATOM     16  C1  ZIN A   1      18.835   3.633  13.740  0.00  0.00     0.210 C 
ENDBRANCH   1  15
TORSDOF 1
ENDMDL
MODEL 2
REMARK VINA RESULT:      -6.9      4.945      8.584
REMARK  1 active torsions:
REMARK  status: ('A' for Active; 'I' for Inactive)
REMARK    1  A    between atoms: O2_2  and  C3_3 
ROOT
ATOM      1  C3  ZIN A   1      19.183  -0.626   8.964  0.00  0.00     0.138 A 
ATOM      2  C4  ZIN A   1      19.048   0.586   9.635  0.00  0.00     0.121 A 
ATOM      3  O5  ZIN A   1      19.007   0.913  10.943  0.00  0.00    -0.319 OA
ATOM      4  C6  ZIN A   1      18.862   2.241  11.102  0.00  0.00     0.143 A 
ATOM      5  C7  ZIN A   1      18.802   2.846   9.909  0.00  0.00     0.039 A 
ATOM      6  C8  ZIN A   1      18.922   1.782   8.903  0.00  0.00     0.003 A 
ATOM      7  C9  ZIN A   1      18.930   1.763   7.514  0.00  0.00     0.028 A 
ATOM      8  C10 ZIN A   1      19.065   0.545   6.847  0.00  0.00     0.002 A 
ATOM      9  C11 ZIN A   1      19.198  -0.654   7.577  0.00  0.00     0.126 A 
ATOM     10  O12 ZIN A   1      19.327  -1.828   6.918  0.00  0.00    -0.272 OA
ATOM     11  C13 ZIN A   1      19.334  -1.882   5.577  0.00  0.00     0.288 A 
ATOM     12  O14 ZIN A   1      19.453  -2.964   5.029  0.00  0.00    -0.260 OA
ATOM     13  C15 ZIN A   1      19.205  -0.722   4.786  0.00  0.00     0.083 A 
ATOM     14  C16 ZIN A   1      19.077   0.491   5.382  0.00  0.00     0.020 A 
ENDROOT
BRANCH   1  15
ATOM     15  O2  ZIN A   1      19.305  -1.783   9.669  0.00  0.00    -0.351 OA
ATOM     16  C1  ZIN A   1      18.099  -2.380  10.150  0.00  0.00     0.210 C 
ENDBRANCH   1  15
TORSDOF 1
ENDMDL
MODEL 3
REMARK VINA RESULT:      -6.8      4.823      7.461
REMARK  1 active torsions:
REMARK  status: ('A' for Active; 'I' for Inactive)
REMARK    1  A    between atoms: O2_2  and  C3_3 
ROOT
ATOM      1  C3  ZIN A   1      19.125  -1.116   8.108  0.00  0.00     0.138 A 
ATOM      2  C4  ZIN A   1      19.093  -1.105   6.717  0.00  0.00     0.121 A 
ATOM      3  O5  ZIN A   1      19.121  -2.083   5.788  0.00  0.00    -0.319 OA
ATOM      4  C6  ZIN A   1      19.066  -1.568   4.547  0.00  0.00     0.143 A 
ATOM      5  C7  ZIN A   1      18.998  -0.232   4.602  0.00  0.00     0.039 A 
ATOM      6  C8  ZIN A   1      19.014   0.120   6.028  0.00  0.00     0.003 A 
ATOM      7  C9  ZIN A   1      18.969   1.320   6.726  0.00  0.00     0.028 A 
ATOM      8  C10 ZIN A   1      19.002   1.303   8.121  0.00  0.00     0.002 A 
ATOM      9  C11 ZIN A   1      19.075   0.077   8.814  0.00  0.00     0.126 A 
ATOM     10  O12 ZIN A   1      19.108   0.074  10.167  0.00  0.00    -0.272 OA
ATOM     11  C13 ZIN A   1      19.071   1.215  10.872  0.00  0.00     0.288 A 
ATOM     12  O14 ZIN A   1      19.103   1.161  12.088  0.00  0.00    -0.260 OA
ATOM     13  C15 ZIN A   1      18.998   2.475  10.242  0.00  0.00     0.083 A 
ATOM     14  C16 ZIN A   1      18.957   2.552   8.888  0.00  0.00     0.020 A 
ENDROOT
BRANCH   1  15
ATOM     15  O2  ZIN A   1      19.201  -2.299   8.776  0.00  0.00    -0.351 OA
ATOM     16  C1  ZIN A   1      17.981  -3.020   8.959  0.00  0.00     0.210 C 
ENDBRANCH   1  15
TORSDOF 1
ENDMDL
MODEL 4
REMARK VINA RESULT:      -6.8      4.725      8.549
REMARK  1 active torsions:
REMARK  status: ('A' for Active; 'I' for Inactive)
REMARK    1  A    between atoms: O2_2  and  C3_3 
ROOT
ATOM      1  C3  ZIN A   1      18.481  -2.013   8.725  0.00  0.00     0.138 A 
ATOM      2  C4  ZIN A   1      17.970  -1.452   9.892  0.00  0.00     0.121 A 
ATOM      3  O5  ZIN A   1      17.682  -1.960  11.107  0.00  0.00    -0.319 OA
ATOM      4  C6  ZIN A   1      17.199  -1.007  11.925  0.00  0.00     0.143 A 
ATOM      5  C7  ZIN A   1      17.150   0.169  11.287  0.00  0.00     0.039 A 
ATOM      6  C8  ZIN A   1      17.654  -0.080   9.930  0.00  0.00     0.003 A 
ATOM      7  C9  ZIN A   1      17.847   0.719   8.810  0.00  0.00     0.028 A 
ATOM      8  C10 ZIN A   1      18.359   0.151   7.642  0.00  0.00     0.002 A 
ATOM      9  C11 ZIN A   1      18.682  -1.221   7.603  0.00  0.00     0.126 A 
ATOM     10  O12 ZIN A   1      19.177  -1.760   6.466  0.00  0.00    -0.272 OA
ATOM     11  C13 ZIN A   1      19.371  -1.018   5.365  0.00  0.00     0.288 A 
ATOM     12  O14 ZIN A   1      19.819  -1.548   4.364  0.00  0.00    -0.260 OA
ATOM     13  C15 ZIN A   1      19.068   0.360   5.335  0.00  0.00     0.083 A 
ATOM     14  C16 ZIN A   1      18.574   0.966   6.443  0.00  0.00     0.020 A 
ENDROOT
BRANCH   1  15
ATOM     15  O2  ZIN A   1      18.788  -3.338   8.687  0.00  0.00    -0.351 OA
ATOM     16  C1  ZIN A   1      17.706  -4.248   8.476  0.00  0.00     0.210 C 
ENDBRANCH   1  15
TORSDOF 1
ENDMDL
MODEL 5
REMARK VINA RESULT:      -6.6      3.790      7.028
REMARK  1 active torsions:
REMARK  status: ('A' for Active; 'I' for Inactive)
REMARK    1  A    between atoms: O2_2  and  C3_3 
ROOT
ATOM      1  C3  ZIN A   1      17.406   0.210  10.509  0.00  0.00     0.138 A 
ATOM      2  C4  ZIN A   1      17.571   1.579  10.696  0.00  0.00     0.121 A 
ATOM      3  O5  ZIN A   1      17.182   2.428  11.670  0.00  0.00    -0.319 OA
ATOM      4  C6  ZIN A   1      17.585   3.683  11.402  0.00  0.00     0.143 A 
ATOM      5  C7  ZIN A   1      18.256   3.717  10.244  0.00  0.00     0.039 A 
ATOM      6  C8  ZIN A   1      18.271   2.338   9.738  0.00  0.00     0.003 A 
ATOM      7  C9  ZIN A   1      18.799   1.730   8.606  0.00  0.00     0.028 A 
ATOM      8  C10 ZIN A   1      18.630   0.357   8.424  0.00  0.00     0.002 A 
ATOM      9  C11 ZIN A   1      17.935  -0.406   9.383  0.00  0.00     0.126 A 
ATOM     10  O12 ZIN A   1      17.778  -1.737   9.195  0.00  0.00    -0.272 OA
ATOM     11  C13 ZIN A   1      18.270  -2.354   8.110  0.00  0.00     0.288 A 
ATOM     12  O14 ZIN A   1      18.103  -3.554   7.984  0.00  0.00    -0.260 OA
ATOM     13  C15 ZIN A   1      18.976  -1.650   7.111  0.00  0.00     0.083 A 
ATOM     14  C16 ZIN A   1      19.175  -0.314   7.239  0.00  0.00     0.020 A 
ENDROOT
BRANCH   1  15
ATOM     15  O2  ZIN A   1      16.731  -0.525  11.433  0.00  0.00    -0.351 OA
ATOM     16  C1  ZIN A   1      17.480  -1.013  12.548  0.00  0.00     0.210 C 
ENDBRANCH   1  15
TORSDOF 1
ENDMDL
MODEL 6
REMARK VINA RESULT:      -6.4      3.227      5.234
REMARK  1 active torsions:
REMARK  status: ('A' for Active; 'I' for Inactive)
REMARK    1  A    between atoms: O2_2  and  C3_3 
ROOT
ATOM      1  C3  ZIN A   1      17.396   0.485  10.598  0.00  0.00     0.138 A 
ATOM      2  C4  ZIN A   1      17.666   0.285   9.248  0.00  0.00     0.121 A 
ATOM      3  O5  ZIN A   1      17.333  -0.690   8.378  0.00  0.00    -0.319 OA
ATOM      4  C6  ZIN A   1      17.837  -0.437   7.156  0.00  0.00     0.143 A 
ATOM      5  C7  ZIN A   1      18.521   0.714   7.167  0.00  0.00     0.039 A 
ATOM      6  C8  ZIN A   1      18.434   1.229   8.540  0.00  0.00     0.003 A 
ATOM      7  C9  ZIN A   1      18.927   2.360   9.179  0.00  0.00     0.028 A 
ATOM      8  C10 ZIN A   1      18.653   2.555  10.534  0.00  0.00     0.002 A 
ATOM      9  C11 ZIN A   1      17.879   1.614  11.244  0.00  0.00     0.126 A 
ATOM     10  O12 ZIN A   1      17.621   1.814  12.557  0.00  0.00    -0.272 OA
ATOM     11  C13 ZIN A   1      18.085   2.893  13.206  0.00  0.00     0.288 A 
ATOM     12  O14 ZIN A   1      17.827   3.029  14.388  0.00  0.00    -0.260 OA
ATOM     13  C15 ZIN A   1      18.866   3.872  12.556  0.00  0.00     0.083 A 
ATOM     14  C16 ZIN A   1      19.158   3.737  11.238  0.00  0.00     0.020 A 
ENDROOT
BRANCH   1  15
ATOM     15  O2  ZIN A   1      16.653  -0.426  11.284  0.00  0.00    -0.351 OA
ATOM     16  C1  ZIN A   1      17.342  -1.566  11.801  0.00  0.00     0.210 C 
ENDBRANCH   1  15
TORSDOF 1
ENDMDL
MODEL 7
REMARK VINA RESULT:      -6.4      2.925      6.148
REMARK  1 active torsions:
REMARK  status: ('A' for Active; 'I' for Inactive)
REMARK    1  A    between atoms: O2_2  and  C3_3 
ROOT
ATOM      1  C3  ZIN A   1      18.400   2.430  12.479  0.00  0.00     0.138 A 
ATOM      2  C4  ZIN A   1      17.735   3.629  12.712  0.00  0.00     0.121 A 
ATOM      3  O5  ZIN A   1      17.295   4.235  13.834  0.00  0.00    -0.319 OA
ATOM      4  C6  ZIN A   1      16.699   5.406  13.547  0.00  0.00     0.143 A 
ATOM      5  C7  ZIN A   1      16.720   5.624  12.226  0.00  0.00     0.039 A 
ATOM      6  C8  ZIN A   1      17.400   4.467  11.630  0.00  0.00     0.003 A 
ATOM      7  C9  ZIN A   1      17.728   4.104  10.330  0.00  0.00     0.028 A 
ATOM      8  C10 ZIN A   1      18.395   2.899  10.102  0.00  0.00     0.002 A 
ATOM      9  C11 ZIN A   1      18.736   2.062  11.184  0.00  0.00     0.126 A 
ATOM     10  O12 ZIN A   1      19.382   0.896  10.950  0.00  0.00    -0.272 OA
ATOM     11  C13 ZIN A   1      19.710   0.514   9.706  0.00  0.00     0.288 A 
ATOM     12  O14 ZIN A   1      20.291  -0.545   9.546  0.00  0.00    -0.260 OA
ATOM     13  C15 ZIN A   1      19.397   1.303   8.579  0.00  0.00     0.083 A 
ATOM     14  C16 ZIN A   1      18.755   2.487   8.742  0.00  0.00     0.020 A 
ENDROOT
BRANCH   1  15
ATOM     15  O2  ZIN A   1      18.725   1.620  13.522  0.00  0.00    -0.351 OA
ATOM     16  C1  ZIN A   1      17.692   0.774  14.033  0.00  0.00     0.210 C 
ENDBRANCH   1  15
TORSDOF 1
ENDMDL
MODEL 8
REMARK VINA RESULT:      -6.3      3.236      5.257
REMARK  1 active torsions:
REMARK  status: ('A' for Active; 'I' for Inactive)
REMARK    1  A    between atoms: O2_2  and  C3_3 
ROOT
ATOM      1  C3  ZIN A   1      18.583   1.359  11.646  0.00  0.00     0.138 A 
ATOM      2  C4  ZIN A   1      18.940   0.892  10.385  0.00  0.00     0.121 A 
ATOM      3  O5  ZIN A   1      19.414  -0.290   9.942  0.00  0.00    -0.319 OA
ATOM      4  C6  ZIN A   1      19.612  -0.261   8.612  0.00  0.00     0.143 A 
ATOM      5  C7  ZIN A   1      19.276   0.939   8.120  0.00  0.00     0.039 A 
ATOM      6  C8  ZIN A   1      18.823   1.739   9.266  0.00  0.00     0.003 A 
ATOM      7  C9  ZIN A   1      18.354   3.039   9.411  0.00  0.00     0.028 A 
ATOM      8  C10 ZIN A   1      17.998   3.501  10.678  0.00  0.00     0.002 A 
ATOM      9  C11 ZIN A   1      18.108   2.654  11.800  0.00  0.00     0.126 A 
ATOM     10  O12 ZIN A   1      17.760   3.115  13.023  0.00  0.00    -0.272 OA
ATOM     11  C13 ZIN A   1      17.309   4.366  13.199  0.00  0.00     0.288 A 
ATOM     12  O14 ZIN A   1      17.008   4.735  14.320  0.00  0.00    -0.260 OA
ATOM     13  C15 ZIN A   1      17.175   5.266  12.120  0.00  0.00     0.083 A 
ATOM     14  C16 ZIN A   1      17.501   4.867  10.865  0.00  0.00     0.020 A 
ENDROOT
BRANCH   1  15
ATOM     15  O2  ZIN A   1      18.694   0.543  12.729  0.00  0.00    -0.351 OA
ATOM     16  C1  ZIN A   1      19.993   0.409  13.309  0.00  0.00     0.210 C 
ENDBRANCH   1  15
TORSDOF 1
ENDMDL
MODEL 9
REMARK VINA RESULT:      -6.2      0.800      4.604
REMARK  1 active torsions:
REMARK  status: ('A' for Active; 'I' for Inactive)
REMARK    1  A    between atoms: O2_2  and  C3_3 
ROOT
ATOM      1  C3  ZIN A   1      18.077   1.388  14.883  0.00  0.00     0.138 A 
ATOM      2  C4  ZIN A   1      18.542   1.019  16.141  0.00  0.00     0.121 A 
ATOM      3  O5  ZIN A   1      18.781   1.711  17.273  0.00  0.00    -0.319 OA
ATOM      4  C6  ZIN A   1      19.232   0.901  18.247  0.00  0.00     0.143 A 
ATOM      5  C7  ZIN A   1      19.310  -0.360  17.801  0.00  0.00     0.039 A 
ATOM      6  C8  ZIN A   1      18.860  -0.328  16.403  0.00  0.00     0.003 A 
ATOM      7  C9  ZIN A   1      18.713  -1.292  15.414  0.00  0.00     0.028 A 
ATOM      8  C10 ZIN A   1      18.247  -0.916  14.154  0.00  0.00     0.002 A 
ATOM      9  C11 ZIN A   1      17.922   0.430  13.890  0.00  0.00     0.126 A 
ATOM     10  O12 ZIN A   1      17.471   0.783  12.664  0.00  0.00    -0.272 OA
ATOM     11  C13 ZIN A   1      17.323  -0.122  11.685  0.00  0.00     0.288 A 
ATOM     12  O14 ZIN A   1      16.914   0.243  10.597  0.00  0.00    -0.260 OA
ATOM     13  C15 ZIN A   1      17.630  -1.486  11.881  0.00  0.00     0.083 A 
ATOM     14  C16 ZIN A   1      18.081  -1.909  13.088  0.00  0.00     0.020 A 
ENDROOT
BRANCH   1  15
ATOM     15  O2  ZIN A   1      17.768   2.688  14.627  0.00  0.00    -0.351 OA
ATOM     16  C1  ZIN A   1      18.848   3.551  14.264  0.00  0.00     0.210 C 
ENDBRANCH   1  15
TORSDOF 1
ENDMDL
