MODEL 1
REMARK VINA RESULT:      -5.0      0.000      0.000
REMARK  1 active torsions:
REMARK  status: ('A' for Active; 'I' for Inactive)
REMARK    1  A    between atoms: C4_4  and  O5_5 
ROOT
ATOM      1  C1  ZIN A   1      18.145  -1.712  16.348  0.00  0.00     0.050 C 
ATOM      2  C2  ZIN A   1      18.480  -0.248  16.476  0.00  0.00    -0.037 A 
ATOM      3  C3  ZIN A   1      18.923   0.256  17.683  0.00  0.00     0.045 A 
ATOM      4  C4  ZIN A   1      19.232   1.604  17.801  0.00  0.00     0.066 A 
ATOM      5  C6  ZIN A   1      19.095   2.443  16.705  0.00  0.00     0.045 A 
ATOM      6  C7  ZIN A   1      18.651   1.934  15.498  0.00  0.00    -0.037 A 
ATOM      7  C8  ZIN A   1      18.504   2.845  14.307  0.00  0.00     0.050 C 
ATOM      8  C9  ZIN A   1      18.350   0.590  15.382  0.00  0.00     0.046 A 
ATOM      9 Cl10 ZIN A   1      17.793  -0.047  13.865  0.00  0.00    -0.083 Cl
ENDROOT
BRANCH   4  10
ATOM     10  O5  ZIN A   1      19.667   2.101  18.988  0.00  0.00    -0.361 OA
ATOM     11  H15 ZIN A   1      19.893   1.423  19.639  0.00  0.00     0.217 HD
ENDBRANCH   4  10
TORSDOF 1
ENDMDL
MODEL 2
REMARK VINA RESULT:      -5.0      0.041      2.705
REMARK  1 active torsions:
REMARK  status: ('A' for Active; 'I' for Inactive)
REMARK    1  A    between atoms: C4_4  and  O5_5 
ROOT
ATOM      1  C1  ZIN A   1      18.497   2.853  14.312  0.00  0.00     0.050 C 
ATOM      2  C2  ZIN A   1      18.636   1.944  15.506  0.00  0.00    -0.037 A 
ATOM      3  C3  ZIN A   1      19.089   2.449  16.709  0.00  0.00     0.045 A 
ATOM      4  C4  ZIN A   1      19.217   1.613  17.809  0.00  0.00     0.066 A 
ATOM      5  C6  ZIN A   1      18.890   0.269  17.697  0.00  0.00     0.045 A 
ATOM      6  C7  ZIN A   1      18.437  -0.233  16.492  0.00  0.00    -0.037 A 
ATOM      7  C8  ZIN A   1      18.080  -1.692  16.371  0.00  0.00     0.050 C 
ATOM      8  C9  ZIN A   1      18.304   0.605  15.399  0.00  0.00     0.046 A 
ATOM      9 Cl10 ZIN A   1      17.735  -0.028  13.885  0.00  0.00    -0.083 Cl
ENDROOT
BRANCH   4  10
ATOM     10  O5  ZIN A   1      19.663   2.109  18.993  0.00  0.00    -0.361 OA
ATOM     11  H15 ZIN A   1      20.624   2.094  19.088  0.00  0.00     0.217 HD
ENDBRANCH   4  10
TORSDOF 1
ENDMDL
MODEL 3
REMARK VINA RESULT:      -4.9      5.434      6.677
REMARK  1 active torsions:
REMARK  status: ('A' for Active; 'I' for Inactive)
REMARK    1  A    between atoms: C4_4  and  O5_5 
ROOT
ATOM      1  C1  ZIN A   1      19.203   2.713  12.510  0.00  0.00     0.050 C 
ATOM      2  C2  ZIN A   1      19.497   1.712  11.422  0.00  0.00    -0.037 A 
ATOM      3  C3  ZIN A   1      20.114   0.516  11.733  0.00  0.00     0.045 A 
ATOM      4  C4  ZIN A   1      20.384  -0.406  10.732  0.00  0.00     0.066 A 
ATOM      5  C6  ZIN A   1      20.034  -0.124   9.419  0.00  0.00     0.045 A 
ATOM      6  C7  ZIN A   1      19.416   1.074   9.112  0.00  0.00    -0.037 A 
ATOM      7  C8  ZIN A   1      19.035   1.380   7.687  0.00  0.00     0.050 C 
ATOM      8  C9  ZIN A   1      19.143   1.989  10.113  0.00  0.00     0.046 A 
ATOM      9 Cl10 ZIN A   1      18.367   3.493   9.725  0.00  0.00    -0.083 Cl
ENDROOT
BRANCH   4  10
ATOM     10  O5  ZIN A   1      20.992  -1.583  11.036  0.00  0.00    -0.361 OA
ATOM     11  H15 ZIN A   1      21.179  -2.139  10.268  0.00  0.00     0.217 HD
ENDBRANCH   4  10
TORSDOF 1
ENDMDL
MODEL 4
REMARK VINA RESULT:      -4.9      5.434      6.759
REMARK  1 active torsions:
REMARK  status: ('A' for Active; 'I' for Inactive)
REMARK    1  A    between atoms: C4_4  and  O5_5 
ROOT
ATOM      1  C1  ZIN A   1      19.011   1.372   7.686  0.00  0.00     0.050 C 
ATOM      2  C2  ZIN A   1      19.403   1.075   9.110  0.00  0.00    -0.037 A 
ATOM      3  C3  ZIN A   1      20.024  -0.119   9.421  0.00  0.00     0.045 A 
ATOM      4  C4  ZIN A   1      20.386  -0.393  10.731  0.00  0.00     0.066 A 
ATOM      5  C6  ZIN A   1      20.123   0.535  11.729  0.00  0.00     0.045 A 
ATOM      6  C7  ZIN A   1      19.501   1.729  11.415  0.00  0.00    -0.037 A 
ATOM      7  C8  ZIN A   1      19.217   2.737  12.498  0.00  0.00     0.050 C 
ATOM      8  C9  ZIN A   1      19.147   2.002  10.106  0.00  0.00     0.046 A 
ATOM      9 Cl10 ZIN A   1      18.367   3.502   9.713  0.00  0.00    -0.083 Cl
ENDROOT
BRANCH   4  10
ATOM     10  O5  ZIN A   1      20.996  -1.567  11.038  0.00  0.00    -0.361 OA
ATOM     11  H15 ZIN A   1      21.485  -1.960  10.302  0.00  0.00     0.217 HD
ENDBRANCH   4  10
TORSDOF 1
ENDMDL
MODEL 5
REMARK VINA RESULT:      -4.7      8.458      9.877
REMARK  1 active torsions:
REMARK  status: ('A' for Active; 'I' for Inactive)
REMARK    1  A    between atoms: C4_4  and  O5_5 
ROOT
ATOM      1  C1  ZIN A   1      18.899   2.169   8.778  0.00  0.00     0.050 C 
ATOM      2  C2  ZIN A   1      19.000   0.971   7.869  0.00  0.00    -0.037 A 
ATOM      3  C3  ZIN A   1      19.157   1.148   6.508  0.00  0.00     0.045 A 
ATOM      4  C4  ZIN A   1      19.251   0.046   5.671  0.00  0.00     0.066 A 
ATOM      5  C6  ZIN A   1      19.188  -1.234   6.204  0.00  0.00     0.045 A 
ATOM      6  C7  ZIN A   1      19.032  -1.407   7.567  0.00  0.00    -0.037 A 
ATOM      7  C8  ZIN A   1      18.964  -2.797   8.145  0.00  0.00     0.050 C 
ATOM      8  C9  ZIN A   1      18.944  -0.306   8.399  0.00  0.00     0.046 A 
ATOM      9 Cl10 ZIN A   1      18.747  -0.526  10.110  0.00  0.00    -0.083 Cl
ENDROOT
BRANCH   4  10
ATOM     10  O5  ZIN A   1      19.405   0.219   4.332  0.00  0.00    -0.361 OA
ATOM     11  H15 ZIN A   1      18.583   0.142   3.829  0.00  0.00     0.217 HD
ENDBRANCH   4  10
TORSDOF 1
ENDMDL
MODEL 6
REMARK VINA RESULT:      -4.7      5.367      6.422
REMARK  1 active torsions:
REMARK  status: ('A' for Active; 'I' for Inactive)
REMARK    1  A    between atoms: C4_4  and  O5_5 
ROOT
ATOM      1  C1  ZIN A   1      16.761  -0.046  11.829  0.00  0.00     0.050 C 
ATOM      2  C2  ZIN A   1      17.465   1.024  11.035  0.00  0.00    -0.037 A 
ATOM      3  C3  ZIN A   1      17.641   2.282  11.578  0.00  0.00     0.045 A 
ATOM      4  C4  ZIN A   1      18.290   3.268  10.848  0.00  0.00     0.066 A 
ATOM      5  C6  ZIN A   1      18.760   2.987   9.573  0.00  0.00     0.045 A 
ATOM      6  C7  ZIN A   1      18.582   1.727   9.034  0.00  0.00    -0.037 A 
ATOM      7  C8  ZIN A   1      19.093   1.423   7.650  0.00  0.00     0.050 C 
ATOM      8  C9  ZIN A   1      17.940   0.745   9.766  0.00  0.00     0.046 A 
ATOM      9 Cl10 ZIN A   1      17.717  -0.837   9.086  0.00  0.00    -0.083 Cl
ENDROOT
BRANCH   4  10
ATOM     10  O5  ZIN A   1      18.464   4.506  11.381  0.00  0.00    -0.361 OA
ATOM     11  H15 ZIN A   1      19.389   4.742  11.530  0.00  0.00     0.217 HD
ENDBRANCH   4  10
TORSDOF 1
ENDMDL
MODEL 7
REMARK VINA RESULT:      -4.7      9.147     10.008
REMARK  1 active torsions:
REMARK  status: ('A' for Active; 'I' for Inactive)
REMARK    1  A    between atoms: C4_4  and  O5_5 
ROOT
ATOM      1  C1  ZIN A   1      18.092  -3.162   8.515  0.00  0.00     0.050 C 
ATOM      2  C2  ZIN A   1      18.505  -2.069   7.563  0.00  0.00    -0.037 A 
ATOM      3  C3  ZIN A   1      18.857  -2.381   6.264  0.00  0.00     0.045 A 
ATOM      4  C4  ZIN A   1      19.237  -1.375   5.388  0.00  0.00     0.066 A 
ATOM      5  C6  ZIN A   1      19.262  -0.056   5.818  0.00  0.00     0.045 A 
ATOM      6  C7  ZIN A   1      18.908   0.252   7.118  0.00  0.00    -0.037 A 
ATOM      7  C8  ZIN A   1      18.935   1.684   7.585  0.00  0.00     0.050 C 
ATOM      8  C9  ZIN A   1      18.525  -0.752   7.988  0.00  0.00     0.046 A 
ATOM      9 Cl10 ZIN A   1      18.082  -0.362   9.621  0.00  0.00    -0.083 Cl
ENDROOT
BRANCH   4  10
ATOM     10  O5  ZIN A   1      19.583  -1.681   4.110  0.00  0.00    -0.361 OA
ATOM     11  H15 ZIN A   1      20.526  -1.579   3.923  0.00  0.00     0.217 HD
ENDBRANCH   4  10
TORSDOF 1
ENDMDL
MODEL 8
REMARK VINA RESULT:      -4.6      5.163      6.559
REMARK  1 active torsions:
REMARK  status: ('A' for Active; 'I' for Inactive)
REMARK    1  A    between atoms: C4_4  and  O5_5 
ROOT
ATOM      1  C1  ZIN A   1      19.085   1.713   7.860  0.00  0.00     0.050 C 
ATOM      2  C2  ZIN A   1      18.596   1.906   9.273  0.00  0.00    -0.037 A 
ATOM      3  C3  ZIN A   1      18.820   3.103   9.924  0.00  0.00     0.045 A 
ATOM      4  C4  ZIN A   1      18.370   3.281  11.224  0.00  0.00     0.066 A 
ATOM      5  C6  ZIN A   1      17.694   2.254  11.868  0.00  0.00     0.045 A 
ATOM      6  C7  ZIN A   1      17.472   1.057  11.213  0.00  0.00    -0.037 A 
ATOM      7  C8  ZIN A   1      16.738  -0.057  11.913  0.00  0.00     0.050 C 
ATOM      8  C9  ZIN A   1      17.917   0.885   9.915  0.00  0.00     0.046 A 
ATOM      9 Cl10 ZIN A   1      17.636  -0.620   9.095  0.00  0.00    -0.083 Cl
ENDROOT
BRANCH   4  10
ATOM     10  O5  ZIN A   1      18.589   4.459  11.865  0.00  0.00    -0.361 OA
ATOM     11  H15 ZIN A   1      18.244   4.485  12.768  0.00  0.00     0.217 HD
ENDBRANCH   4  10
TORSDOF 1
ENDMDL
MODEL 9
REMARK VINA RESULT:      -4.6      6.191      7.269
REMARK  1 active torsions:
REMARK  status: ('A' for Active; 'I' for Inactive)
REMARK    1  A    between atoms: C4_4  and  O5_5 
ROOT
ATOM      1  C1  ZIN A   1      19.698  -1.480  10.681  0.00  0.00     0.050 C 
ATOM      2  C2  ZIN A   1      19.464  -0.157   9.999  0.00  0.00    -0.037 A 
ATOM      3  C3  ZIN A   1      19.414   1.005  10.746  0.00  0.00     0.045 A 
ATOM      4  C4  ZIN A   1      19.199   2.223  10.119  0.00  0.00     0.066 A 
ATOM      5  C6  ZIN A   1      19.035   2.273   8.742  0.00  0.00     0.045 A 
ATOM      6  C7  ZIN A   1      19.087   1.109   7.998  0.00  0.00    -0.037 A 
ATOM      7  C8  ZIN A   1      18.909   1.163   6.503  0.00  0.00     0.050 C 
ATOM      8  C9  ZIN A   1      19.307  -0.104   8.625  0.00  0.00     0.046 A 
ATOM      9 Cl10 ZIN A   1      19.371  -1.565   7.690  0.00  0.00    -0.083 Cl
ENDROOT
BRANCH   4  10
ATOM     10  O5  ZIN A   1      19.149   3.366  10.852  0.00  0.00    -0.361 OA
ATOM     11  H15 ZIN A   1      19.333   3.239  11.792  0.00  0.00     0.217 HD
ENDBRANCH   4  10
TORSDOF 1
ENDMDL
