MODEL 1
REMARK VINA RESULT:      -9.9      0.000      0.000
REMARK  7 active torsions:
REMARK  status: ('A' for Active; 'I' for Inactive)
REMARK    1  A    between atoms: C2_2  and  C4_4 
REMARK    2  A    between atoms: C4_4  and  O5_5 
REMARK    3  A    between atoms: C8_8  and  O9_9 
REMARK    4  A    between atoms: C25_25  and  O27_26 
REMARK    5  A    between atoms: O27_26  and  C28_27 
REMARK    6  A    between atoms: C31_29  and  N33_30 
REMARK    7  A    between atoms: C37_34  and  O39_35 
ROOT
ATOM      1  C4  RES d   1      19.176  -5.318   9.454  0.00  0.00     0.124 C 
ATOM      2  C6  RES d   1      19.917  -4.594  10.575  0.00  0.00     0.088 C 
ATOM      3  C7  RES d   1      19.236  -3.292  10.910  0.00  0.00    -0.009 A 
ATOM      4  C8  RES d   1      19.550  -2.699  12.141  0.00  0.00     0.088 A 
ATOM      5  C10 RES d   1      18.963  -1.493  12.514  0.00  0.00     0.066 A 
ATOM      6  C11 RES d   1      18.049  -0.868  11.639  0.00  0.00     0.069 A 
ATOM      7  C12 RES d   1      17.430   0.413  12.025  0.00  0.00     0.197 C 
ATOM      8  O13 RES d   1      16.467   0.840  11.416  0.00  0.00    -0.286 OA
ATOM      9  C14 RES d   1      17.993   1.174  13.162  0.00  0.00     0.029 A 
ATOM     10  C15 RES d   1      17.632   2.500  13.376  0.00  0.00     0.016 A 
ATOM     11  C16 RES d   1      18.169   3.195  14.446  0.00  0.00     0.001 A 
ATOM     12  C17 RES d   1      19.064   2.581  15.303  0.00  0.00     0.001 A 
ATOM     13  C18 RES d   1      19.433   1.262  15.105  0.00  0.00     0.016 A 
ATOM     14  C19 RES d   1      18.903   0.549  14.036  0.00  0.00     0.029 A 
ATOM     15  C20 RES d   1      19.288  -0.861  13.806  0.00  0.00     0.197 C 
ATOM     16  O21 RES d   1      19.865  -1.491  14.671  0.00  0.00    -0.286 OA
ATOM     17  C22 RES d   1      17.746  -1.470  10.422  0.00  0.00     0.132 A 
ATOM     18  O23 RES d   1      16.866  -0.876   9.577  0.00  0.00    -0.190 OA
ATOM     19  C24 RES d   1      18.343  -2.687  10.063  0.00  0.00     0.018 A 
ATOM     20  C25 RES d   1      17.953  -3.283   8.734  0.00  0.00     0.164 C 
ATOM     21  C44 RES d   1      18.971  -4.334   8.296  0.00  0.00     0.083 C 
ENDROOT
BRANCH  20  22
ATOM     22  O27 RES d   1      17.895  -2.246   7.752  0.00  0.00    -0.351 OA
BRANCH  22  23
ATOM     23  C28 RES d   1      19.150  -1.965   7.129  0.00  0.00     0.263 C 
ATOM     24  O43 RES d   1      19.575  -0.648   7.486  0.00  0.00    -0.354 OA
ATOM     25  C40 RES d   1      18.657   0.382   7.115  0.00  0.00     0.151 C 
ATOM     26  C37 RES d   1      18.484   0.386   5.593  0.00  0.00     0.177 C 
ATOM     27  C42 RES d   1      19.200   1.738   7.570  0.00  0.00     0.042 C 
ATOM     28  C31 RES d   1      17.997  -0.993   5.140  0.00  0.00     0.219 C 
ATOM     29  C30 RES d   1      18.996  -2.056   5.608  0.00  0.00     0.096 C 
BRANCH  26  30
ATOM     30  O39 RES d   1      19.736   0.680   4.970  0.00  0.00    -0.391 OA
ATOM     31  H58 RES d   1      19.873   1.619   4.787  0.00  0.00     0.210 HD
ENDBRANCH  26  30
BRANCH  28  32
ATOM     32  N33 RES d   1      17.898  -1.024   3.675  0.00  0.00    -0.072 N 
ATOM     33  H34 RES d   1      18.651  -0.485   3.275  0.00  0.00     0.274 HD
ATOM     34  H35 RES d   1      17.961  -1.978   3.354  0.00  0.00     0.274 HD
ATOM     35  H36 RES d   1      17.013  -0.630   3.389  0.00  0.00     0.274 HD
ENDBRANCH  28  32
ENDBRANCH  22  23
ENDBRANCH  20  22
BRANCH   1  36
ATOM     36  C2  RES d   1      17.838  -5.797   9.956  0.00  0.00     0.157 C 
ATOM     37  C1  RES d   1      17.573  -5.878  11.437  0.00  0.00     0.094 C 
ATOM     38  O3  RES d   1      16.978  -6.116   9.170  0.00  0.00    -0.295 OA
ENDBRANCH   1  36
BRANCH   1  39
ATOM     39  O5  RES d   1      19.949  -6.434   9.007  0.00  0.00    -0.382 OA
ATOM     40  H48 RES d   1      20.480  -6.253   8.220  0.00  0.00     0.211 HD
ENDBRANCH   1  39
BRANCH   4  41
ATOM     41  O9  RES d   1      20.431  -3.306  12.976  0.00  0.00    -0.359 OA
ATOM     42  H51 RES d   1      21.153  -3.760  12.522  0.00  0.00     0.217 HD
ENDBRANCH   4  41
TORSDOF 7
ENDMDL
MODEL 2
REMARK VINA RESULT:      -9.3      3.610      8.822
REMARK  7 active torsions:
REMARK  status: ('A' for Active; 'I' for Inactive)
REMARK    1  A    between atoms: C2_2  and  C4_4 
REMARK    2  A    between atoms: C4_4  and  O5_5 
REMARK    3  A    between atoms: C8_8  and  O9_9 
REMARK    4  A    between atoms: C25_25  and  O27_26 
REMARK    5  A    between atoms: O27_26  and  C28_27 
REMARK    6  A    between atoms: C31_29  and  N33_30 
REMARK    7  A    between atoms: C37_34  and  O39_35 
ROOT
ATOM      1  C4  RES d   1      18.680   4.749  12.704  0.00  0.00     0.124 C 
ATOM      2  C6  RES d   1      19.437   3.967  11.633  0.00  0.00     0.088 C 
ATOM      3  C7  RES d   1      18.910   2.560  11.529  0.00  0.00    -0.009 A 
ATOM      4  C8  RES d   1      19.219   1.840  10.366  0.00  0.00     0.088 A 
ATOM      5  C10 RES d   1      18.772   0.532  10.205  0.00  0.00     0.066 A 
ATOM      6  C11 RES d   1      18.002  -0.068  11.224  0.00  0.00     0.069 A 
ATOM      7  C12 RES d   1      17.531  -1.455  11.062  0.00  0.00     0.197 C 
ATOM      8  O13 RES d   1      16.672  -1.903  11.798  0.00  0.00    -0.286 OA
ATOM      9  C14 RES d   1      18.115  -2.297   9.995  0.00  0.00     0.029 A 
ATOM     10  C15 RES d   1      17.916  -3.673   9.988  0.00  0.00     0.016 A 
ATOM     11  C16 RES d   1      18.470  -4.443   8.981  0.00  0.00     0.001 A 
ATOM     12  C17 RES d   1      19.222  -3.855   7.981  0.00  0.00     0.001 A 
ATOM     13  C18 RES d   1      19.430  -2.486   7.972  0.00  0.00     0.016 A 
ATOM     14  C19 RES d   1      18.880  -1.697   8.977  0.00  0.00     0.029 A 
ATOM     15  C20 RES d   1      19.093  -0.233   8.986  0.00  0.00     0.197 C 
ATOM     16  O21 RES d   1      19.529   0.332   8.002  0.00  0.00    -0.286 OA
ATOM     17  C22 RES d   1      17.700   0.660  12.372  0.00  0.00     0.132 A 
ATOM     18  O23 RES d   1      16.960   0.091  13.355  0.00  0.00    -0.190 OA
ATOM     19  C24 RES d   1      18.157   1.978  12.518  0.00  0.00     0.018 A 
ATOM     20  C25 RES d   1      17.778   2.705  13.782  0.00  0.00     0.164 C 
ATOM     21  C44 RES d   1      18.676   3.921  13.994  0.00  0.00     0.083 C 
ENDROOT
BRANCH  20  22
ATOM     22  O27 RES d   1      17.916   1.818  14.895  0.00  0.00    -0.351 OA
BRANCH  22  23
ATOM     23  C28 RES d   1      19.247   1.732  15.407  0.00  0.00     0.263 C 
ATOM     24  O43 RES d   1      19.579   0.361  15.642  0.00  0.00    -0.354 OA
ATOM     25  C40 RES d   1      18.708  -0.301  16.560  0.00  0.00     0.151 C 
ATOM     26  C37 RES d   1      18.778   0.396  17.922  0.00  0.00     0.177 C 
ATOM     27  C42 RES d   1      19.140  -1.761  16.711  0.00  0.00     0.042 C 
ATOM     28  C31 RES d   1      18.401   1.870  17.752  0.00  0.00     0.219 C 
ATOM     29  C30 RES d   1      19.338   2.510  16.722  0.00  0.00     0.096 C 
BRANCH  26  30
ATOM     30  O39 RES d   1      20.106   0.299  18.441  0.00  0.00    -0.391 OA
ATOM     31  H58 RES d   1      20.569  -0.511  18.187  0.00  0.00     0.210 HD
ENDBRANCH  26  30
BRANCH  28  32
ATOM     32  N33 RES d   1      18.537   2.566  19.038  0.00  0.00    -0.072 N 
ATOM     33  H34 RES d   1      17.659   2.999  19.282  0.00  0.00     0.274 HD
ATOM     34  H35 RES d   1      18.794   1.903  19.754  0.00  0.00     0.274 HD
ATOM     35  H36 RES d   1      19.252   3.274  18.964  0.00  0.00     0.274 HD
ENDBRANCH  28  32
ENDBRANCH  22  23
ENDBRANCH  20  22
BRANCH   1  36
ATOM     36  C2  RES d   1      17.263   4.989  12.251  0.00  0.00     0.157 C 
ATOM     37  C1  RES d   1      16.925   4.965  10.783  0.00  0.00     0.094 C 
ATOM     38  O3  RES d   1      16.396   5.200  13.066  0.00  0.00    -0.295 OA
ENDBRANCH   1  36
BRANCH   1  39
ATOM     39  O5  RES d   1      19.329   6.001  12.936  0.00  0.00    -0.382 OA
ATOM     40  H48 RES d   1      20.271   6.000  12.724  0.00  0.00     0.211 HD
ENDBRANCH   1  39
BRANCH   4  41
ATOM     41  O9  RES d   1      19.961   2.423   9.391  0.00  0.00    -0.359 OA
ATOM     42  H51 RES d   1      19.663   3.310   9.148  0.00  0.00     0.217 HD
ENDBRANCH   4  41
TORSDOF 7
ENDMDL
MODEL 3
REMARK VINA RESULT:      -9.0      1.536      2.311
REMARK  7 active torsions:
REMARK  status: ('A' for Active; 'I' for Inactive)
REMARK    1  A    between atoms: C2_2  and  C4_4 
REMARK    2  A    between atoms: C4_4  and  O5_5 
REMARK    3  A    between atoms: C8_8  and  O9_9 
REMARK    4  A    between atoms: C25_25  and  O27_26 
REMARK    5  A    between atoms: O27_26  and  C28_27 
REMARK    6  A    between atoms: C31_29  and  N33_30 
REMARK    7  A    between atoms: C37_34  and  O39_35 
ROOT
ATOM      1  C4  RES d   1      19.082  -3.898  10.609  0.00  0.00     0.124 C 
ATOM      2  C6  RES d   1      19.679  -3.141  11.792  0.00  0.00     0.088 C 
ATOM      3  C7  RES d   1      19.152  -1.730  11.843  0.00  0.00    -0.009 A 
ATOM      4  C8  RES d   1      19.293  -1.033  13.051  0.00  0.00     0.088 A 
ATOM      5  C10 RES d   1      18.835   0.277  13.168  0.00  0.00     0.066 A 
ATOM      6  C11 RES d   1      18.227   0.900  12.058  0.00  0.00     0.069 A 
ATOM      7  C12 RES d   1      17.746   2.289  12.174  0.00  0.00     0.197 C 
ATOM      8  O13 RES d   1      17.007   2.757  11.329  0.00  0.00    -0.286 OA
ATOM      9  C14 RES d   1      18.173   3.107  13.330  0.00  0.00     0.029 A 
ATOM     10  C15 RES d   1      17.985   4.485  13.332  0.00  0.00     0.016 A 
ATOM     11  C16 RES d   1      18.391   5.233  14.423  0.00  0.00     0.001 A 
ATOM     12  C17 RES d   1      18.985   4.621  15.512  0.00  0.00     0.001 A 
ATOM     13  C18 RES d   1      19.180   3.251  15.526  0.00  0.00     0.016 A 
ATOM     14  C19 RES d   1      18.777   2.484  14.438  0.00  0.00     0.029 A 
ATOM     15  C20 RES d   1      18.980   1.018  14.434  0.00  0.00     0.197 C 
ATOM     16  O21 RES d   1      19.263   0.433  15.461  0.00  0.00    -0.286 OA
ATOM     17  C22 RES d   1      18.092   0.194  10.866  0.00  0.00     0.132 A 
ATOM     18  O23 RES d   1      17.507   0.786   9.795  0.00  0.00    -0.190 OA
ATOM     19  C24 RES d   1      18.556  -1.126  10.765  0.00  0.00     0.018 A 
ATOM     20  C25 RES d   1      18.361  -1.828   9.446  0.00  0.00     0.164 C 
ATOM     21  C44 RES d   1      19.273  -3.048   9.346  0.00  0.00     0.083 C 
ENDROOT
BRANCH  20  22
ATOM     22  O27 RES d   1      18.666  -0.924   8.381  0.00  0.00    -0.351 OA
BRANCH  22  23
ATOM     23  C28 RES d   1      17.686  -0.898   7.342  0.00  0.00     0.263 C 
ATOM     24  O43 RES d   1      17.738  -2.124   6.609  0.00  0.00    -0.354 OA
ATOM     25  C40 RES d   1      19.008  -2.395   6.013  0.00  0.00     0.151 C 
ATOM     26  C37 RES d   1      19.349  -1.284   5.015  0.00  0.00     0.177 C 
ATOM     27  C42 RES d   1      18.954  -3.738   5.282  0.00  0.00     0.042 C 
ATOM     28  C31 RES d   1      19.343   0.064   5.742  0.00  0.00     0.219 C 
ATOM     29  C30 RES d   1      17.975   0.272   6.398  0.00  0.00     0.096 C 
BRANCH  26  30
ATOM     30  O39 RES d   1      18.377  -1.266   3.968  0.00  0.00    -0.391 OA
ATOM     31  H58 RES d   1      17.464  -1.196   4.279  0.00  0.00     0.210 HD
ENDBRANCH  26  30
BRANCH  28  32
ATOM     32  N33 RES d   1      19.596   1.144   4.780  0.00  0.00    -0.072 N 
ATOM     33  H34 RES d   1      18.797   1.759   4.746  0.00  0.00     0.274 HD
ATOM     34  H35 RES d   1      20.410   1.667   5.067  0.00  0.00     0.274 HD
ATOM     35  H36 RES d   1      19.755   0.750   3.864  0.00  0.00     0.274 HD
ENDBRANCH  28  32
ENDBRANCH  22  23
ENDBRANCH  20  22
BRANCH   1  36
ATOM     36  C2  RES d   1      17.612  -4.132  10.844  0.00  0.00     0.157 C 
ATOM     37  C1  RES d   1      16.762  -4.741   9.760  0.00  0.00     0.094 C 
ATOM     38  O3  RES d   1      17.115  -3.831  11.904  0.00  0.00    -0.295 OA
ENDBRANCH   1  36
BRANCH   1  39
ATOM     39  O5  RES d   1      19.749  -5.151  10.451  0.00  0.00    -0.382 OA
ATOM     40  H48 RES d   1      20.618  -5.084  10.035  0.00  0.00     0.211 HD
ENDBRANCH   1  39
BRANCH   4  41
ATOM     41  O9  RES d   1      19.880  -1.639  14.114  0.00  0.00    -0.359 OA
ATOM     42  H51 RES d   1      20.062  -1.045  14.854  0.00  0.00     0.217 HD
ENDBRANCH   4  41
TORSDOF 7
ENDMDL
MODEL 4
REMARK VINA RESULT:      -8.2      3.708      8.091
REMARK  7 active torsions:
REMARK  status: ('A' for Active; 'I' for Inactive)
REMARK    1  A    between atoms: C2_2  and  C4_4 
REMARK    2  A    between atoms: C4_4  and  O5_5 
REMARK    3  A    between atoms: C8_8  and  O9_9 
REMARK    4  A    between atoms: C25_25  and  O27_26 
REMARK    5  A    between atoms: O27_26  and  C28_27 
REMARK    6  A    between atoms: C31_29  and  N33_30 
REMARK    7  A    between atoms: C37_34  and  O39_35 
ROOT
ATOM      1  C4  RES d   1      17.633  -0.394  16.093  0.00  0.00     0.124 C 
ATOM      2  C6  RES d   1      17.114  -0.978  14.782  0.00  0.00     0.088 C 
ATOM      3  C7  RES d   1      17.703  -0.247  13.603  0.00  0.00    -0.009 A 
ATOM      4  C8  RES d   1      17.638  -0.881  12.354  0.00  0.00     0.088 A 
ATOM      5  C10 RES d   1      18.156  -0.261  11.220  0.00  0.00     0.066 A 
ATOM      6  C11 RES d   1      18.747   1.015  11.337  0.00  0.00     0.069 A 
ATOM      7  C12 RES d   1      19.291   1.679  10.138  0.00  0.00     0.197 C 
ATOM      8  O13 RES d   1      20.018   2.648  10.248  0.00  0.00    -0.286 OA
ATOM      9  C14 RES d   1      18.944   1.153   8.800  0.00  0.00     0.029 A 
ATOM     10  C15 RES d   1      19.191   1.904   7.657  0.00  0.00     0.016 A 
ATOM     11  C16 RES d   1      18.860   1.394   6.413  0.00  0.00     0.001 A 
ATOM     12  C17 RES d   1      18.282   0.143   6.299  0.00  0.00     0.001 A 
ATOM     13  C18 RES d   1      18.028  -0.618   7.428  0.00  0.00     0.016 A 
ATOM     14  C19 RES d   1      18.356  -0.121   8.685  0.00  0.00     0.029 A 
ATOM     15  C20 RES d   1      18.090  -0.919   9.902  0.00  0.00     0.197 C 
ATOM     16  O21 RES d   1      17.822  -2.101   9.817  0.00  0.00    -0.286 OA
ATOM     17  C22 RES d   1      18.807   1.630  12.584  0.00  0.00     0.132 A 
ATOM     18  O23 RES d   1      19.376   2.855  12.704  0.00  0.00    -0.190 OA
ATOM     19  C24 RES d   1      18.283   0.991  13.717  0.00  0.00     0.018 A 
ATOM     20  C25 RES d   1      18.397   1.716  15.034  0.00  0.00     0.164 C 
ATOM     21  C44 RES d   1      17.431   1.126  16.058  0.00  0.00     0.083 C 
ENDROOT
BRANCH  20  22
ATOM     22  O27 RES d   1      18.091   3.098  14.839  0.00  0.00    -0.351 OA
BRANCH  22  23
ATOM     23  C28 RES d   1      18.058   3.861  16.046  0.00  0.00     0.263 C 
ATOM     24  O43 RES d   1      17.265   5.033  15.847  0.00  0.00    -0.354 OA
ATOM     25  C40 RES d   1      17.732   5.884  14.799  0.00  0.00     0.151 C 
ATOM     26  C37 RES d   1      19.144   6.374  15.133  0.00  0.00     0.177 C 
ATOM     27  C42 RES d   1      16.795   7.085  14.659  0.00  0.00     0.042 C 
ATOM     28  C31 RES d   1      20.063   5.165  15.330  0.00  0.00     0.219 C 
ATOM     29  C30 RES d   1      19.483   4.270  16.430  0.00  0.00     0.096 C 
BRANCH  26  30
ATOM     30  O39 RES d   1      19.110   7.149  16.333  0.00  0.00    -0.391 OA
ATOM     31  H58 RES d   1      19.680   7.930  16.314  0.00  0.00     0.210 HD
ENDBRANCH  26  30
BRANCH  28  32
ATOM     32  N33 RES d   1      21.402   5.622  15.723  0.00  0.00    -0.072 N 
ATOM     33  H34 RES d   1      21.862   6.041  14.929  0.00  0.00     0.274 HD
ATOM     34  H35 RES d   1      21.322   6.303  16.463  0.00  0.00     0.274 HD
ATOM     35  H36 RES d   1      21.944   4.835  16.048  0.00  0.00     0.274 HD
ENDBRANCH  28  32
ENDBRANCH  22  23
ENDBRANCH  20  22
BRANCH   1  36
ATOM     36  C2  RES d   1      19.099  -0.707  16.244  0.00  0.00     0.157 C 
ATOM     37  C1  RES d   1      19.846  -0.246  17.468  0.00  0.00     0.094 C 
ATOM     38  O3  RES d   1      19.675  -1.329  15.383  0.00  0.00    -0.295 OA
ENDBRANCH   1  36
BRANCH   1  39
ATOM     39  O5  RES d   1      16.906  -0.951  17.190  0.00  0.00    -0.382 OA
ATOM     40  H48 RES d   1      15.986  -0.662  17.240  0.00  0.00     0.211 HD
ENDBRANCH   1  39
BRANCH   4  41
ATOM     41  O9  RES d   1      17.066  -2.107  12.250  0.00  0.00    -0.359 OA
ATOM     42  H51 RES d   1      17.086  -2.475  11.357  0.00  0.00     0.217 HD
ENDBRANCH   4  41
TORSDOF 7
ENDMDL
MODEL 5
REMARK VINA RESULT:      -8.1      2.253      4.943
REMARK  7 active torsions:
REMARK  status: ('A' for Active; 'I' for Inactive)
REMARK    1  A    between atoms: C2_2  and  C4_4 
REMARK    2  A    between atoms: C4_4  and  O5_5 
REMARK    3  A    between atoms: C8_8  and  O9_9 
REMARK    4  A    between atoms: C25_25  and  O27_26 
REMARK    5  A    between atoms: O27_26  and  C28_27 
REMARK    6  A    between atoms: C31_29  and  N33_30 
REMARK    7  A    between atoms: C37_34  and  O39_35 
ROOT
ATOM      1  C4  RES d   1      17.676  -0.054   8.422  0.00  0.00     0.124 C 
ATOM      2  C6  RES d   1      17.171   0.782   9.596  0.00  0.00     0.088 C 
ATOM      3  C7  RES d   1      17.723   0.262  10.897  0.00  0.00    -0.009 A 
ATOM      4  C8  RES d   1      17.674   1.118  12.007  0.00  0.00     0.088 A 
ATOM      5  C10 RES d   1      18.160   0.701  13.243  0.00  0.00     0.066 A 
ATOM      6  C11 RES d   1      18.703  -0.595  13.373  0.00  0.00     0.069 A 
ATOM      7  C12 RES d   1      19.212  -1.044  14.681  0.00  0.00     0.197 C 
ATOM      8  O13 RES d   1      19.901  -2.043  14.763  0.00  0.00    -0.286 OA
ATOM      9  C14 RES d   1      18.876  -0.266  15.894  0.00  0.00     0.029 A 
ATOM     10  C15 RES d   1      19.087  -0.801  17.160  0.00  0.00     0.016 A 
ATOM     11  C16 RES d   1      18.766  -0.057  18.282  0.00  0.00     0.001 A 
ATOM     12  C17 RES d   1      18.236   1.214  18.154  0.00  0.00     0.001 A 
ATOM     13  C18 RES d   1      18.020   1.761  16.901  0.00  0.00     0.016 A 
ATOM     14  C19 RES d   1      18.338   1.028  15.762  0.00  0.00     0.029 A 
ATOM     15  C20 RES d   1      18.111   1.595  14.415  0.00  0.00     0.197 C 
ATOM     16  O21 RES d   1      17.888   2.781  14.276  0.00  0.00    -0.286 OA
ATOM     17  C22 RES d   1      18.747  -1.432  12.262  0.00  0.00     0.132 A 
ATOM     18  O23 RES d   1      19.269  -2.679  12.379  0.00  0.00    -0.190 OA
ATOM     19  C24 RES d   1      18.256  -0.996  11.023  0.00  0.00     0.018 A 
ATOM     20  C25 RES d   1      18.352  -1.956   9.865  0.00  0.00     0.164 C 
ATOM     21  C44 RES d   1      17.415  -1.532   8.736  0.00  0.00     0.083 C 
ENDROOT
BRANCH  20  22
ATOM     22  O27 RES d   1      17.991  -3.267  10.308  0.00  0.00    -0.351 OA
BRANCH  22  23
ATOM     23  C28 RES d   1      18.986  -4.260  10.054  0.00  0.00     0.263 C 
ATOM     24  O43 RES d   1      19.544  -4.053   8.754  0.00  0.00    -0.354 OA
ATOM     25  C40 RES d   1      18.588  -4.102   7.693  0.00  0.00     0.151 C 
ATOM     26  C37 RES d   1      17.933  -5.486   7.662  0.00  0.00     0.177 C 
ATOM     27  C42 RES d   1      19.291  -3.839   6.360  0.00  0.00     0.042 C 
ATOM     28  C31 RES d   1      17.283  -5.765   9.020  0.00  0.00     0.219 C 
ATOM     29  C30 RES d   1      18.346  -5.650  10.117  0.00  0.00     0.096 C 
BRANCH  26  30
ATOM     30  O39 RES d   1      18.925  -6.479   7.394  0.00  0.00    -0.391 OA
ATOM     31  H58 RES d   1      19.496  -6.677   8.149  0.00  0.00     0.210 HD
ENDBRANCH  26  30
BRANCH  28  32
ATOM     32  N33 RES d   1      16.715  -7.119   9.026  0.00  0.00    -0.072 N 
ATOM     33  H34 RES d   1      15.957  -7.164   9.691  0.00  0.00     0.274 HD
ATOM     34  H35 RES d   1      16.368  -7.343   8.106  0.00  0.00     0.274 HD
ATOM     35  H36 RES d   1      17.430  -7.782   9.287  0.00  0.00     0.274 HD
ENDBRANCH  28  32
ENDBRANCH  22  23
ENDBRANCH  20  22
BRANCH   1  36
ATOM     36  C2  RES d   1      19.155   0.172   8.236  0.00  0.00     0.157 C 
ATOM     37  C1  RES d   1      19.740   1.545   8.444  0.00  0.00     0.094 C 
ATOM     38  O3  RES d   1      19.871  -0.748   7.921  0.00  0.00    -0.295 OA
ENDBRANCH   1  36
BRANCH   1  39
ATOM     39  O5  RES d   1      16.980   0.317   7.231  0.00  0.00    -0.382 OA
ATOM     40  H48 RES d   1      16.631   1.218   7.244  0.00  0.00     0.211 HD
ENDBRANCH   1  39
BRANCH   4  41
ATOM     41  O9  RES d   1      17.150   2.363  11.874  0.00  0.00    -0.359 OA
ATOM     42  H51 RES d   1      17.791   3.033  11.603  0.00  0.00     0.217 HD
ENDBRANCH   4  41
TORSDOF 7
ENDMDL
MODEL 6
REMARK VINA RESULT:      -7.8      3.104      7.667
REMARK  7 active torsions:
REMARK  status: ('A' for Active; 'I' for Inactive)
REMARK    1  A    between atoms: C2_2  and  C4_4 
REMARK    2  A    between atoms: C4_4  and  O5_5 
REMARK    3  A    between atoms: C8_8  and  O9_9 
REMARK    4  A    between atoms: C25_25  and  O27_26 
REMARK    5  A    between atoms: O27_26  and  C28_27 
REMARK    6  A    between atoms: C31_29  and  N33_30 
REMARK    7  A    between atoms: C37_34  and  O39_35 
ROOT
ATOM      1  C4  RES d   1      17.853  -0.315  14.308  0.00  0.00     0.124 C 
ATOM      2  C6  RES d   1      17.432  -1.209  13.144  0.00  0.00     0.088 C 
ATOM      3  C7  RES d   1      17.855  -0.607  11.829  0.00  0.00    -0.009 A 
ATOM      4  C8  RES d   1      17.890  -1.455  10.713  0.00  0.00     0.088 A 
ATOM      5  C10 RES d   1      18.264  -0.965   9.465  0.00  0.00     0.066 A 
ATOM      6  C11 RES d   1      18.607   0.397   9.330  0.00  0.00     0.069 A 
ATOM      7  C12 RES d   1      18.998   0.923   8.009  0.00  0.00     0.197 C 
ATOM      8  O13 RES d   1      19.531   2.012   7.914  0.00  0.00    -0.286 OA
ATOM      9  C14 RES d   1      18.734   0.111   6.801  0.00  0.00     0.029 A 
ATOM     10  C15 RES d   1      18.818   0.677   5.534  0.00  0.00     0.016 A 
ATOM     11  C16 RES d   1      18.568  -0.099   4.416  0.00  0.00     0.001 A 
ATOM     12  C17 RES d   1      18.233  -1.434   4.549  0.00  0.00     0.001 A 
ATOM     13  C18 RES d   1      18.145  -2.014   5.803  0.00  0.00     0.016 A 
ATOM     14  C19 RES d   1      18.394  -1.248   6.937  0.00  0.00     0.029 A 
ATOM     15  C20 RES d   1      18.302  -1.850   8.286  0.00  0.00     0.197 C 
ATOM     16  O21 RES d   1      18.259  -3.057   8.420  0.00  0.00    -0.286 OA
ATOM     17  C22 RES d   1      18.571   1.226  10.447  0.00  0.00     0.132 A 
ATOM     18  O23 RES d   1      18.902   2.536  10.326  0.00  0.00    -0.190 OA
ATOM     19  C24 RES d   1      18.194   0.716  11.698  0.00  0.00     0.018 A 
ATOM     20  C25 RES d   1      18.192   1.673  12.862  0.00  0.00     0.164 C 
ATOM     21  C44 RES d   1      17.369   1.111  14.020  0.00  0.00     0.083 C 
ENDROOT
BRANCH  20  22
ATOM     22  O27 RES d   1      17.628   2.920  12.446  0.00  0.00    -0.351 OA
BRANCH  22  23
ATOM     23  C28 RES d   1      18.495   4.039  12.633  0.00  0.00     0.263 C 
ATOM     24  O43 RES d   1      19.196   3.898  13.871  0.00  0.00    -0.354 OA
ATOM     25  C40 RES d   1      18.345   3.801  15.016  0.00  0.00     0.151 C 
ATOM     26  C37 RES d   1      17.511   5.079  15.139  0.00  0.00     0.177 C 
ATOM     27  C42 RES d   1      19.199   3.625  16.273  0.00  0.00     0.042 C 
ATOM     28  C31 RES d   1      16.704   5.279  13.854  0.00  0.00     0.219 C 
ATOM     29  C30 RES d   1      17.666   5.327  12.662  0.00  0.00     0.096 C 
BRANCH  26  30
ATOM     30  O39 RES d   1      18.376   6.198  15.340  0.00  0.00    -0.391 OA
ATOM     31  H58 RES d   1      19.285   5.957  15.566  0.00  0.00     0.210 HD
ENDBRANCH  26  30
BRANCH  28  32
ATOM     32  N33 RES d   1      15.956   6.541  13.931  0.00  0.00    -0.072 N 
ATOM     33  H34 RES d   1      15.196   6.442  14.588  0.00  0.00     0.274 HD
ATOM     34  H35 RES d   1      16.572   7.278  14.239  0.00  0.00     0.274 HD
ATOM     35  H36 RES d   1      15.586   6.769  13.020  0.00  0.00     0.274 HD
ENDBRANCH  28  32
ENDBRANCH  22  23
ENDBRANCH  20  22
BRANCH   1  36
ATOM     36  C2  RES d   1      19.354  -0.325  14.438  0.00  0.00     0.157 C 
ATOM     37  C1  RES d   1      20.131  -1.576  14.120  0.00  0.00     0.094 C 
ATOM     38  O3  RES d   1      19.935   0.672  14.798  0.00  0.00    -0.295 OA
ENDBRANCH   1  36
BRANCH   1  39
ATOM     39  O5  RES d   1      17.262  -0.789  15.519  0.00  0.00    -0.382 OA
ATOM     40  H48 RES d   1      17.210  -1.752  15.580  0.00  0.00     0.211 HD
ENDBRANCH   1  39
BRANCH   4  41
ATOM     41  O9  RES d   1      17.556  -2.763  10.851  0.00  0.00    -0.359 OA
ATOM     42  H51 RES d   1      17.112  -3.139  10.080  0.00  0.00     0.217 HD
ENDBRANCH   4  41
TORSDOF 7
ENDMDL
MODEL 7
REMARK VINA RESULT:      -7.7      2.554      5.597
REMARK  7 active torsions:
REMARK  status: ('A' for Active; 'I' for Inactive)
REMARK    1  A    between atoms: C2_2  and  C4_4 
REMARK    2  A    between atoms: C4_4  and  O5_5 
REMARK    3  A    between atoms: C8_8  and  O9_9 
REMARK    4  A    between atoms: C25_25  and  O27_26 
REMARK    5  A    between atoms: O27_26  and  C28_27 
REMARK    6  A    between atoms: C31_29  and  N33_30 
REMARK    7  A    between atoms: C37_34  and  O39_35 
ROOT
ATOM      1  C4  RES d   1      17.770   0.319   8.648  0.00  0.00     0.124 C 
ATOM      2  C6  RES d   1      17.299   1.258   9.756  0.00  0.00     0.088 C 
ATOM      3  C7  RES d   1      17.824   0.808  11.094  0.00  0.00    -0.009 A 
ATOM      4  C8  RES d   1      17.810   1.743  12.139  0.00  0.00     0.088 A 
ATOM      5  C10 RES d   1      18.273   1.395  13.405  0.00  0.00     0.066 A 
ATOM      6  C11 RES d   1      18.757   0.089  13.630  0.00  0.00     0.069 A 
ATOM      7  C12 RES d   1      19.243  -0.288  14.971  0.00  0.00     0.197 C 
ATOM      8  O13 RES d   1      19.887  -1.308  15.127  0.00  0.00    -0.286 OA
ATOM      9  C14 RES d   1      18.939   0.589  16.122  0.00  0.00     0.029 A 
ATOM     10  C15 RES d   1      19.121   0.138  17.425  0.00  0.00     0.016 A 
ATOM     11  C16 RES d   1      18.832   0.974  18.489  0.00  0.00     0.001 A 
ATOM     12  C17 RES d   1      18.359   2.254  18.267  0.00  0.00     0.001 A 
ATOM     13  C18 RES d   1      18.171   2.719  16.977  0.00  0.00     0.016 A 
ATOM     14  C19 RES d   1      18.458   1.893  15.896  0.00  0.00     0.029 A 
ATOM     15  C20 RES d   1      18.261   2.371  14.510  0.00  0.00     0.197 C 
ATOM     16  O21 RES d   1      18.091   3.553  14.285  0.00  0.00    -0.286 OA
ATOM     17  C22 RES d   1      18.768  -0.827  12.582  0.00  0.00     0.132 A 
ATOM     18  O23 RES d   1      19.233  -2.084  12.791  0.00  0.00    -0.190 OA
ATOM     19  C24 RES d   1      18.300  -0.460  11.313  0.00  0.00     0.018 A 
ATOM     20  C25 RES d   1      18.355  -1.504  10.227  0.00  0.00     0.164 C 
ATOM     21  C44 RES d   1      17.442  -1.121   9.065  0.00  0.00     0.083 C 
ENDROOT
BRANCH  20  22
ATOM     22  O27 RES d   1      17.936  -2.762  10.761  0.00  0.00    -0.351 OA
BRANCH  22  23
ATOM     23  C28 RES d   1      18.682  -3.878  10.272  0.00  0.00     0.263 C 
ATOM     24  O43 RES d   1      18.015  -4.438   9.139  0.00  0.00    -0.354 OA
ATOM     25  C40 RES d   1      16.682  -4.879   9.405  0.00  0.00     0.151 C 
ATOM     26  C37 RES d   1      16.714  -5.979  10.470  0.00  0.00     0.177 C 
ATOM     27  C42 RES d   1      16.060  -5.430   8.121  0.00  0.00     0.042 C 
ATOM     28  C31 RES d   1      17.390  -5.438  11.732  0.00  0.00     0.219 C 
ATOM     29  C30 RES d   1      18.793  -4.937  11.372  0.00  0.00     0.096 C 
BRANCH  26  30
ATOM     30  O39 RES d   1      17.448  -7.101   9.978  0.00  0.00    -0.391 OA
ATOM     31  H58 RES d   1      16.929  -7.914   9.913  0.00  0.00     0.210 HD
ENDBRANCH  26  30
BRANCH  28  32
ATOM     32  N33 RES d   1      17.493  -6.506  12.735  0.00  0.00    -0.072 N 
ATOM     33  H34 RES d   1      18.463  -6.664  12.961  0.00  0.00     0.274 HD
ATOM     34  H35 RES d   1      16.994  -6.234  13.568  0.00  0.00     0.274 HD
ATOM     35  H36 RES d   1      17.091  -7.355  12.364  0.00  0.00     0.274 HD
ENDBRANCH  28  32
ENDBRANCH  22  23
ENDBRANCH  20  22
BRANCH   1  36
ATOM     36  C2  RES d   1      19.257   0.465   8.455  0.00  0.00     0.157 C 
ATOM     37  C1  RES d   1      19.910   1.812   8.622  0.00  0.00     0.094 C 
ATOM     38  O3  RES d   1      19.926  -0.499   8.167  0.00  0.00    -0.295 OA
ENDBRANCH   1  36
BRANCH   1  39
ATOM     39  O5  RES d   1      17.093   0.633   7.429  0.00  0.00    -0.382 OA
ATOM     40  H48 RES d   1      16.316   1.195   7.545  0.00  0.00     0.211 HD
ENDBRANCH   1  39
BRANCH   4  41
ATOM     41  O9  RES d   1      17.341   2.997  11.915  0.00  0.00    -0.359 OA
ATOM     42  H51 RES d   1      17.727   3.427  11.141  0.00  0.00     0.217 HD
ENDBRANCH   4  41
TORSDOF 7
ENDMDL
MODEL 8
REMARK VINA RESULT:      -7.7      4.559      9.105
REMARK  7 active torsions:
REMARK  status: ('A' for Active; 'I' for Inactive)
REMARK    1  A    between atoms: C2_2  and  C4_4 
REMARK    2  A    between atoms: C4_4  and  O5_5 
REMARK    3  A    between atoms: C8_8  and  O9_9 
REMARK    4  A    between atoms: C25_25  and  O27_26 
REMARK    5  A    between atoms: O27_26  and  C28_27 
REMARK    6  A    between atoms: C31_29  and  N33_30 
REMARK    7  A    between atoms: C37_34  and  O39_35 
ROOT
ATOM      1  C4  RES d   1      17.773   1.701  18.161  0.00  0.00     0.124 C 
ATOM      2  C6  RES d   1      17.185   0.949  16.969  0.00  0.00     0.088 C 
ATOM      3  C7  RES d   1      17.791   1.438  15.679  0.00  0.00    -0.009 A 
ATOM      4  C8  RES d   1      17.655   0.616  14.551  0.00  0.00     0.088 A 
ATOM      5  C10 RES d   1      18.184   1.007  13.324  0.00  0.00     0.066 A 
ATOM      6  C11 RES d   1      18.859   2.241  13.223  0.00  0.00     0.069 A 
ATOM      7  C12 RES d   1      19.416   2.664  11.925  0.00  0.00     0.197 C 
ATOM      8  O13 RES d   1      20.206   3.587  11.865  0.00  0.00    -0.286 OA
ATOM      9  C14 RES d   1      19.003   1.953  10.695  0.00  0.00     0.029 A 
ATOM     10  C15 RES d   1      19.270   2.490   9.441  0.00  0.00     0.016 A 
ATOM     11  C16 RES d   1      18.876   1.809   8.303  0.00  0.00     0.001 A 
ATOM     12  C17 RES d   1      18.215   0.599   8.403  0.00  0.00     0.001 A 
ATOM     13  C18 RES d   1      17.941   0.049   9.643  0.00  0.00     0.016 A 
ATOM     14  C19 RES d   1      18.331   0.720  10.798  0.00  0.00     0.029 A 
ATOM     15  C20 RES d   1      18.044   0.150  12.133  0.00  0.00     0.197 C 
ATOM     16  O21 RES d   1      17.697  -1.010  12.245  0.00  0.00    -0.286 OA
ATOM     17  C22 RES d   1      18.990   3.045  14.352  0.00  0.00     0.132 A 
ATOM     18  O23 RES d   1      19.640   4.232  14.263  0.00  0.00    -0.190 OA
ATOM     19  C24 RES d   1      18.453   2.635  15.582  0.00  0.00     0.018 A 
ATOM     20  C25 RES d   1      18.647   3.554  16.760  0.00  0.00     0.164 C 
ATOM     21  C44 RES d   1      17.669   3.205  17.880  0.00  0.00     0.083 C 
ENDROOT
BRANCH  20  22
ATOM     22  O27 RES d   1      18.426   4.904  16.347  0.00  0.00    -0.351 OA
BRANCH  22  23
ATOM     23  C28 RES d   1      17.092   5.367  16.562  0.00  0.00     0.263 C 
ATOM     24  O43 RES d   1      16.357   5.288  15.339  0.00  0.00    -0.354 OA
ATOM     25  C40 RES d   1      16.921   6.048  14.268  0.00  0.00     0.151 C 
ATOM     26  C37 RES d   1      16.949   7.529  14.656  0.00  0.00     0.177 C 
ATOM     27  C42 RES d   1      16.072   5.865  13.009  0.00  0.00     0.042 C 
ATOM     28  C31 RES d   1      17.752   7.695  15.949  0.00  0.00     0.219 C 
ATOM     29  C30 RES d   1      17.128   6.821  17.041  0.00  0.00     0.096 C 
BRANCH  26  30
ATOM     30  O39 RES d   1      15.614   7.996  14.858  0.00  0.00    -0.391 OA
ATOM     31  H58 RES d   1      15.444   8.873  14.487  0.00  0.00     0.210 HD
ENDBRANCH  26  30
BRANCH  28  32
ATOM     32  N33 RES d   1      17.724   9.102  16.370  0.00  0.00    -0.072 N 
ATOM     33  H34 RES d   1      18.463   9.269  17.036  0.00  0.00     0.274 HD
ATOM     34  H35 RES d   1      17.856   9.696  15.566  0.00  0.00     0.274 HD
ATOM     35  H36 RES d   1      16.833   9.307  16.797  0.00  0.00     0.274 HD
ENDBRANCH  28  32
ENDBRANCH  22  23
ENDBRANCH  20  22
BRANCH   1  36
ATOM     36  C2  RES d   1      19.219   1.317  18.341  0.00  0.00     0.157 C 
ATOM     37  C1  RES d   1      19.688  -0.059  17.948  0.00  0.00     0.094 C 
ATOM     38  O3  RES d   1      20.002   2.114  18.800  0.00  0.00    -0.295 OA
ENDBRANCH   1  36
BRANCH   1  39
ATOM     39  O5  RES d   1      17.039   1.379  19.344  0.00  0.00    -0.382 OA
ATOM     40  H48 RES d   1      17.530   1.528  20.163  0.00  0.00     0.211 HD
ENDBRANCH   1  39
BRANCH   4  41
ATOM     41  O9  RES d   1      17.002  -0.569  14.656  0.00  0.00    -0.359 OA
ATOM     42  H51 RES d   1      17.464  -1.226  15.195  0.00  0.00     0.217 HD
ENDBRANCH   4  41
TORSDOF 7
ENDMDL
MODEL 9
REMARK VINA RESULT:      -7.7      2.218      5.460
REMARK  7 active torsions:
REMARK  status: ('A' for Active; 'I' for Inactive)
REMARK    1  A    between atoms: C2_2  and  C4_4 
REMARK    2  A    between atoms: C4_4  and  O5_5 
REMARK    3  A    between atoms: C8_8  and  O9_9 
REMARK    4  A    between atoms: C25_25  and  O27_26 
REMARK    5  A    between atoms: O27_26  and  C28_27 
REMARK    6  A    between atoms: C31_29  and  N33_30 
REMARK    7  A    between atoms: C37_34  and  O39_35 
ROOT
ATOM      1  C4  RES d   1      17.829  -1.161   5.215  0.00  0.00     0.124 C 
ATOM      2  C6  RES d   1      17.244  -0.424   6.417  0.00  0.00     0.088 C 
ATOM      3  C7  RES d   1      17.862  -0.920   7.698  0.00  0.00    -0.009 A 
ATOM      4  C8  RES d   1      17.727  -0.109   8.835  0.00  0.00     0.088 A 
ATOM      5  C10 RES d   1      18.267  -0.507  10.054  0.00  0.00     0.066 A 
ATOM      6  C11 RES d   1      18.952  -1.738  10.140  0.00  0.00     0.069 A 
ATOM      7  C12 RES d   1      19.520  -2.168  11.431  0.00  0.00     0.197 C 
ATOM      8  O13 RES d   1      20.317  -3.086  11.477  0.00  0.00    -0.286 OA
ATOM      9  C14 RES d   1      19.110  -1.471  12.669  0.00  0.00     0.029 A 
ATOM     10  C15 RES d   1      19.390  -2.018  13.916  0.00  0.00     0.016 A 
ATOM     11  C16 RES d   1      18.998  -1.350  15.064  0.00  0.00     0.001 A 
ATOM     12  C17 RES d   1      18.329  -0.143  14.979  0.00  0.00     0.001 A 
ATOM     13  C18 RES d   1      18.042   0.416  13.745  0.00  0.00     0.016 A 
ATOM     14  C19 RES d   1      18.429  -0.242  12.582  0.00  0.00     0.029 A 
ATOM     15  C20 RES d   1      18.129   0.338  11.254  0.00  0.00     0.197 C 
ATOM     16  O21 RES d   1      17.774   1.496  11.154  0.00  0.00    -0.286 OA
ATOM     17  C22 RES d   1      19.080  -2.530   9.003  0.00  0.00     0.132 A 
ATOM     18  O23 RES d   1      19.739  -3.714   9.077  0.00  0.00    -0.190 OA
ATOM     19  C24 RES d   1      18.533  -2.113   7.781  0.00  0.00     0.018 A 
ATOM     20  C25 RES d   1      18.725  -3.020   6.592  0.00  0.00     0.164 C 
ATOM     21  C44 RES d   1      17.737  -2.668   5.482  0.00  0.00     0.083 C 
ENDROOT
BRANCH  20  22
ATOM     22  O27 RES d   1      18.516  -4.376   6.996  0.00  0.00    -0.351 OA
BRANCH  22  23
ATOM     23  C28 RES d   1      17.141  -4.758   7.056  0.00  0.00     0.263 C 
ATOM     24  O43 RES d   1      16.792  -5.069   8.407  0.00  0.00    -0.354 OA
ATOM     25  C40 RES d   1      17.569  -6.119   8.984  0.00  0.00     0.151 C 
ATOM     26  C37 RES d   1      17.361  -7.407   8.182  0.00  0.00     0.177 C 
ATOM     27  C42 RES d   1      17.130  -6.344  10.432  0.00  0.00     0.042 C 
ATOM     28  C31 RES d   1      17.747  -7.157   6.722  0.00  0.00     0.219 C 
ATOM     29  C30 RES d   1      16.916  -5.991   6.176  0.00  0.00     0.096 C 
BRANCH  26  30
ATOM     30  O39 RES d   1      15.988  -7.798   8.253  0.00  0.00    -0.391 OA
ATOM     31  H58 RES d   1      15.480  -7.330   8.930  0.00  0.00     0.210 HD
ENDBRANCH  26  30
BRANCH  28  32
ATOM     32  N33 RES d   1      17.482  -8.364   5.927  0.00  0.00    -0.072 N 
ATOM     33  H34 RES d   1      18.127  -8.406   5.153  0.00  0.00     0.274 HD
ATOM     34  H35 RES d   1      17.599  -9.181   6.507  0.00  0.00     0.274 HD
ATOM     35  H36 RES d   1      16.536  -8.333   5.575  0.00  0.00     0.274 HD
ENDBRANCH  28  32
ENDBRANCH  22  23
ENDBRANCH  20  22
BRANCH   1  36
ATOM     36  C2  RES d   1      19.271  -0.766   5.029  0.00  0.00     0.157 C 
ATOM     37  C1  RES d   1      19.751   0.580   5.505  0.00  0.00     0.094 C 
ATOM     38  O3  RES d   1      20.042  -1.528   4.497  0.00  0.00    -0.295 OA
ENDBRANCH   1  36
BRANCH   1  39
ATOM     39  O5  RES d   1      17.085  -0.834   4.039  0.00  0.00    -0.382 OA
ATOM     40  H48 RES d   1      16.412  -1.487   3.806  0.00  0.00     0.211 HD
ENDBRANCH   1  39
BRANCH   4  41
ATOM     41  O9  RES d   1      17.066   1.072   8.744  0.00  0.00    -0.359 OA
ATOM     42  H51 RES d   1      16.183   1.000   8.357  0.00  0.00     0.217 HD
ENDBRANCH   4  41
TORSDOF 7
ENDMDL
