MODEL 1
REMARK VINA RESULT:      -6.5      0.000      0.000
REMARK  3 active torsions:
REMARK  status: ('A' for Active; 'I' for Inactive)
REMARK    1  A    between atoms: N4_4  and  N5_5 
REMARK    2  A    between atoms: C6_6  and  C7_7 
REMARK    3  A    between atoms: C10_10  and  N11_11 
ROOT
ATOM      1  N5  ZIN A   1      18.111   2.350  10.136  0.00  0.00    -0.178 NA
ATOM      2  C6  ZIN A   1      18.963   2.115   9.130  0.00  0.00     0.176 C 
ENDROOT
BRANCH   1   3
ATOM      3  N4  ZIN A   1      18.372   3.271  11.000  0.00  0.00    -0.211 N 
ATOM      4  C3  ZIN A   1      19.637   3.459  11.731  0.00  0.00     0.259 A 
ATOM      5  C2  ZIN A   1      19.372   4.676  12.595  0.00  0.00     0.245 A 
ATOM      6  O1  ZIN A   1      20.139   5.202  13.373  0.00  0.00    -0.271 OA
ATOM      7  N17 ZIN A   1      18.106   5.046  12.324  0.00  0.00    -0.276 N 
ATOM      8  C15 ZIN A   1      17.542   4.246  11.412  0.00  0.00     0.345 A 
ATOM      9  H23 ZIN A   1      17.659   5.803  12.735  0.00  0.00     0.173 HD
ATOM     10  O16 ZIN A   1      16.407   4.382  11.003  0.00  0.00    -0.245 OA
ENDBRANCH   1   3
BRANCH   2  11
ATOM     11  C7  ZIN A   1      18.636   1.203   8.147  0.00  0.00     0.097 A 
ATOM     12  O14 ZIN A   1      19.201   1.101   6.921  0.00  0.00    -0.287 OA
ATOM     13  C10 ZIN A   1      18.627   0.100   6.248  0.00  0.00     0.215 A 
ATOM     14  C9  ZIN A   1      17.634  -0.497   7.030  0.00  0.00     0.065 A 
ATOM     15  C8  ZIN A   1      17.599   0.155   8.226  0.00  0.00     0.043 A 
BRANCH  13  16
ATOM     16  N11 ZIN A   1      18.988  -0.315   4.866  0.00  0.00    -0.090 N 
ATOM     17  O12 ZIN A   1      18.222   0.033   3.853  0.00  0.00    -0.530 OA
ATOM     18  O13 ZIN A   1      20.074  -1.031   4.656  0.00  0.00    -0.530 OA
ENDBRANCH  13  16
ENDBRANCH   2  11
TORSDOF 3
ENDMDL
MODEL 2
REMARK VINA RESULT:      -6.5      4.484      8.011
REMARK  3 active torsions:
REMARK  status: ('A' for Active; 'I' for Inactive)
REMARK    1  A    between atoms: N4_4  and  N5_5 
REMARK    2  A    between atoms: C6_6  and  C7_7 
REMARK    3  A    between atoms: C10_10  and  N11_11 
ROOT
ATOM      1  N5  ZIN A   1      18.366   1.259  12.626  0.00  0.00    -0.178 NA
ATOM      2  C6  ZIN A   1      19.392   0.683  13.266  0.00  0.00     0.176 C 
ENDROOT
BRANCH   1   3
ATOM      3  N4  ZIN A   1      18.492   1.611  11.391  0.00  0.00    -0.211 N 
ATOM      4  C3  ZIN A   1      19.380   1.000  10.388  0.00  0.00     0.259 A 
ATOM      5  C2  ZIN A   1      19.113   1.810   9.135  0.00  0.00     0.245 A 
ATOM      6  O1  ZIN A   1      19.625   1.664   8.046  0.00  0.00    -0.271 OA
ATOM      7  N17 ZIN A   1      18.194   2.730   9.486  0.00  0.00    -0.276 N 
ATOM      8  C15 ZIN A   1      17.840   2.610  10.770  0.00  0.00     0.345 A 
ATOM      9  H23 ZIN A   1      17.828   3.395   8.880  0.00  0.00     0.173 HD
ATOM     10  O16 ZIN A   1      17.023   3.324  11.316  0.00  0.00    -0.245 OA
ENDBRANCH   1   3
BRANCH   2  11
ATOM     11  C7  ZIN A   1      19.225   0.211  14.553  0.00  0.00     0.097 A 
ATOM     12  O14 ZIN A   1      19.268   0.942  15.692  0.00  0.00    -0.287 OA
ATOM     13  C10 ZIN A   1      19.061   0.141  16.741  0.00  0.00     0.215 A 
ATOM     14  C9  ZIN A   1      18.881  -1.177  16.312  0.00  0.00     0.065 A 
ATOM     15  C8  ZIN A   1      18.974  -1.188  14.952  0.00  0.00     0.043 A 
BRANCH  13  16
ATOM     16  N11 ZIN A   1      19.033   0.587  18.159  0.00  0.00    -0.090 N 
ATOM     17  O12 ZIN A   1      18.145   0.081  18.991  0.00  0.00    -0.530 OA
ATOM     18  O13 ZIN A   1      19.894   1.489  18.584  0.00  0.00    -0.530 OA
ENDBRANCH  13  16
ENDBRANCH   2  11
TORSDOF 3
ENDMDL
MODEL 3
REMARK VINA RESULT:      -6.3      5.115      8.939
REMARK  3 active torsions:
REMARK  status: ('A' for Active; 'I' for Inactive)
REMARK    1  A    between atoms: N4_4  and  N5_5 
REMARK    2  A    between atoms: C6_6  and  C7_7 
REMARK    3  A    between atoms: C10_10  and  N11_11 
ROOT
ATOM      1  N5  ZIN A   1      18.774  -0.713  12.710  0.00  0.00    -0.178 NA
ATOM      2  C6  ZIN A   1      18.910  -1.453  13.817  0.00  0.00     0.176 C 
ENDROOT
BRANCH   1   3
ATOM      3  N4  ZIN A   1      18.791  -1.277  11.550  0.00  0.00    -0.211 N 
ATOM      4  C3  ZIN A   1      17.718  -2.087  10.950  0.00  0.00     0.259 A 
ATOM      5  C2  ZIN A   1      18.283  -2.483   9.600  0.00  0.00     0.245 A 
ATOM      6  O1  ZIN A   1      17.744  -3.161   8.751  0.00  0.00    -0.271 OA
ATOM      7  N17 ZIN A   1      19.510  -1.930   9.542  0.00  0.00    -0.276 N 
ATOM      8  C15 ZIN A   1      19.793  -1.240  10.653  0.00  0.00     0.345 A 
ATOM      9  H23 ZIN A   1      20.112  -2.016   8.787  0.00  0.00     0.173 HD
ATOM     10  O16 ZIN A   1      20.838  -0.650  10.834  0.00  0.00    -0.245 OA
ENDBRANCH   1   3
BRANCH   2  11
ATOM     11  C7  ZIN A   1      18.788  -0.866  15.060  0.00  0.00     0.097 A 
ATOM     12  O14 ZIN A   1      19.239   0.357  15.422  0.00  0.00    -0.287 OA
ATOM     13  C10 ZIN A   1      18.934   0.582  16.704  0.00  0.00     0.215 A 
ATOM     14  C9  ZIN A   1      18.264  -0.521  17.239  0.00  0.00     0.065 A 
ATOM     15  C8  ZIN A   1      18.146  -1.454  16.253  0.00  0.00     0.043 A 
BRANCH  13  16
ATOM     16  N11 ZIN A   1      19.266   1.824  17.453  0.00  0.00    -0.090 N 
ATOM     17  O12 ZIN A   1      19.119   2.999  16.876  0.00  0.00    -0.530 OA
ATOM     18  O13 ZIN A   1      19.707   1.748  18.691  0.00  0.00    -0.530 OA
ENDBRANCH  13  16
ENDBRANCH   2  11
TORSDOF 3
ENDMDL
MODEL 4
REMARK VINA RESULT:      -6.3      4.938      8.711
REMARK  3 active torsions:
REMARK  status: ('A' for Active; 'I' for Inactive)
REMARK    1  A    between atoms: N4_4  and  N5_5 
REMARK    2  A    between atoms: C6_6  and  C7_7 
REMARK    3  A    between atoms: C10_10  and  N11_11 
ROOT
ATOM      1  N5  ZIN A   1      18.815  -0.357  12.578  0.00  0.00    -0.178 NA
ATOM      2  C6  ZIN A   1      19.583   0.179  13.535  0.00  0.00     0.176 C 
ENDROOT
BRANCH   1   3
ATOM      3  N4  ZIN A   1      19.174  -0.276  11.342  0.00  0.00    -0.211 N 
ATOM      4  C3  ZIN A   1      19.017   0.889  10.454  0.00  0.00     0.259 A 
ATOM      5  C2  ZIN A   1      19.607   0.417   9.140  0.00  0.00     0.245 A 
ATOM      6  O1  ZIN A   1      19.694   1.048   8.108  0.00  0.00    -0.271 OA
ATOM      7  N17 ZIN A   1      20.008  -0.851   9.355  0.00  0.00    -0.276 N 
ATOM      8  C15 ZIN A   1      19.764  -1.239  10.612  0.00  0.00     0.345 A 
ATOM      9  H23 ZIN A   1      20.428  -1.412   8.684  0.00  0.00     0.173 HD
ATOM     10  O16 ZIN A   1      20.041  -2.340  11.044  0.00  0.00    -0.245 OA
ENDBRANCH   1   3
BRANCH   2  11
ATOM     11  C7  ZIN A   1      19.254   0.004  14.864  0.00  0.00     0.097 A 
ATOM     12  O14 ZIN A   1      19.278   0.949  15.833  0.00  0.00    -0.287 OA
ATOM     13  C10 ZIN A   1      18.893   0.407  16.992  0.00  0.00     0.215 A 
ATOM     14  C9  ZIN A   1      18.606  -0.949  16.817  0.00  0.00     0.065 A 
ATOM     15  C8  ZIN A   1      18.816  -1.252  15.505  0.00  0.00     0.043 A 
BRANCH  13  16
ATOM     16  N11 ZIN A   1      18.791   1.141  18.282  0.00  0.00    -0.090 N 
ATOM     17  O12 ZIN A   1      17.703   1.032  19.016  0.00  0.00    -0.530 OA
ATOM     18  O13 ZIN A   1      19.787   1.900  18.689  0.00  0.00    -0.530 OA
ENDBRANCH  13  16
ENDBRANCH   2  11
TORSDOF 3
ENDMDL
MODEL 5
REMARK VINA RESULT:      -6.2      4.509      7.896
REMARK  3 active torsions:
REMARK  status: ('A' for Active; 'I' for Inactive)
REMARK    1  A    between atoms: N4_4  and  N5_5 
REMARK    2  A    between atoms: C6_6  and  C7_7 
REMARK    3  A    between atoms: C10_10  and  N11_11 
ROOT
ATOM      1  N5  ZIN A   1      18.677   2.345  13.057  0.00  0.00    -0.178 NA
ATOM      2  C6  ZIN A   1      17.964   1.261  13.386  0.00  0.00     0.176 C 
ENDROOT
BRANCH   1   3
ATOM      3  N4  ZIN A   1      18.408   2.990  11.972  0.00  0.00    -0.211 N 
ATOM      4  C3  ZIN A   1      17.628   4.234  11.859  0.00  0.00     0.259 A 
ATOM      5  C2  ZIN A   1      17.637   4.526  10.372  0.00  0.00     0.245 A 
ATOM      6  O1  ZIN A   1      17.112   5.461   9.806  0.00  0.00    -0.271 OA
ATOM      7  N17 ZIN A   1      18.344   3.526   9.809  0.00  0.00    -0.276 N 
ATOM      8  C15 ZIN A   1      18.785   2.657  10.725  0.00  0.00     0.345 A 
ATOM      9  H23 ZIN A   1      18.516   3.449   8.857  0.00  0.00     0.173 HD
ATOM     10  O16 ZIN A   1      19.448   1.674  10.460  0.00  0.00    -0.245 OA
ENDBRANCH   1   3
BRANCH   2  11
ATOM     11  C7  ZIN A   1      18.182   0.632  14.595  0.00  0.00     0.097 A 
ATOM     12  O14 ZIN A   1      18.512   1.226  15.766  0.00  0.00    -0.287 OA
ATOM     13  C10 ZIN A   1      18.637   0.295  16.717  0.00  0.00     0.215 A 
ATOM     14  C9  ZIN A   1      18.395  -0.973  16.183  0.00  0.00     0.065 A 
ATOM     15  C8  ZIN A   1      18.105  -0.819  14.860  0.00  0.00     0.043 A 
BRANCH  13  16
ATOM     16  N11 ZIN A   1      18.988   0.570  18.136  0.00  0.00    -0.090 N 
ATOM     17  O12 ZIN A   1      18.377  -0.084  19.103  0.00  0.00    -0.530 OA
ATOM     18  O13 ZIN A   1      19.907   1.467  18.425  0.00  0.00    -0.530 OA
ENDBRANCH  13  16
ENDBRANCH   2  11
TORSDOF 3
ENDMDL
MODEL 6
REMARK VINA RESULT:      -6.2      3.175      3.589
REMARK  3 active torsions:
REMARK  status: ('A' for Active; 'I' for Inactive)
REMARK    1  A    between atoms: N4_4  and  N5_5 
REMARK    2  A    between atoms: C6_6  and  C7_7 
REMARK    3  A    between atoms: C10_10  and  N11_11 
ROOT
ATOM      1  N5  ZIN A   1      18.749   0.096  10.953  0.00  0.00    -0.178 NA
ATOM      2  C6  ZIN A   1      19.723   0.017  10.039  0.00  0.00     0.176 C 
ENDROOT
BRANCH   1   3
ATOM      3  N4  ZIN A   1      19.029  -0.026  12.207  0.00  0.00    -0.211 N 
ATOM      4  C3  ZIN A   1      19.051  -1.275  12.986  0.00  0.00     0.259 A 
ATOM      5  C2  ZIN A   1      19.438  -0.818  14.379  0.00  0.00     0.245 A 
ATOM      6  O1  ZIN A   1      19.579  -1.511  15.364  0.00  0.00    -0.271 OA
ATOM      7  N17 ZIN A   1      19.586   0.518  14.296  0.00  0.00    -0.276 N 
ATOM      8  C15 ZIN A   1      19.357   0.964  13.056  0.00  0.00     0.345 A 
ATOM      9  H23 ZIN A   1      19.834   1.087  15.042  0.00  0.00     0.173 HD
ATOM     10  O16 ZIN A   1      19.432   2.133  12.733  0.00  0.00    -0.245 OA
ENDBRANCH   1   3
BRANCH   2  11
ATOM     11  C7  ZIN A   1      19.442   0.249   8.707  0.00  0.00     0.097 A 
ATOM     12  O14 ZIN A   1      19.339  -0.682   7.730  0.00  0.00    -0.287 OA
ATOM     13  C10 ZIN A   1      19.054  -0.080   6.571  0.00  0.00     0.215 A 
ATOM     14  C9  ZIN A   1      18.968   1.303   6.756  0.00  0.00     0.065 A 
ATOM     15  C8  ZIN A   1      19.202   1.561   8.074  0.00  0.00     0.043 A 
BRANCH  13  16
ATOM     16  N11 ZIN A   1      18.862  -0.780   5.273  0.00  0.00    -0.090 N 
ATOM     17  O12 ZIN A   1      19.906  -1.100   4.538  0.00  0.00    -0.530 OA
ATOM     18  O13 ZIN A   1      17.648  -1.079   4.860  0.00  0.00    -0.530 OA
ENDBRANCH  13  16
ENDBRANCH   2  11
TORSDOF 3
ENDMDL
MODEL 7
REMARK VINA RESULT:      -6.2      1.921      2.452
REMARK  3 active torsions:
REMARK  status: ('A' for Active; 'I' for Inactive)
REMARK    1  A    between atoms: N4_4  and  N5_5 
REMARK    2  A    between atoms: C6_6  and  C7_7 
REMARK    3  A    between atoms: C10_10  and  N11_11 
ROOT
ATOM      1  N5  ZIN A   1      19.465   1.961   9.566  0.00  0.00    -0.178 NA
ATOM      2  C6  ZIN A   1      18.557   1.132   9.037  0.00  0.00     0.176 C 
ENDROOT
BRANCH   1   3
ATOM      3  N4  ZIN A   1      19.303   2.419  10.761  0.00  0.00    -0.211 N 
ATOM      4  C3  ZIN A   1      18.615   3.664  11.141  0.00  0.00     0.259 A 
ATOM      5  C2  ZIN A   1      18.732   3.689  12.652  0.00  0.00     0.245 A 
ATOM      6  O1  ZIN A   1      18.306   4.539  13.405  0.00  0.00    -0.271 OA
ATOM      7  N17 ZIN A   1      19.411   2.574  12.983  0.00  0.00    -0.276 N 
ATOM      8  C15 ZIN A   1      19.730   1.851  11.903  0.00  0.00     0.345 A 
ATOM      9  H23 ZIN A   1      19.637   2.322  13.893  0.00  0.00     0.173 HD
ATOM     10  O16 ZIN A   1      20.341   0.802  11.949  0.00  0.00    -0.245 OA
ENDBRANCH   1   3
BRANCH   2  11
ATOM     11  C7  ZIN A   1      18.780   0.560   7.801  0.00  0.00     0.097 A 
ATOM     12  O14 ZIN A   1      19.132  -0.724   7.558  0.00  0.00    -0.287 OA
ATOM     13  C10 ZIN A   1      19.255  -0.909   6.240  0.00  0.00     0.215 A 
ATOM     14  C9  ZIN A   1      18.988   0.282   5.560  0.00  0.00     0.065 A 
ATOM     15  C8  ZIN A   1      18.686   1.232   6.490  0.00  0.00     0.043 A 
BRANCH  13  16
ATOM     16  N11 ZIN A   1      19.628  -2.195   5.593  0.00  0.00    -0.090 N 
ATOM     17  O12 ZIN A   1      20.077  -3.194   6.324  0.00  0.00    -0.530 OA
ATOM     18  O13 ZIN A   1      19.509  -2.335   4.289  0.00  0.00    -0.530 OA
ENDBRANCH  13  16
ENDBRANCH   2  11
TORSDOF 3
ENDMDL
MODEL 8
REMARK VINA RESULT:      -6.0      4.370      7.125
REMARK  3 active torsions:
REMARK  status: ('A' for Active; 'I' for Inactive)
REMARK    1  A    between atoms: N4_4  and  N5_5 
REMARK    2  A    between atoms: C6_6  and  C7_7 
REMARK    3  A    between atoms: C10_10  and  N11_11 
ROOT
ATOM      1  N5  ZIN A   1      18.335  -1.672  10.283  0.00  0.00    -0.178 NA
ATOM      2  C6  ZIN A   1      17.740  -0.645  10.903  0.00  0.00     0.176 C 
ENDROOT
BRANCH   1   3
ATOM      3  N4  ZIN A   1      18.033  -2.883  10.606  0.00  0.00    -0.211 N 
ATOM      4  C3  ZIN A   1      17.949  -3.436  11.969  0.00  0.00     0.259 A 
ATOM      5  C2  ZIN A   1      17.561  -4.884  11.743  0.00  0.00     0.245 A 
ATOM      6  O1  ZIN A   1      17.377  -5.733  12.589  0.00  0.00    -0.271 OA
ATOM      7  N17 ZIN A   1      17.467  -5.031  10.407  0.00  0.00    -0.276 N 
ATOM      8  C15 ZIN A   1      17.732  -3.888   9.764  0.00  0.00     0.345 A 
ATOM      9  H23 ZIN A   1      17.232  -5.862   9.965  0.00  0.00     0.173 HD
ATOM     10  O16 ZIN A   1      17.708  -3.772   8.556  0.00  0.00    -0.245 OA
ENDBRANCH   1   3
BRANCH   2  11
ATOM     11  C7  ZIN A   1      17.986   0.649  10.488  0.00  0.00     0.097 A 
ATOM     12  O14 ZIN A   1      17.322   1.761  10.880  0.00  0.00    -0.287 OA
ATOM     13  C10 ZIN A   1      17.843   2.829  10.268  0.00  0.00     0.215 A 
ATOM     14  C9  ZIN A   1      18.887   2.438   9.425  0.00  0.00     0.065 A 
ATOM     15  C8  ZIN A   1      19.018   1.085   9.526  0.00  0.00     0.043 A 
BRANCH  13  16
ATOM     16  N11 ZIN A   1      17.375   4.228  10.452  0.00  0.00    -0.090 N 
ATOM     17  O12 ZIN A   1      16.583   4.530  11.461  0.00  0.00    -0.530 OA
ATOM     18  O13 ZIN A   1      17.752   5.166   9.608  0.00  0.00    -0.530 OA
ENDBRANCH  13  16
ENDBRANCH   2  11
TORSDOF 3
ENDMDL
MODEL 9
REMARK VINA RESULT:      -6.0      3.257      7.860
REMARK  3 active torsions:
REMARK  status: ('A' for Active; 'I' for Inactive)
REMARK    1  A    between atoms: N4_4  and  N5_5 
REMARK    2  A    between atoms: C6_6  and  C7_7 
REMARK    3  A    between atoms: C10_10  and  N11_11 
ROOT
ATOM      1  N5  ZIN A   1      19.271  -2.186   7.948  0.00  0.00    -0.178 NA
ATOM      2  C6  ZIN A   1      18.252  -1.323   7.850  0.00  0.00     0.176 C 
ENDROOT
BRANCH   1   3
ATOM      3  N4  ZIN A   1      19.181  -3.354   7.409  0.00  0.00    -0.211 N 
ATOM      4  C3  ZIN A   1      18.874  -4.619   8.097  0.00  0.00     0.259 A 
ATOM      5  C2  ZIN A   1      18.902  -5.647   6.984  0.00  0.00     0.245 A 
ATOM      6  O1  ZIN A   1      18.703  -6.839   7.082  0.00  0.00    -0.271 OA
ATOM      7  N17 ZIN A   1      19.198  -4.961   5.862  0.00  0.00    -0.276 N 
ATOM      8  C15 ZIN A   1      19.352  -3.655   6.109  0.00  0.00     0.345 A 
ATOM      9  H23 ZIN A   1      19.284  -5.363   4.983  0.00  0.00     0.173 HD
ATOM     10  O16 ZIN A   1      19.619  -2.833   5.256  0.00  0.00    -0.245 OA
ENDBRANCH   1   3
BRANCH   2  11
ATOM     11  C7  ZIN A   1      18.386  -0.037   8.335  0.00  0.00     0.097 A 
ATOM     12  O14 ZIN A   1      17.775   0.481   9.426  0.00  0.00    -0.287 OA
ATOM     13  C10 ZIN A   1      18.150   1.753   9.583  0.00  0.00     0.215 A 
ATOM     14  C9  ZIN A   1      19.037   2.122   8.567  0.00  0.00     0.065 A 
ATOM     15  C8  ZIN A   1      19.217   1.039   7.760  0.00  0.00     0.043 A 
BRANCH  13  16
ATOM     16  N11 ZIN A   1      17.688   2.648  10.677  0.00  0.00    -0.090 N 
ATOM     17  O12 ZIN A   1      17.042   2.146  11.709  0.00  0.00    -0.530 OA
ATOM     18  O13 ZIN A   1      17.923   3.942  10.613  0.00  0.00    -0.530 OA
ENDBRANCH  13  16
ENDBRANCH   2  11
TORSDOF 3
ENDMDL
