MODEL 1
REMARK VINA RESULT:      -4.8      0.000      0.000
REMARK  1 active torsions:
REMARK  status: ('A' for Active; 'I' for Inactive)
REMARK    1  A    between atoms: N1_1  and  C2_2 
ROOT
ATOM      1  C2  <0> d   1      20.162   0.710  12.300  0.00  0.00     0.153 A 
ATOM      2  C3  <0> d   1      19.381   1.540  11.495  0.00  0.00     0.127 A 
ATOM      3  N4  <0> d   1      19.626   2.402  10.447  0.00  0.00    -0.345 N 
ATOM      4  C5  <0> d   1      18.437   2.928  10.075  0.00  0.00     0.210 A 
ATOM      5  N6  <0> d   1      17.482   2.448  10.823  0.00  0.00    -0.222 NA
ATOM      6  C7  <0> d   1      17.995   1.585  11.720  0.00  0.00     0.182 A 
ATOM      7  N8  <0> d   1      17.479   0.831  12.696  0.00  0.00    -0.220 NA
ATOM      8  C9  <0> d   1      18.255   0.064  13.429  0.00  0.00     0.237 A 
ATOM      9  N10 <0> d   1      19.560  -0.009  13.245  0.00  0.00    -0.222 NA
ATOM     10  H13 <0> d   1      20.489   2.596  10.050  0.00  0.00     0.167 HD
ENDROOT
BRANCH   1  11
ATOM     11  N1  <0> d   1      21.533   0.632  12.116  0.00  0.00    -0.382 N 
ATOM     12  H11 <0> d   1      22.081   0.140  12.749  0.00  0.00     0.157 HD
ATOM     13  H12 <0> d   1      21.946   1.064  11.352  0.00  0.00     0.157 HD
ENDBRANCH   1  11
TORSDOF 1
ENDMDL
MODEL 2
REMARK VINA RESULT:      -4.8      6.255      7.443
REMARK  1 active torsions:
REMARK  status: ('A' for Active; 'I' for Inactive)
REMARK    1  A    between atoms: N1_1  and  C2_2 
ROOT
ATOM      1  C2  <0> d   1      17.812  -0.554   6.476  0.00  0.00     0.153 A 
ATOM      2  C3  <0> d   1      18.372  -1.832   6.461  0.00  0.00     0.127 A 
ATOM      3  N4  <0> d   1      18.181  -2.993   7.180  0.00  0.00    -0.345 N 
ATOM      4  C5  <0> d   1      19.042  -3.913   6.689  0.00  0.00     0.210 A 
ATOM      5  N6  <0> d   1      19.745  -3.395   5.720  0.00  0.00    -0.222 NA
ATOM      6  C7  <0> d   1      19.382  -2.114   5.527  0.00  0.00     0.182 A 
ATOM      7  N8  <0> d   1      19.768  -1.147   4.688  0.00  0.00    -0.220 NA
ATOM      8  C9  <0> d   1      19.211   0.043   4.739  0.00  0.00     0.237 A 
ATOM      9  N10 <0> d   1      18.256   0.344   5.600  0.00  0.00    -0.222 NA
ATOM     10  H13 <0> d   1      17.549  -3.126   7.904  0.00  0.00     0.167 HD
ENDROOT
BRANCH   1  11
ATOM     11  N1  <0> d   1      16.813  -0.229   7.379  0.00  0.00    -0.382 N 
ATOM     12  H11 <0> d   1      16.035  -0.803   7.470  0.00  0.00     0.157 HD
ATOM     13  H12 <0> d   1      16.891   0.570   7.924  0.00  0.00     0.157 HD
ENDBRANCH   1  11
TORSDOF 1
ENDMDL
MODEL 3
REMARK VINA RESULT:      -4.7      3.272      4.393
REMARK  1 active torsions:
REMARK  status: ('A' for Active; 'I' for Inactive)
REMARK    1  A    between atoms: N1_1  and  C2_2 
ROOT
ATOM      1  C2  <0> d   1      20.208  -0.898  11.128  0.00  0.00     0.153 A 
ATOM      2  C3  <0> d   1      19.901  -2.253  11.265  0.00  0.00     0.127 A 
ATOM      3  N4  <0> d   1      20.629  -3.424  11.297  0.00  0.00    -0.345 N 
ATOM      4  C5  <0> d   1      19.748  -4.437  11.457  0.00  0.00     0.210 A 
ATOM      5  N6  <0> d   1      18.533  -3.968  11.526  0.00  0.00    -0.222 NA
ATOM      6  C7  <0> d   1      18.555  -2.627  11.415  0.00  0.00     0.182 A 
ATOM      7  N8  <0> d   1      17.621  -1.670  11.420  0.00  0.00    -0.220 NA
ATOM      8  C9  <0> d   1      17.958  -0.407  11.287  0.00  0.00     0.237 A 
ATOM      9  N10 <0> d   1      19.212  -0.016  11.149  0.00  0.00    -0.222 NA
ATOM     10  H13 <0> d   1      21.592  -3.506  11.218  0.00  0.00     0.167 HD
ENDROOT
BRANCH   1  11
ATOM     11  N1  <0> d   1      21.520  -0.481  10.978  0.00  0.00    -0.382 N 
ATOM     12  H11 <0> d   1      21.901   0.157  11.603  0.00  0.00     0.157 HD
ATOM     13  H12 <0> d   1      22.061  -0.831  10.253  0.00  0.00     0.157 HD
ENDBRANCH   1  11
TORSDOF 1
ENDMDL
MODEL 4
REMARK VINA RESULT:      -4.6      2.112      2.280
REMARK  1 active torsions:
REMARK  status: ('A' for Active; 'I' for Inactive)
REMARK    1  A    between atoms: N1_1  and  C2_2 
ROOT
ATOM      1  C2  <0> d   1      20.276   0.671  11.862  0.00  0.00     0.153 A 
ATOM      2  C3  <0> d   1      19.880   0.169  10.621  0.00  0.00     0.127 A 
ATOM      3  N4  <0> d   1      20.522  -0.423   9.554  0.00  0.00    -0.345 N 
ATOM      4  C5  <0> d   1      19.580  -0.696   8.623  0.00  0.00     0.210 A 
ATOM      5  N6  <0> d   1      18.408  -0.313   9.047  0.00  0.00    -0.222 NA
ATOM      6  C7  <0> d   1      18.520   0.229  10.273  0.00  0.00     0.182 A 
ATOM      7  N8  <0> d   1      17.659   0.766  11.144  0.00  0.00    -0.220 NA
ATOM      8  C9  <0> d   1      18.079   1.227  12.301  0.00  0.00     0.237 A 
ATOM      9  N10 <0> d   1      19.347   1.183  12.666  0.00  0.00    -0.222 NA
ATOM     10  H13 <0> d   1      21.471  -0.609   9.483  0.00  0.00     0.167 HD
ENDROOT
BRANCH   1  11
ATOM     11  N1  <0> d   1      21.606   0.633  12.249  0.00  0.00    -0.382 N 
ATOM     12  H11 <0> d   1      22.102  -0.200  12.199  0.00  0.00     0.157 HD
ATOM     13  H12 <0> d   1      22.043   1.439  12.565  0.00  0.00     0.157 HD
ENDBRANCH   1  11
TORSDOF 1
ENDMDL
MODEL 5
REMARK VINA RESULT:      -4.5      1.559      1.559
REMARK  1 active torsions:
REMARK  status: ('A' for Active; 'I' for Inactive)
REMARK    1  A    between atoms: N1_1  and  C2_2 
ROOT
ATOM      1  C2  <0> d   1      20.128  -0.523  11.112  0.00  0.00     0.153 A 
ATOM      2  C3  <0> d   1      19.362   0.611  10.837  0.00  0.00     0.127 A 
ATOM      3  N4  <0> d   1      19.627   1.885  10.384  0.00  0.00    -0.345 N 
ATOM      4  C5  <0> d   1      18.446   2.539  10.318  0.00  0.00     0.210 A 
ATOM      5  N6  <0> d   1      17.477   1.754  10.699  0.00  0.00    -0.222 NA
ATOM      6  C7  <0> d   1      17.972   0.547  11.032  0.00  0.00     0.182 A 
ATOM      7  N8  <0> d   1      17.438  -0.596  11.475  0.00  0.00    -0.220 NA
ATOM      8  C9  <0> d   1      18.200  -1.638  11.721  0.00  0.00     0.237 A 
ATOM      9  N10 <0> d   1      19.509  -1.619  11.545  0.00  0.00    -0.222 NA
ATOM     10  H13 <0> d   1      20.498   2.247  10.156  0.00  0.00     0.167 HD
ENDROOT
BRANCH   1  11
ATOM     11  N1  <0> d   1      21.502  -0.510  10.934  0.00  0.00    -0.382 N 
ATOM     12  H11 <0> d   1      22.076  -0.994  11.549  0.00  0.00     0.157 HD
ATOM     13  H12 <0> d   1      21.891  -0.021  10.192  0.00  0.00     0.157 HD
ENDBRANCH   1  11
TORSDOF 1
ENDMDL
MODEL 6
REMARK VINA RESULT:      -4.5      1.404      3.111
REMARK  1 active torsions:
REMARK  status: ('A' for Active; 'I' for Inactive)
REMARK    1  A    between atoms: N1_1  and  C2_2 
ROOT
ATOM      1  C2  <0> d   1      19.751   2.862  11.607  0.00  0.00     0.153 A 
ATOM      2  C3  <0> d   1      19.224   2.059  12.620  0.00  0.00     0.127 A 
ATOM      3  N4  <0> d   1      19.695   1.549  13.811  0.00  0.00    -0.345 N 
ATOM      4  C5  <0> d   1      18.693   0.828  14.361  0.00  0.00     0.210 A 
ATOM      5  N6  <0> d   1      17.642   0.861  13.590  0.00  0.00    -0.222 NA
ATOM      6  C7  <0> d   1      17.901   1.604  12.498  0.00  0.00     0.182 A 
ATOM      7  N8  <0> d   1      17.198   1.957  11.417  0.00  0.00    -0.220 NA
ATOM      8  C9  <0> d   1      17.737   2.716  10.488  0.00  0.00     0.237 A 
ATOM      9  N10 <0> d   1      18.975   3.167  10.570  0.00  0.00    -0.222 NA
ATOM     10  H13 <0> d   1      20.580   1.682  14.185  0.00  0.00     0.167 HD
ENDROOT
BRANCH   1  11
ATOM     11  N1  <0> d   1      21.051   3.335  11.683  0.00  0.00    -0.382 N 
ATOM     12  H11 <0> d   1      21.708   3.056  11.026  0.00  0.00     0.157 HD
ATOM     13  H12 <0> d   1      21.303   3.950  12.389  0.00  0.00     0.157 HD
ENDBRANCH   1  11
TORSDOF 1
ENDMDL
MODEL 7
REMARK VINA RESULT:      -4.5      2.415      2.901
REMARK  1 active torsions:
REMARK  status: ('A' for Active; 'I' for Inactive)
REMARK    1  A    between atoms: N1_1  and  C2_2 
ROOT
ATOM      1  C2  <0> d   1      20.242   0.129  12.456  0.00  0.00     0.153 A 
ATOM      2  C3  <0> d   1      19.491   0.666  13.504  0.00  0.00     0.127 A 
ATOM      3  N4  <0> d   1      19.688   1.655  14.444  0.00  0.00    -0.345 N 
ATOM      4  C5  <0> d   1      18.571   1.713  15.203  0.00  0.00     0.210 A 
ATOM      5  N6  <0> d   1      17.705   0.829  14.793  0.00  0.00    -0.222 NA
ATOM      6  C7  <0> d   1      18.208   0.149  13.746  0.00  0.00     0.182 A 
ATOM      7  N8  <0> d   1      17.756  -0.838  12.965  0.00  0.00    -0.220 NA
ATOM      8  C9  <0> d   1      18.500  -1.313  11.991  0.00  0.00     0.237 A 
ATOM      9  N10 <0> d   1      19.708  -0.849  11.728  0.00  0.00    -0.222 NA
ATOM     10  H13 <0> d   1      20.480   2.206  14.544  0.00  0.00     0.167 HD
ENDROOT
BRANCH   1  11
ATOM     11  N1  <0> d   1      21.512   0.607  12.178  0.00  0.00    -0.382 N 
ATOM     12  H11 <0> d   1      21.776   0.776  11.259  0.00  0.00     0.157 HD
ATOM     13  H12 <0> d   1      22.135   0.779  12.901  0.00  0.00     0.157 HD
ENDBRANCH   1  11
TORSDOF 1
ENDMDL
MODEL 8
REMARK VINA RESULT:      -4.4      2.267      3.169
REMARK  1 active torsions:
REMARK  status: ('A' for Active; 'I' for Inactive)
REMARK    1  A    between atoms: N1_1  and  C2_2 
ROOT
ATOM      1  C2  <0> d   1      20.156   0.300  12.145  0.00  0.00     0.153 A 
ATOM      2  C3  <0> d   1      19.742  -0.927  11.622  0.00  0.00     0.127 A 
ATOM      3  N4  <0> d   1      20.378  -2.037  11.109  0.00  0.00    -0.345 N 
ATOM      4  C5  <0> d   1      19.418  -2.921  10.758  0.00  0.00     0.210 A 
ATOM      5  N6  <0> d   1      18.239  -2.429  11.021  0.00  0.00    -0.222 NA
ATOM      6  C7  <0> d   1      18.366  -1.201  11.556  0.00  0.00     0.182 A 
ATOM      7  N8  <0> d   1      17.507  -0.277  11.997  0.00  0.00    -0.220 NA
ATOM      8  C9  <0> d   1      17.943   0.865  12.481  0.00  0.00     0.237 A 
ATOM      9  N10 <0> d   1      19.228   1.157  12.564  0.00  0.00    -0.222 NA
ATOM     10  H13 <0> d   1      21.336  -2.162  11.016  0.00  0.00     0.167 HD
ENDROOT
BRANCH   1  11
ATOM     11  N1  <0> d   1      21.502   0.615  12.231  0.00  0.00    -0.382 N 
ATOM     12  H11 <0> d   1      22.156   0.089  11.743  0.00  0.00     0.157 HD
ATOM     13  H12 <0> d   1      21.791   1.365  12.774  0.00  0.00     0.157 HD
ENDBRANCH   1  11
TORSDOF 1
ENDMDL
MODEL 9
REMARK VINA RESULT:      -4.4      3.368      3.428
REMARK  1 active torsions:
REMARK  status: ('A' for Active; 'I' for Inactive)
REMARK    1  A    between atoms: N1_1  and  C2_2 
ROOT
ATOM      1  C2  <0> d   1      20.199  -0.986  11.061  0.00  0.00     0.153 A 
ATOM      2  C3  <0> d   1      19.510  -1.347   9.903  0.00  0.00     0.127 A 
ATOM      3  N4  <0> d   1      19.811  -1.393   8.558  0.00  0.00    -0.345 N 
ATOM      4  C5  <0> d   1      18.707  -1.839   7.917  0.00  0.00     0.210 A 
ATOM      5  N6  <0> d   1      17.753  -2.070   8.775  0.00  0.00    -0.222 NA
ATOM      6  C7  <0> d   1      18.181  -1.788  10.020  0.00  0.00     0.182 A 
ATOM      7  N8  <0> d   1      17.629  -1.843  11.236  0.00  0.00    -0.220 NA
ATOM      8  C9  <0> d   1      18.317  -1.492  12.299  0.00  0.00     0.237 A 
ATOM      9  N10 <0> d   1      19.569  -1.078  12.230  0.00  0.00    -0.222 NA
ATOM     10  H13 <0> d   1      20.655  -1.149   8.148  0.00  0.00     0.167 HD
ENDROOT
BRANCH   1  11
ATOM     11  N1  <0> d   1      21.511  -0.546  10.997  0.00  0.00    -0.382 N 
ATOM     12  H11 <0> d   1      21.855  -0.162  10.173  0.00  0.00     0.157 HD
ATOM     13  H12 <0> d   1      22.086  -0.616  11.775  0.00  0.00     0.157 HD
ENDBRANCH   1  11
TORSDOF 1
ENDMDL
