MODEL 1
REMARK VINA RESULT:      -8.6      0.000      0.000
REMARK  8 active torsions:
REMARK  status: ('A' for Active; 'I' for Inactive)
REMARK    1  A    between atoms: O1_1  and  C2_2 
REMARK    2  A    between atoms: C2_2  and  C3_3 
REMARK    3  A    between atoms: C3_3  and  N4_4 
REMARK    4  A    between atoms: N7_7  and  C8_8 
REMARK    5  A    between atoms: C8_8  and  C9_9 
REMARK    6  A    between atoms: C9_9  and  C10_10 
REMARK    7  A    between atoms: C10_10  and  N11_11 
REMARK    8  A    between atoms: C22_22  and  C23_23 
ROOT
ATOM      1  N11 ZIN A   1      18.463  -1.694   8.436  0.00  0.00    -0.345 N 
ATOM      2  C12 ZIN A   1      18.569  -1.177   7.147  0.00  0.00     0.052 A 
ATOM      3  C13 ZIN A   1      18.093   0.106   6.900  0.00  0.00     0.031 A 
ATOM      4  C14 ZIN A   1      18.186   0.653   5.634  0.00  0.00     0.002 A 
ATOM      5  C15 ZIN A   1      18.754  -0.072   4.603  0.00  0.00     0.002 A 
ATOM      6  C16 ZIN A   1      19.228  -1.350   4.839  0.00  0.00     0.021 A 
ATOM      7  C17 ZIN A   1      19.138  -1.907   6.107  0.00  0.00     0.032 A 
ATOM      8  S18 ZIN A   1      19.744  -3.537   6.379  0.00  0.00    -0.086 SA
ATOM      9  C19 ZIN A   1      18.984  -4.009   7.895  0.00  0.00     0.032 A 
ATOM     10  C20 ZIN A   1      18.938  -5.353   8.243  0.00  0.00     0.022 A 
ATOM     11  C21 ZIN A   1      18.344  -5.744   9.429  0.00  0.00     0.017 A 
ATOM     12  C22 ZIN A   1      17.793  -4.796  10.270  0.00  0.00     0.050 A 
ATOM     13  C27 ZIN A   1      17.836  -3.457   9.930  0.00  0.00     0.047 A 
ATOM     14  C28 ZIN A   1      18.436  -3.053   8.742  0.00  0.00     0.053 A 
ENDROOT
BRANCH   1  15
ATOM     15  C10 ZIN A   1      18.380  -0.744   9.548  0.00  0.00     0.131 C 
BRANCH  15  16
ATOM     16  C9  ZIN A   1      19.785  -0.257   9.908  0.00  0.00     0.050 C 
BRANCH  16  17
ATOM     17  C8  ZIN A   1      20.295  -1.026  11.128  0.00  0.00     0.274 C 
BRANCH  17  18
ATOM     18  N7  ZIN A   1      19.575  -0.577  12.326  0.00  0.00     0.091 N 
ATOM     19  C6  ZIN A   1      20.306   0.499  13.010  0.00  0.00     0.302 C 
ATOM     20  C5  ZIN A   1      19.487   0.990  14.204  0.00  0.00     0.302 C 
ATOM     21  N4  ZIN A   1      19.233  -0.132  15.118  0.00  0.00     0.093 N 
ATOM     22  C30 ZIN A   1      18.500  -1.207  14.434  0.00  0.00     0.302 C 
ATOM     23  C29 ZIN A   1      19.320  -1.700  13.240  0.00  0.00     0.302 C 
BRANCH  21  24
ATOM     24  C3  ZIN A   1      18.512   0.317  16.317  0.00  0.00     0.298 C 
BRANCH  24  25
ATOM     25  C2  ZIN A   1      18.949  -0.524  17.519  0.00  0.00     0.194 C 
BRANCH  25  26
ATOM     26  O1  ZIN A   1      19.878   0.221  18.308  0.00  0.00    -0.399 OA
ATOM     27  H31 ZIN A   1      19.541   0.475  19.178  0.00  0.00     0.209 HD
ENDBRANCH  25  26
ENDBRANCH  24  25
ENDBRANCH  21  24
ENDBRANCH  17  18
ENDBRANCH  16  17
ENDBRANCH  15  16
ENDBRANCH   1  15
BRANCH  12  28
ATOM     28  C23 ZIN A   1      17.145  -5.224  11.561  0.00  0.00     0.417 C 
ATOM     29  F24 ZIN A   1      15.787  -4.889  11.535  0.00  0.00    -0.166 F 
ATOM     30  F25 ZIN A   1      17.280  -6.608  11.716  0.00  0.00    -0.166 F 
ATOM     31  F26 ZIN A   1      17.765  -4.572  12.632  0.00  0.00    -0.166 F 
ENDBRANCH  12  28
TORSDOF 8
ENDMDL
MODEL 2
REMARK VINA RESULT:      -8.5      4.979      6.768
REMARK  8 active torsions:
REMARK  status: ('A' for Active; 'I' for Inactive)
REMARK    1  A    between atoms: O1_1  and  C2_2 
REMARK    2  A    between atoms: C2_2  and  C3_3 
REMARK    3  A    between atoms: C3_3  and  N4_4 
REMARK    4  A    between atoms: N7_7  and  C8_8 
REMARK    5  A    between atoms: C8_8  and  C9_9 
REMARK    6  A    between atoms: C9_9  and  C10_10 
REMARK    7  A    between atoms: C10_10  and  N11_11 
REMARK    8  A    between atoms: C22_22  and  C23_23 
ROOT
ATOM      1  N11 ZIN A   1      18.204   2.461  13.451  0.00  0.00    -0.345 N 
ATOM      2  C12 ZIN A   1      18.300   2.777  12.098  0.00  0.00     0.052 A 
ATOM      3  C13 ZIN A   1      17.598   3.878  11.617  0.00  0.00     0.031 A 
ATOM      4  C14 ZIN A   1      17.673   4.224  10.281  0.00  0.00     0.002 A 
ATOM      5  C15 ZIN A   1      18.446   3.478   9.412  0.00  0.00     0.002 A 
ATOM      6  C16 ZIN A   1      19.145   2.381   9.880  0.00  0.00     0.021 A 
ATOM      7  C17 ZIN A   1      19.075   2.026  11.220  0.00  0.00     0.032 A 
ATOM      8  S18 ZIN A   1      19.970   0.621  11.788  0.00  0.00    -0.086 SA
ATOM      9  C19 ZIN A   1      19.211   0.248  13.332  0.00  0.00     0.032 A 
ATOM     10  C20 ZIN A   1      19.407  -1.003  13.902  0.00  0.00     0.022 A 
ATOM     11  C21 ZIN A   1      18.817  -1.315  15.113  0.00  0.00     0.017 A 
ATOM     12  C22 ZIN A   1      18.030  -0.381  15.759  0.00  0.00     0.050 A 
ATOM     13  C27 ZIN A   1      17.831   0.867  15.198  0.00  0.00     0.047 A 
ATOM     14  C28 ZIN A   1      18.425   1.192  13.982  0.00  0.00     0.053 A 
ENDROOT
BRANCH   1  15
ATOM     15  C10 ZIN A   1      17.855   3.538  14.381  0.00  0.00     0.131 C 
BRANCH  15  16
ATOM     16  C9  ZIN A   1      19.101   4.370  14.688  0.00  0.00     0.050 C 
BRANCH  16  17
ATOM     17  C8  ZIN A   1      19.589   4.054  16.103  0.00  0.00     0.274 C 
BRANCH  17  18
ATOM     18  N7  ZIN A   1      18.437   3.952  17.008  0.00  0.00     0.091 N 
ATOM     19  C6  ZIN A   1      18.070   5.270  17.546  0.00  0.00     0.302 C 
ATOM     20  C5  ZIN A   1      16.821   5.132  18.418  0.00  0.00     0.302 C 
ATOM     21  N4  ZIN A   1      17.086   4.179  19.504  0.00  0.00     0.093 N 
ATOM     22  C30 ZIN A   1      17.452   2.861  18.966  0.00  0.00     0.302 C 
ATOM     23  C29 ZIN A   1      18.702   2.998  18.094  0.00  0.00     0.302 C 
BRANCH  21  24
ATOM     24  C3  ZIN A   1      15.934   4.076  20.409  0.00  0.00     0.298 C 
BRANCH  24  25
ATOM     25  C2  ZIN A   1      15.142   5.385  20.376  0.00  0.00     0.194 C 
BRANCH  25  26
ATOM     26  O1  ZIN A   1      13.745   5.096  20.292  0.00  0.00    -0.399 OA
ATOM     27  H31 ZIN A   1      13.536   4.152  20.328  0.00  0.00     0.209 HD
ENDBRANCH  25  26
ENDBRANCH  24  25
ENDBRANCH  21  24
ENDBRANCH  17  18
ENDBRANCH  16  17
ENDBRANCH  15  16
ENDBRANCH   1  15
BRANCH  12  28
ATOM     28  C23 ZIN A   1      17.387  -0.723  17.078  0.00  0.00     0.417 C 
ATOM     29  F24 ZIN A   1      16.311   0.140  17.310  0.00  0.00    -0.166 F 
ATOM     30  F25 ZIN A   1      16.927  -2.043  17.045  0.00  0.00    -0.166 F 
ATOM     31  F26 ZIN A   1      18.327  -0.582  18.104  0.00  0.00    -0.166 F 
ENDBRANCH  12  28
TORSDOF 8
ENDMDL
MODEL 3
REMARK VINA RESULT:      -8.5      4.949      9.236
REMARK  8 active torsions:
REMARK  status: ('A' for Active; 'I' for Inactive)
REMARK    1  A    between atoms: O1_1  and  C2_2 
REMARK    2  A    between atoms: C2_2  and  C3_3 
REMARK    3  A    between atoms: C3_3  and  N4_4 
REMARK    4  A    between atoms: N7_7  and  C8_8 
REMARK    5  A    between atoms: C8_8  and  C9_9 
REMARK    6  A    between atoms: C9_9  and  C10_10 
REMARK    7  A    between atoms: C10_10  and  N11_11 
REMARK    8  A    between atoms: C22_22  and  C23_23 
ROOT
ATOM      1  N11 ZIN A   1      18.270   1.190  14.243  0.00  0.00    -0.345 N 
ATOM      2  C12 ZIN A   1      18.292   0.796  15.578  0.00  0.00     0.052 A 
ATOM      3  C13 ZIN A   1      17.743  -0.436  15.920  0.00  0.00     0.031 A 
ATOM      4  C14 ZIN A   1      17.751  -0.862  17.236  0.00  0.00     0.002 A 
ATOM      5  C15 ZIN A   1      18.304  -0.066  18.221  0.00  0.00     0.002 A 
ATOM      6  C16 ZIN A   1      18.850   1.160  17.891  0.00  0.00     0.021 A 
ATOM      7  C17 ZIN A   1      18.846   1.596  16.573  0.00  0.00     0.032 A 
ATOM      8  S18 ZIN A   1      19.542   3.165  16.180  0.00  0.00    -0.086 SA
ATOM      9  C19 ZIN A   1      18.877   3.522  14.590  0.00  0.00     0.032 A 
ATOM     10  C20 ZIN A   1      18.913   4.826  14.115  0.00  0.00     0.022 A 
ATOM     11  C21 ZIN A   1      18.393   5.127  12.869  0.00  0.00     0.017 A 
ATOM     12  C22 ZIN A   1      17.836   4.128  12.094  0.00  0.00     0.050 A 
ATOM     13  C27 ZIN A   1      17.799   2.827  12.560  0.00  0.00     0.047 A 
ATOM     14  C28 ZIN A   1      18.323   2.514  13.810  0.00  0.00     0.053 A 
ENDROOT
BRANCH   1  15
ATOM     15  C10 ZIN A   1      18.193   0.142  13.222  0.00  0.00     0.131 C 
BRANCH  15  16
ATOM     16  C9  ZIN A   1      19.603  -0.206  12.743  0.00  0.00     0.050 C 
BRANCH  16  17
ATOM     17  C8  ZIN A   1      19.524  -1.300  11.676  0.00  0.00     0.274 C 
BRANCH  17  18
ATOM     18  N7  ZIN A   1      19.033  -0.722  10.418  0.00  0.00     0.091 N 
ATOM     19  C6  ZIN A   1      18.840  -1.764   9.399  0.00  0.00     0.302 C 
ATOM     20  C5  ZIN A   1      18.256  -1.135   8.134  0.00  0.00     0.302 C 
ATOM     21  N4  ZIN A   1      19.163  -0.087   7.645  0.00  0.00     0.093 N 
ATOM     22  C30 ZIN A   1      19.354   0.955   8.664  0.00  0.00     0.302 C 
ATOM     23  C29 ZIN A   1      19.940   0.326   9.930  0.00  0.00     0.302 C 
BRANCH  21  24
ATOM     24  C3  ZIN A   1      18.672   0.491   6.387  0.00  0.00     0.298 C 
BRANCH  24  25
ATOM     25  C2  ZIN A   1      18.767  -0.556   5.274  0.00  0.00     0.194 C 
BRANCH  25  26
ATOM     26  O1  ZIN A   1      20.062  -0.496   4.673  0.00  0.00    -0.399 OA
ATOM     27  H31 ZIN A   1      20.120  -0.942   3.817  0.00  0.00     0.209 HD
ENDBRANCH  25  26
ENDBRANCH  24  25
ENDBRANCH  21  24
ENDBRANCH  17  18
ENDBRANCH  16  17
ENDBRANCH  15  16
ENDBRANCH   1  15
BRANCH  12  28
ATOM     28  C23 ZIN A   1      17.271   4.458  10.737  0.00  0.00     0.417 C 
ATOM     29  F24 ZIN A   1      17.987   5.522  10.179  0.00  0.00    -0.166 F 
ATOM     30  F25 ZIN A   1      17.375   3.339   9.904  0.00  0.00    -0.166 F 
ATOM     31  F26 ZIN A   1      15.926   4.819  10.868  0.00  0.00    -0.166 F 
ENDBRANCH  12  28
TORSDOF 8
ENDMDL
MODEL 4
REMARK VINA RESULT:      -8.3      3.009      4.825
REMARK  8 active torsions:
REMARK  status: ('A' for Active; 'I' for Inactive)
REMARK    1  A    between atoms: O1_1  and  C2_2 
REMARK    2  A    between atoms: C2_2  and  C3_3 
REMARK    3  A    between atoms: C3_3  and  N4_4 
REMARK    4  A    between atoms: N7_7  and  C8_8 
REMARK    5  A    between atoms: C8_8  and  C9_9 
REMARK    6  A    between atoms: C9_9  and  C10_10 
REMARK    7  A    between atoms: C10_10  and  N11_11 
REMARK    8  A    between atoms: C22_22  and  C23_23 
ROOT
ATOM      1  N11 ZIN A   1      18.618  -1.969   9.188  0.00  0.00    -0.345 N 
ATOM      2  C12 ZIN A   1      19.115  -3.107   8.558  0.00  0.00     0.052 A 
ATOM      3  C13 ZIN A   1      19.427  -4.218   9.334  0.00  0.00     0.031 A 
ATOM      4  C14 ZIN A   1      19.918  -5.367   8.742  0.00  0.00     0.002 A 
ATOM      5  C15 ZIN A   1      20.102  -5.420   7.373  0.00  0.00     0.002 A 
ATOM      6  C16 ZIN A   1      19.796  -4.319   6.594  0.00  0.00     0.021 A 
ATOM      7  C17 ZIN A   1      19.304  -3.162   7.180  0.00  0.00     0.032 A 
ATOM      8  S18 ZIN A   1      18.928  -1.773   6.166  0.00  0.00    -0.086 SA
ATOM      9  C19 ZIN A   1      18.853  -0.438   7.310  0.00  0.00     0.032 A 
ATOM     10  C20 ZIN A   1      18.935   0.866   6.841  0.00  0.00     0.022 A 
ATOM     11  C21 ZIN A   1      18.880   1.929   7.724  0.00  0.00     0.017 A 
ATOM     12  C22 ZIN A   1      18.743   1.693   9.079  0.00  0.00     0.050 A 
ATOM     13  C27 ZIN A   1      18.660   0.397   9.554  0.00  0.00     0.047 A 
ATOM     14  C28 ZIN A   1      18.709  -0.678   8.671  0.00  0.00     0.053 A 
ENDROOT
BRANCH   1  15
ATOM     15  C10 ZIN A   1      17.949  -2.140  10.479  0.00  0.00     0.131 C 
BRANCH  15  16
ATOM     16  C9  ZIN A   1      18.959  -1.929  11.609  0.00  0.00     0.050 C 
BRANCH  16  17
ATOM     17  C8  ZIN A   1      18.266  -2.129  12.958  0.00  0.00     0.274 C 
BRANCH  17  18
ATOM     18  N7  ZIN A   1      18.787  -1.155  13.926  0.00  0.00     0.091 N 
ATOM     19  C6  ZIN A   1      18.163  -1.337  15.245  0.00  0.00     0.302 C 
ATOM     20  C5  ZIN A   1      18.788  -0.359  16.241  0.00  0.00     0.302 C 
ATOM     21  N4  ZIN A   1      18.600   1.017  15.758  0.00  0.00     0.093 N 
ATOM     22  C30 ZIN A   1      19.225   1.198  14.440  0.00  0.00     0.302 C 
ATOM     23  C29 ZIN A   1      18.599   0.220  13.443  0.00  0.00     0.302 C 
BRANCH  21  24
ATOM     24  C3  ZIN A   1      19.121   1.991  16.726  0.00  0.00     0.298 C 
BRANCH  24  25
ATOM     25  C2  ZIN A   1      19.270   1.320  18.094  0.00  0.00     0.194 C 
BRANCH  25  26
ATOM     26  O1  ZIN A   1      19.604   2.305  19.074  0.00  0.00    -0.399 OA
ATOM     27  H31 ZIN A   1      19.475   2.012  19.986  0.00  0.00     0.209 HD
ENDBRANCH  25  26
ENDBRANCH  24  25
ENDBRANCH  21  24
ENDBRANCH  17  18
ENDBRANCH  16  17
ENDBRANCH  15  16
ENDBRANCH   1  15
BRANCH  12  28
ATOM     28  C23 ZIN A   1      18.683   2.852  10.041  0.00  0.00     0.417 C 
ATOM     29  F24 ZIN A   1      18.327   4.014   9.349  0.00  0.00    -0.166 F 
ATOM     30  F25 ZIN A   1      17.730   2.588  11.030  0.00  0.00    -0.166 F 
ATOM     31  F26 ZIN A   1      19.937   3.029  10.636  0.00  0.00    -0.166 F 
ENDBRANCH  12  28
TORSDOF 8
ENDMDL
MODEL 5
REMARK VINA RESULT:      -8.3      4.830      9.231
REMARK  8 active torsions:
REMARK  status: ('A' for Active; 'I' for Inactive)
REMARK    1  A    between atoms: O1_1  and  C2_2 
REMARK    2  A    between atoms: C2_2  and  C3_3 
REMARK    3  A    between atoms: C3_3  and  N4_4 
REMARK    4  A    between atoms: N7_7  and  C8_8 
REMARK    5  A    between atoms: C8_8  and  C9_9 
REMARK    6  A    between atoms: C9_9  and  C10_10 
REMARK    7  A    between atoms: C10_10  and  N11_11 
REMARK    8  A    between atoms: C22_22  and  C23_23 
ROOT
ATOM      1  N11 ZIN A   1      18.242   1.395  14.518  0.00  0.00    -0.345 N 
ATOM      2  C12 ZIN A   1      18.283   1.096  15.877  0.00  0.00     0.052 A 
ATOM      3  C13 ZIN A   1      17.702  -0.089  16.318  0.00  0.00     0.031 A 
ATOM      4  C14 ZIN A   1      17.729  -0.421  17.660  0.00  0.00     0.002 A 
ATOM      5  C15 ZIN A   1      18.332   0.422  18.574  0.00  0.00     0.002 A 
ATOM      6  C16 ZIN A   1      18.911   1.603  18.144  0.00  0.00     0.021 A 
ATOM      7  C17 ZIN A   1      18.889   1.944  16.799  0.00  0.00     0.032 A 
ATOM      8  S18 ZIN A   1      19.626   3.456  16.280  0.00  0.00    -0.086 SA
ATOM      9  C19 ZIN A   1      18.935   3.723  14.684  0.00  0.00     0.032 A 
ATOM     10  C20 ZIN A   1      19.002   4.988  14.116  0.00  0.00     0.022 A 
ATOM     11  C21 ZIN A   1      18.462   5.219  12.864  0.00  0.00     0.017 A 
ATOM     12  C22 ZIN A   1      17.853   4.188  12.175  0.00  0.00     0.050 A 
ATOM     13  C27 ZIN A   1      17.783   2.925  12.733  0.00  0.00     0.047 A 
ATOM     14  C28 ZIN A   1      18.328   2.682  13.991  0.00  0.00     0.053 A 
ENDROOT
BRANCH   1  15
ATOM     15  C10 ZIN A   1      18.104   0.281  13.576  0.00  0.00     0.131 C 
BRANCH  15  16
ATOM     16  C9  ZIN A   1      19.485  -0.308  13.280  0.00  0.00     0.050 C 
BRANCH  16  17
ATOM     17  C8  ZIN A   1      19.323  -1.676  12.614  0.00  0.00     0.274 C 
BRANCH  17  18
ATOM     18  N7  ZIN A   1      18.992  -1.493  11.195  0.00  0.00     0.091 N 
ATOM     19  C6  ZIN A   1      18.599  -2.768  10.576  0.00  0.00     0.302 C 
ATOM     20  C5  ZIN A   1      18.188  -2.521   9.124  0.00  0.00     0.302 C 
ATOM     21  N4  ZIN A   1      19.308  -1.910   8.396  0.00  0.00     0.093 N 
ATOM     22  C30 ZIN A   1      19.700  -0.635   9.014  0.00  0.00     0.302 C 
ATOM     23  C29 ZIN A   1      20.113  -0.881  10.467  0.00  0.00     0.302 C 
BRANCH  21  24
ATOM     24  C3  ZIN A   1      18.977  -1.728   6.976  0.00  0.00     0.298 C 
BRANCH  24  25
ATOM     25  C2  ZIN A   1      19.279  -3.019   6.212  0.00  0.00     0.194 C 
BRANCH  25  26
ATOM     26  O1  ZIN A   1      20.496  -3.587   6.699  0.00  0.00    -0.399 OA
ATOM     27  H31 ZIN A   1      21.276  -3.352   6.178  0.00  0.00     0.209 HD
ENDBRANCH  25  26
ENDBRANCH  24  25
ENDBRANCH  21  24
ENDBRANCH  17  18
ENDBRANCH  16  17
ENDBRANCH  15  16
ENDBRANCH   1  15
BRANCH  12  28
ATOM     28  C23 ZIN A   1      17.265   4.440  10.811  0.00  0.00     0.417 C 
ATOM     29  F24 ZIN A   1      17.394   3.288  10.027  0.00  0.00    -0.166 F 
ATOM     30  F25 ZIN A   1      15.911   4.767  10.939  0.00  0.00    -0.166 F 
ATOM     31  F26 ZIN A   1      17.944   5.499  10.199  0.00  0.00    -0.166 F 
ENDBRANCH  12  28
TORSDOF 8
ENDMDL
MODEL 6
REMARK VINA RESULT:      -8.2      2.395      3.824
REMARK  8 active torsions:
REMARK  status: ('A' for Active; 'I' for Inactive)
REMARK    1  A    between atoms: O1_1  and  C2_2 
REMARK    2  A    between atoms: C2_2  and  C3_3 
REMARK    3  A    between atoms: C3_3  and  N4_4 
REMARK    4  A    between atoms: N7_7  and  C8_8 
REMARK    5  A    between atoms: C8_8  and  C9_9 
REMARK    6  A    between atoms: C9_9  and  C10_10 
REMARK    7  A    between atoms: C10_10  and  N11_11 
REMARK    8  A    between atoms: C22_22  and  C23_23 
ROOT
ATOM      1  N11 ZIN A   1      18.037  -0.622  11.371  0.00  0.00    -0.345 N 
ATOM      2  C12 ZIN A   1      18.155   0.676  10.880  0.00  0.00     0.052 A 
ATOM      3  C13 ZIN A   1      17.533   1.711  11.572  0.00  0.00     0.031 A 
ATOM      4  C14 ZIN A   1      17.631   3.013  11.116  0.00  0.00     0.002 A 
ATOM      5  C15 ZIN A   1      18.349   3.296   9.969  0.00  0.00     0.002 A 
ATOM      6  C16 ZIN A   1      18.969   2.273   9.274  0.00  0.00     0.021 A 
ATOM      7  C17 ZIN A   1      18.874   0.964   9.725  0.00  0.00     0.032 A 
ATOM      8  S18 ZIN A   1      19.668  -0.320   8.818  0.00  0.00    -0.086 SA
ATOM      9  C19 ZIN A   1      18.885  -1.782   9.406  0.00  0.00     0.032 A 
ATOM     10  C20 ZIN A   1      18.991  -2.955   8.671  0.00  0.00     0.022 A 
ATOM     11  C21 ZIN A   1      18.381  -4.113   9.115  0.00  0.00     0.017 A 
ATOM     12  C22 ZIN A   1      17.663  -4.106  10.295  0.00  0.00     0.050 A 
ATOM     13  C27 ZIN A   1      17.553  -2.942  11.034  0.00  0.00     0.047 A 
ATOM     14  C28 ZIN A   1      18.168  -1.773  10.597  0.00  0.00     0.053 A 
ENDROOT
BRANCH   1  15
ATOM     15  C10 ZIN A   1      17.765  -0.789  12.801  0.00  0.00     0.131 C 
BRANCH  15  16
ATOM     16  C9  ZIN A   1      19.084  -0.757  13.577  0.00  0.00     0.050 C 
BRANCH  16  17
ATOM     17  C8  ZIN A   1      18.831  -1.167  15.029  0.00  0.00     0.274 C 
BRANCH  17  18
ATOM     18  N7  ZIN A   1      19.087  -0.023  15.913  0.00  0.00     0.091 N 
ATOM     19  C6  ZIN A   1      18.922  -0.399  17.325  0.00  0.00     0.302 C 
ATOM     20  C5  ZIN A   1      19.273   0.796  18.213  0.00  0.00     0.302 C 
ATOM     21  N4  ZIN A   1      18.406   1.932  17.869  0.00  0.00     0.093 N 
ATOM     22  C30 ZIN A   1      18.573   2.308  16.458  0.00  0.00     0.302 C 
ATOM     23  C29 ZIN A   1      18.220   1.113  15.569  0.00  0.00     0.302 C 
BRANCH  21  24
ATOM     24  C3  ZIN A   1      18.662   3.076  18.753  0.00  0.00     0.298 C 
BRANCH  24  25
ATOM     25  C2  ZIN A   1      17.488   4.055  18.674  0.00  0.00     0.194 C 
BRANCH  25  26
ATOM     26  O1  ZIN A   1      16.280   3.380  19.031  0.00  0.00    -0.399 OA
ATOM     27  H31 ZIN A   1      16.303   2.968  19.905  0.00  0.00     0.209 HD
ENDBRANCH  25  26
ENDBRANCH  24  25
ENDBRANCH  21  24
ENDBRANCH  17  18
ENDBRANCH  16  17
ENDBRANCH  15  16
ENDBRANCH   1  15
BRANCH  12  28
ATOM     28  C23 ZIN A   1      16.998  -5.369  10.779  0.00  0.00     0.417 C 
ATOM     29  F24 ZIN A   1      17.045  -5.414  12.176  0.00  0.00    -0.166 F 
ATOM     30  F25 ZIN A   1      15.665  -5.386  10.356  0.00  0.00    -0.166 F 
ATOM     31  F26 ZIN A   1      17.669  -6.478  10.253  0.00  0.00    -0.166 F 
ENDBRANCH  12  28
TORSDOF 8
ENDMDL
MODEL 7
REMARK VINA RESULT:      -8.0      4.052      7.419
REMARK  8 active torsions:
REMARK  status: ('A' for Active; 'I' for Inactive)
REMARK    1  A    between atoms: O1_1  and  C2_2 
REMARK    2  A    between atoms: C2_2  and  C3_3 
REMARK    3  A    between atoms: C3_3  and  N4_4 
REMARK    4  A    between atoms: N7_7  and  C8_8 
REMARK    5  A    between atoms: C8_8  and  C9_9 
REMARK    6  A    between atoms: C9_9  and  C10_10 
REMARK    7  A    between atoms: C10_10  and  N11_11 
REMARK    8  A    between atoms: C22_22  and  C23_23 
ROOT
ATOM      1  N11 ZIN A   1      18.848  -0.122  12.376  0.00  0.00    -0.345 N 
ATOM      2  C12 ZIN A   1      19.056   0.581  11.192  0.00  0.00     0.052 A 
ATOM      3  C13 ZIN A   1      19.717  -0.053  10.145  0.00  0.00     0.031 A 
ATOM      4  C14 ZIN A   1      19.936   0.614   8.954  0.00  0.00     0.002 A 
ATOM      5  C15 ZIN A   1      19.500   1.915   8.794  0.00  0.00     0.002 A 
ATOM      6  C16 ZIN A   1      18.843   2.554   9.830  0.00  0.00     0.021 A 
ATOM      7  C17 ZIN A   1      18.619   1.893  11.030  0.00  0.00     0.032 A 
ATOM      8  S18 ZIN A   1      17.787   2.731  12.334  0.00  0.00    -0.086 SA
ATOM      9  C19 ZIN A   1      18.177   1.768  13.755  0.00  0.00     0.032 A 
ATOM     10  C20 ZIN A   1      17.997   2.315  15.019  0.00  0.00     0.022 A 
ATOM     11  C21 ZIN A   1      18.300   1.575  16.147  0.00  0.00     0.017 A 
ATOM     12  C22 ZIN A   1      18.784   0.287  16.018  0.00  0.00     0.050 A 
ATOM     13  C27 ZIN A   1      18.964  -0.265  14.764  0.00  0.00     0.047 A 
ATOM     14  C28 ZIN A   1      18.657   0.470  13.622  0.00  0.00     0.053 A 
ENDROOT
BRANCH   1  15
ATOM     15  C10 ZIN A   1      18.823  -1.585  12.306  0.00  0.00     0.131 C 
BRANCH  15  16
ATOM     16  C9  ZIN A   1      17.415  -2.053  11.932  0.00  0.00     0.050 C 
BRANCH  16  17
ATOM     17  C8  ZIN A   1      17.487  -3.459  11.333  0.00  0.00     0.274 C 
BRANCH  17  18
ATOM     18  N7  ZIN A   1      18.304  -3.431  10.113  0.00  0.00     0.091 N 
ATOM     19  C6  ZIN A   1      17.637  -2.666   9.049  0.00  0.00     0.302 C 
ATOM     20  C5  ZIN A   1      18.552  -2.594   7.826  0.00  0.00     0.302 C 
ATOM     21  N4  ZIN A   1      18.869  -3.956   7.372  0.00  0.00     0.093 N 
ATOM     22  C30 ZIN A   1      19.537  -4.719   8.436  0.00  0.00     0.302 C 
ATOM     23  C29 ZIN A   1      18.621  -4.792   9.660  0.00  0.00     0.302 C 
BRANCH  21  24
ATOM     24  C3  ZIN A   1      19.686  -3.928   6.152  0.00  0.00     0.298 C 
BRANCH  24  25
ATOM     25  C2  ZIN A   1      18.887  -3.282   5.018  0.00  0.00     0.194 C 
BRANCH  25  26
ATOM     26  O1  ZIN A   1      19.626  -2.186   4.477  0.00  0.00    -0.399 OA
ATOM     27  H31 ZIN A   1      20.525  -2.107   4.825  0.00  0.00     0.209 HD
ENDBRANCH  25  26
ENDBRANCH  24  25
ENDBRANCH  21  24
ENDBRANCH  17  18
ENDBRANCH  16  17
ENDBRANCH  15  16
ENDBRANCH   1  15
BRANCH  12  28
ATOM     28  C23 ZIN A   1      19.113  -0.518  17.248  0.00  0.00     0.417 C 
ATOM     29  F24 ZIN A   1      17.940  -0.774  17.966  0.00  0.00    -0.166 F 
ATOM     30  F25 ZIN A   1      19.702  -1.729  16.870  0.00  0.00    -0.166 F 
ATOM     31  F26 ZIN A   1      20.003   0.202  18.052  0.00  0.00    -0.166 F 
ENDBRANCH  12  28
TORSDOF 8
ENDMDL
MODEL 8
REMARK VINA RESULT:      -8.0      4.289      7.755
REMARK  8 active torsions:
REMARK  status: ('A' for Active; 'I' for Inactive)
REMARK    1  A    between atoms: O1_1  and  C2_2 
REMARK    2  A    between atoms: C2_2  and  C3_3 
REMARK    3  A    between atoms: C3_3  and  N4_4 
REMARK    4  A    between atoms: N7_7  and  C8_8 
REMARK    5  A    between atoms: C8_8  and  C9_9 
REMARK    6  A    between atoms: C9_9  and  C10_10 
REMARK    7  A    between atoms: C10_10  and  N11_11 
REMARK    8  A    between atoms: C22_22  and  C23_23 
ROOT
ATOM      1  N11 ZIN A   1      18.511  -0.307  11.497  0.00  0.00    -0.345 N 
ATOM      2  C12 ZIN A   1      18.445   0.240  12.776  0.00  0.00     0.052 A 
ATOM      3  C13 ZIN A   1      17.829  -0.493  13.785  0.00  0.00     0.031 A 
ATOM      4  C14 ZIN A   1      17.748   0.016  15.068  0.00  0.00     0.002 A 
ATOM      5  C15 ZIN A   1      18.280   1.258  15.357  0.00  0.00     0.002 A 
ATOM      6  C16 ZIN A   1      18.893   1.995  14.360  0.00  0.00     0.021 A 
ATOM      7  C17 ZIN A   1      18.977   1.492  13.069  0.00  0.00     0.032 A 
ATOM      8  S18 ZIN A   1      19.757   2.453  11.817  0.00  0.00    -0.086 SA
ATOM      9  C19 ZIN A   1      19.193   1.714  10.323  0.00  0.00     0.032 A 
ATOM     10  C20 ZIN A   1      19.307   2.416   9.130  0.00  0.00     0.022 A 
ATOM     11  C21 ZIN A   1      18.868   1.854   7.946  0.00  0.00     0.017 A 
ATOM     12  C22 ZIN A   1      18.313   0.588   7.947  0.00  0.00     0.050 A 
ATOM     13  C27 ZIN A   1      18.197  -0.118   9.130  0.00  0.00     0.047 A 
ATOM     14  C28 ZIN A   1      18.641   0.438  10.326  0.00  0.00     0.053 A 
ENDROOT
BRANCH   1  15
ATOM     15  C10 ZIN A   1      18.446  -1.765  11.373  0.00  0.00     0.131 C 
BRANCH  15  16
ATOM     16  C9  ZIN A   1      19.863  -2.342  11.396  0.00  0.00     0.050 C 
BRANCH  16  17
ATOM     17  C8  ZIN A   1      19.794  -3.858  11.590  0.00  0.00     0.274 C 
BRANCH  17  18
ATOM     18  N7  ZIN A   1      18.901  -4.440  10.579  0.00  0.00     0.091 N 
ATOM     19  C6  ZIN A   1      17.862  -5.268  11.208  0.00  0.00     0.302 C 
ATOM     20  C5  ZIN A   1      16.909  -5.791  10.132  0.00  0.00     0.302 C 
ATOM     21  N4  ZIN A   1      17.668  -6.567   9.142  0.00  0.00     0.093 N 
ATOM     22  C30 ZIN A   1      18.706  -5.738   8.513  0.00  0.00     0.302 C 
ATOM     23  C29 ZIN A   1      19.661  -5.216   9.589  0.00  0.00     0.302 C 
BRANCH  21  24
ATOM     24  C3  ZIN A   1      16.775  -7.150   8.132  0.00  0.00     0.298 C 
BRANCH  24  25
ATOM     25  C2  ZIN A   1      17.553  -7.376   6.834  0.00  0.00     0.194 C 
BRANCH  25  26
ATOM     26  O1  ZIN A   1      17.977  -8.739   6.763  0.00  0.00    -0.399 OA
ATOM     27  H31 ZIN A   1      17.671  -9.285   7.500  0.00  0.00     0.209 HD
ENDBRANCH  25  26
ENDBRANCH  24  25
ENDBRANCH  21  24
ENDBRANCH  17  18
ENDBRANCH  16  17
ENDBRANCH  15  16
ENDBRANCH   1  15
BRANCH  12  28
ATOM     28  C23 ZIN A   1      17.835  -0.024   6.656  0.00  0.00     0.417 C 
ATOM     29  F24 ZIN A   1      18.311   0.731   5.578  0.00  0.00    -0.166 F 
ATOM     30  F25 ZIN A   1      18.314  -1.334   6.555  0.00  0.00    -0.166 F 
ATOM     31  F26 ZIN A   1      16.436  -0.036   6.636  0.00  0.00    -0.166 F 
ENDBRANCH  12  28
TORSDOF 8
ENDMDL
MODEL 9
REMARK VINA RESULT:      -7.8      4.478      7.604
REMARK  8 active torsions:
REMARK  status: ('A' for Active; 'I' for Inactive)
REMARK    1  A    between atoms: O1_1  and  C2_2 
REMARK    2  A    between atoms: C2_2  and  C3_3 
REMARK    3  A    between atoms: C3_3  and  N4_4 
REMARK    4  A    between atoms: N7_7  and  C8_8 
REMARK    5  A    between atoms: C8_8  and  C9_9 
REMARK    6  A    between atoms: C9_9  and  C10_10 
REMARK    7  A    between atoms: C10_10  and  N11_11 
REMARK    8  A    between atoms: C22_22  and  C23_23 
ROOT
ATOM      1  N11 ZIN A   1      18.954   0.929  12.305  0.00  0.00    -0.345 N 
ATOM      2  C12 ZIN A   1      19.096   1.036  10.924  0.00  0.00     0.052 A 
ATOM      3  C13 ZIN A   1      19.867   0.091  10.256  0.00  0.00     0.031 A 
ATOM      4  C14 ZIN A   1      20.027   0.164   8.884  0.00  0.00     0.002 A 
ATOM      5  C15 ZIN A   1      19.421   1.178   8.167  0.00  0.00     0.002 A 
ATOM      6  C16 ZIN A   1      18.654   2.123   8.823  0.00  0.00     0.021 A 
ATOM      7  C17 ZIN A   1      18.489   2.058  10.199  0.00  0.00     0.032 A 
ATOM      8  S18 ZIN A   1      17.513   3.278  11.010  0.00  0.00    -0.086 SA
ATOM      9  C19 ZIN A   1      17.991   3.130  12.698  0.00  0.00     0.032 A 
ATOM     10  C20 ZIN A   1      17.703   4.162  13.580  0.00  0.00     0.022 A 
ATOM     11  C21 ZIN A   1      18.072   4.065  14.909  0.00  0.00     0.017 A 
ATOM     12  C22 ZIN A   1      18.731   2.939  15.362  0.00  0.00     0.050 A 
ATOM     13  C27 ZIN A   1      19.020   1.906  14.490  0.00  0.00     0.047 A 
ATOM     14  C28 ZIN A   1      18.648   1.992  13.152  0.00  0.00     0.053 A 
ENDROOT
BRANCH   1  15
ATOM     15  C10 ZIN A   1      19.132  -0.394  12.909  0.00  0.00     0.131 C 
BRANCH  15  16
ATOM     16  C9  ZIN A   1      17.916  -1.267  12.590  0.00  0.00     0.050 C 
BRANCH  16  17
ATOM     17  C8  ZIN A   1      18.333  -2.739  12.581  0.00  0.00     0.274 C 
BRANCH  17  18
ATOM     18  N7  ZIN A   1      18.728  -3.128  11.221  0.00  0.00     0.091 N 
ATOM     19  C6  ZIN A   1      17.648  -2.858  10.260  0.00  0.00     0.302 C 
ATOM     20  C5  ZIN A   1      18.127  -3.203   8.849  0.00  0.00     0.302 C 
ATOM     21  N4  ZIN A   1      18.529  -4.616   8.801  0.00  0.00     0.093 N 
ATOM     22  C30 ZIN A   1      19.609  -4.885   9.760  0.00  0.00     0.302 C 
ATOM     23  C29 ZIN A   1      19.131  -4.541  11.173  0.00  0.00     0.302 C 
BRANCH  21  24
ATOM     24  C3  ZIN A   1      18.924  -5.005   7.441  0.00  0.00     0.298 C 
BRANCH  24  25
ATOM     25  C2  ZIN A   1      20.429  -5.282   7.406  0.00  0.00     0.194 C 
BRANCH  25  26
ATOM     26  O1  ZIN A   1      21.096  -4.207   6.743  0.00  0.00    -0.399 OA
ATOM     27  H31 ZIN A   1      20.647  -3.896   5.946  0.00  0.00     0.209 HD
ENDBRANCH  25  26
ENDBRANCH  24  25
ENDBRANCH  21  24
ENDBRANCH  17  18
ENDBRANCH  16  17
ENDBRANCH  15  16
ENDBRANCH   1  15
BRANCH  12  28
ATOM     28  C23 ZIN A   1      19.133   2.835  16.810  0.00  0.00     0.417 C 
ATOM     29  F24 ZIN A   1      18.039   3.155  17.622  0.00  0.00    -0.166 F 
ATOM     30  F25 ZIN A   1      19.551   1.529  17.086  0.00  0.00    -0.166 F 
ATOM     31  F26 ZIN A   1      20.181   3.724  17.068  0.00  0.00    -0.166 F 
ENDBRANCH  12  28
TORSDOF 8
ENDMDL
