MODEL 1
REMARK VINA RESULT:      -7.7      0.000      0.000
REMARK  9 active torsions:
REMARK  status: ('A' for Active; 'I' for Inactive)
REMARK    1  A    between atoms: O1_1  and  C2_2 
REMARK    2  A    between atoms: C2_2  and  C3_3 
REMARK    3  A    between atoms: C3_3  and  O4_4 
REMARK    4  A    between atoms: O4_4  and  C5_5 
REMARK    5  A    between atoms: C5_5  and  C6_6 
REMARK    6  A    between atoms: C6_6  and  N7_7 
REMARK    7  A    between atoms: N10_10  and  C11_11 
REMARK    8  A    between atoms: C11_11  and  C13_12 
REMARK    9  A    between atoms: C11_11  and  C19_18 
ROOT
ATOM      1  C11 <0> d   1      19.465   0.729  11.695  0.00  0.00     0.289 C 
ENDROOT
BRANCH   1   2
ATOM      2  N10 <0> d   1      18.961  -0.112  10.601  0.00  0.00     0.105 N 
ATOM      3  C9  <0> d   1      18.621  -1.458  11.085  0.00  0.00     0.304 C 
ATOM      4  C8  <0> d   1      18.027  -2.276   9.936  0.00  0.00     0.302 C 
ATOM      5  N7  <0> d   1      18.998  -2.346   8.836  0.00  0.00     0.093 N 
ATOM      6  C27 <0> d   1      19.338  -1.001   8.351  0.00  0.00     0.302 C 
ATOM      7  C26 <0> d   1      19.932  -0.182   9.500  0.00  0.00     0.304 C 
BRANCH   5   8
ATOM      8  C6  <0> d   1      18.495  -3.188   7.742  0.00  0.00     0.298 C 
BRANCH   8   9
ATOM      9  C5  <0> d   1      19.672  -3.869   7.041  0.00  0.00     0.198 C 
BRANCH   9  10
ATOM     10  O4  <0> d   1      20.001  -3.147   5.852  0.00  0.00    -0.387 OA
BRANCH  10  11
ATOM     11  C3  <0> d   1      18.917  -3.028   4.927  0.00  0.00     0.193 C 
BRANCH  11  12
ATOM     12  C2  <0> d   1      18.737  -1.558   4.539  0.00  0.00     0.190 C 
BRANCH  12  13
ATOM     13  O1  <0> d   1      20.004  -0.897   4.582  0.00  0.00    -0.399 OA
ATOM     14  H28 <0> d   1      20.371  -0.693   3.712  0.00  0.00     0.209 HD
ENDBRANCH  12  13
ENDBRANCH  11  12
ENDBRANCH  10  11
ENDBRANCH   9  10
ENDBRANCH   8   9
ENDBRANCH   5   8
ENDBRANCH   1   2
BRANCH   1  15
ATOM     15  C13 <0> d   1      18.994   2.147  11.495  0.00  0.00    -0.021 A 
ATOM     16  C18 <0> d   1      19.612   3.182  12.172  0.00  0.00     0.010 A 
ATOM     17  C17 <0> d   1      19.184   4.482  11.986  0.00  0.00     0.001 A 
ATOM     18  C16 <0> d   1      18.131   4.748  11.129  0.00  0.00     0.000 A 
ATOM     19  C15 <0> d   1      17.509   3.712  10.457  0.00  0.00     0.001 A 
ATOM     20  C14 <0> d   1      17.941   2.412  10.640  0.00  0.00     0.010 A 
ENDBRANCH   1  15
BRANCH   1  21
ATOM     21  C19 <0> d   1      18.945   0.208  13.009  0.00  0.00    -0.021 A 
ATOM     22  C25 <0> d   1      17.725   0.643  13.492  0.00  0.00     0.011 A 
ATOM     23  C24 <0> d   1      17.245   0.160  14.695  0.00  0.00     0.024 A 
ATOM     24  C22 <0> d   1      17.991  -0.751  15.421  0.00  0.00     0.034 A 
ATOM     25  C21 <0> d   1      19.214  -1.181  14.942  0.00  0.00     0.024 A 
ATOM     26 Cl23 <0> d   1      17.392  -1.351  16.937  0.00  0.00    -0.084 Cl
ATOM     27  C20 <0> d   1      19.691  -0.703  13.736  0.00  0.00     0.011 A 
ENDBRANCH   1  21
TORSDOF 9
ENDMDL
MODEL 2
REMARK VINA RESULT:      -7.5      1.350      2.273
REMARK  9 active torsions:
REMARK  status: ('A' for Active; 'I' for Inactive)
REMARK    1  A    between atoms: O1_1  and  C2_2 
REMARK    2  A    between atoms: C2_2  and  C3_3 
REMARK    3  A    between atoms: C3_3  and  O4_4 
REMARK    4  A    between atoms: O4_4  and  C5_5 
REMARK    5  A    between atoms: C5_5  and  C6_6 
REMARK    6  A    between atoms: C6_6  and  N7_7 
REMARK    7  A    between atoms: N10_10  and  C11_11 
REMARK    8  A    between atoms: C11_11  and  C13_12 
REMARK    9  A    between atoms: C11_11  and  C19_18 
ROOT
ATOM      1  C11 <0> d   1      19.137   1.931  11.241  0.00  0.00     0.289 C 
ENDROOT
BRANCH   1   2
ATOM      2  N10 <0> d   1      18.606   1.285  10.034  0.00  0.00     0.105 N 
ATOM      3  C9  <0> d   1      18.556  -0.175  10.196  0.00  0.00     0.304 C 
ATOM      4  C8  <0> d   1      17.926  -0.803   8.951  0.00  0.00     0.302 C 
ATOM      5  N7  <0> d   1      18.714  -0.435   7.767  0.00  0.00     0.093 N 
ATOM      6  C27 <0> d   1      18.764   1.025   7.604  0.00  0.00     0.302 C 
ATOM      7  C26 <0> d   1      19.395   1.653   8.849  0.00  0.00     0.304 C 
BRANCH   5   8
ATOM      8  C6  <0> d   1      18.184  -1.082   6.559  0.00  0.00     0.298 C 
BRANCH   8   9
ATOM      9  C5  <0> d   1      19.261  -1.091   5.473  0.00  0.00     0.198 C 
BRANCH   9  10
ATOM     10  O4  <0> d   1      19.876  -2.381   5.423  0.00  0.00    -0.387 OA
BRANCH  10  11
ATOM     11  C3  <0> d   1      18.978  -3.463   5.678  0.00  0.00     0.193 C 
BRANCH  11  12
ATOM     12  C2  <0> d   1      19.645  -4.469   6.619  0.00  0.00     0.190 C 
BRANCH  12  13
ATOM     13  O1  <0> d   1      21.030  -4.143   6.758  0.00  0.00    -0.399 OA
ATOM     14  H28 <0> d   1      21.400  -4.362   7.624  0.00  0.00     0.209 HD
ENDBRANCH  12  13
ENDBRANCH  11  12
ENDBRANCH  10  11
ENDBRANCH   9  10
ENDBRANCH   8   9
ENDBRANCH   5   8
ENDBRANCH   1   2
BRANCH   1  15
ATOM     15  C13 <0> d   1      18.409   3.230  11.477  0.00  0.00    -0.021 A 
ATOM     16  C18 <0> d   1      17.441   3.651  10.586  0.00  0.00     0.010 A 
ATOM     17  C17 <0> d   1      16.770   4.839  10.804  0.00  0.00     0.001 A 
ATOM     18  C16 <0> d   1      17.075   5.612  11.910  0.00  0.00     0.000 A 
ATOM     19  C15 <0> d   1      18.047   5.194  12.799  0.00  0.00     0.001 A 
ATOM     20  C14 <0> d   1      18.715   4.002  12.583  0.00  0.00     0.010 A 
ENDBRANCH   1  15
BRANCH   1  21
ATOM     21  C19 <0> d   1      18.939   1.021  12.426  0.00  0.00    -0.021 A 
ATOM     22  C25 <0> d   1      20.029   0.413  13.021  0.00  0.00     0.011 A 
ATOM     23  C24 <0> d   1      19.848  -0.416  14.110  0.00  0.00     0.024 A 
ATOM     24  C22 <0> d   1      18.575  -0.648  14.600  0.00  0.00     0.034 A 
ATOM     25  C21 <0> d   1      17.484  -0.045  14.002  0.00  0.00     0.024 A 
ATOM     26 Cl23 <0> d   1      18.347  -1.697  15.965  0.00  0.00    -0.084 Cl
ATOM     27  C20 <0> d   1      17.666   0.790  12.915  0.00  0.00     0.011 A 
ENDBRANCH   1  21
TORSDOF 9
ENDMDL
MODEL 3
REMARK VINA RESULT:      -7.4      5.218      8.730
REMARK  9 active torsions:
REMARK  status: ('A' for Active; 'I' for Inactive)
REMARK    1  A    between atoms: O1_1  and  C2_2 
REMARK    2  A    between atoms: C2_2  and  C3_3 
REMARK    3  A    between atoms: C3_3  and  O4_4 
REMARK    4  A    between atoms: O4_4  and  C5_5 
REMARK    5  A    between atoms: C5_5  and  C6_6 
REMARK    6  A    between atoms: C6_6  and  N7_7 
REMARK    7  A    between atoms: N10_10  and  C11_11 
REMARK    8  A    between atoms: C11_11  and  C13_12 
REMARK    9  A    between atoms: C11_11  and  C19_18 
ROOT
ATOM      1  C11 <0> d   1      19.654  -1.136  11.982  0.00  0.00     0.289 C 
ENDROOT
BRANCH   1   2
ATOM      2  N10 <0> d   1      19.043  -0.529  13.172  0.00  0.00     0.105 N 
ATOM      3  C9  <0> d   1      19.828   0.622  13.638  0.00  0.00     0.304 C 
ATOM      4  C8  <0> d   1      19.119   1.273  14.828  0.00  0.00     0.302 C 
ATOM      5  N7  <0> d   1      18.958   0.281  15.900  0.00  0.00     0.093 N 
ATOM      6  C27 <0> d   1      18.172  -0.871  15.435  0.00  0.00     0.302 C 
ATOM      7  C26 <0> d   1      18.882  -1.521  14.245  0.00  0.00     0.304 C 
BRANCH   5   8
ATOM      8  C6  <0> d   1      18.348   0.887  17.092  0.00  0.00     0.298 C 
BRANCH   8   9
ATOM      9  C5  <0> d   1      19.311   0.764  18.275  0.00  0.00     0.198 C 
BRANCH   9  10
ATOM     10  O4  <0> d   1      19.676   2.069  18.729  0.00  0.00    -0.387 OA
BRANCH  10  11
ATOM     11  C3  <0> d   1      18.870   3.118  18.189  0.00  0.00     0.193 C 
BRANCH  11  12
ATOM     12  C2  <0> d   1      18.099   3.803  19.321  0.00  0.00     0.190 C 
BRANCH  12  13
ATOM     13  O1  <0> d   1      16.970   3.003  19.679  0.00  0.00    -0.399 OA
ATOM     14  H28 <0> d   1      16.756   3.025  20.621  0.00  0.00     0.209 HD
ENDBRANCH  12  13
ENDBRANCH  11  12
ENDBRANCH  10  11
ENDBRANCH   9  10
ENDBRANCH   8   9
ENDBRANCH   5   8
ENDBRANCH   1   2
BRANCH   1  15
ATOM     15  C13 <0> d   1      19.044  -2.493  11.741  0.00  0.00    -0.021 A 
ATOM     16  C18 <0> d   1      17.675  -2.620  11.600  0.00  0.00     0.010 A 
ATOM     17  C17 <0> d   1      17.116  -3.864  11.374  0.00  0.00     0.001 A 
ATOM     18  C16 <0> d   1      17.926  -4.983  11.300  0.00  0.00     0.000 A 
ATOM     19  C15 <0> d   1      19.294  -4.857  11.448  0.00  0.00     0.001 A 
ATOM     20  C14 <0> d   1      19.854  -3.611  11.668  0.00  0.00     0.010 A 
ENDBRANCH   1  15
BRANCH   1  21
ATOM     21  C19 <0> d   1      19.404  -0.254  10.786  0.00  0.00    -0.021 A 
ATOM     22  C25 <0> d   1      20.133  -0.440   9.626  0.00  0.00     0.011 A 
ATOM     23  C24 <0> d   1      19.901   0.365   8.527  0.00  0.00     0.024 A 
ATOM     24  C22 <0> d   1      18.947   1.364   8.591  0.00  0.00     0.034 A 
ATOM     25  C21 <0> d   1      18.222   1.555   9.753  0.00  0.00     0.024 A 
ATOM     26 Cl23 <0> d   1      18.660   2.381   7.212  0.00  0.00    -0.084 Cl
ATOM     27  C20 <0> d   1      18.450   0.745  10.849  0.00  0.00     0.011 A 
ENDBRANCH   1  21
TORSDOF 9
ENDMDL
MODEL 4
REMARK VINA RESULT:      -7.4      2.125      4.378
REMARK  9 active torsions:
REMARK  status: ('A' for Active; 'I' for Inactive)
REMARK    1  A    between atoms: O1_1  and  C2_2 
REMARK    2  A    between atoms: C2_2  and  C3_3 
REMARK    3  A    between atoms: C3_3  and  O4_4 
REMARK    4  A    between atoms: O4_4  and  C5_5 
REMARK    5  A    between atoms: C5_5  and  C6_6 
REMARK    6  A    between atoms: C6_6  and  N7_7 
REMARK    7  A    between atoms: N10_10  and  C11_11 
REMARK    8  A    between atoms: C11_11  and  C13_12 
REMARK    9  A    between atoms: C11_11  and  C19_18 
ROOT
ATOM      1  C11 <0> d   1      17.791  -1.144  12.303  0.00  0.00     0.289 C 
ENDROOT
BRANCH   1   2
ATOM      2  N10 <0> d   1      18.337  -0.198  11.320  0.00  0.00     0.105 N 
ATOM      3  C9  <0> d   1      17.280   0.667  10.778  0.00  0.00     0.304 C 
ATOM      4  C8  <0> d   1      17.900   1.687   9.820  0.00  0.00     0.302 C 
ATOM      5  N7  <0> d   1      18.601   0.979   8.741  0.00  0.00     0.093 N 
ATOM      6  C27 <0> d   1      19.659   0.113   9.283  0.00  0.00     0.302 C 
ATOM      7  C26 <0> d   1      19.039  -0.907  10.240  0.00  0.00     0.304 C 
BRANCH   5   8
ATOM      8  C6  <0> d   1      19.147   1.924   7.757  0.00  0.00     0.298 C 
BRANCH   8   9
ATOM      9  C5  <0> d   1      18.974   1.350   6.350  0.00  0.00     0.198 C 
BRANCH   9  10
ATOM     10  O4  <0> d   1      17.820   0.508   6.317  0.00  0.00    -0.387 OA
BRANCH  10  11
ATOM     11  C3  <0> d   1      17.879  -0.521   5.326  0.00  0.00     0.193 C 
BRANCH  11  12
ATOM     12  C2  <0> d   1      19.200  -1.282   5.461  0.00  0.00     0.190 C 
BRANCH  12  13
ATOM     13  O1  <0> d   1      19.685  -1.627   4.161  0.00  0.00    -0.399 OA
ATOM     14  H28 <0> d   1      19.344  -2.465   3.824  0.00  0.00     0.209 HD
ENDBRANCH  12  13
ENDBRANCH  11  12
ENDBRANCH  10  11
ENDBRANCH   9  10
ENDBRANCH   8   9
ENDBRANCH   5   8
ENDBRANCH   1   2
BRANCH   1  15
ATOM     15  C13 <0> d   1      18.311  -2.528  12.010  0.00  0.00    -0.021 A 
ATOM     16  C18 <0> d   1      19.668  -2.781  12.064  0.00  0.00     0.010 A 
ATOM     17  C17 <0> d   1      20.145  -4.052  11.800  0.00  0.00     0.001 A 
ATOM     18  C16 <0> d   1      19.265  -5.066  11.473  0.00  0.00     0.000 A 
ATOM     19  C15 <0> d   1      17.908  -4.812  11.413  0.00  0.00     0.001 A 
ATOM     20  C14 <0> d   1      17.430  -3.542  11.682  0.00  0.00     0.010 A 
ENDBRANCH   1  15
BRANCH   1  21
ATOM     21  C19 <0> d   1      18.216  -0.730  13.687  0.00  0.00    -0.021 A 
ATOM     22  C25 <0> d   1      17.976  -1.564  14.763  0.00  0.00     0.011 A 
ATOM     23  C24 <0> d   1      18.371  -1.187  16.032  0.00  0.00     0.024 A 
ATOM     24  C22 <0> d   1      18.998   0.030  16.229  0.00  0.00     0.034 A 
ATOM     25  C21 <0> d   1      19.233   0.868  15.154  0.00  0.00     0.024 A 
ATOM     26 Cl23 <0> d   1      19.487   0.508  17.825  0.00  0.00    -0.084 Cl
ATOM     27  C20 <0> d   1      18.843   0.488  13.884  0.00  0.00     0.011 A 
ENDBRANCH   1  21
TORSDOF 9
ENDMDL
MODEL 5
REMARK VINA RESULT:      -7.3      3.836      6.585
REMARK  9 active torsions:
REMARK  status: ('A' for Active; 'I' for Inactive)
REMARK    1  A    between atoms: O1_1  and  C2_2 
REMARK    2  A    between atoms: C2_2  and  C3_3 
REMARK    3  A    between atoms: C3_3  and  O4_4 
REMARK    4  A    between atoms: O4_4  and  C5_5 
REMARK    5  A    between atoms: C5_5  and  C6_6 
REMARK    6  A    between atoms: C6_6  and  N7_7 
REMARK    7  A    between atoms: N10_10  and  C11_11 
REMARK    8  A    between atoms: C11_11  and  C13_12 
REMARK    9  A    between atoms: C11_11  and  C19_18 
ROOT
ATOM      1  C11 <0> d   1      17.655  -1.160  12.714  0.00  0.00     0.289 C 
ENDROOT
BRANCH   1   2
ATOM      2  N10 <0> d   1      18.073  -0.007  11.905  0.00  0.00     0.105 N 
ATOM      3  C9  <0> d   1      18.292   1.176  12.748  0.00  0.00     0.304 C 
ATOM      4  C8  <0> d   1      18.801   2.330  11.881  0.00  0.00     0.302 C 
ATOM      5  N7  <0> d   1      17.820   2.615  10.826  0.00  0.00     0.093 N 
ATOM      6  C27 <0> d   1      17.599   1.432   9.982  0.00  0.00     0.302 C 
ATOM      7  C26 <0> d   1      17.091   0.278  10.849  0.00  0.00     0.304 C 
BRANCH   5   8
ATOM      8  C6  <0> d   1      18.236   3.768  10.017  0.00  0.00     0.298 C 
BRANCH   8   9
ATOM      9  C5  <0> d   1      17.497   5.019  10.496  0.00  0.00     0.198 C 
BRANCH   9  10
ATOM     10  O4  <0> d   1      16.445   4.640  11.386  0.00  0.00    -0.387 OA
BRANCH  10  11
ATOM     11  C3  <0> d   1      16.311   5.495  12.524  0.00  0.00     0.193 C 
BRANCH  11  12
ATOM     12  C2  <0> d   1      17.482   5.259  13.480  0.00  0.00     0.190 C 
BRANCH  12  13
ATOM     13  O1  <0> d   1      17.123   4.257  14.434  0.00  0.00    -0.399 OA
ATOM     14  H28 <0> d   1      17.817   4.060  15.077  0.00  0.00     0.209 HD
ENDBRANCH  12  13
ENDBRANCH  11  12
ENDBRANCH  10  11
ENDBRANCH   9  10
ENDBRANCH   8   9
ENDBRANCH   5   8
ENDBRANCH   1   2
BRANCH   1  15
ATOM     15  C13 <0> d   1      18.345  -2.403  12.212  0.00  0.00    -0.021 A 
ATOM     16  C18 <0> d   1      17.644  -3.589  12.111  0.00  0.00     0.010 A 
ATOM     17  C17 <0> d   1      18.275  -4.727  11.645  0.00  0.00     0.001 A 
ATOM     18  C16 <0> d   1      19.611  -4.681  11.292  0.00  0.00     0.000 A 
ATOM     19  C15 <0> d   1      20.314  -3.496  11.399  0.00  0.00     0.001 A 
ATOM     20  C14 <0> d   1      19.681  -2.356  11.859  0.00  0.00     0.010 A 
ENDBRANCH   1  15
BRANCH   1  21
ATOM     21  C19 <0> d   1      18.030  -0.925  14.154  0.00  0.00    -0.021 A 
ATOM     22  C25 <0> d   1      19.147  -1.540  14.688  0.00  0.00     0.011 A 
ATOM     23  C24 <0> d   1      19.494  -1.319  16.007  0.00  0.00     0.024 A 
ATOM     24  C22 <0> d   1      18.719  -0.491  16.797  0.00  0.00     0.034 A 
ATOM     25  C21 <0> d   1      17.597   0.120  16.266  0.00  0.00     0.024 A 
ATOM     26 Cl23 <0> d   1      19.151  -0.220  18.457  0.00  0.00    -0.084 Cl
ATOM     27  C20 <0> d   1      17.254  -0.096  14.945  0.00  0.00     0.011 A 
ENDBRANCH   1  21
TORSDOF 9
ENDMDL
MODEL 6
REMARK VINA RESULT:      -7.2      1.907      2.899
REMARK  9 active torsions:
REMARK  status: ('A' for Active; 'I' for Inactive)
REMARK    1  A    between atoms: O1_1  and  C2_2 
REMARK    2  A    between atoms: C2_2  and  C3_3 
REMARK    3  A    between atoms: C3_3  and  O4_4 
REMARK    4  A    between atoms: O4_4  and  C5_5 
REMARK    5  A    between atoms: C5_5  and  C6_6 
REMARK    6  A    between atoms: C6_6  and  N7_7 
REMARK    7  A    between atoms: N10_10  and  C11_11 
REMARK    8  A    between atoms: C11_11  and  C13_12 
REMARK    9  A    between atoms: C11_11  and  C19_18 
ROOT
ATOM      1  C11 <0> d   1      19.697  -0.739  11.954  0.00  0.00     0.289 C 
ENDROOT
BRANCH   1   2
ATOM      2  N10 <0> d   1      19.207  -1.940  11.263  0.00  0.00     0.105 N 
ATOM      3  C9  <0> d   1      17.840  -2.272  11.689  0.00  0.00     0.304 C 
ATOM      4  C8  <0> d   1      17.339  -3.478  10.891  0.00  0.00     0.302 C 
ATOM      5  N7  <0> d   1      18.244  -4.614  11.106  0.00  0.00     0.093 N 
ATOM      6  C27 <0> d   1      19.612  -4.283  10.681  0.00  0.00     0.302 C 
ATOM      7  C26 <0> d   1      20.113  -3.077  11.478  0.00  0.00     0.304 C 
BRANCH   5   8
ATOM      8  C6  <0> d   1      17.755  -5.816  10.416  0.00  0.00     0.298 C 
BRANCH   8   9
ATOM      9  C5  <0> d   1      17.162  -5.420   9.062  0.00  0.00     0.198 C 
BRANCH   9  10
ATOM     10  O4  <0> d   1      17.984  -5.936   8.013  0.00  0.00    -0.387 OA
BRANCH  10  11
ATOM     11  C3  <0> d   1      18.650  -4.928   7.248  0.00  0.00     0.193 C 
BRANCH  11  12
ATOM     12  C2  <0> d   1      20.126  -5.299   7.093  0.00  0.00     0.190 C 
BRANCH  12  13
ATOM     13  O1  <0> d   1      20.876  -4.132   6.750  0.00  0.00    -0.399 OA
ATOM     14  H28 <0> d   1      21.003  -4.010   5.800  0.00  0.00     0.209 HD
ENDBRANCH  12  13
ENDBRANCH  11  12
ENDBRANCH  10  11
ENDBRANCH   9  10
ENDBRANCH   8   9
ENDBRANCH   5   8
ENDBRANCH   1   2
BRANCH   1  15
ATOM     15  C13 <0> d   1      19.399   0.478  11.117  0.00  0.00    -0.021 A 
ATOM     16  C18 <0> d   1      18.791   0.337   9.884  0.00  0.00     0.010 A 
ATOM     17  C17 <0> d   1      18.513   1.454   9.119  0.00  0.00     0.001 A 
ATOM     18  C16 <0> d   1      18.853   2.712   9.582  0.00  0.00     0.000 A 
ATOM     19  C15 <0> d   1      19.467   2.853  10.813  0.00  0.00     0.001 A 
ATOM     20  C14 <0> d   1      19.740   1.736  11.581  0.00  0.00     0.010 A 
ENDBRANCH   1  15
BRANCH   1  21
ATOM     21  C19 <0> d   1      19.008  -0.613  13.288  0.00  0.00    -0.021 A 
ATOM     22  C25 <0> d   1      19.489  -1.307  14.383  0.00  0.00     0.011 A 
ATOM     23  C24 <0> d   1      18.861  -1.187  15.608  0.00  0.00     0.024 A 
ATOM     24  C22 <0> d   1      17.746  -0.380  15.737  0.00  0.00     0.034 A 
ATOM     25  C21 <0> d   1      17.261   0.310  14.641  0.00  0.00     0.024 A 
ATOM     26 Cl23 <0> d   1      16.952  -0.235  17.275  0.00  0.00    -0.084 Cl
ATOM     27  C20 <0> d   1      17.893   0.194  13.418  0.00  0.00     0.011 A 
ENDBRANCH   1  21
TORSDOF 9
ENDMDL
MODEL 7
REMARK VINA RESULT:      -7.2      2.533      4.539
REMARK  9 active torsions:
REMARK  status: ('A' for Active; 'I' for Inactive)
REMARK    1  A    between atoms: O1_1  and  C2_2 
REMARK    2  A    between atoms: C2_2  and  C3_3 
REMARK    3  A    between atoms: C3_3  and  O4_4 
REMARK    4  A    between atoms: O4_4  and  C5_5 
REMARK    5  A    between atoms: C5_5  and  C6_6 
REMARK    6  A    between atoms: C6_6  and  N7_7 
REMARK    7  A    between atoms: N10_10  and  C11_11 
REMARK    8  A    between atoms: C11_11  and  C13_12 
REMARK    9  A    between atoms: C11_11  and  C19_18 
ROOT
ATOM      1  C11 <0> d   1      19.360  -1.235  12.498  0.00  0.00     0.289 C 
ENDROOT
BRANCH   1   2
ATOM      2  N10 <0> d   1      18.981  -0.218  11.508  0.00  0.00     0.105 N 
ATOM      3  C9  <0> d   1      18.583  -0.841  10.238  0.00  0.00     0.304 C 
ATOM      4  C8  <0> d   1      18.122   0.243   9.262  0.00  0.00     0.302 C 
ATOM      5  N7  <0> d   1      19.213   1.206   9.053  0.00  0.00     0.093 N 
ATOM      6  C27 <0> d   1      19.611   1.830  10.323  0.00  0.00     0.302 C 
ATOM      7  C26 <0> d   1      20.072   0.745  11.299  0.00  0.00     0.304 C 
BRANCH   5   8
ATOM      8  C6  <0> d   1      18.835   2.223   8.062  0.00  0.00     0.298 C 
BRANCH   8   9
ATOM      9  C5  <0> d   1      19.243   1.748   6.666  0.00  0.00     0.198 C 
BRANCH   9  10
ATOM     10  O4  <0> d   1      18.233   0.881   6.144  0.00  0.00    -0.387 OA
BRANCH  10  11
ATOM     11  C3  <0> d   1      18.616   0.198   4.948  0.00  0.00     0.193 C 
BRANCH  11  12
ATOM     12  C2  <0> d   1      19.250  -1.147   5.309  0.00  0.00     0.190 C 
BRANCH  12  13
ATOM     13  O1  <0> d   1      19.561  -1.863   4.112  0.00  0.00    -0.399 OA
ATOM     14  H28 <0> d   1      20.457  -2.225   4.092  0.00  0.00     0.209 HD
ENDBRANCH  12  13
ENDBRANCH  11  12
ENDBRANCH  10  11
ENDBRANCH   9  10
ENDBRANCH   8   9
ENDBRANCH   5   8
ENDBRANCH   1   2
BRANCH   1  15
ATOM     15  C13 <0> d   1      18.740  -0.894  13.829  0.00  0.00    -0.021 A 
ATOM     16  C18 <0> d   1      17.841   0.151  13.926  0.00  0.00     0.010 A 
ATOM     17  C17 <0> d   1      17.269   0.460  15.145  0.00  0.00     0.001 A 
ATOM     18  C16 <0> d   1      17.604  -0.270  16.271  0.00  0.00     0.000 A 
ATOM     19  C15 <0> d   1      18.508  -1.311  16.176  0.00  0.00     0.001 A 
ATOM     20  C14 <0> d   1      19.076  -1.624  14.955  0.00  0.00     0.010 A 
ENDBRANCH   1  15
BRANCH   1  21
ATOM     21  C19 <0> d   1      18.866  -2.584  12.045  0.00  0.00    -0.021 A 
ATOM     22  C25 <0> d   1      17.509  -2.830  11.956  0.00  0.00     0.011 A 
ATOM     23  C24 <0> d   1      17.056  -4.066  11.534  0.00  0.00     0.024 A 
ATOM     24  C22 <0> d   1      17.961  -5.061  11.211  0.00  0.00     0.034 A 
ATOM     25  C21 <0> d   1      19.319  -4.817  11.306  0.00  0.00     0.024 A 
ATOM     26 Cl23 <0> d   1      17.393  -6.616  10.689  0.00  0.00    -0.084 Cl
ATOM     27  C20 <0> d   1      19.771  -3.579  11.722  0.00  0.00     0.011 A 
ENDBRANCH   1  21
TORSDOF 9
ENDMDL
MODEL 8
REMARK VINA RESULT:      -7.1      4.176      6.899
REMARK  9 active torsions:
REMARK  status: ('A' for Active; 'I' for Inactive)
REMARK    1  A    between atoms: O1_1  and  C2_2 
REMARK    2  A    between atoms: C2_2  and  C3_3 
REMARK    3  A    between atoms: C3_3  and  O4_4 
REMARK    4  A    between atoms: O4_4  and  C5_5 
REMARK    5  A    between atoms: C5_5  and  C6_6 
REMARK    6  A    between atoms: C6_6  and  N7_7 
REMARK    7  A    between atoms: N10_10  and  C11_11 
REMARK    8  A    between atoms: C11_11  and  C13_12 
REMARK    9  A    between atoms: C11_11  and  C19_18 
ROOT
ATOM      1  C11 <0> d   1      19.335  -0.653  12.979  0.00  0.00     0.289 C 
ENDROOT
BRANCH   1   2
ATOM      2  N10 <0> d   1      18.711   0.502  12.320  0.00  0.00     0.105 N 
ATOM      3  C9  <0> d   1      19.020   0.519  10.883  0.00  0.00     0.304 C 
ATOM      4  C8  <0> d   1      18.290   1.690  10.221  0.00  0.00     0.302 C 
ATOM      5  N7  <0> d   1      18.704   2.947  10.860  0.00  0.00     0.093 N 
ATOM      6  C27 <0> d   1      18.395   2.930  12.297  0.00  0.00     0.302 C 
ATOM      7  C26 <0> d   1      19.125   1.760  12.959  0.00  0.00     0.304 C 
BRANCH   5   8
ATOM      8  C6  <0> d   1      18.082   4.103  10.201  0.00  0.00     0.298 C 
BRANCH   8   9
ATOM      9  C5  <0> d   1      16.764   4.439  10.900  0.00  0.00     0.198 C 
BRANCH   9  10
ATOM     10  O4  <0> d   1      16.905   5.666  11.620  0.00  0.00    -0.387 OA
BRANCH  10  11
ATOM     11  C3  <0> d   1      16.242   5.676  12.886  0.00  0.00     0.193 C 
BRANCH  11  12
ATOM     12  C2  <0> d   1      17.003   6.585  13.853  0.00  0.00     0.190 C 
BRANCH  12  13
ATOM     13  O1  <0> d   1      18.275   6.004  14.151  0.00  0.00    -0.399 OA
ATOM     14  H28 <0> d   1      18.996   6.644  14.208  0.00  0.00     0.209 HD
ENDBRANCH  12  13
ENDBRANCH  11  12
ENDBRANCH  10  11
ENDBRANCH   9  10
ENDBRANCH   8   9
ENDBRANCH   5   8
ENDBRANCH   1   2
BRANCH   1  15
ATOM     15  C13 <0> d   1      18.842  -0.747  14.400  0.00  0.00    -0.021 A 
ATOM     16  C18 <0> d   1      19.544  -1.493  15.328  0.00  0.00     0.010 A 
ATOM     17  C17 <0> d   1      19.095  -1.575  16.632  0.00  0.00     0.001 A 
ATOM     18  C16 <0> d   1      17.937  -0.918  17.007  0.00  0.00     0.000 A 
ATOM     19  C15 <0> d   1      17.231  -0.177  16.079  0.00  0.00     0.001 A 
ATOM     20  C14 <0> d   1      17.683  -0.091  14.775  0.00  0.00     0.010 A 
ENDBRANCH   1  15
BRANCH   1  21
ATOM     21  C19 <0> d   1      18.968  -1.912  12.237  0.00  0.00    -0.021 A 
ATOM     22  C25 <0> d   1      17.642  -2.192  11.963  0.00  0.00     0.011 A 
ATOM     23  C24 <0> d   1      17.306  -3.344  11.277  0.00  0.00     0.024 A 
ATOM     24  C22 <0> d   1      18.296  -4.221  10.872  0.00  0.00     0.034 A 
ATOM     25  C21 <0> d   1      19.622  -3.944  11.151  0.00  0.00     0.024 A 
ATOM     26 Cl23 <0> d   1      17.873  -5.672  10.017  0.00  0.00    -0.084 Cl
ATOM     27  C20 <0> d   1      19.958  -2.789  11.832  0.00  0.00     0.011 A 
ENDBRANCH   1  21
TORSDOF 9
ENDMDL
MODEL 9
REMARK VINA RESULT:      -7.1      4.754      7.646
REMARK  9 active torsions:
REMARK  status: ('A' for Active; 'I' for Inactive)
REMARK    1  A    between atoms: O1_1  and  C2_2 
REMARK    2  A    between atoms: C2_2  and  C3_3 
REMARK    3  A    between atoms: C3_3  and  O4_4 
REMARK    4  A    between atoms: O4_4  and  C5_5 
REMARK    5  A    between atoms: C5_5  and  C6_6 
REMARK    6  A    between atoms: C6_6  and  N7_7 
REMARK    7  A    between atoms: N10_10  and  C11_11 
REMARK    8  A    between atoms: C11_11  and  C13_12 
REMARK    9  A    between atoms: C11_11  and  C19_18 
ROOT
ATOM      1  C11 <0> d   1      17.831  -0.512  12.420  0.00  0.00     0.289 C 
ENDROOT
BRANCH   1   2
ATOM      2  N10 <0> d   1      18.456  -0.354  13.740  0.00  0.00     0.105 N 
ATOM      3  C9  <0> d   1      18.521  -1.640  14.449  0.00  0.00     0.304 C 
ATOM      4  C8  <0> d   1      19.248  -1.448  15.782  0.00  0.00     0.302 C 
ATOM      5  N7  <0> d   1      18.537  -0.444  16.584  0.00  0.00     0.093 N 
ATOM      6  C27 <0> d   1      18.471   0.842  15.876  0.00  0.00     0.302 C 
ATOM      7  C26 <0> d   1      17.744   0.651  14.543  0.00  0.00     0.304 C 
BRANCH   5   8
ATOM      8  C6  <0> d   1      19.161  -0.286  17.905  0.00  0.00     0.298 C 
BRANCH   8   9
ATOM      9  C5  <0> d   1      18.553   0.926  18.614  0.00  0.00     0.198 C 
BRANCH   9  10
ATOM     10  O4  <0> d   1      19.530   1.966  18.701  0.00  0.00    -0.387 OA
BRANCH  10  11
ATOM     11  C3  <0> d   1      18.977   3.284  18.694  0.00  0.00     0.193 C 
BRANCH  11  12
ATOM     12  C2  <0> d   1      19.063   3.865  17.281  0.00  0.00     0.190 C 
BRANCH  12  13
ATOM     13  O1  <0> d   1      20.373   3.642  16.754  0.00  0.00    -0.399 OA
ATOM     14  H28 <0> d   1      20.999   4.354  16.944  0.00  0.00     0.209 HD
ENDBRANCH  12  13
ENDBRANCH  11  12
ENDBRANCH  10  11
ENDBRANCH   9  10
ENDBRANCH   8   9
ENDBRANCH   5   8
ENDBRANCH   1   2
BRANCH   1  15
ATOM     15  C13 <0> d   1      18.219   0.647  11.538  0.00  0.00    -0.021 A 
ATOM     16  C18 <0> d   1      17.604   0.820  10.313  0.00  0.00     0.010 A 
ATOM     17  C17 <0> d   1      17.957   1.886   9.507  0.00  0.00     0.001 A 
ATOM     18  C16 <0> d   1      18.933   2.773   9.921  0.00  0.00     0.000 A 
ATOM     19  C15 <0> d   1      19.553   2.597  11.144  0.00  0.00     0.001 A 
ATOM     20  C14 <0> d   1      19.196   1.534  11.953  0.00  0.00     0.010 A 
ENDBRANCH   1  15
BRANCH   1  21
ATOM     21  C19 <0> d   1      18.300  -1.799  11.793  0.00  0.00    -0.021 A 
ATOM     22  C25 <0> d   1      19.652  -2.032  11.623  0.00  0.00     0.011 A 
ATOM     23  C24 <0> d   1      20.083  -3.216  11.053  0.00  0.00     0.024 A 
ATOM     24  C22 <0> d   1      19.161  -4.162  10.644  0.00  0.00     0.034 A 
ATOM     25  C21 <0> d   1      17.809  -3.927  10.808  0.00  0.00     0.024 A 
ATOM     26 Cl23 <0> d   1      19.703  -5.646   9.921  0.00  0.00    -0.084 Cl
ATOM     27  C20 <0> d   1      17.378  -2.746  11.384  0.00  0.00     0.011 A 
ENDBRANCH   1  21
TORSDOF 9
ENDMDL
