MODEL 1
REMARK VINA RESULT:      -7.8      0.000      0.000
REMARK  2 active torsions:
REMARK  status: ('A' for Active; 'I' for Inactive)
REMARK    1  A    between atoms: C4_4  and  C5_5 
REMARK       I    between atoms: C5_5  and  N7_7 
REMARK    2  A    between atoms: N7_7  and  C8_8 
ROOT
ATOM      1  C5  ZIN A   1      19.256  -0.144  11.176  0.00  0.00     0.273 C 
ATOM      2  O6  ZIN A   1      20.044   0.772  11.315  0.00  0.00    -0.266 OA
ATOM      3  N7  ZIN A   1      18.524  -0.568  12.225  0.00  0.00    -0.351 N 
ATOM      4  H30 ZIN A   1      17.895  -1.299  12.114  0.00  0.00     0.163 HD
ENDROOT
BRANCH   1   5
ATOM      5  C4  ZIN A   1      19.104  -0.793   9.860  0.00  0.00     0.157 A 
ATOM      6  N3  ZIN A   1      18.995  -2.082   9.625  0.00  0.00    -0.166 NA
ATOM      7  N2  ZIN A   1      18.875  -2.333   8.372  0.00  0.00    -0.273 N 
ATOM      8  C1  ZIN A   1      18.737  -3.678   7.807  0.00  0.00     0.180 C 
ATOM      9  C26 ZIN A   1      18.899  -1.181   7.630  0.00  0.00     0.065 A 
ATOM     10  C21 ZIN A   1      19.042  -0.126   8.553  0.00  0.00     0.028 A 
ATOM     11  C25 ZIN A   1      18.802  -0.888   6.274  0.00  0.00     0.032 A 
ATOM     12  C22 ZIN A   1      19.096   1.190   8.107  0.00  0.00     0.016 A 
ATOM     13  C23 ZIN A   1      19.004   1.455   6.768  0.00  0.00     0.001 A 
ATOM     14  C24 ZIN A   1      18.858   0.421   5.853  0.00  0.00     0.002 A 
ENDBRANCH   1   5
BRANCH   3  15
ATOM     15  C8  ZIN A   1      18.676   0.079  13.539  0.00  0.00     0.088 C 
ATOM     16  C18 ZIN A   1      19.622  -0.760  14.391  0.00  0.00     0.050 C 
ATOM     17  C16 ZIN A   1      19.628  -0.311  15.849  0.00  0.00     0.081 C 
ATOM     18  C15 ZIN A   1      19.118  -1.466  16.726  0.00  0.00     0.025 C 
ATOM     19  N19 ZIN A   1      18.772   0.843  16.064  0.00  0.00    -0.408 N 
ATOM     20  C14 ZIN A   1      17.659  -1.765  16.373  0.00  0.00     0.004 C 
ATOM     21  C13 ZIN A   1      16.808  -0.504  16.526  0.00  0.00     0.025 C 
ATOM     22  C11 ZIN A   1      17.396   0.617  15.653  0.00  0.00     0.081 C 
ATOM     23  C10 ZIN A   1      17.302   0.199  14.189  0.00  0.00     0.050 C 
ATOM     24  C20 ZIN A   1      19.338   2.135  15.745  0.00  0.00     0.144 C 
ENDBRANCH   3  15
TORSDOF 2
ENDMDL
MODEL 2
REMARK VINA RESULT:      -7.8      2.220      7.550
REMARK  2 active torsions:
REMARK  status: ('A' for Active; 'I' for Inactive)
REMARK    1  A    between atoms: C4_4  and  C5_5 
REMARK       I    between atoms: C5_5  and  N7_7 
REMARK    2  A    between atoms: N7_7  and  C8_8 
ROOT
ATOM      1  C5  ZIN A   1      18.809   0.480  12.996  0.00  0.00     0.273 C 
ATOM      2  O6  ZIN A   1      18.558   1.102  11.981  0.00  0.00    -0.266 OA
ATOM      3  N7  ZIN A   1      18.983  -0.855  12.942  0.00  0.00    -0.351 N 
ATOM      4  H30 ZIN A   1      19.183  -1.351  13.752  0.00  0.00     0.163 HD
ENDROOT
BRANCH   1   5
ATOM      5  C4  ZIN A   1      18.920   1.187  14.285  0.00  0.00     0.157 A 
ATOM      6  N3  ZIN A   1      18.980   2.488  14.468  0.00  0.00    -0.166 NA
ATOM      7  N2  ZIN A   1      19.074   2.794  15.712  0.00  0.00    -0.273 N 
ATOM      8  C1  ZIN A   1      19.159   4.165  16.222  0.00  0.00     0.180 C 
ATOM      9  C26 ZIN A   1      19.088   1.673  16.500  0.00  0.00     0.065 A 
ATOM     10  C21 ZIN A   1      18.984   0.577  15.621  0.00  0.00     0.028 A 
ATOM     11  C25 ZIN A   1      19.163   1.441  17.869  0.00  0.00     0.032 A 
ATOM     12  C22 ZIN A   1      18.968  -0.720  16.120  0.00  0.00     0.016 A 
ATOM     13  C23 ZIN A   1      19.048  -0.927  17.470  0.00  0.00     0.001 A 
ATOM     14  C24 ZIN A   1      19.145   0.148  18.343  0.00  0.00     0.002 A 
ENDBRANCH   1   5
BRANCH   3  15
ATOM     15  C8  ZIN A   1      18.872  -1.561  11.654  0.00  0.00     0.088 C 
ATOM     16  C18 ZIN A   1      17.459  -2.117  11.522  0.00  0.00     0.050 C 
ATOM     17  C16 ZIN A   1      17.333  -3.085  10.349  0.00  0.00     0.081 C 
ATOM     18  C15 ZIN A   1      16.956  -4.474  10.889  0.00  0.00     0.025 C 
ATOM     19  N19 ZIN A   1      18.576  -3.200   9.607  0.00  0.00    -0.408 N 
ATOM     20  C14 ZIN A   1      18.094  -5.004  11.764  0.00  0.00     0.004 C 
ATOM     21  C13 ZIN A   1      19.403  -5.026  10.974  0.00  0.00     0.025 C 
ATOM     22  C11 ZIN A   1      19.697  -3.617  10.435  0.00  0.00     0.081 C 
ATOM     23  C10 ZIN A   1      19.914  -2.675  11.614  0.00  0.00     0.050 C 
ATOM     24  C20 ZIN A   1      18.844  -2.170   8.628  0.00  0.00     0.144 C 
ENDBRANCH   3  15
TORSDOF 2
ENDMDL
MODEL 3
REMARK VINA RESULT:      -7.7      3.198      4.235
REMARK  2 active torsions:
REMARK  status: ('A' for Active; 'I' for Inactive)
REMARK    1  A    between atoms: C4_4  and  C5_5 
REMARK       I    between atoms: C5_5  and  N7_7 
REMARK    2  A    between atoms: N7_7  and  C8_8 
ROOT
ATOM      1  C5  ZIN A   1      17.687   2.605  11.560  0.00  0.00     0.273 C 
ATOM      2  O6  ZIN A   1      16.914   3.442  11.132  0.00  0.00    -0.266 OA
ATOM      3  N7  ZIN A   1      18.391   2.851  12.683  0.00  0.00    -0.351 N 
ATOM      4  H30 ZIN A   1      19.008   2.184  13.024  0.00  0.00     0.163 HD
ENDROOT
BRANCH   1   5
ATOM      5  C4  ZIN A   1      17.854   1.324  10.850  0.00  0.00     0.157 A 
ATOM      6  N3  ZIN A   1      17.622   0.121  11.330  0.00  0.00    -0.166 NA
ATOM      7  N2  ZIN A   1      17.864  -0.796  10.464  0.00  0.00    -0.273 N 
ATOM      8  C1  ZIN A   1      17.698  -2.230  10.710  0.00  0.00     0.180 C 
ATOM      9  C26 ZIN A   1      18.301  -0.259   9.281  0.00  0.00     0.065 A 
ATOM     10  C21 ZIN A   1      18.313   1.138   9.467  0.00  0.00     0.028 A 
ATOM     11  C25 ZIN A   1      18.682  -0.783   8.050  0.00  0.00     0.032 A 
ATOM     12  C22 ZIN A   1      18.712   1.977   8.433  0.00  0.00     0.016 A 
ATOM     13  C23 ZIN A   1      19.088   1.440   7.232  0.00  0.00     0.001 A 
ATOM     14  C24 ZIN A   1      19.074   0.065   7.040  0.00  0.00     0.002 A 
ENDBRANCH   1   5
BRANCH   3  15
ATOM     15  C8  ZIN A   1      18.224   4.131  13.392  0.00  0.00     0.088 C 
ATOM     16  C18 ZIN A   1      19.559   4.868  13.393  0.00  0.00     0.050 C 
ATOM     17  C16 ZIN A   1      19.547   6.072  14.329  0.00  0.00     0.081 C 
ATOM     18  C15 ZIN A   1      20.592   5.852  15.435  0.00  0.00     0.025 C 
ATOM     19  N19 ZIN A   1      18.248   6.259  14.953  0.00  0.00    -0.408 N 
ATOM     20  C14 ZIN A   1      20.188   4.643  16.282  0.00  0.00     0.004 C 
ATOM     21  C13 ZIN A   1      18.780   4.839  16.847  0.00  0.00     0.025 C 
ATOM     22  C11 ZIN A   1      17.797   5.091  15.692  0.00  0.00     0.081 C 
ATOM     23  C10 ZIN A   1      17.746   3.847  14.811  0.00  0.00     0.050 C 
ATOM     24  C20 ZIN A   1      17.250   6.955  14.172  0.00  0.00     0.144 C 
ENDBRANCH   3  15
TORSDOF 2
ENDMDL
MODEL 4
REMARK VINA RESULT:      -7.6      4.271      9.657
REMARK  2 active torsions:
REMARK  status: ('A' for Active; 'I' for Inactive)
REMARK    1  A    between atoms: C4_4  and  C5_5 
REMARK       I    between atoms: C5_5  and  N7_7 
REMARK    2  A    between atoms: N7_7  and  C8_8 
ROOT
ATOM      1  C5  ZIN A   1      18.832  -2.656   5.714  0.00  0.00     0.273 C 
ATOM      2  O6  ZIN A   1      19.620  -2.392   4.826  0.00  0.00    -0.266 OA
ATOM      3  N7  ZIN A   1      17.841  -3.544   5.493  0.00  0.00    -0.351 N 
ATOM      4  H30 ZIN A   1      17.212  -3.754   6.201  0.00  0.00     0.163 HD
ENDROOT
BRANCH   1   5
ATOM      5  C4  ZIN A   1      18.958  -2.005   7.030  0.00  0.00     0.157 A 
ATOM      6  N3  ZIN A   1      19.061  -2.602   8.198  0.00  0.00    -0.166 NA
ATOM      7  N2  ZIN A   1      19.157  -1.758   9.161  0.00  0.00    -0.273 N 
ATOM      8  C1  ZIN A   1      19.283  -2.126  10.574  0.00  0.00     0.180 C 
ATOM      9  C26 ZIN A   1      19.120  -0.468   8.698  0.00  0.00     0.065 A 
ATOM     10  C21 ZIN A   1      18.995  -0.561   7.297  0.00  0.00     0.028 A 
ATOM     11  C25 ZIN A   1      19.191   0.787   9.292  0.00  0.00     0.032 A 
ATOM     12  C22 ZIN A   1      18.934   0.593   6.524  0.00  0.00     0.016 A 
ATOM     13  C23 ZIN A   1      19.001   1.818   7.129  0.00  0.00     0.001 A 
ATOM     14  C24 ZIN A   1      19.129   1.917   8.507  0.00  0.00     0.002 A 
ENDBRANCH   1   5
BRANCH   3  15
ATOM     15  C8  ZIN A   1      17.715  -4.195   4.177  0.00  0.00     0.088 C 
ATOM     16  C18 ZIN A   1      16.550  -3.558   3.427  0.00  0.00     0.050 C 
ATOM     17  C16 ZIN A   1      16.180  -4.344   2.173  0.00  0.00     0.081 C 
ATOM     18  C15 ZIN A   1      14.741  -4.865   2.320  0.00  0.00     0.025 C 
ATOM     19  N19 ZIN A   1      17.062  -5.480   1.967  0.00  0.00    -0.408 N 
ATOM     20  C14 ZIN A   1      14.676  -5.855   3.485  0.00  0.00     0.004 C 
ATOM     21  C13 ZIN A   1      15.682  -6.988   3.274  0.00  0.00     0.025 C 
ATOM     22  C11 ZIN A   1      17.089  -6.394   3.098  0.00  0.00     0.081 C 
ATOM     23  C10 ZIN A   1      17.489  -5.688   4.389  0.00  0.00     0.050 C 
ATOM     24  C20 ZIN A   1      18.329  -5.206   1.327  0.00  0.00     0.144 C 
ENDBRANCH   3  15
TORSDOF 2
ENDMDL
MODEL 5
REMARK VINA RESULT:      -7.6      3.051      6.247
REMARK  2 active torsions:
REMARK  status: ('A' for Active; 'I' for Inactive)
REMARK    1  A    between atoms: C4_4  and  C5_5 
REMARK       I    between atoms: C5_5  and  N7_7 
REMARK    2  A    between atoms: N7_7  and  C8_8 
ROOT
ATOM      1  C5  ZIN A   1      19.472  -0.366  11.380  0.00  0.00     0.273 C 
ATOM      2  O6  ZIN A   1      20.595  -0.598  10.975  0.00  0.00    -0.266 OA
ATOM      3  N7  ZIN A   1      18.503  -1.295  11.249  0.00  0.00    -0.351 N 
ATOM      4  H30 ZIN A   1      17.607  -1.109  11.571  0.00  0.00     0.163 HD
ENDROOT
BRANCH   1   5
ATOM      5  C4  ZIN A   1      19.169   0.931  12.012  0.00  0.00     0.157 A 
ATOM      6  N3  ZIN A   1      19.231   1.216  13.295  0.00  0.00    -0.166 NA
ATOM      7  N2  ZIN A   1      18.906   2.435  13.531  0.00  0.00    -0.273 N 
ATOM      8  C1  ZIN A   1      18.880   3.040  14.866  0.00  0.00     0.180 C 
ATOM      9  C26 ZIN A   1      18.582   3.097  12.375  0.00  0.00     0.065 A 
ATOM     10  C21 ZIN A   1      18.740   2.161  11.334  0.00  0.00     0.028 A 
ATOM     11  C25 ZIN A   1      18.181   4.393  12.069  0.00  0.00     0.032 A 
ATOM     12  C22 ZIN A   1      18.486   2.532  10.018  0.00  0.00     0.016 A 
ATOM     13  C23 ZIN A   1      18.088   3.810   9.739  0.00  0.00     0.001 A 
ATOM     14  C24 ZIN A   1      17.935   4.739  10.760  0.00  0.00     0.002 A 
ENDBRANCH   1   5
BRANCH   3  15
ATOM     15  C8  ZIN A   1      18.806  -2.591  10.617  0.00  0.00     0.088 C 
ATOM     16  C18 ZIN A   1      17.804  -2.832   9.493  0.00  0.00     0.050 C 
ATOM     17  C16 ZIN A   1      17.874  -4.260   8.962  0.00  0.00     0.081 C 
ATOM     18  C15 ZIN A   1      16.525  -4.951   9.215  0.00  0.00     0.025 C 
ATOM     19  N19 ZIN A   1      18.917  -5.031   9.618  0.00  0.00    -0.408 N 
ATOM     20  C14 ZIN A   1      16.286  -5.063  10.722  0.00  0.00     0.004 C 
ATOM     21  C13 ZIN A   1      17.448  -5.802  11.389  0.00  0.00     0.025 C 
ATOM     22  C11 ZIN A   1      18.765  -5.079  11.064  0.00  0.00     0.081 C 
ATOM     23  C10 ZIN A   1      18.724  -3.683  11.678  0.00  0.00     0.050 C 
ATOM     24  C20 ZIN A   1      20.261  -4.860   9.115  0.00  0.00     0.144 C 
ENDBRANCH   3  15
TORSDOF 2
ENDMDL
MODEL 6
REMARK VINA RESULT:      -7.4      2.671      7.719
REMARK  2 active torsions:
REMARK  status: ('A' for Active; 'I' for Inactive)
REMARK    1  A    between atoms: C4_4  and  C5_5 
REMARK       I    between atoms: C5_5  and  N7_7 
REMARK    2  A    between atoms: N7_7  and  C8_8 
ROOT
ATOM      1  C5  ZIN A   1      18.063  -1.924  11.556  0.00  0.00     0.273 C 
ATOM      2  O6  ZIN A   1      17.001  -2.473  11.786  0.00  0.00    -0.266 OA
ATOM      3  N7  ZIN A   1      18.915  -2.455  10.656  0.00  0.00    -0.351 N 
ATOM      4  H30 ZIN A   1      19.761  -2.017  10.473  0.00  0.00     0.163 HD
ENDROOT
BRANCH   1   5
ATOM      5  C4  ZIN A   1      18.417  -0.680  12.263  0.00  0.00     0.157 A 
ATOM      6  N3  ZIN A   1      18.683   0.488  11.718  0.00  0.00    -0.166 NA
ATOM      7  N2  ZIN A   1      18.958   1.378  12.602  0.00  0.00    -0.273 N 
ATOM      8  C1  ZIN A   1      19.295   2.771  12.296  0.00  0.00     0.180 C 
ATOM      9  C26 ZIN A   1      18.900   0.856  13.868  0.00  0.00     0.065 A 
ATOM     10  C21 ZIN A   1      18.544  -0.498  13.715  0.00  0.00     0.028 A 
ATOM     11  C25 ZIN A   1      19.095   1.367  15.147  0.00  0.00     0.032 A 
ATOM     12  C22 ZIN A   1      18.399  -1.313  14.833  0.00  0.00     0.016 A 
ATOM     13  C23 ZIN A   1      18.600  -0.791  16.081  0.00  0.00     0.001 A 
ATOM     14  C24 ZIN A   1      18.947   0.544  16.240  0.00  0.00     0.002 A 
ENDBRANCH   1   5
BRANCH   3  15
ATOM     15  C8  ZIN A   1      18.560  -3.698   9.950  0.00  0.00     0.088 C 
ATOM     16  C18 ZIN A   1      19.808  -4.566   9.833  0.00  0.00     0.050 C 
ATOM     17  C16 ZIN A   1      19.597  -5.745   8.888  0.00  0.00     0.081 C 
ATOM     18  C15 ZIN A   1      20.567  -5.612   7.704  0.00  0.00     0.025 C 
ATOM     19  N19 ZIN A   1      18.240  -5.787   8.370  0.00  0.00    -0.408 N 
ATOM     20  C14 ZIN A   1      20.224  -4.353   6.905  0.00  0.00     0.004 C 
ATOM     21  C13 ZIN A   1      18.763  -4.394   6.454  0.00  0.00     0.025 C 
ATOM     22  C11 ZIN A   1      17.855  -4.565   7.682  0.00  0.00     0.081 C 
ATOM     23  C10 ZIN A   1      18.002  -3.339   8.577  0.00  0.00     0.050 C 
ATOM     24  C20 ZIN A   1      17.241  -6.392   9.222  0.00  0.00     0.144 C 
ENDBRANCH   3  15
TORSDOF 2
ENDMDL
MODEL 7
REMARK VINA RESULT:      -7.3      2.698      6.930
REMARK  2 active torsions:
REMARK  status: ('A' for Active; 'I' for Inactive)
REMARK    1  A    between atoms: C4_4  and  C5_5 
REMARK       I    between atoms: C5_5  and  N7_7 
REMARK    2  A    between atoms: N7_7  and  C8_8 
ROOT
ATOM      1  C5  ZIN A   1      18.024  -1.741  11.521  0.00  0.00     0.273 C 
ATOM      2  O6  ZIN A   1      17.003  -2.307  11.863  0.00  0.00    -0.266 OA
ATOM      3  N7  ZIN A   1      18.840  -2.314  10.613  0.00  0.00    -0.351 N 
ATOM      4  H30 ZIN A   1      19.655  -1.862  10.340  0.00  0.00     0.163 HD
ENDROOT
BRANCH   1   5
ATOM      5  C4  ZIN A   1      18.371  -0.430  12.100  0.00  0.00     0.157 A 
ATOM      6  N3  ZIN A   1      18.647  -0.175  13.361  0.00  0.00    -0.166 NA
ATOM      7  N2  ZIN A   1      18.910   1.068  13.551  0.00  0.00    -0.273 N 
ATOM      8  C1  ZIN A   1      19.252   1.650  14.851  0.00  0.00     0.180 C 
ATOM      9  C26 ZIN A   1      18.825   1.779  12.383  0.00  0.00     0.065 A 
ATOM     10  C21 ZIN A   1      18.477   0.848  11.384  0.00  0.00     0.028 A 
ATOM     11  C25 ZIN A   1      19.013   3.112  12.033  0.00  0.00     0.032 A 
ATOM     12  C22 ZIN A   1      18.315   1.264  10.067  0.00  0.00     0.016 A 
ATOM     13  C23 ZIN A   1      18.500   2.580   9.746  0.00  0.00     0.001 A 
ATOM     14  C24 ZIN A   1      18.847   3.502  10.723  0.00  0.00     0.002 A 
ENDBRANCH   1   5
BRANCH   3  15
ATOM     15  C8  ZIN A   1      18.494  -3.623  10.034  0.00  0.00     0.088 C 
ATOM     16  C18 ZIN A   1      19.742  -4.499  10.027  0.00  0.00     0.050 C 
ATOM     17  C16 ZIN A   1      19.543  -5.770   9.206  0.00  0.00     0.081 C 
ATOM     18  C15 ZIN A   1      20.532  -5.760   8.029  0.00  0.00     0.025 C 
ATOM     19  N19 ZIN A   1      18.195  -5.865   8.674  0.00  0.00    -0.408 N 
ATOM     20  C14 ZIN A   1      20.203  -4.591   7.099  0.00  0.00     0.004 C 
ATOM     21  C13 ZIN A   1      18.749  -4.678   6.632  0.00  0.00     0.025 C 
ATOM     22  C11 ZIN A   1      17.822  -4.721   7.858  0.00  0.00     0.081 C 
ATOM     23  C10 ZIN A   1      17.958  -3.409   8.623  0.00  0.00     0.050 C 
ATOM     24  C20 ZIN A   1      17.181  -6.378   9.569  0.00  0.00     0.144 C 
ENDBRANCH   3  15
TORSDOF 2
ENDMDL
MODEL 8
REMARK VINA RESULT:      -7.3      2.568      7.395
REMARK  2 active torsions:
REMARK  status: ('A' for Active; 'I' for Inactive)
REMARK    1  A    between atoms: C4_4  and  C5_5 
REMARK       I    between atoms: C5_5  and  N7_7 
REMARK    2  A    between atoms: N7_7  and  C8_8 
ROOT
ATOM      1  C5  ZIN A   1      19.497  -1.172  11.438  0.00  0.00     0.273 C 
ATOM      2  O6  ZIN A   1      20.464  -1.120  10.702  0.00  0.00    -0.266 OA
ATOM      3  N7  ZIN A   1      18.624  -2.194  11.333  0.00  0.00    -0.351 N 
ATOM      4  H30 ZIN A   1      17.853  -2.235  11.920  0.00  0.00     0.163 HD
ENDROOT
BRANCH   1   5
ATOM      5  C4  ZIN A   1      19.278  -0.116  12.443  0.00  0.00     0.157 A 
ATOM      6  N3  ZIN A   1      19.205   1.179  12.223  0.00  0.00    -0.166 NA
ATOM      7  N2  ZIN A   1      19.006   1.840  13.306  0.00  0.00    -0.273 N 
ATOM      8  C1  ZIN A   1      18.883   3.298  13.374  0.00  0.00     0.180 C 
ATOM      9  C26 ZIN A   1      18.930   1.005  14.390  0.00  0.00     0.065 A 
ATOM     10  C21 ZIN A   1      19.096  -0.301  13.889  0.00  0.00     0.028 A 
ATOM     11  C25 ZIN A   1      18.726   1.189  15.754  0.00  0.00     0.032 A 
ATOM     12  C22 ZIN A   1      19.065  -1.390  14.753  0.00  0.00     0.016 A 
ATOM     13  C23 ZIN A   1      18.868  -1.187  16.091  0.00  0.00     0.001 A 
ATOM     14  C24 ZIN A   1      18.698   0.097  16.592  0.00  0.00     0.002 A 
ENDBRANCH   1   5
BRANCH   3  15
ATOM     15  C8  ZIN A   1      18.843  -3.249  10.329  0.00  0.00     0.088 C 
ATOM     16  C18 ZIN A   1      17.785  -3.114   9.239  0.00  0.00     0.050 C 
ATOM     17  C16 ZIN A   1      17.771  -4.319   8.304  0.00  0.00     0.081 C 
ATOM     18  C15 ZIN A   1      16.405  -5.015   8.412  0.00  0.00     0.025 C 
ATOM     19  N19 ZIN A   1      18.806  -5.280   8.644  0.00  0.00    -0.408 N 
ATOM     20  C14 ZIN A   1      16.227  -5.567   9.828  0.00  0.00     0.004 C 
ATOM     21  C13 ZIN A   1      17.383  -6.504  10.181  0.00  0.00     0.025 C 
ATOM     22  C11 ZIN A   1      18.715  -5.755  10.015  0.00  0.00     0.081 C 
ATOM     23  C10 ZIN A   1      18.761  -4.607  11.018  0.00  0.00     0.050 C 
ATOM     24  C20 ZIN A   1      20.134  -5.004   8.142  0.00  0.00     0.144 C 
ENDBRANCH   3  15
TORSDOF 2
ENDMDL
MODEL 9
REMARK VINA RESULT:      -7.3      2.308      3.690
REMARK  2 active torsions:
REMARK  status: ('A' for Active; 'I' for Inactive)
REMARK    1  A    between atoms: C4_4  and  C5_5 
REMARK       I    between atoms: C5_5  and  N7_7 
REMARK    2  A    between atoms: N7_7  and  C8_8 
ROOT
ATOM      1  C5  ZIN A   1      19.007  -1.263   9.700  0.00  0.00     0.273 C 
ATOM      2  O6  ZIN A   1      19.583  -1.837  10.605  0.00  0.00    -0.266 OA
ATOM      3  N7  ZIN A   1      18.524  -0.019   9.891  0.00  0.00    -0.351 N 
ATOM      4  H30 ZIN A   1      18.065   0.438   9.169  0.00  0.00     0.163 HD
ENDROOT
BRANCH   1   5
ATOM      5  C4  ZIN A   1      18.837  -1.928   8.395  0.00  0.00     0.157 A 
ATOM      6  N3  ZIN A   1      18.634  -3.211   8.186  0.00  0.00    -0.166 NA
ATOM      7  N2  ZIN A   1      18.525  -3.481   6.935  0.00  0.00    -0.273 N 
ATOM      8  C1  ZIN A   1      18.296  -4.824   6.396  0.00  0.00     0.180 C 
ATOM      9  C26 ZIN A   1      18.655  -2.351   6.169  0.00  0.00     0.065 A 
ATOM     10  C21 ZIN A   1      18.858  -1.289   7.073  0.00  0.00     0.028 A 
ATOM     11  C25 ZIN A   1      18.613  -2.084   4.805  0.00  0.00     0.032 A 
ATOM     12  C22 ZIN A   1      19.024   0.008   6.600  0.00  0.00     0.016 A 
ATOM     13  C23 ZIN A   1      18.985   0.248   5.254  0.00  0.00     0.001 A 
ATOM     14  C24 ZIN A   1      18.780  -0.793   4.358  0.00  0.00     0.002 A 
ENDBRANCH   1   5
BRANCH   3  15
ATOM     15  C8  ZIN A   1      18.695   0.645  11.195  0.00  0.00     0.088 C 
ATOM     16  C18 ZIN A   1      17.416   1.406  11.526  0.00  0.00     0.050 C 
ATOM     17  C16 ZIN A   1      17.598   2.335  12.723  0.00  0.00     0.081 C 
ATOM     18  C15 ZIN A   1      17.377   3.785  12.264  0.00  0.00     0.025 C 
ATOM     19  N19 ZIN A   1      18.931   2.230  13.292  0.00  0.00    -0.408 N 
ATOM     20  C14 ZIN A   1      18.459   4.168  11.252  0.00  0.00     0.004 C 
ATOM     21  C13 ZIN A   1      19.848   3.959  11.858  0.00  0.00     0.025 C 
ATOM     22  C11 ZIN A   1      19.985   2.501  12.328  0.00  0.00     0.081 C 
ATOM     23  C10 ZIN A   1      19.894   1.583  11.113  0.00  0.00     0.050 C 
ATOM     24  C20 ZIN A   1      19.158   1.134  14.207  0.00  0.00     0.144 C 
ENDBRANCH   3  15
TORSDOF 2
ENDMDL
