MODEL 1
REMARK VINA RESULT:      -6.2      0.000      0.000
REMARK  6 active torsions:
REMARK  status: ('A' for Active; 'I' for Inactive)
REMARK    1  A    between atoms: C2_2  and  C3_3 
REMARK    2  A    between atoms: C3_3  and  C5_4 
REMARK    3  A    between atoms: C3_3  and  C12_11 
REMARK    4  A    between atoms: C9_8  and  O10_9 
REMARK    5  A    between atoms: C12_11  and  C15_13 
REMARK    6  A    between atoms: C15_13  and  N16_14 
ROOT
ATOM      1  C3  ZIN A   1      17.993   2.621  10.762  0.00  0.00     0.023 C 
ENDROOT
BRANCH   1   2
ATOM      2  C2  ZIN A   1      17.984   4.102  10.379  0.00  0.00     0.005 C 
ATOM      3  C1  ZIN A   1      16.729   4.768  10.948  0.00  0.00     0.006 C 
ENDBRANCH   1   2
BRANCH   1   4
ATOM      4  C5  ZIN A   1      18.208   1.784   9.526  0.00  0.00    -0.051 A 
ATOM      5  C11 ZIN A   1      17.653   0.522   9.443  0.00  0.00     0.044 A 
ATOM      6  C9  ZIN A   1      17.847  -0.245   8.303  0.00  0.00     0.066 A 
ATOM      7  C8  ZIN A   1      18.607   0.254   7.254  0.00  0.00     0.036 A 
ATOM      8  C7  ZIN A   1      19.164   1.514   7.346  0.00  0.00     0.003 A 
ATOM      9  C6  ZIN A   1      18.964   2.279   8.480  0.00  0.00     0.007 A 
BRANCH   6  10
ATOM     10  O10 ZIN A   1      17.299  -1.486   8.216  0.00  0.00    -0.361 OA
ATOM     11  H28 ZIN A   1      16.382  -1.533   8.520  0.00  0.00     0.217 HD
ENDBRANCH   6  10
ENDBRANCH   1   4
BRANCH   1  12
ATOM     12  C12 ZIN A   1      19.123   2.359  11.758  0.00  0.00     0.016 C 
ATOM     13  C14 ZIN A   1      20.035   3.586  11.830  0.00  0.00     0.012 C 
BRANCH  12  14
ATOM     14  C15 ZIN A   1      18.531   2.083  13.142  0.00  0.00     0.238 C 
BRANCH  14  15
ATOM     15  N16 ZIN A   1      19.596   1.648  14.054  0.00  0.00    -0.078 N 
ATOM     16  H17 ZIN A   1      20.404   2.240  13.934  0.00  0.00     0.278 HD
ATOM     17  C18 ZIN A   1      19.122   1.741  15.441  0.00  0.00     0.269 C 
ATOM     18  C19 ZIN A   1      19.961   0.257  13.753  0.00  0.00     0.269 C 
ENDBRANCH  14  15
ENDBRANCH  12  14
ENDBRANCH   1  12
TORSDOF 6
ENDMDL
MODEL 2
REMARK VINA RESULT:      -5.8      1.811      2.097
REMARK  6 active torsions:
REMARK  status: ('A' for Active; 'I' for Inactive)
REMARK    1  A    between atoms: C2_2  and  C3_3 
REMARK    2  A    between atoms: C3_3  and  C5_4 
REMARK    3  A    between atoms: C3_3  and  C12_11 
REMARK    4  A    between atoms: C9_8  and  O10_9 
REMARK    5  A    between atoms: C12_11  and  C15_13 
REMARK    6  A    between atoms: C15_13  and  N16_14 
ROOT
ATOM      1  C3  ZIN A   1      18.230   2.956  11.603  0.00  0.00     0.023 C 
ENDROOT
BRANCH   1   2
ATOM      2  C2  ZIN A   1      18.052   4.181  10.704  0.00  0.00     0.005 C 
ATOM      3  C1  ZIN A   1      16.663   4.782  10.928  0.00  0.00     0.006 C 
ENDBRANCH   1   2
BRANCH   1   4
ATOM      4  C5  ZIN A   1      18.722   1.794  10.779  0.00  0.00    -0.051 A 
ATOM      5  C11 ZIN A   1      19.860   1.111  11.160  0.00  0.00     0.044 A 
ATOM      6  C9  ZIN A   1      20.309   0.038  10.403  0.00  0.00     0.066 A 
ATOM      7  C8  ZIN A   1      19.619  -0.339   9.259  0.00  0.00     0.036 A 
ATOM      8  C7  ZIN A   1      18.485   0.352   8.880  0.00  0.00     0.003 A 
ATOM      9  C6  ZIN A   1      18.036   1.417   9.639  0.00  0.00     0.007 A 
BRANCH   6  10
ATOM     10  O10 ZIN A   1      21.426  -0.639  10.778  0.00  0.00    -0.361 OA
ATOM     11  H28 ZIN A   1      22.152  -0.071  11.068  0.00  0.00     0.217 HD
ENDBRANCH   6  10
ENDBRANCH   1   4
BRANCH   1  12
ATOM     12  C12 ZIN A   1      19.249   3.272  12.699  0.00  0.00     0.016 C 
ATOM     13  C14 ZIN A   1      19.822   4.672  12.475  0.00  0.00     0.012 C 
BRANCH  12  14
ATOM     14  C15 ZIN A   1      18.562   3.216  14.066  0.00  0.00     0.238 C 
BRANCH  14  15
ATOM     15  N16 ZIN A   1      19.423   2.500  15.017  0.00  0.00    -0.078 N 
ATOM     16  H17 ZIN A   1      20.389   2.710  14.821  0.00  0.00     0.278 HD
ATOM     17  C18 ZIN A   1      19.097   2.923  16.386  0.00  0.00     0.269 C 
ATOM     18  C19 ZIN A   1      19.200   1.054  14.886  0.00  0.00     0.269 C 
ENDBRANCH  14  15
ENDBRANCH  12  14
ENDBRANCH   1  12
TORSDOF 6
ENDMDL
MODEL 3
REMARK VINA RESULT:      -5.8      2.132      3.179
REMARK  6 active torsions:
REMARK  status: ('A' for Active; 'I' for Inactive)
REMARK    1  A    between atoms: C2_2  and  C3_3 
REMARK    2  A    between atoms: C3_3  and  C5_4 
REMARK    3  A    between atoms: C3_3  and  C12_11 
REMARK    4  A    between atoms: C9_8  and  O10_9 
REMARK    5  A    between atoms: C12_11  and  C15_13 
REMARK    6  A    between atoms: C15_13  and  N16_14 
ROOT
ATOM      1  C3  ZIN A   1      18.139   0.815   8.548  0.00  0.00     0.023 C 
ENDROOT
BRANCH   1   2
ATOM      2  C2  ZIN A   1      19.224   1.840   8.881  0.00  0.00     0.005 C 
ATOM      3  C1  ZIN A   1      18.584   3.066   9.538  0.00  0.00     0.006 C 
ENDBRANCH   1   2
BRANCH   1   4
ATOM      4  C5  ZIN A   1      18.266   0.400   7.104  0.00  0.00    -0.051 A 
ATOM      5  C11 ZIN A   1      17.407  -0.546   6.580  0.00  0.00     0.044 A 
ATOM      6  C9  ZIN A   1      17.522  -0.923   5.250  0.00  0.00     0.066 A 
ATOM      7  C8  ZIN A   1      18.505  -0.355   4.452  0.00  0.00     0.036 A 
ATOM      8  C7  ZIN A   1      19.364   0.587   4.983  0.00  0.00     0.003 A 
ATOM      9  C6  ZIN A   1      19.245   0.965   6.308  0.00  0.00     0.007 A 
BRANCH   6  10
ATOM     10  O10 ZIN A   1      16.676  -1.851   4.730  0.00  0.00    -0.361 OA
ATOM     11  H28 ZIN A   1      16.845  -2.752   5.035  0.00  0.00     0.217 HD
ENDBRANCH   6  10
ENDBRANCH   1   4
BRANCH   1  12
ATOM     12  C12 ZIN A   1      18.304  -0.412   9.447  0.00  0.00     0.016 C 
ATOM     13  C14 ZIN A   1      19.747  -0.485   9.950  0.00  0.00     0.012 C 
BRANCH  12  14
ATOM     14  C15 ZIN A   1      17.353  -0.301  10.641  0.00  0.00     0.238 C 
BRANCH  14  15
ATOM     15  N16 ZIN A   1      18.130  -0.078  11.868  0.00  0.00    -0.078 N 
ATOM     16  H17 ZIN A   1      19.110  -0.012  11.638  0.00  0.00     0.278 HD
ATOM     17  C18 ZIN A   1      17.691   1.169  12.506  0.00  0.00     0.269 C 
ATOM     18  C19 ZIN A   1      17.920  -1.202  12.791  0.00  0.00     0.269 C 
ENDBRANCH  14  15
ENDBRANCH  12  14
ENDBRANCH   1  12
TORSDOF 6
ENDMDL
MODEL 4
REMARK VINA RESULT:      -5.7      2.896      4.166
REMARK  6 active torsions:
REMARK  status: ('A' for Active; 'I' for Inactive)
REMARK    1  A    between atoms: C2_2  and  C3_3 
REMARK    2  A    between atoms: C3_3  and  C5_4 
REMARK    3  A    between atoms: C3_3  and  C12_11 
REMARK    4  A    between atoms: C9_8  and  O10_9 
REMARK    5  A    between atoms: C12_11  and  C15_13 
REMARK    6  A    between atoms: C15_13  and  N16_14 
ROOT
ATOM      1  C3  ZIN A   1      18.709   0.565   9.343  0.00  0.00     0.023 C 
ENDROOT
BRANCH   1   2
ATOM      2  C2  ZIN A   1      19.399   1.929   9.410  0.00  0.00     0.005 C 
ATOM      3  C1  ZIN A   1      18.378   3.000   9.799  0.00  0.00     0.006 C 
ENDBRANCH   1   2
BRANCH   1   4
ATOM      4  C5  ZIN A   1      18.361   0.248   7.911  0.00  0.00    -0.051 A 
ATOM      5  C11 ZIN A   1      19.344   0.267   6.942  0.00  0.00     0.044 A 
ATOM      6  C9  ZIN A   1      19.024  -0.030   5.625  0.00  0.00     0.066 A 
ATOM      7  C8  ZIN A   1      17.713  -0.337   5.284  0.00  0.00     0.036 A 
ATOM      8  C7  ZIN A   1      16.734  -0.349   6.258  0.00  0.00     0.003 A 
ATOM      9  C6  ZIN A   1      17.057  -0.058   7.570  0.00  0.00     0.007 A 
BRANCH   6  10
ATOM     10  O10 ZIN A   1      19.990  -0.016   4.669  0.00  0.00    -0.361 OA
ATOM     11  H28 ZIN A   1      20.890  -0.015   5.021  0.00  0.00     0.217 HD
ENDBRANCH   6  10
ENDBRANCH   1   4
BRANCH   1  12
ATOM     12  C12 ZIN A   1      19.650  -0.509   9.889  0.00  0.00     0.016 C 
ATOM     13  C14 ZIN A   1      20.352   0.016  11.144  0.00  0.00     0.012 C 
BRANCH  12  14
ATOM     14  C15 ZIN A   1      18.844  -1.762  10.244  0.00  0.00     0.238 C 
BRANCH  14  15
ATOM     15  N16 ZIN A   1      19.528  -2.950   9.717  0.00  0.00    -0.078 N 
ATOM     16  H17 ZIN A   1      20.469  -2.706   9.448  0.00  0.00     0.278 HD
ATOM     17  C18 ZIN A   1      19.568  -3.991  10.752  0.00  0.00     0.269 C 
ATOM     18  C19 ZIN A   1      18.801  -3.453   8.544  0.00  0.00     0.269 C 
ENDBRANCH  14  15
ENDBRANCH  12  14
ENDBRANCH   1  12
TORSDOF 6
ENDMDL
MODEL 5
REMARK VINA RESULT:      -5.6      3.414      6.590
REMARK  6 active torsions:
REMARK  status: ('A' for Active; 'I' for Inactive)
REMARK    1  A    between atoms: C2_2  and  C3_3 
REMARK    2  A    between atoms: C3_3  and  C5_4 
REMARK    3  A    between atoms: C3_3  and  C12_11 
REMARK    4  A    between atoms: C9_8  and  O10_9 
REMARK    5  A    between atoms: C12_11  and  C15_13 
REMARK    6  A    between atoms: C15_13  and  N16_14 
ROOT
ATOM      1  C3  ZIN A   1      18.035  -0.529  13.147  0.00  0.00     0.023 C 
ENDROOT
BRANCH   1   2
ATOM      2  C2  ZIN A   1      18.766  -1.711  12.508  0.00  0.00     0.005 C 
ATOM      3  C1  ZIN A   1      17.755  -2.612  11.796  0.00  0.00     0.006 C 
ENDBRANCH   1   2
BRANCH   1   4
ATOM      4  C5  ZIN A   1      18.188  -0.592  14.645  0.00  0.00    -0.051 A 
ATOM      5  C11 ZIN A   1      17.411   0.214  15.453  0.00  0.00     0.044 A 
ATOM      6  C9  ZIN A   1      17.549   0.151  16.832  0.00  0.00     0.066 A 
ATOM      7  C8  ZIN A   1      18.476  -0.716  17.395  0.00  0.00     0.036 A 
ATOM      8  C7  ZIN A   1      19.254  -1.516  16.582  0.00  0.00     0.003 A 
ATOM      9  C6  ZIN A   1      19.110  -1.455  15.208  0.00  0.00     0.007 A 
BRANCH   6  10
ATOM     10  O10 ZIN A   1      16.783   0.940  17.630  0.00  0.00    -0.361 OA
ATOM     11  H28 ZIN A   1      16.849   1.883  17.429  0.00  0.00     0.217 HD
ENDBRANCH   6  10
ENDBRANCH   1   4
BRANCH   1  12
ATOM     12  C12 ZIN A   1      18.632   0.780  12.628  0.00  0.00     0.016 C 
ATOM     13  C14 ZIN A   1      20.145   0.619  12.460  0.00  0.00     0.012 C 
BRANCH  12  14
ATOM     14  C15 ZIN A   1      18.004   1.128  11.276  0.00  0.00     0.238 C 
BRANCH  14  15
ATOM     15  N16 ZIN A   1      18.568   2.392  10.785  0.00  0.00    -0.078 N 
ATOM     16  H17 ZIN A   1      19.417   2.600  11.288  0.00  0.00     0.278 HD
ATOM     17  C18 ZIN A   1      18.864   2.271   9.351  0.00  0.00     0.269 C 
ATOM     18  C19 ZIN A   1      17.598   3.475  10.995  0.00  0.00     0.269 C 
ENDBRANCH  14  15
ENDBRANCH  12  14
ENDBRANCH   1  12
TORSDOF 6
ENDMDL
MODEL 6
REMARK VINA RESULT:      -5.6      1.385      2.366
REMARK  6 active torsions:
REMARK  status: ('A' for Active; 'I' for Inactive)
REMARK    1  A    between atoms: C2_2  and  C3_3 
REMARK    2  A    between atoms: C3_3  and  C5_4 
REMARK    3  A    between atoms: C3_3  and  C12_11 
REMARK    4  A    between atoms: C9_8  and  O10_9 
REMARK    5  A    between atoms: C12_11  and  C15_13 
REMARK    6  A    between atoms: C15_13  and  N16_14 
ROOT
ATOM      1  C3  ZIN A   1      18.564   1.419  10.590  0.00  0.00     0.023 C 
ENDROOT
BRANCH   1   2
ATOM      2  C2  ZIN A   1      17.209   1.069  11.207  0.00  0.00     0.005 C 
ATOM      3  C1  ZIN A   1      17.413   0.095  12.369  0.00  0.00     0.006 C 
ENDBRANCH   1   2
BRANCH   1   4
ATOM      4  C5  ZIN A   1      18.562   1.050   9.129  0.00  0.00    -0.051 A 
ATOM      5  C11 ZIN A   1      18.026  -0.157   8.723  0.00  0.00     0.044 A 
ATOM      6  C9  ZIN A   1      18.019  -0.493   7.377  0.00  0.00     0.066 A 
ATOM      7  C8  ZIN A   1      18.560   0.379   6.443  0.00  0.00     0.036 A 
ATOM      8  C7  ZIN A   1      19.099   1.582   6.856  0.00  0.00     0.003 A 
ATOM      9  C6  ZIN A   1      19.100   1.918   8.197  0.00  0.00     0.007 A 
BRANCH   6  10
ATOM     10  O10 ZIN A   1      17.489  -1.678   6.975  0.00  0.00    -0.361 OA
ATOM     11  H28 ZIN A   1      16.525  -1.677   6.915  0.00  0.00     0.217 HD
ENDBRANCH   6  10
ENDBRANCH   1   4
BRANCH   1  12
ATOM     12  C12 ZIN A   1      18.818   2.920  10.736  0.00  0.00     0.016 C 
ATOM     13  C14 ZIN A   1      17.484   3.649  10.913  0.00  0.00     0.012 C 
BRANCH  12  14
ATOM     14  C15 ZIN A   1      19.701   3.172  11.961  0.00  0.00     0.238 C 
BRANCH  14  15
ATOM     15  N16 ZIN A   1      18.942   3.927  12.966  0.00  0.00    -0.078 N 
ATOM     16  H17 ZIN A   1      18.040   4.177  12.589  0.00  0.00     0.278 HD
ATOM     17  C18 ZIN A   1      18.758   3.098  14.165  0.00  0.00     0.269 C 
ATOM     18  C19 ZIN A   1      19.679   5.147  13.322  0.00  0.00     0.269 C 
ENDBRANCH  14  15
ENDBRANCH  12  14
ENDBRANCH   1  12
TORSDOF 6
ENDMDL
MODEL 7
REMARK VINA RESULT:      -5.5      2.742      4.574
REMARK  6 active torsions:
REMARK  status: ('A' for Active; 'I' for Inactive)
REMARK    1  A    between atoms: C2_2  and  C3_3 
REMARK    2  A    between atoms: C3_3  and  C5_4 
REMARK    3  A    between atoms: C3_3  and  C12_11 
REMARK    4  A    between atoms: C9_8  and  O10_9 
REMARK    5  A    between atoms: C12_11  and  C15_13 
REMARK    6  A    between atoms: C15_13  and  N16_14 
ROOT
ATOM      1  C3  ZIN A   1      19.079   1.465  10.140  0.00  0.00     0.023 C 
ENDROOT
BRANCH   1   2
ATOM      2  C2  ZIN A   1      18.306   1.414   8.822  0.00  0.00     0.005 C 
ATOM      3  C1  ZIN A   1      19.276   1.602   7.653  0.00  0.00     0.006 C 
ENDBRANCH   1   2
BRANCH   1   4
ATOM      4  C5  ZIN A   1      18.752   2.746  10.866  0.00  0.00    -0.051 A 
ATOM      5  C11 ZIN A   1      19.641   3.263  11.787  0.00  0.00     0.044 A 
ATOM      6  C9  ZIN A   1      19.341   4.445  12.450  0.00  0.00     0.066 A 
ATOM      7  C8  ZIN A   1      18.144   5.098  12.192  0.00  0.00     0.036 A 
ATOM      8  C7  ZIN A   1      17.257   4.572  11.274  0.00  0.00     0.003 A 
ATOM      9  C6  ZIN A   1      17.560   3.398  10.611  0.00  0.00     0.007 A 
BRANCH   6  10
ATOM     10  O10 ZIN A   1      20.216   4.959  13.354  0.00  0.00    -0.361 OA
ATOM     11  H28 ZIN A   1      20.505   5.859  13.153  0.00  0.00     0.217 HD
ENDBRANCH   6  10
ENDBRANCH   1   4
BRANCH   1  12
ATOM     12  C12 ZIN A   1      18.683   0.271  11.010  0.00  0.00     0.016 C 
ATOM     13  C14 ZIN A   1      17.386  -0.340  10.478  0.00  0.00     0.012 C 
BRANCH  12  14
ATOM     14  C15 ZIN A   1      19.795  -0.780  10.970  0.00  0.00     0.238 C 
BRANCH  14  15
ATOM     15  N16 ZIN A   1      20.097  -1.226  12.337  0.00  0.00    -0.078 N 
ATOM     16  H17 ZIN A   1      21.071  -1.480  12.401  0.00  0.00     0.278 HD
ATOM     17  C18 ZIN A   1      19.812  -0.138  13.281  0.00  0.00     0.269 C 
ATOM     18  C19 ZIN A   1      19.265  -2.391  12.667  0.00  0.00     0.269 C 
ENDBRANCH  14  15
ENDBRANCH  12  14
ENDBRANCH   1  12
TORSDOF 6
ENDMDL
MODEL 8
REMARK VINA RESULT:      -5.5      4.002      6.580
REMARK  6 active torsions:
REMARK  status: ('A' for Active; 'I' for Inactive)
REMARK    1  A    between atoms: C2_2  and  C3_3 
REMARK    2  A    between atoms: C3_3  and  C5_4 
REMARK    3  A    between atoms: C3_3  and  C12_11 
REMARK    4  A    between atoms: C9_8  and  O10_9 
REMARK    5  A    between atoms: C12_11  and  C15_13 
REMARK    6  A    between atoms: C15_13  and  N16_14 
ROOT
ATOM      1  C3  ZIN A   1      18.676  -0.772  12.872  0.00  0.00     0.023 C 
ENDROOT
BRANCH   1   2
ATOM      2  C2  ZIN A   1      19.048   0.646  12.436  0.00  0.00     0.005 C 
ATOM      3  C1  ZIN A   1      20.555   0.724  12.183  0.00  0.00     0.006 C 
ENDBRANCH   1   2
BRANCH   1   4
ATOM      4  C5  ZIN A   1      18.554  -0.820  14.374  0.00  0.00    -0.051 A 
ATOM      5  C11 ZIN A   1      17.500  -0.184  15.001  0.00  0.00     0.044 A 
ATOM      6  C9  ZIN A   1      17.386  -0.233  16.382  0.00  0.00     0.066 A 
ATOM      7  C8  ZIN A   1      18.335  -0.914  17.132  0.00  0.00     0.036 A 
ATOM      8  C7  ZIN A   1      19.389  -1.543  16.500  0.00  0.00     0.003 A 
ATOM      9  C6  ZIN A   1      19.498  -1.498  15.122  0.00  0.00     0.007 A 
BRANCH   6  10
ATOM     10  O10 ZIN A   1      16.348   0.389  17.002  0.00  0.00    -0.361 OA
ATOM     11  H28 ZIN A   1      16.271   1.329  16.791  0.00  0.00     0.217 HD
ENDBRANCH   6  10
ENDBRANCH   1   4
BRANCH   1  12
ATOM     12  C12 ZIN A   1      17.342  -1.168  12.239  0.00  0.00     0.016 C 
ATOM     13  C14 ZIN A   1      16.910  -0.089  11.243  0.00  0.00     0.012 C 
BRANCH  12  14
ATOM     14  C15 ZIN A   1      17.500  -2.502  11.506  0.00  0.00     0.238 C 
BRANCH  14  15
ATOM     15  N16 ZIN A   1      18.884  -2.644  11.037  0.00  0.00    -0.078 N 
ATOM     16  H17 ZIN A   1      19.442  -1.886  11.401  0.00  0.00     0.278 HD
ATOM     17  C18 ZIN A   1      19.432  -3.924  11.507  0.00  0.00     0.269 C 
ATOM     18  C19 ZIN A   1      18.910  -2.609   9.569  0.00  0.00     0.269 C 
ENDBRANCH  14  15
ENDBRANCH  12  14
ENDBRANCH   1  12
TORSDOF 6
ENDMDL
MODEL 9
REMARK VINA RESULT:      -5.5      2.876      4.270
REMARK  6 active torsions:
REMARK  status: ('A' for Active; 'I' for Inactive)
REMARK    1  A    between atoms: C2_2  and  C3_3 
REMARK    2  A    between atoms: C3_3  and  C5_4 
REMARK    3  A    between atoms: C3_3  and  C12_11 
REMARK    4  A    between atoms: C9_8  and  O10_9 
REMARK    5  A    between atoms: C12_11  and  C15_13 
REMARK    6  A    between atoms: C15_13  and  N16_14 
ROOT
ATOM      1  C3  ZIN A   1      19.111  -1.395   8.906  0.00  0.00     0.023 C 
ENDROOT
BRANCH   1   2
ATOM      2  C2  ZIN A   1      17.877  -2.283   9.073  0.00  0.00     0.005 C 
ATOM      3  C1  ZIN A   1      18.314  -3.698   9.459  0.00  0.00     0.006 C 
ENDBRANCH   1   2
BRANCH   1   4
ATOM      4  C5  ZIN A   1      19.135  -0.824   7.511  0.00  0.00    -0.051 A 
ATOM      5  C11 ZIN A   1      19.320  -1.659   6.427  0.00  0.00     0.044 A 
ATOM      6  C9  ZIN A   1      19.337  -1.134   5.143  0.00  0.00     0.066 A 
ATOM      7  C8  ZIN A   1      19.177   0.232   4.953  0.00  0.00     0.036 A 
ATOM      8  C7  ZIN A   1      18.998   1.063   6.041  0.00  0.00     0.003 A 
ATOM      9  C6  ZIN A   1      18.977   0.536   7.319  0.00  0.00     0.007 A 
BRANCH   6  10
ATOM     10  O10 ZIN A   1      19.515  -1.953   4.074  0.00  0.00    -0.361 OA
ATOM     11  H28 ZIN A   1      19.528  -1.493   3.224  0.00  0.00     0.217 HD
ENDBRANCH   6  10
ENDBRANCH   1   4
BRANCH   1  12
ATOM     12  C12 ZIN A   1      19.059  -0.254   9.923  0.00  0.00     0.016 C 
ATOM     13  C14 ZIN A   1      17.641  -0.136  10.485  0.00  0.00     0.012 C 
BRANCH  12  14
ATOM     14  C15 ZIN A   1      20.036  -0.543  11.065  0.00  0.00     0.238 C 
BRANCH  14  15
ATOM     15  N16 ZIN A   1      19.289  -0.725  12.316  0.00  0.00    -0.078 N 
ATOM     16  H17 ZIN A   1      18.323  -0.472  12.171  0.00  0.00     0.278 HD
ATOM     17  C18 ZIN A   1      19.369  -2.131  12.734  0.00  0.00     0.269 C 
ATOM     18  C19 ZIN A   1      19.867   0.130  13.361  0.00  0.00     0.269 C 
ENDBRANCH  14  15
ENDBRANCH  12  14
ENDBRANCH   1  12
TORSDOF 6
ENDMDL
