MODEL 1
REMARK VINA RESULT:      -9.5      0.000      0.000
REMARK  2 active torsions:
REMARK  status: ('A' for Active; 'I' for Inactive)
REMARK    1  A    between atoms: C11_11  and  C12_12 
REMARK    2  A    between atoms: C16_15  and  C18_16 
ROOT
ATOM      1  O1  <0> d   1      19.272   0.986   5.710  0.00  0.00    -0.284 OA
ATOM      2  C2  <0> d   1      19.021   0.103   6.506  0.00  0.00     0.220 C 
ATOM      3  C3  <0> d   1      18.859  -1.295   6.049  0.00  0.00     0.031 A 
ATOM      4  C4  <0> d   1      18.715  -1.598   4.701  0.00  0.00     0.016 A 
ATOM      5  C5  <0> d   1      18.566  -2.920   4.307  0.00  0.00     0.001 A 
ATOM      6  C6  <0> d   1      18.560  -3.934   5.246  0.00  0.00     0.001 A 
ATOM      7  C7  <0> d   1      18.702  -3.644   6.594  0.00  0.00     0.016 A 
ATOM      8  C8  <0> d   1      18.853  -2.328   7.004  0.00  0.00     0.029 A 
ATOM      9  C9  <0> d   1      19.008  -1.984   8.436  0.00  0.00     0.192 C 
ATOM     10  O10 <0> d   1      19.249  -2.851   9.253  0.00  0.00    -0.287 OA
ATOM     11  C11 <0> d   1      18.866  -0.586   8.861  0.00  0.00     0.037 C 
ATOM     12  C27 <0> d   1      18.877   0.411   7.951  0.00  0.00     0.168 C 
ATOM     13  O28 <0> d   1      18.746   1.695   8.354  0.00  0.00    -0.187 OA
ENDROOT
BRANCH  11  14
ATOM     14  C12 <0> d   1      18.713  -0.260  10.325  0.00  0.00     0.026 C 
ATOM     15  C26 <0> d   1      20.011  -0.598  11.061  0.00  0.00     0.010 C 
ATOM     16  C25 <0> d   1      19.855  -0.268  12.546  0.00  0.00     0.010 C 
ATOM     17  C16 <0> d   1      18.706  -1.090  13.134  0.00  0.00     0.018 C 
ATOM     18  C15 <0> d   1      17.408  -0.751  12.398  0.00  0.00     0.010 C 
ATOM     19  C14 <0> d   1      17.563  -1.082  10.911  0.00  0.00     0.010 C 
BRANCH  17  20
ATOM     20  C18 <0> d   1      18.553  -0.765  14.597  0.00  0.00    -0.054 A 
ATOM     21  C24 <0> d   1      19.229  -1.508  15.545  0.00  0.00     0.009 A 
ATOM     22  C23 <0> d   1      19.094  -1.206  16.888  0.00  0.00     0.024 A 
ATOM     23  C21 <0> d   1      18.270  -0.167  17.283  0.00  0.00     0.034 A 
ATOM     24  C20 <0> d   1      17.588   0.574  16.334  0.00  0.00     0.024 A 
ATOM     25 Cl22 <0> d   1      18.093   0.207  18.968  0.00  0.00    -0.084 Cl
ATOM     26  C19 <0> d   1      17.729   0.274  14.992  0.00  0.00     0.009 A 
ENDBRANCH  17  20
ENDBRANCH  11  14
TORSDOF 2
ENDMDL
MODEL 2
REMARK VINA RESULT:      -9.5      4.106      9.398
REMARK  2 active torsions:
REMARK  status: ('A' for Active; 'I' for Inactive)
REMARK    1  A    between atoms: C11_11  and  C12_12 
REMARK    2  A    between atoms: C16_15  and  C18_16 
ROOT
ATOM      1  O1  <0> d   1      19.124  -0.873  17.391  0.00  0.00    -0.284 OA
ATOM      2  C2  <0> d   1      18.879  -0.002  16.582  0.00  0.00     0.220 C 
ATOM      3  C3  <0> d   1      18.697   1.400  17.020  0.00  0.00     0.031 A 
ATOM      4  C4  <0> d   1      18.527   1.717  18.362  0.00  0.00     0.016 A 
ATOM      5  C5  <0> d   1      18.360   3.042  18.738  0.00  0.00     0.001 A 
ATOM      6  C6  <0> d   1      18.361   4.045  17.789  0.00  0.00     0.001 A 
ATOM      7  C7  <0> d   1      18.529   3.742  16.446  0.00  0.00     0.016 A 
ATOM      8  C8  <0> d   1      18.698   2.422  16.054  0.00  0.00     0.029 A 
ATOM      9  C9  <0> d   1      18.880   2.064  14.628  0.00  0.00     0.192 C 
ATOM     10  O10 <0> d   1      19.128   2.925  13.806  0.00  0.00    -0.287 OA
ATOM     11  C11 <0> d   1      18.758   0.660  14.216  0.00  0.00     0.037 C 
ATOM     12  C27 <0> d   1      18.762  -0.326  15.138  0.00  0.00     0.168 C 
ATOM     13  O28 <0> d   1      18.650  -1.616  14.746  0.00  0.00    -0.187 OA
ENDROOT
BRANCH  11  14
ATOM     14  C12 <0> d   1      18.633   0.317  12.754  0.00  0.00     0.026 C 
ATOM     15  C26 <0> d   1      19.870   0.815  12.005  0.00  0.00     0.010 C 
ATOM     16  C25 <0> d   1      19.743   0.466  10.521  0.00  0.00     0.010 C 
ATOM     17  C16 <0> d   1      18.495   1.138   9.945  0.00  0.00     0.018 C 
ATOM     18  C15 <0> d   1      17.256   0.640  10.694  0.00  0.00     0.010 C 
ATOM     19  C14 <0> d   1      17.383   0.988  12.179  0.00  0.00     0.010 C 
BRANCH  17  20
ATOM     20  C18 <0> d   1      18.369   0.795   8.483  0.00  0.00    -0.054 A 
ATOM     21  C24 <0> d   1      19.201   1.396   7.559  0.00  0.00     0.009 A 
ATOM     22  C23 <0> d   1      19.091   1.077   6.218  0.00  0.00     0.024 A 
ATOM     23  C21 <0> d   1      18.137   0.166   5.800  0.00  0.00     0.034 A 
ATOM     24  C20 <0> d   1      17.299  -0.432   6.726  0.00  0.00     0.024 A 
ATOM     25 Cl22 <0> d   1      17.992  -0.229   4.117  0.00  0.00    -0.084 Cl
ATOM     26  C19 <0> d   1      17.415  -0.116   8.067  0.00  0.00     0.009 A 
ENDBRANCH  17  20
ENDBRANCH  11  14
TORSDOF 2
ENDMDL
MODEL 3
REMARK VINA RESULT:      -9.1      3.971      8.937
REMARK  2 active torsions:
REMARK  status: ('A' for Active; 'I' for Inactive)
REMARK    1  A    between atoms: C11_11  and  C12_12 
REMARK    2  A    between atoms: C16_15  and  C18_16 
ROOT
ATOM      1  O1  <0> d   1      18.429   4.024  16.025  0.00  0.00    -0.284 OA
ATOM      2  C2  <0> d   1      18.554   2.912  15.553  0.00  0.00     0.220 C 
ATOM      3  C3  <0> d   1      18.775   1.744  16.434  0.00  0.00     0.031 A 
ATOM      4  C4  <0> d   1      19.118   1.907  17.770  0.00  0.00     0.016 A 
ATOM      5  C5  <0> d   1      19.318   0.790  18.569  0.00  0.00     0.001 A 
ATOM      6  C6  <0> d   1      19.178  -0.480  18.043  0.00  0.00     0.001 A 
ATOM      7  C7  <0> d   1      18.836  -0.657  16.711  0.00  0.00     0.016 A 
ATOM      8  C8  <0> d   1      18.632   0.450  15.900  0.00  0.00     0.029 A 
ATOM      9  C9  <0> d   1      18.266   0.298  14.473  0.00  0.00     0.192 C 
ATOM     10  O10 <0> d   1      17.899  -0.780  14.046  0.00  0.00    -0.287 OA
ATOM     11  C11 <0> d   1      18.350   1.460  13.579  0.00  0.00     0.037 C 
ATOM     12  C27 <0> d   1      18.481   2.704  14.085  0.00  0.00     0.168 C 
ATOM     13  O28 <0> d   1      18.556   3.767  13.252  0.00  0.00    -0.187 OA
ENDROOT
BRANCH  11  14
ATOM     14  C12 <0> d   1      18.282   1.262  12.087  0.00  0.00     0.026 C 
ATOM     15  C26 <0> d   1      17.061   0.408  11.739  0.00  0.00     0.010 C 
ATOM     16  C25 <0> d   1      16.994   0.208  10.224  0.00  0.00     0.010 C 
ATOM     17  C16 <0> d   1      18.263  -0.500   9.746  0.00  0.00     0.018 C 
ATOM     18  C15 <0> d   1      19.485   0.354  10.094  0.00  0.00     0.010 C 
ATOM     19  C14 <0> d   1      19.553   0.555  11.610  0.00  0.00     0.010 C 
BRANCH  17  20
ATOM     20  C18 <0> d   1      18.197  -0.698   8.254  0.00  0.00    -0.054 A 
ATOM     21  C24 <0> d   1      19.104  -1.530   7.626  0.00  0.00     0.009 A 
ATOM     22  C23 <0> d   1      19.040  -1.717   6.258  0.00  0.00     0.024 A 
ATOM     23  C21 <0> d   1      18.075  -1.060   5.515  0.00  0.00     0.034 A 
ATOM     24  C20 <0> d   1      17.170  -0.222   6.143  0.00  0.00     0.024 A 
ATOM     25 Cl22 <0> d   1      17.999  -1.288   3.796  0.00  0.00    -0.084 Cl
ATOM     26  C19 <0> d   1      17.233  -0.041   7.512  0.00  0.00     0.009 A 
ENDBRANCH  17  20
ENDBRANCH  11  14
TORSDOF 2
ENDMDL
MODEL 4
REMARK VINA RESULT:      -9.1      1.278      2.760
REMARK  2 active torsions:
REMARK  status: ('A' for Active; 'I' for Inactive)
REMARK    1  A    between atoms: C11_11  and  C12_12 
REMARK    2  A    between atoms: C16_15  and  C18_16 
ROOT
ATOM      1  O1  <0> d   1      18.329  -4.019   6.678  0.00  0.00    -0.284 OA
ATOM      2  C2  <0> d   1      18.466  -2.939   7.217  0.00  0.00     0.220 C 
ATOM      3  C3  <0> d   1      18.701  -1.722   6.409  0.00  0.00     0.031 A 
ATOM      4  C4  <0> d   1      19.044  -1.807   5.065  0.00  0.00     0.016 A 
ATOM      5  C5  <0> d   1      19.257  -0.645   4.337  0.00  0.00     0.001 A 
ATOM      6  C6  <0> d   1      19.131   0.592   4.939  0.00  0.00     0.001 A 
ATOM      7  C7  <0> d   1      18.790   0.690   6.280  0.00  0.00     0.016 A 
ATOM      8  C8  <0> d   1      18.573  -0.462   7.021  0.00  0.00     0.029 A 
ATOM      9  C9  <0> d   1      18.207  -0.393   8.455  0.00  0.00     0.192 C 
ATOM     10  O10 <0> d   1      17.853   0.660   8.948  0.00  0.00    -0.287 OA
ATOM     11  C11 <0> d   1      18.277  -1.609   9.276  0.00  0.00     0.037 C 
ATOM     12  C27 <0> d   1      18.394  -2.821   8.694  0.00  0.00     0.168 C 
ATOM     13  O28 <0> d   1      18.456  -3.934   9.461  0.00  0.00    -0.187 OA
ENDROOT
BRANCH  11  14
ATOM     14  C12 <0> d   1      18.210  -1.502  10.778  0.00  0.00     0.026 C 
ATOM     15  C26 <0> d   1      17.129  -0.494  11.171  0.00  0.00     0.010 C 
ATOM     16  C25 <0> d   1      17.062  -0.386  12.695  0.00  0.00     0.010 C 
ATOM     17  C16 <0> d   1      18.416   0.083  13.233  0.00  0.00     0.018 C 
ATOM     18  C15 <0> d   1      19.498  -0.926  12.840  0.00  0.00     0.010 C 
ATOM     19  C14 <0> d   1      19.565  -1.034  11.315  0.00  0.00     0.010 C 
BRANCH  17  20
ATOM     20  C18 <0> d   1      18.350   0.189  14.734  0.00  0.00    -0.054 A 
ATOM     21  C24 <0> d   1      18.874   1.298  15.372  0.00  0.00     0.009 A 
ATOM     22  C23 <0> d   1      18.808   1.399  16.749  0.00  0.00     0.024 A 
ATOM     23  C21 <0> d   1      18.230   0.384  17.491  0.00  0.00     0.034 A 
ATOM     24  C20 <0> d   1      17.711  -0.729  16.852  0.00  0.00     0.024 A 
ATOM     25 Cl22 <0> d   1      18.155   0.507  19.220  0.00  0.00    -0.084 Cl
ATOM     26  C19 <0> d   1      17.772  -0.826  15.475  0.00  0.00     0.009 A 
ENDBRANCH  17  20
ENDBRANCH  11  14
TORSDOF 2
ENDMDL
MODEL 5
REMARK VINA RESULT:      -9.1      4.619      9.098
REMARK  2 active torsions:
REMARK  status: ('A' for Active; 'I' for Inactive)
REMARK    1  A    between atoms: C11_11  and  C12_12 
REMARK    2  A    between atoms: C16_15  and  C18_16 
ROOT
ATOM      1  O1  <0> d   1      16.387   6.308  13.533  0.00  0.00    -0.284 OA
ATOM      2  C2  <0> d   1      17.088   5.322  13.437  0.00  0.00     0.220 C 
ATOM      3  C3  <0> d   1      17.894   4.860  14.588  0.00  0.00     0.031 A 
ATOM      4  C4  <0> d   1      18.091   5.670  15.699  0.00  0.00     0.016 A 
ATOM      5  C5  <0> d   1      18.853   5.204  16.762  0.00  0.00     0.001 A 
ATOM      6  C6  <0> d   1      19.415   3.943  16.720  0.00  0.00     0.001 A 
ATOM      7  C7  <0> d   1      19.226   3.125  15.617  0.00  0.00     0.016 A 
ATOM      8  C8  <0> d   1      18.467   3.575  14.547  0.00  0.00     0.029 A 
ATOM      9  C9  <0> d   1      18.246   2.726  13.354  0.00  0.00     0.192 C 
ATOM     10  O10 <0> d   1      18.514   1.541  13.386  0.00  0.00    -0.287 OA
ATOM     11  C11 <0> d   1      17.701   3.330  12.131  0.00  0.00     0.037 C 
ATOM     12  C27 <0> d   1      17.145   4.559  12.165  0.00  0.00     0.168 C 
ATOM     13  O28 <0> d   1      16.644   5.105  11.032  0.00  0.00    -0.187 OA
ENDROOT
BRANCH  11  14
ATOM     14  C12 <0> d   1      17.756   2.569  10.832  0.00  0.00     0.026 C 
ATOM     15  C26 <0> d   1      17.356   1.112  11.075  0.00  0.00     0.010 C 
ATOM     16  C25 <0> d   1      17.413   0.341   9.756  0.00  0.00     0.010 C 
ATOM     17  C16 <0> d   1      18.837   0.392   9.196  0.00  0.00     0.018 C 
ATOM     18  C15 <0> d   1      19.237   1.849   8.952  0.00  0.00     0.010 C 
ATOM     19  C14 <0> d   1      19.180   2.621  10.273  0.00  0.00     0.010 C 
BRANCH  17  20
ATOM     20  C18 <0> d   1      18.893  -0.369   7.897  0.00  0.00    -0.054 A 
ATOM     21  C24 <0> d   1      18.598   0.271   6.708  0.00  0.00     0.009 A 
ATOM     22  C23 <0> d   1      18.656  -0.424   5.515  0.00  0.00     0.024 A 
ATOM     23  C21 <0> d   1      18.998  -1.765   5.512  0.00  0.00     0.034 A 
ATOM     24  C20 <0> d   1      19.288  -2.407   6.703  0.00  0.00     0.024 A 
ATOM     25 Cl22 <0> d   1      19.064  -2.641   4.015  0.00  0.00    -0.084 Cl
ATOM     26  C19 <0> d   1      19.235  -1.709   7.894  0.00  0.00     0.009 A 
ENDBRANCH  17  20
ENDBRANCH  11  14
TORSDOF 2
ENDMDL
MODEL 6
REMARK VINA RESULT:      -8.9      2.250      3.083
REMARK  2 active torsions:
REMARK  status: ('A' for Active; 'I' for Inactive)
REMARK    1  A    between atoms: C11_11  and  C12_12 
REMARK    2  A    between atoms: C16_15  and  C18_16 
ROOT
ATOM      1  O1  <0> d   1      19.488  -2.925   7.175  0.00  0.00    -0.284 OA
ATOM      2  C2  <0> d   1      18.876  -3.092   8.211  0.00  0.00     0.220 C 
ATOM      3  C3  <0> d   1      17.970  -4.251   8.367  0.00  0.00     0.031 A 
ATOM      4  C4  <0> d   1      17.580  -5.011   7.272  0.00  0.00     0.016 A 
ATOM      5  C5  <0> d   1      16.729  -6.092   7.456  0.00  0.00     0.001 A 
ATOM      6  C6  <0> d   1      16.268  -6.414   8.717  0.00  0.00     0.001 A 
ATOM      7  C7  <0> d   1      16.649  -5.663   9.818  0.00  0.00     0.016 A 
ATOM      8  C8  <0> d   1      17.500  -4.580   9.652  0.00  0.00     0.029 A 
ATOM      9  C9  <0> d   1      17.927  -3.756  10.807  0.00  0.00     0.192 C 
ATOM     10  O10 <0> d   1      17.743  -4.150  11.942  0.00  0.00    -0.287 OA
ATOM     11  C11 <0> d   1      18.574  -2.460  10.568  0.00  0.00     0.037 C 
ATOM     12  C27 <0> d   1      19.032  -2.140   9.339  0.00  0.00     0.168 C 
ATOM     13  O28 <0> d   1      19.627  -0.943   9.132  0.00  0.00    -0.187 OA
ENDROOT
BRANCH  11  14
ATOM     14  C12 <0> d   1      18.733  -1.482  11.704  0.00  0.00     0.026 C 
ATOM     15  C26 <0> d   1      19.381  -2.187  12.897  0.00  0.00     0.010 C 
ATOM     16  C25 <0> d   1      19.542  -1.194  14.049  0.00  0.00     0.010 C 
ATOM     17  C16 <0> d   1      18.168  -0.659  14.458  0.00  0.00     0.018 C 
ATOM     18  C15 <0> d   1      17.520   0.046  13.264  0.00  0.00     0.010 C 
ATOM     19  C14 <0> d   1      17.358  -0.948  12.111  0.00  0.00     0.010 C 
BRANCH  17  20
ATOM     20  C18 <0> d   1      18.326   0.318  15.593  0.00  0.00    -0.054 A 
ATOM     21  C24 <0> d   1      17.714   0.072  16.807  0.00  0.00     0.009 A 
ATOM     22  C23 <0> d   1      17.864   0.966  17.852  0.00  0.00     0.024 A 
ATOM     23  C21 <0> d   1      18.617   2.113  17.677  0.00  0.00     0.034 A 
ATOM     24  C20 <0> d   1      19.226   2.362  16.459  0.00  0.00     0.024 A 
ATOM     25 Cl22 <0> d   1      18.800   3.240  18.984  0.00  0.00    -0.084 Cl
ATOM     26  C19 <0> d   1      19.079   1.465  15.418  0.00  0.00     0.009 A 
ENDBRANCH  17  20
ENDBRANCH  11  14
TORSDOF 2
ENDMDL
MODEL 7
REMARK VINA RESULT:      -8.9      3.411      4.133
REMARK  2 active torsions:
REMARK  status: ('A' for Active; 'I' for Inactive)
REMARK    1  A    between atoms: C11_11  and  C12_12 
REMARK    2  A    between atoms: C16_15  and  C18_16 
ROOT
ATOM      1  O1  <0> d   1      19.626  -1.450   4.684  0.00  0.00    -0.284 OA
ATOM      2  C2  <0> d   1      19.224  -1.588   5.822  0.00  0.00     0.220 C 
ATOM      3  C3  <0> d   1      19.141  -2.934   6.430  0.00  0.00     0.031 A 
ATOM      4  C4  <0> d   1      19.250  -4.081   5.654  0.00  0.00     0.016 A 
ATOM      5  C5  <0> d   1      19.168  -5.328   6.258  0.00  0.00     0.001 A 
ATOM      6  C6  <0> d   1      18.979  -5.434   7.622  0.00  0.00     0.001 A 
ATOM      7  C7  <0> d   1      18.868  -4.297   8.408  0.00  0.00     0.016 A 
ATOM      8  C8  <0> d   1      18.949  -3.043   7.819  0.00  0.00     0.029 A 
ATOM      9  C9  <0> d   1      18.834  -1.808   8.629  0.00  0.00     0.192 C 
ATOM     10  O10 <0> d   1      18.912  -1.860   9.841  0.00  0.00    -0.287 OA
ATOM     11  C11 <0> d   1      18.625  -0.521   7.955  0.00  0.00     0.037 C 
ATOM     12  C27 <0> d   1      18.814  -0.408   6.623  0.00  0.00     0.168 C 
ATOM     13  O28 <0> d   1      18.619   0.784   6.013  0.00  0.00    -0.187 OA
ENDROOT
BRANCH  11  14
ATOM     14  C12 <0> d   1      18.203   0.684   8.756  0.00  0.00     0.026 C 
ATOM     15  C26 <0> d   1      19.369   1.669   8.849  0.00  0.00     0.010 C 
ATOM     16  C25 <0> d   1      18.941   2.891   9.662  0.00  0.00     0.010 C 
ATOM     17  C16 <0> d   1      18.532   2.451  11.069  0.00  0.00     0.018 C 
ATOM     18  C15 <0> d   1      17.365   1.465  10.976  0.00  0.00     0.010 C 
ATOM     19  C14 <0> d   1      17.794   0.241  10.162  0.00  0.00     0.010 C 
BRANCH  17  20
ATOM     20  C18 <0> d   1      18.110   3.654  11.871  0.00  0.00    -0.054 A 
ATOM     21  C24 <0> d   1      17.018   4.402  11.472  0.00  0.00     0.009 A 
ATOM     22  C23 <0> d   1      16.626   5.503  12.210  0.00  0.00     0.024 A 
ATOM     23  C21 <0> d   1      17.335   5.864  13.343  0.00  0.00     0.034 A 
ATOM     24  C20 <0> d   1      18.432   5.118  13.739  0.00  0.00     0.024 A 
ATOM     25 Cl22 <0> d   1      16.849   7.250  14.266  0.00  0.00    -0.084 Cl
ATOM     26  C19 <0> d   1      18.819   4.014  13.002  0.00  0.00     0.009 A 
ENDBRANCH  17  20
ENDBRANCH  11  14
TORSDOF 2
ENDMDL
MODEL 8
REMARK VINA RESULT:      -8.7      1.806      2.505
REMARK  2 active torsions:
REMARK  status: ('A' for Active; 'I' for Inactive)
REMARK    1  A    between atoms: C11_11  and  C12_12 
REMARK    2  A    between atoms: C16_15  and  C18_16 
ROOT
ATOM      1  O1  <0> d   1      19.649  -2.526   6.020  0.00  0.00    -0.284 OA
ATOM      2  C2  <0> d   1      19.197  -2.994   7.045  0.00  0.00     0.220 C 
ATOM      3  C3  <0> d   1      18.682  -4.381   7.072  0.00  0.00     0.031 A 
ATOM      4  C4  <0> d   1      18.444  -5.083   5.897  0.00  0.00     0.016 A 
ATOM      5  C5  <0> d   1      17.961  -6.382   5.960  0.00  0.00     0.001 A 
ATOM      6  C6  <0> d   1      17.716  -6.980   7.180  0.00  0.00     0.001 A 
ATOM      7  C7  <0> d   1      17.949  -6.291   8.361  0.00  0.00     0.016 A 
ATOM      8  C8  <0> d   1      18.433  -4.991   8.315  0.00  0.00     0.029 A 
ATOM      9  C9  <0> d   1      18.693  -4.227   9.557  0.00  0.00     0.192 C 
ATOM     10  O10 <0> d   1      18.722  -4.794  10.632  0.00  0.00    -0.287 OA
ATOM     11  C11 <0> d   1      18.913  -2.777   9.478  0.00  0.00     0.037 C 
ATOM     12  C27 <0> d   1      19.159  -2.187   8.290  0.00  0.00     0.168 C 
ATOM     13  O28 <0> d   1      19.362  -0.850   8.230  0.00  0.00    -0.187 OA
ENDROOT
BRANCH  11  14
ATOM     14  C12 <0> d   1      18.872  -1.944  10.733  0.00  0.00     0.026 C 
ATOM     15  C26 <0> d   1      19.672  -2.641  11.835  0.00  0.00     0.010 C 
ATOM     16  C25 <0> d   1      19.630  -1.795  13.109  0.00  0.00     0.010 C 
ATOM     17  C16 <0> d   1      18.178  -1.628  13.562  0.00  0.00     0.018 C 
ATOM     18  C15 <0> d   1      17.377  -0.931  12.460  0.00  0.00     0.010 C 
ATOM     19  C14 <0> d   1      17.420  -1.777  11.185  0.00  0.00     0.010 C 
BRANCH  17  20
ATOM     20  C18 <0> d   1      18.136  -0.795  14.817  0.00  0.00    -0.054 A 
ATOM     21  C24 <0> d   1      18.174   0.583  14.733  0.00  0.00     0.009 A 
ATOM     22  C23 <0> d   1      18.129   1.349  15.883  0.00  0.00     0.024 A 
ATOM     23  C21 <0> d   1      18.057   0.733  17.120  0.00  0.00     0.034 A 
ATOM     24  C20 <0> d   1      18.025  -0.648  17.205  0.00  0.00     0.024 A 
ATOM     25 Cl22 <0> d   1      18.009   1.692  18.566  0.00  0.00    -0.084 Cl
ATOM     26  C19 <0> d   1      18.064  -1.411  16.053  0.00  0.00     0.009 A 
ENDBRANCH  17  20
ENDBRANCH  11  14
TORSDOF 2
ENDMDL
MODEL 9
REMARK VINA RESULT:      -8.7      3.276      4.474
REMARK  2 active torsions:
REMARK  status: ('A' for Active; 'I' for Inactive)
REMARK    1  A    between atoms: C11_11  and  C12_12 
REMARK    2  A    between atoms: C16_15  and  C18_16 
ROOT
ATOM      1  O1  <0> d   1      18.918  -4.435   8.400  0.00  0.00    -0.284 OA
ATOM      2  C2  <0> d   1      18.799  -3.273   8.069  0.00  0.00     0.220 C 
ATOM      3  C3  <0> d   1      18.541  -2.919   6.656  0.00  0.00     0.031 A 
ATOM      4  C4  <0> d   1      18.700  -3.853   5.640  0.00  0.00     0.016 A 
ATOM      5  C5  <0> d   1      18.449  -3.487   4.326  0.00  0.00     0.001 A 
ATOM      6  C6  <0> d   1      18.043  -2.202   4.022  0.00  0.00     0.001 A 
ATOM      7  C7  <0> d   1      17.881  -1.260   5.026  0.00  0.00     0.016 A 
ATOM      8  C8  <0> d   1      18.127  -1.611   6.346  0.00  0.00     0.029 A 
ATOM      9  C9  <0> d   1      17.963  -0.629   7.443  0.00  0.00     0.192 C 
ATOM     10  O10 <0> d   1      17.382   0.421   7.245  0.00  0.00    -0.287 OA
ATOM     11  C11 <0> d   1      18.510  -0.934   8.770  0.00  0.00     0.037 C 
ATOM     12  C27 <0> d   1      18.904  -2.188   9.077  0.00  0.00     0.168 C 
ATOM     13  O28 <0> d   1      19.405  -2.457  10.304  0.00  0.00    -0.187 OA
ENDROOT
BRANCH  11  14
ATOM     14  C12 <0> d   1      18.628   0.160   9.801  0.00  0.00     0.026 C 
ATOM     15  C26 <0> d   1      17.260   0.407  10.441  0.00  0.00     0.010 C 
ATOM     16  C25 <0> d   1      17.380   1.517  11.487  0.00  0.00     0.010 C 
ATOM     17  C16 <0> d   1      17.867   2.802  10.813  0.00  0.00     0.018 C 
ATOM     18  C15 <0> d   1      19.235   2.554  10.173  0.00  0.00     0.010 C 
ATOM     19  C14 <0> d   1      19.116   1.444   9.127  0.00  0.00     0.010 C 
BRANCH  17  20
ATOM     20  C18 <0> d   1      17.985   3.895  11.843  0.00  0.00    -0.054 A 
ATOM     21  C24 <0> d   1      16.917   4.740  12.079  0.00  0.00     0.009 A 
ATOM     22  C23 <0> d   1      17.022   5.740  13.028  0.00  0.00     0.024 A 
ATOM     23  C21 <0> d   1      18.202   5.902  13.733  0.00  0.00     0.034 A 
ATOM     24  C20 <0> d   1      19.273   5.060  13.492  0.00  0.00     0.024 A 
ATOM     25 Cl22 <0> d   1      18.338   7.162  14.919  0.00  0.00    -0.084 Cl
ATOM     26  C19 <0> d   1      19.164   4.057  12.547  0.00  0.00     0.009 A 
ENDBRANCH  17  20
ENDBRANCH  11  14
TORSDOF 2
ENDMDL
