MODEL 1
REMARK VINA RESULT:      -6.7      0.000      0.000
REMARK  9 active torsions:
REMARK  status: ('A' for Active; 'I' for Inactive)
REMARK    1  A    between atoms: C2_2  and  C3_3 
REMARK    2  A    between atoms: C3_3  and  C4_4 
REMARK    3  A    between atoms: C4_4  and  O5_5 
REMARK    4  A    between atoms: O5_5  and  C6_6 
REMARK    5  A    between atoms: C9_9  and  O10_10 
REMARK    6  A    between atoms: O10_10  and  C11_11 
REMARK    7  A    between atoms: C11_11  and  C12_12 
REMARK    8  A    between atoms: C12_12  and  C13_13 
REMARK    9  A    between atoms: C13_13  and  N14_14 
ROOT
ATOM      1  C6  ZIN A   1      18.679   0.803   8.342  0.00  0.00     0.068 A 
ATOM      2  C7  ZIN A   1      19.086   2.095   8.642  0.00  0.00     0.039 A 
ATOM      3  C8  ZIN A   1      18.630   2.713   9.791  0.00  0.00     0.039 A 
ATOM      4  C9  ZIN A   1      17.763   2.043  10.642  0.00  0.00     0.068 A 
ATOM      5  C21 ZIN A   1      17.356   0.753  10.341  0.00  0.00     0.039 A 
ATOM      6  C22 ZIN A   1      17.809   0.135   9.190  0.00  0.00     0.039 A 
ENDROOT
BRANCH   4   7
ATOM      7  O10 ZIN A   1      17.315   2.652  11.772  0.00  0.00    -0.351 OA
BRANCH   7   8
ATOM      8  C11 ZIN A   1      18.303   3.114  12.695  0.00  0.00     0.177 C 
BRANCH   8   9
ATOM      9  C12 ZIN A   1      17.780   2.952  14.124  0.00  0.00     0.054 C 
BRANCH   9  10
ATOM     10  C13 ZIN A   1      18.313   1.646  14.716  0.00  0.00     0.237 C 
BRANCH  10  11
ATOM     11  N14 ZIN A   1      18.337   1.747  16.182  0.00  0.00    -0.067 N 
ATOM     12  H15 ZIN A   1      17.391   1.809  16.530  0.00  0.00     0.280 HD
ATOM     13  C20 ZIN A   1      18.988   0.556  16.745  0.00  0.00     0.261 C 
ATOM     14  C19 ZIN A   1      19.012   0.664  18.271  0.00  0.00     0.195 C 
ATOM     15  O18 ZIN A   1      19.691   1.864  18.650  0.00  0.00    -0.388 OA
ATOM     16  C17 ZIN A   1      19.107   3.051  18.105  0.00  0.00     0.195 C 
ATOM     17  C16 ZIN A   1      19.084   2.948  16.579  0.00  0.00     0.261 C 
ENDBRANCH  10  11
ENDBRANCH   9  10
ENDBRANCH   8   9
ENDBRANCH   7   8
ENDBRANCH   4   7
BRANCH   1  18
ATOM     18  O5  ZIN A   1      19.128   0.194   7.212  0.00  0.00    -0.351 OA
BRANCH  18  19
ATOM     19  C4  ZIN A   1      18.719   0.759   5.965  0.00  0.00     0.175 C 
BRANCH  19  20
ATOM     20  C3  ZIN A   1      19.343  -0.036   4.816  0.00  0.00     0.026 C 
BRANCH  20  21
ATOM     21  C2  ZIN A   1      18.887  -1.494   4.898  0.00  0.00    -0.002 C 
ATOM     22  C1  ZIN A   1      17.460  -1.612   4.358  0.00  0.00     0.005 C 
ENDBRANCH  20  21
ENDBRANCH  19  20
ENDBRANCH  18  19
ENDBRANCH   1  18
TORSDOF 9
ENDMDL
MODEL 2
REMARK VINA RESULT:      -6.5      3.618      4.899
REMARK  9 active torsions:
REMARK  status: ('A' for Active; 'I' for Inactive)
REMARK    1  A    between atoms: C2_2  and  C3_3 
REMARK    2  A    between atoms: C3_3  and  C4_4 
REMARK    3  A    between atoms: C4_4  and  O5_5 
REMARK    4  A    between atoms: O5_5  and  C6_6 
REMARK    5  A    between atoms: C9_9  and  O10_10 
REMARK    6  A    between atoms: O10_10  and  C11_11 
REMARK    7  A    between atoms: C11_11  and  C12_12 
REMARK    8  A    between atoms: C12_12  and  C13_13 
REMARK    9  A    between atoms: C13_13  and  N14_14 
ROOT
ATOM      1  C6  ZIN A   1      18.258   0.601   6.832  0.00  0.00     0.068 A 
ATOM      2  C7  ZIN A   1      17.415  -0.156   7.633  0.00  0.00     0.039 A 
ATOM      3  C8  ZIN A   1      17.433   0.009   9.005  0.00  0.00     0.039 A 
ATOM      4  C9  ZIN A   1      18.297   0.930   9.581  0.00  0.00     0.068 A 
ATOM      5  C21 ZIN A   1      19.140   1.684   8.780  0.00  0.00     0.039 A 
ATOM      6  C22 ZIN A   1      19.124   1.517   7.409  0.00  0.00     0.039 A 
ENDROOT
BRANCH   4   7
ATOM      7  O10 ZIN A   1      18.315   1.092  10.931  0.00  0.00    -0.351 OA
BRANCH   7   8
ATOM      8  C11 ZIN A   1      19.580   1.377  11.533  0.00  0.00     0.177 C 
BRANCH   8   9
ATOM      9  C12 ZIN A   1      20.250   0.068  11.954  0.00  0.00     0.054 C 
BRANCH   9  10
ATOM     10  C13 ZIN A   1      19.197  -0.883  12.525  0.00  0.00     0.237 C 
BRANCH  10  11
ATOM     11  N14 ZIN A   1      18.996  -2.005  11.598  0.00  0.00    -0.067 N 
ATOM     12  H15 ZIN A   1      19.173  -1.696  10.653  0.00  0.00     0.280 HD
ATOM     13  C20 ZIN A   1      19.922  -3.094  11.937  0.00  0.00     0.261 C 
ATOM     14  C19 ZIN A   1      19.711  -4.261  10.970  0.00  0.00     0.195 C 
ATOM     15  O18 ZIN A   1      18.348  -4.690  11.037  0.00  0.00    -0.388 OA
ATOM     16  C17 ZIN A   1      17.406  -3.656  10.738  0.00  0.00     0.195 C 
ATOM     17  C16 ZIN A   1      17.613  -2.488  11.704  0.00  0.00     0.261 C 
ENDBRANCH  10  11
ENDBRANCH   9  10
ENDBRANCH   8   9
ENDBRANCH   7   8
ENDBRANCH   4   7
BRANCH   1  18
ATOM     18  O5  ZIN A   1      18.239   0.439   5.482  0.00  0.00    -0.351 OA
BRANCH  18  19
ATOM     19  C4  ZIN A   1      19.339  -0.264   4.899  0.00  0.00     0.175 C 
BRANCH  19  20
ATOM     20  C3  ZIN A   1      18.898  -1.683   4.530  0.00  0.00     0.026 C 
BRANCH  20  21
ATOM     21  C2  ZIN A   1      17.384  -1.706   4.311  0.00  0.00    -0.002 C 
ATOM     22  C1  ZIN A   1      16.966  -3.081   3.787  0.00  0.00     0.005 C 
ENDBRANCH  20  21
ENDBRANCH  19  20
ENDBRANCH  18  19
ENDBRANCH   1  18
TORSDOF 9
ENDMDL
MODEL 3
REMARK VINA RESULT:      -6.4      1.821      2.545
REMARK  9 active torsions:
REMARK  status: ('A' for Active; 'I' for Inactive)
REMARK    1  A    between atoms: C2_2  and  C3_3 
REMARK    2  A    between atoms: C3_3  and  C4_4 
REMARK    3  A    between atoms: C4_4  and  O5_5 
REMARK    4  A    between atoms: O5_5  and  C6_6 
REMARK    5  A    between atoms: C9_9  and  O10_10 
REMARK    6  A    between atoms: O10_10  and  C11_11 
REMARK    7  A    between atoms: C11_11  and  C12_12 
REMARK    8  A    between atoms: C12_12  and  C13_13 
REMARK    9  A    between atoms: C13_13  and  N14_14 
ROOT
ATOM      1  C6  ZIN A   1      18.696   0.506   8.263  0.00  0.00     0.068 A 
ATOM      2  C7  ZIN A   1      17.798  -0.106   9.125  0.00  0.00     0.039 A 
ATOM      3  C8  ZIN A   1      17.311   0.584  10.219  0.00  0.00     0.039 A 
ATOM      4  C9  ZIN A   1      17.722   1.888  10.456  0.00  0.00     0.068 A 
ATOM      5  C21 ZIN A   1      18.621   2.498   9.595  0.00  0.00     0.039 A 
ATOM      6  C22 ZIN A   1      19.111   1.807   8.503  0.00  0.00     0.039 A 
ENDROOT
BRANCH   4   7
ATOM      7  O10 ZIN A   1      17.243   2.566  11.532  0.00  0.00    -0.351 OA
BRANCH   7   8
ATOM      8  C11 ZIN A   1      17.946   3.750  11.919  0.00  0.00     0.177 C 
BRANCH   8   9
ATOM      9  C12 ZIN A   1      18.964   3.405  13.008  0.00  0.00     0.054 C 
BRANCH   9  10
ATOM     10  C13 ZIN A   1      18.234   2.823  14.221  0.00  0.00     0.237 C 
BRANCH  10  11
ATOM     11  N14 ZIN A   1      18.227   1.357  14.131  0.00  0.00    -0.067 N 
ATOM     12  H15 ZIN A   1      17.515   1.064  13.477  0.00  0.00     0.280 HD
ATOM     13  C20 ZIN A   1      19.539   0.887  13.667  0.00  0.00     0.261 C 
ATOM     14  C19 ZIN A   1      19.528  -0.641  13.574  0.00  0.00     0.195 C 
ATOM     15  O18 ZIN A   1      19.194  -1.190  14.852  0.00  0.00    -0.388 OA
ATOM     16  C17 ZIN A   1      17.933  -0.741  15.357  0.00  0.00     0.195 C 
ATOM     17  C16 ZIN A   1      17.941   0.786  15.454  0.00  0.00     0.261 C 
ENDBRANCH  10  11
ENDBRANCH   9  10
ENDBRANCH   8   9
ENDBRANCH   7   8
ENDBRANCH   4   7
BRANCH   1  18
ATOM     18  O5  ZIN A   1      19.175  -0.172   7.186  0.00  0.00    -0.351 OA
BRANCH  18  19
ATOM     19  C4  ZIN A   1      19.290  -1.591   7.313  0.00  0.00     0.175 C 
BRANCH  19  20
ATOM     20  C3  ZIN A   1      19.327  -2.226   5.921  0.00  0.00     0.026 C 
BRANCH  20  21
ATOM     21  C2  ZIN A   1      18.958  -1.175   4.872  0.00  0.00    -0.002 C 
ATOM     22  C1  ZIN A   1      17.548  -1.453   4.347  0.00  0.00     0.005 C 
ENDBRANCH  20  21
ENDBRANCH  19  20
ENDBRANCH  18  19
ENDBRANCH   1  18
TORSDOF 9
ENDMDL
MODEL 4
REMARK VINA RESULT:      -6.4      2.642      8.952
REMARK  9 active torsions:
REMARK  status: ('A' for Active; 'I' for Inactive)
REMARK    1  A    between atoms: C2_2  and  C3_3 
REMARK    2  A    between atoms: C3_3  and  C4_4 
REMARK    3  A    between atoms: C4_4  and  O5_5 
REMARK    4  A    between atoms: O5_5  and  C6_6 
REMARK    5  A    between atoms: C9_9  and  O10_10 
REMARK    6  A    between atoms: O10_10  and  C11_11 
REMARK    7  A    between atoms: C11_11  and  C12_12 
REMARK    8  A    between atoms: C12_12  and  C13_13 
REMARK    9  A    between atoms: C13_13  and  N14_14 
ROOT
ATOM      1  C6  ZIN A   1      18.046   2.209  14.059  0.00  0.00     0.068 A 
ATOM      2  C7  ZIN A   1      18.459   3.306  13.318  0.00  0.00     0.039 A 
ATOM      3  C8  ZIN A   1      18.346   3.291  11.941  0.00  0.00     0.039 A 
ATOM      4  C9  ZIN A   1      17.822   2.178  11.300  0.00  0.00     0.068 A 
ATOM      5  C21 ZIN A   1      17.411   1.081  12.042  0.00  0.00     0.039 A 
ATOM      6  C22 ZIN A   1      17.527   1.094  13.419  0.00  0.00     0.039 A 
ENDROOT
BRANCH   4   7
ATOM      7  O10 ZIN A   1      17.711   2.163   9.945  0.00  0.00    -0.351 OA
BRANCH   7   8
ATOM      8  C11 ZIN A   1      18.902   2.409   9.194  0.00  0.00     0.177 C 
BRANCH   8   9
ATOM      9  C12 ZIN A   1      19.346   1.117   8.506  0.00  0.00     0.054 C 
BRANCH   9  10
ATOM     10  C13 ZIN A   1      18.117   0.267   8.176  0.00  0.00     0.237 C 
BRANCH  10  11
ATOM     11  N14 ZIN A   1      18.273  -0.321   6.839  0.00  0.00    -0.067 N 
ATOM     12  H15 ZIN A   1      17.362  -0.511   6.447  0.00  0.00     0.280 HD
ATOM     13  C20 ZIN A   1      18.993   0.619   5.970  0.00  0.00     0.261 C 
ATOM     14  C19 ZIN A   1      19.154   0.004   4.578  0.00  0.00     0.195 C 
ATOM     15  O18 ZIN A   1      19.844  -1.244   4.690  0.00  0.00    -0.388 OA
ATOM     16  C17 ZIN A   1      19.192  -2.186   5.547  0.00  0.00     0.195 C 
ATOM     17  C16 ZIN A   1      19.032  -1.575   6.940  0.00  0.00     0.261 C 
ENDBRANCH  10  11
ENDBRANCH   9  10
ENDBRANCH   8   9
ENDBRANCH   7   8
ENDBRANCH   4   7
BRANCH   1  18
ATOM     18  O5  ZIN A   1      18.157   2.224  15.415  0.00  0.00    -0.351 OA
BRANCH  18  19
ATOM     19  C4  ZIN A   1      18.848   1.130  16.021  0.00  0.00     0.175 C 
BRANCH  19  20
ATOM     20  C3  ZIN A   1      17.931   0.447  17.037  0.00  0.00     0.026 C 
BRANCH  20  21
ATOM     21  C2  ZIN A   1      17.847  -1.048  16.724  0.00  0.00    -0.002 C 
ATOM     22  C1  ZIN A   1      18.982  -1.434  15.773  0.00  0.00     0.005 C 
ENDBRANCH  20  21
ENDBRANCH  19  20
ENDBRANCH  18  19
ENDBRANCH   1  18
TORSDOF 9
ENDMDL
MODEL 5
REMARK VINA RESULT:      -6.4      2.993      9.399
REMARK  9 active torsions:
REMARK  status: ('A' for Active; 'I' for Inactive)
REMARK    1  A    between atoms: C2_2  and  C3_3 
REMARK    2  A    between atoms: C3_3  and  C4_4 
REMARK    3  A    between atoms: C4_4  and  O5_5 
REMARK    4  A    between atoms: O5_5  and  C6_6 
REMARK    5  A    between atoms: C9_9  and  O10_10 
REMARK    6  A    between atoms: O10_10  and  C11_11 
REMARK    7  A    between atoms: C11_11  and  C12_12 
REMARK    8  A    between atoms: C12_12  and  C13_13 
REMARK    9  A    between atoms: C13_13  and  N14_14 
ROOT
ATOM      1  C6  ZIN A   1      19.140  -0.824  14.498  0.00  0.00     0.068 A 
ATOM      2  C7  ZIN A   1      19.875   0.277  14.086  0.00  0.00     0.039 A 
ATOM      3  C8  ZIN A   1      20.014   0.550  12.738  0.00  0.00     0.039 A 
ATOM      4  C9  ZIN A   1      19.419  -0.280  11.798  0.00  0.00     0.068 A 
ATOM      5  C21 ZIN A   1      18.686  -1.381  12.211  0.00  0.00     0.039 A 
ATOM      6  C22 ZIN A   1      18.550  -1.656  13.559  0.00  0.00     0.039 A 
ENDROOT
BRANCH   4   7
ATOM      7  O10 ZIN A   1      19.556  -0.011  10.472  0.00  0.00    -0.351 OA
BRANCH   7   8
ATOM      8  C11 ZIN A   1      19.230   1.312  10.041  0.00  0.00     0.177 C 
BRANCH   8   9
ATOM      9  C12 ZIN A   1      18.960   1.306   8.535  0.00  0.00     0.054 C 
BRANCH   9  10
ATOM     10  C13 ZIN A   1      17.896   0.254   8.214  0.00  0.00     0.237 C 
BRANCH  10  11
ATOM     11  N14 ZIN A   1      18.150  -0.308   6.880  0.00  0.00    -0.067 N 
ATOM     12  H15 ZIN A   1      17.271  -0.541   6.441  0.00  0.00     0.280 HD
ATOM     13  C20 ZIN A   1      18.861   0.681   6.058  0.00  0.00     0.261 C 
ATOM     14  C19 ZIN A   1      19.124   0.093   4.670  0.00  0.00     0.195 C 
ATOM     15  O18 ZIN A   1      19.875  -1.117   4.804  0.00  0.00    -0.388 OA
ATOM     16  C17 ZIN A   1      19.234  -2.104   5.618  0.00  0.00     0.195 C 
ATOM     17  C16 ZIN A   1      18.971  -1.519   7.008  0.00  0.00     0.261 C 
ENDBRANCH  10  11
ENDBRANCH   9  10
ENDBRANCH   8   9
ENDBRANCH   7   8
ENDBRANCH   4   7
BRANCH   1  18
ATOM     18  O5  ZIN A   1      19.003  -1.092  15.825  0.00  0.00    -0.351 OA
BRANCH  18  19
ATOM     19  C4  ZIN A   1      18.291  -0.134  16.610  0.00  0.00     0.175 C 
BRANCH  19  20
ATOM     20  C3  ZIN A   1      18.954  -0.005  17.983  0.00  0.00     0.026 C 
BRANCH  20  21
ATOM     21  C2  ZIN A   1      19.067   1.474  18.357  0.00  0.00    -0.002 C 
ATOM     22  C1  ZIN A   1      19.104   2.321  17.083  0.00  0.00     0.005 C 
ENDBRANCH  20  21
ENDBRANCH  19  20
ENDBRANCH  18  19
ENDBRANCH   1  18
TORSDOF 9
ENDMDL
MODEL 6
REMARK VINA RESULT:      -6.3      1.418      1.899
REMARK  9 active torsions:
REMARK  status: ('A' for Active; 'I' for Inactive)
REMARK    1  A    between atoms: C2_2  and  C3_3 
REMARK    2  A    between atoms: C3_3  and  C4_4 
REMARK    3  A    between atoms: C4_4  and  O5_5 
REMARK    4  A    between atoms: O5_5  and  C6_6 
REMARK    5  A    between atoms: C9_9  and  O10_10 
REMARK    6  A    between atoms: O10_10  and  C11_11 
REMARK    7  A    between atoms: C11_11  and  C12_12 
REMARK    8  A    between atoms: C12_12  and  C13_13 
REMARK    9  A    between atoms: C13_13  and  N14_14 
ROOT
ATOM      1  C6  ZIN A   1      19.011   0.611   9.274  0.00  0.00     0.068 A 
ATOM      2  C7  ZIN A   1      19.221   1.946   8.963  0.00  0.00     0.039 A 
ATOM      3  C8  ZIN A   1      18.556   2.932   9.667  0.00  0.00     0.039 A 
ATOM      4  C9  ZIN A   1      17.677   2.585  10.683  0.00  0.00     0.068 A 
ATOM      5  C21 ZIN A   1      17.466   1.250  10.992  0.00  0.00     0.039 A 
ATOM      6  C22 ZIN A   1      18.129   0.264  10.286  0.00  0.00     0.039 A 
ENDROOT
BRANCH   4   7
ATOM      7  O10 ZIN A   1      17.022   3.555  11.375  0.00  0.00    -0.351 OA
BRANCH   7   8
ATOM      8  C11 ZIN A   1      17.738   4.766  11.629  0.00  0.00     0.177 C 
BRANCH   8   9
ATOM      9  C12 ZIN A   1      18.382   4.696  13.015  0.00  0.00     0.054 C 
BRANCH   9  10
ATOM     10  C13 ZIN A   1      17.287   4.667  14.084  0.00  0.00     0.237 C 
BRANCH  10  11
ATOM     11  N14 ZIN A   1      17.727   3.836  15.213  0.00  0.00    -0.067 N 
ATOM     12  H15 ZIN A   1      16.924   3.395  15.638  0.00  0.00     0.280 HD
ATOM     13  C20 ZIN A   1      18.654   2.803  14.730  0.00  0.00     0.261 C 
ATOM     14  C19 ZIN A   1      19.110   1.939  15.907  0.00  0.00     0.195 C 
ATOM     15  O18 ZIN A   1      19.720   2.772  16.897  0.00  0.00    -0.388 OA
ATOM     16  C17 ZIN A   1      18.863   3.810  17.381  0.00  0.00     0.195 C 
ATOM     17  C16 ZIN A   1      18.406   4.678  16.206  0.00  0.00     0.261 C 
ENDBRANCH  10  11
ENDBRANCH   9  10
ENDBRANCH   8   9
ENDBRANCH   7   8
ENDBRANCH   4   7
BRANCH   1  18
ATOM     18  O5  ZIN A   1      19.666  -0.359   8.582  0.00  0.00    -0.351 OA
BRANCH  18  19
ATOM     19  C4  ZIN A   1      18.862  -1.319   7.892  0.00  0.00     0.175 C 
BRANCH  19  20
ATOM     20  C3  ZIN A   1      19.245  -1.334   6.410  0.00  0.00     0.026 C 
BRANCH  20  21
ATOM     21  C2  ZIN A   1      18.834  -0.010   5.764  0.00  0.00    -0.002 C 
ATOM     22  C1  ZIN A   1      18.594  -0.225   4.268  0.00  0.00     0.005 C 
ENDBRANCH  20  21
ENDBRANCH  19  20
ENDBRANCH  18  19
ENDBRANCH   1  18
TORSDOF 9
ENDMDL
MODEL 7
REMARK VINA RESULT:      -6.3      2.661      8.138
REMARK  9 active torsions:
REMARK  status: ('A' for Active; 'I' for Inactive)
REMARK    1  A    between atoms: C2_2  and  C3_3 
REMARK    2  A    between atoms: C3_3  and  C4_4 
REMARK    3  A    between atoms: C4_4  and  O5_5 
REMARK    4  A    between atoms: O5_5  and  C6_6 
REMARK    5  A    between atoms: C9_9  and  O10_10 
REMARK    6  A    between atoms: O10_10  and  C11_11 
REMARK    7  A    between atoms: C11_11  and  C12_12 
REMARK    8  A    between atoms: C12_12  and  C13_13 
REMARK    9  A    between atoms: C13_13  and  N14_14 
ROOT
ATOM      1  C6  ZIN A   1      18.843  -0.258  14.416  0.00  0.00     0.068 A 
ATOM      2  C7  ZIN A   1      19.515   0.916  14.111  0.00  0.00     0.039 A 
ATOM      3  C8  ZIN A   1      19.043   1.742  13.108  0.00  0.00     0.039 A 
ATOM      4  C9  ZIN A   1      17.898   1.395  12.406  0.00  0.00     0.068 A 
ATOM      5  C21 ZIN A   1      17.227   0.220  12.710  0.00  0.00     0.039 A 
ATOM      6  C22 ZIN A   1      17.701  -0.607  13.710  0.00  0.00     0.039 A 
ENDROOT
BRANCH   4   7
ATOM      7  O10 ZIN A   1      17.434   2.208  11.420  0.00  0.00    -0.351 OA
BRANCH   7   8
ATOM      8  C11 ZIN A   1      18.324   3.217  10.938  0.00  0.00     0.177 C 
BRANCH   8   9
ATOM      9  C12 ZIN A   1      18.287   3.241   9.409  0.00  0.00     0.054 C 
BRANCH   9  10
ATOM     10  C13 ZIN A   1      19.273   2.209   8.859  0.00  0.00     0.237 C 
BRANCH  10  11
ATOM     11  N14 ZIN A   1      18.757   0.856   9.110  0.00  0.00    -0.067 N 
ATOM     12  H15 ZIN A   1      18.005   0.903   9.782  0.00  0.00     0.280 HD
ATOM     13  C20 ZIN A   1      18.254   0.283   7.854  0.00  0.00     0.261 C 
ATOM     14  C19 ZIN A   1      17.716  -1.126   8.118  0.00  0.00     0.195 C 
ATOM     15  O18 ZIN A   1      18.755  -1.929   8.685  0.00  0.00    -0.388 OA
ATOM     16  C17 ZIN A   1      19.294  -1.398   9.898  0.00  0.00     0.195 C 
ATOM     17  C16 ZIN A   1      19.835   0.010   9.637  0.00  0.00     0.261 C 
ENDBRANCH  10  11
ENDBRANCH   9  10
ENDBRANCH   8   9
ENDBRANCH   7   8
ENDBRANCH   4   7
BRANCH   1  18
ATOM     18  O5  ZIN A   1      19.307  -1.071  15.402  0.00  0.00    -0.351 OA
BRANCH  18  19
ATOM     19  C4  ZIN A   1      18.336  -1.644  16.281  0.00  0.00     0.175 C 
BRANCH  19  20
ATOM     20  C3  ZIN A   1      17.890  -0.594  17.301  0.00  0.00     0.026 C 
BRANCH  20  21
ATOM     21  C2  ZIN A   1      19.077  -0.208  18.187  0.00  0.00    -0.002 C 
ATOM     22  C1  ZIN A   1      19.277   1.308  18.137  0.00  0.00     0.005 C 
ENDBRANCH  20  21
ENDBRANCH  19  20
ENDBRANCH  18  19
ENDBRANCH   1  18
TORSDOF 9
ENDMDL
MODEL 8
REMARK VINA RESULT:      -6.2      2.479      3.646
REMARK  9 active torsions:
REMARK  status: ('A' for Active; 'I' for Inactive)
REMARK    1  A    between atoms: C2_2  and  C3_3 
REMARK    2  A    between atoms: C3_3  and  C4_4 
REMARK    3  A    between atoms: C4_4  and  O5_5 
REMARK    4  A    between atoms: O5_5  and  C6_6 
REMARK    5  A    between atoms: C9_9  and  O10_10 
REMARK    6  A    between atoms: O10_10  and  C11_11 
REMARK    7  A    between atoms: C11_11  and  C12_12 
REMARK    8  A    between atoms: C12_12  and  C13_13 
REMARK    9  A    between atoms: C13_13  and  N14_14 
ROOT
ATOM      1  C6  ZIN A   1      18.864   0.186   8.294  0.00  0.00     0.068 A 
ATOM      2  C7  ZIN A   1      17.682   0.549   8.921  0.00  0.00     0.039 A 
ATOM      3  C8  ZIN A   1      17.266  -0.124  10.054  0.00  0.00     0.039 A 
ATOM      4  C9  ZIN A   1      18.032  -1.163  10.563  0.00  0.00     0.068 A 
ATOM      5  C21 ZIN A   1      19.212  -1.527   9.935  0.00  0.00     0.039 A 
ATOM      6  C22 ZIN A   1      19.626  -0.856   8.799  0.00  0.00     0.039 A 
ENDROOT
BRANCH   4   7
ATOM      7  O10 ZIN A   1      17.622  -1.825  11.678  0.00  0.00    -0.351 OA
BRANCH   7   8
ATOM      8  C11 ZIN A   1      18.641  -2.308  12.556  0.00  0.00     0.177 C 
BRANCH   8   9
ATOM      9  C12 ZIN A   1      18.630  -1.489  13.849  0.00  0.00     0.054 C 
BRANCH   9  10
ATOM     10  C13 ZIN A   1      19.708  -0.406  13.775  0.00  0.00     0.237 C 
BRANCH  10  11
ATOM     11  N14 ZIN A   1      19.178   0.765  13.063  0.00  0.00    -0.067 N 
ATOM     12  H15 ZIN A   1      18.361   0.495  12.534  0.00  0.00     0.280 HD
ATOM     13  C20 ZIN A   1      18.811   1.805  14.033  0.00  0.00     0.261 C 
ATOM     14  C19 ZIN A   1      18.260   3.023  13.289  0.00  0.00     0.195 C 
ATOM     15  O18 ZIN A   1      19.240   3.492  12.359  0.00  0.00    -0.388 OA
ATOM     16  C17 ZIN A   1      19.648   2.506  11.407  0.00  0.00     0.195 C 
ATOM     17  C16 ZIN A   1      20.202   1.287  12.148  0.00  0.00     0.261 C 
ENDBRANCH  10  11
ENDBRANCH   9  10
ENDBRANCH   8   9
ENDBRANCH   7   8
ENDBRANCH   4   7
BRANCH   1  18
ATOM     18  O5  ZIN A   1      19.274   0.848   7.179  0.00  0.00    -0.351 OA
BRANCH  18  19
ATOM     19  C4  ZIN A   1      18.449   0.733   6.017  0.00  0.00     0.175 C 
BRANCH  19  20
ATOM     20  C3  ZIN A   1      19.258   0.112   4.877  0.00  0.00     0.026 C 
BRANCH  20  21
ATOM     21  C2  ZIN A   1      19.083  -1.408   4.897  0.00  0.00    -0.002 C 
ATOM     22  C1  ZIN A   1      17.652  -1.761   4.487  0.00  0.00     0.005 C 
ENDBRANCH  20  21
ENDBRANCH  19  20
ENDBRANCH  18  19
ENDBRANCH   1  18
TORSDOF 9
ENDMDL
MODEL 9
REMARK VINA RESULT:      -6.1      4.580      8.132
REMARK  9 active torsions:
REMARK  status: ('A' for Active; 'I' for Inactive)
REMARK    1  A    between atoms: C2_2  and  C3_3 
REMARK    2  A    between atoms: C3_3  and  C4_4 
REMARK    3  A    between atoms: C4_4  and  O5_5 
REMARK    4  A    between atoms: O5_5  and  C6_6 
REMARK    5  A    between atoms: C9_9  and  O10_10 
REMARK    6  A    between atoms: O10_10  and  C11_11 
REMARK    7  A    between atoms: C11_11  and  C12_12 
REMARK    8  A    between atoms: C12_12  and  C13_13 
REMARK    9  A    between atoms: C13_13  and  N14_14 
ROOT
ATOM      1  C6  ZIN A   1      18.622  -0.326  11.389  0.00  0.00     0.068 A 
ATOM      2  C7  ZIN A   1      19.819  -1.019  11.283  0.00  0.00     0.039 A 
ATOM      3  C8  ZIN A   1      19.830  -2.397  11.390  0.00  0.00     0.039 A 
ATOM      4  C9  ZIN A   1      18.645  -3.086  11.605  0.00  0.00     0.068 A 
ATOM      5  C21 ZIN A   1      17.450  -2.392  11.712  0.00  0.00     0.039 A 
ATOM      6  C22 ZIN A   1      17.439  -1.014  11.609  0.00  0.00     0.039 A 
ENDROOT
BRANCH   4   7
ATOM      7  O10 ZIN A   1      18.657  -4.442  11.709  0.00  0.00    -0.351 OA
BRANCH   7   8
ATOM      8  C11 ZIN A   1      17.418  -5.120  11.493  0.00  0.00     0.177 C 
BRANCH   8   9
ATOM      9  C12 ZIN A   1      17.445  -5.805  10.125  0.00  0.00     0.054 C 
BRANCH   9  10
ATOM     10  C13 ZIN A   1      16.652  -4.967   9.120  0.00  0.00     0.237 C 
BRANCH  10  11
ATOM     11  N14 ZIN A   1      17.480  -4.716   7.932  0.00  0.00    -0.067 N 
ATOM     12  H15 ZIN A   1      16.887  -4.656   7.116  0.00  0.00     0.280 HD
ATOM     13  C20 ZIN A   1      18.210  -3.452   8.100  0.00  0.00     0.261 C 
ATOM     14  C19 ZIN A   1      19.071  -3.193   6.861  0.00  0.00     0.195 C 
ATOM     15  O18 ZIN A   1      19.962  -4.295   6.667  0.00  0.00    -0.388 OA
ATOM     16  C17 ZIN A   1      19.298  -5.553   6.523  0.00  0.00     0.195 C 
ATOM     17  C16 ZIN A   1      18.438  -5.816   7.761  0.00  0.00     0.261 C 
ENDBRANCH  10  11
ENDBRANCH   9  10
ENDBRANCH   8   9
ENDBRANCH   7   8
ENDBRANCH   4   7
BRANCH   1  18
ATOM     18  O5  ZIN A   1      18.610   1.030  11.284  0.00  0.00    -0.351 OA
BRANCH  18  19
ATOM     19  C4  ZIN A   1      17.901   1.588  10.176  0.00  0.00     0.175 C 
BRANCH  19  20
ATOM     20  C3  ZIN A   1      18.871   2.376   9.294  0.00  0.00     0.026 C 
BRANCH  20  21
ATOM     21  C2  ZIN A   1      19.306   1.507   8.112  0.00  0.00    -0.002 C 
ATOM     22  C1  ZIN A   1      18.230   0.457   7.829  0.00  0.00     0.005 C 
ENDBRANCH  20  21
ENDBRANCH  19  20
ENDBRANCH  18  19
ENDBRANCH   1  18
TORSDOF 9
ENDMDL
