MODEL 1
REMARK VINA RESULT:      -8.0      0.000      0.000
REMARK  4 active torsions:
REMARK  status: ('A' for Active; 'I' for Inactive)
REMARK    1  A    between atoms: C2_2  and  C4_4 
REMARK    2  A    between atoms: C4_4  and  C5_5 
REMARK    3  A    between atoms: C5_5  and  C7_6 
REMARK    4  A    between atoms: C5_5  and  C13_12 
ROOT
ATOM      1  C13 <0> d   1      17.882  -0.170  12.728  0.00  0.00     0.064 A 
ATOM      2  C14 <0> d   1      19.010  -0.935  12.843  0.00  0.00     0.133 A 
ATOM      3  O15 <0> d   1      20.030  -0.556  13.644  0.00  0.00    -0.190 OA
ATOM      4  C16 <0> d   1      19.077  -2.184  12.068  0.00  0.00     0.035 A 
ATOM      5  C17 <0> d   1      20.198  -3.014  12.136  0.00  0.00     0.017 A 
ATOM      6  C18 <0> d   1      20.231  -4.176  11.399  0.00  0.00     0.001 A 
ATOM      7  C19 <0> d   1      19.159  -4.523  10.591  0.00  0.00     0.003 A 
ATOM      8  C20 <0> d   1      18.045  -3.712  10.513  0.00  0.00     0.038 A 
ATOM      9  C21 <0> d   1      17.992  -2.536  11.250  0.00  0.00     0.092 A 
ATOM     10  O22 <0> d   1      16.910  -1.730  11.186  0.00  0.00    -0.274 OA
ATOM     11  C23 <0> d   1      16.836  -0.591  11.894  0.00  0.00     0.298 A 
ATOM     12  O24 <0> d   1      15.837   0.100  11.801  0.00  0.00    -0.259 OA
ENDROOT
BRANCH   1  13
ATOM     13  C5  <0> d   1      17.760   1.119  13.501  0.00  0.00     0.067 C 
BRANCH  13  14
ATOM     14  C4  <0> d   1      18.808   2.115  12.998  0.00  0.00     0.092 C 
BRANCH  14  15
ATOM     15  C2  <0> d   1      18.342   2.724  11.701  0.00  0.00     0.124 C 
ATOM     16  C1  <0> d   1      19.242   2.701  10.492  0.00  0.00     0.091 C 
ATOM     17  O3  <0> d   1      17.248   3.230  11.630  0.00  0.00    -0.298 OA
ENDBRANCH  14  15
ENDBRANCH  13  14
BRANCH  13  18
ATOM     18  C7  <0> d   1      17.985   0.849  14.966  0.00  0.00    -0.049 A 
ATOM     19  C12 <0> d   1      17.278  -0.156  15.599  0.00  0.00     0.008 A 
ATOM     20  C11 <0> d   1      17.486  -0.406  16.943  0.00  0.00     0.001 A 
ATOM     21  C10 <0> d   1      18.395   0.354  17.654  0.00  0.00     0.000 A 
ATOM     22  C9  <0> d   1      19.098   1.363  17.022  0.00  0.00     0.001 A 
ATOM     23  C8  <0> d   1      18.892   1.611  15.678  0.00  0.00     0.008 A 
ENDBRANCH  13  18
ENDBRANCH   1  13
TORSDOF 4
ENDMDL
MODEL 2
REMARK VINA RESULT:      -7.8      1.072      3.878
REMARK  4 active torsions:
REMARK  status: ('A' for Active; 'I' for Inactive)
REMARK    1  A    between atoms: C2_2  and  C4_4 
REMARK    2  A    between atoms: C4_4  and  C5_5 
REMARK    3  A    between atoms: C5_5  and  C7_6 
REMARK    4  A    between atoms: C5_5  and  C13_12 
ROOT
ATOM      1  C13 <0> d   1      18.381  -0.073  12.474  0.00  0.00     0.064 A 
ATOM      2  C14 <0> d   1      19.415  -0.965  12.396  0.00  0.00     0.133 A 
ATOM      3  O15 <0> d   1      20.666  -0.616  12.772  0.00  0.00    -0.190 OA
ATOM      4  C16 <0> d   1      19.124  -2.316  11.892  0.00  0.00     0.035 A 
ATOM      5  C17 <0> d   1      20.131  -3.278  11.786  0.00  0.00     0.017 A 
ATOM      6  C18 <0> d   1      19.826  -4.533  11.311  0.00  0.00     0.001 A 
ATOM      7  C19 <0> d   1      18.527  -4.844  10.938  0.00  0.00     0.003 A 
ATOM      8  C20 <0> d   1      17.522  -3.904  11.037  0.00  0.00     0.038 A 
ATOM      9  C21 <0> d   1      17.809  -2.632  11.515  0.00  0.00     0.092 A 
ATOM     10  O22 <0> d   1      16.838  -1.698  11.618  0.00  0.00    -0.274 OA
ATOM     11  C23 <0> d   1      17.092  -0.465  12.083  0.00  0.00     0.298 A 
ATOM     12  O24 <0> d   1      16.180   0.340  12.157  0.00  0.00    -0.259 OA
ENDROOT
BRANCH   1  13
ATOM     13  C5  <0> d   1      18.625   1.325  12.983  0.00  0.00     0.067 C 
BRANCH  13  14
ATOM     14  C4  <0> d   1      17.681   1.613  14.153  0.00  0.00     0.092 C 
BRANCH  14  15
ATOM     15  C2  <0> d   1      18.223   0.974  15.406  0.00  0.00     0.124 C 
ATOM     16  C1  <0> d   1      17.429  -0.095  16.111  0.00  0.00     0.091 C 
ATOM     17  O3  <0> d   1      19.294   1.320  15.844  0.00  0.00    -0.298 OA
ENDBRANCH  14  15
ENDBRANCH  13  14
BRANCH  13  18
ATOM     18  C7  <0> d   1      18.369   2.315  11.876  0.00  0.00    -0.049 A 
ATOM     19  C12 <0> d   1      17.559   3.411  12.103  0.00  0.00     0.008 A 
ATOM     20  C11 <0> d   1      17.327   4.321  11.088  0.00  0.00     0.001 A 
ATOM     21  C10 <0> d   1      17.898   4.128   9.844  0.00  0.00     0.000 A 
ATOM     22  C9  <0> d   1      18.704   3.029   9.616  0.00  0.00     0.001 A 
ATOM     23  C8  <0> d   1      18.938   2.121  10.632  0.00  0.00     0.008 A 
ENDBRANCH  13  18
ENDBRANCH   1  13
TORSDOF 4
ENDMDL
MODEL 3
REMARK VINA RESULT:      -7.6      2.462      3.644
REMARK  4 active torsions:
REMARK  status: ('A' for Active; 'I' for Inactive)
REMARK    1  A    between atoms: C2_2  and  C4_4 
REMARK    2  A    between atoms: C4_4  and  C5_5 
REMARK    3  A    between atoms: C5_5  and  C7_6 
REMARK    4  A    between atoms: C5_5  and  C13_12 
ROOT
ATOM      1  C13 <0> d   1      17.619   1.285  11.396  0.00  0.00     0.064 A 
ATOM      2  C14 <0> d   1      18.491   1.807  10.481  0.00  0.00     0.133 A 
ATOM      3  O15 <0> d   1      19.372   2.772  10.830  0.00  0.00    -0.190 OA
ATOM      4  C16 <0> d   1      18.443   1.286   9.105  0.00  0.00     0.035 A 
ATOM      5  C17 <0> d   1      19.305   1.773   8.120  0.00  0.00     0.017 A 
ATOM      6  C18 <0> d   1      19.234   1.264   6.843  0.00  0.00     0.001 A 
ATOM      7  C19 <0> d   1      18.313   0.275   6.533  0.00  0.00     0.003 A 
ATOM      8  C20 <0> d   1      17.456  -0.215   7.496  0.00  0.00     0.038 A 
ATOM      9  C21 <0> d   1      17.511   0.284   8.791  0.00  0.00     0.092 A 
ATOM     10  O22 <0> d   1      16.679  -0.184   9.747  0.00  0.00    -0.274 OA
ATOM     11  C23 <0> d   1      16.720   0.281  11.006  0.00  0.00     0.298 A 
ATOM     12  O24 <0> d   1      15.948  -0.175  11.831  0.00  0.00    -0.259 OA
ENDROOT
BRANCH   1  13
ATOM     13  C5  <0> d   1      17.626   1.783  12.819  0.00  0.00     0.067 C 
BRANCH  13  14
ATOM     14  C4  <0> d   1      18.529   3.014  12.922  0.00  0.00     0.092 C 
BRANCH  14  15
ATOM     15  C2  <0> d   1      17.720   4.192  13.401  0.00  0.00     0.124 C 
ATOM     16  C1  <0> d   1      16.965   5.041  12.411  0.00  0.00     0.091 C 
ATOM     17  O3  <0> d   1      17.678   4.456  14.579  0.00  0.00    -0.298 OA
ENDBRANCH  14  15
ENDBRANCH  13  14
BRANCH  13  18
ATOM     18  C7  <0> d   1      18.147   0.699  13.727  0.00  0.00    -0.049 A 
ATOM     19  C12 <0> d   1      19.235  -0.060  13.341  0.00  0.00     0.008 A 
ATOM     20  C11 <0> d   1      19.716  -1.053  14.176  0.00  0.00     0.001 A 
ATOM     21  C10 <0> d   1      19.101  -1.290  15.391  0.00  0.00     0.000 A 
ATOM     22  C9  <0> d   1      18.010  -0.534  15.774  0.00  0.00     0.001 A 
ATOM     23  C8  <0> d   1      17.532   0.461  14.941  0.00  0.00     0.008 A 
ENDBRANCH  13  18
ENDBRANCH   1  13
TORSDOF 4
ENDMDL
MODEL 4
REMARK VINA RESULT:      -7.6      2.574      4.034
REMARK  4 active torsions:
REMARK  status: ('A' for Active; 'I' for Inactive)
REMARK    1  A    between atoms: C2_2  and  C4_4 
REMARK    2  A    between atoms: C4_4  and  C5_5 
REMARK    3  A    between atoms: C5_5  and  C7_6 
REMARK    4  A    between atoms: C5_5  and  C13_12 
ROOT
ATOM      1  C13 <0> d   1      18.090   1.825  11.425  0.00  0.00     0.064 A 
ATOM      2  C14 <0> d   1      17.368   0.933  10.680  0.00  0.00     0.133 A 
ATOM      3  O15 <0> d   1      16.321   0.265  11.214  0.00  0.00    -0.190 OA
ATOM      4  C16 <0> d   1      17.766   0.723   9.279  0.00  0.00     0.035 A 
ATOM      5  C17 <0> d   1      17.075  -0.172   8.460  0.00  0.00     0.017 A 
ATOM      6  C18 <0> d   1      17.472  -0.346   7.154  0.00  0.00     0.001 A 
ATOM      7  C19 <0> d   1      18.553   0.363   6.650  0.00  0.00     0.003 A 
ATOM      8  C20 <0> d   1      19.245   1.251   7.448  0.00  0.00     0.038 A 
ATOM      9  C21 <0> d   1      18.860   1.440   8.769  0.00  0.00     0.092 A 
ATOM     10  O22 <0> d   1      19.526   2.305   9.565  0.00  0.00    -0.274 OA
ATOM     11  C23 <0> d   1      19.167   2.508  10.842  0.00  0.00     0.298 A 
ATOM     12  O24 <0> d   1      19.801   3.299  11.517  0.00  0.00    -0.259 OA
ENDROOT
BRANCH   1  13
ATOM     13  C5  <0> d   1      17.724   2.077  12.866  0.00  0.00     0.067 C 
BRANCH  13  14
ATOM     14  C4  <0> d   1      18.415   3.353  13.351  0.00  0.00     0.092 C 
BRANCH  14  15
ATOM     15  C2  <0> d   1      17.384   4.429  13.576  0.00  0.00     0.124 C 
ATOM     16  C1  <0> d   1      16.691   5.067  12.400  0.00  0.00     0.091 C 
ATOM     17  O3  <0> d   1      17.113   4.780  14.700  0.00  0.00    -0.298 OA
ENDBRANCH  14  15
ENDBRANCH  13  14
BRANCH  13  18
ATOM     18  C7  <0> d   1      18.172   0.911  13.709  0.00  0.00    -0.049 A 
ATOM     19  C12 <0> d   1      19.320   0.218  13.374  0.00  0.00     0.008 A 
ATOM     20  C11 <0> d   1      19.734  -0.850  14.149  0.00  0.00     0.001 A 
ATOM     21  C10 <0> d   1      18.994  -1.229  15.253  0.00  0.00     0.000 A 
ATOM     22  C9  <0> d   1      17.843  -0.539  15.585  0.00  0.00     0.001 A 
ATOM     23  C8  <0> d   1      17.431   0.531  14.812  0.00  0.00     0.008 A 
ENDBRANCH  13  18
ENDBRANCH   1  13
TORSDOF 4
ENDMDL
MODEL 5
REMARK VINA RESULT:      -7.6      2.761      6.749
REMARK  4 active torsions:
REMARK  status: ('A' for Active; 'I' for Inactive)
REMARK    1  A    between atoms: C2_2  and  C4_4 
REMARK    2  A    between atoms: C4_4  and  C5_5 
REMARK    3  A    between atoms: C5_5  and  C7_6 
REMARK    4  A    between atoms: C5_5  and  C13_12 
ROOT
ATOM      1  C13 <0> d   1      18.052   0.070  10.710  0.00  0.00     0.064 A 
ATOM      2  C14 <0> d   1      19.168   0.860  10.666  0.00  0.00     0.133 A 
ATOM      3  O15 <0> d   1      20.271   0.470   9.988  0.00  0.00    -0.190 OA
ATOM      4  C16 <0> d   1      19.131   2.147  11.377  0.00  0.00     0.035 A 
ATOM      5  C17 <0> d   1      20.234   3.004  11.374  0.00  0.00     0.017 A 
ATOM      6  C18 <0> d   1      20.167   4.202  12.049  0.00  0.00     0.001 A 
ATOM      7  C19 <0> d   1      19.013   4.558  12.730  0.00  0.00     0.003 A 
ATOM      8  C20 <0> d   1      17.916   3.721  12.742  0.00  0.00     0.038 A 
ATOM      9  C21 <0> d   1      17.963   2.509  12.066  0.00  0.00     0.092 A 
ATOM     10  O22 <0> d   1      16.898   1.677  12.067  0.00  0.00    -0.274 OA
ATOM     11  C23 <0> d   1      16.920   0.503  11.416  0.00  0.00     0.298 A 
ATOM     12  O24 <0> d   1      15.933  -0.210  11.448  0.00  0.00    -0.259 OA
ENDROOT
BRANCH   1  13
ATOM     13  C5  <0> d   1      18.037  -1.259   9.998  0.00  0.00     0.067 C 
BRANCH  13  14
ATOM     14  C4  <0> d   1      19.243  -2.089  10.443  0.00  0.00     0.092 C 
BRANCH  14  15
ATOM     15  C2  <0> d   1      18.940  -2.752  11.762  0.00  0.00     0.124 C 
ATOM     16  C1  <0> d   1      17.929  -3.868  11.829  0.00  0.00     0.091 C 
ATOM     17  O3  <0> d   1      19.506  -2.388  12.764  0.00  0.00    -0.298 OA
ENDBRANCH  14  15
ENDBRANCH  13  14
BRANCH  13  18
ATOM     18  C7  <0> d   1      18.104  -1.032   8.510  0.00  0.00    -0.049 A 
ATOM     19  C12 <0> d   1      17.189  -0.197   7.898  0.00  0.00     0.008 A 
ATOM     20  C11 <0> d   1      17.252   0.015   6.532  0.00  0.00     0.001 A 
ATOM     21  C10 <0> d   1      18.224  -0.617   5.780  0.00  0.00     0.000 A 
ATOM     22  C9  <0> d   1      19.136  -1.456   6.392  0.00  0.00     0.001 A 
ATOM     23  C8  <0> d   1      19.075  -1.665   7.757  0.00  0.00     0.008 A 
ENDBRANCH  13  18
ENDBRANCH   1  13
TORSDOF 4
ENDMDL
MODEL 6
REMARK VINA RESULT:      -7.6      0.700      2.042
REMARK  4 active torsions:
REMARK  status: ('A' for Active; 'I' for Inactive)
REMARK    1  A    between atoms: C2_2  and  C4_4 
REMARK    2  A    between atoms: C4_4  and  C5_5 
REMARK    3  A    between atoms: C5_5  and  C7_6 
REMARK    4  A    between atoms: C5_5  and  C13_12 
ROOT
ATOM      1  C13 <0> d   1      18.384  -0.136  12.902  0.00  0.00     0.064 A 
ATOM      2  C14 <0> d   1      17.565  -0.968  12.188  0.00  0.00     0.133 A 
ATOM      3  O15 <0> d   1      16.281  -0.632  11.934  0.00  0.00    -0.190 OA
ATOM      4  C16 <0> d   1      18.127  -2.240  11.704  0.00  0.00     0.035 A 
ATOM      5  C17 <0> d   1      17.349  -3.137  10.969  0.00  0.00     0.017 A 
ATOM      6  C18 <0> d   1      17.904  -4.318  10.531  0.00  0.00     0.001 A 
ATOM      7  C19 <0> d   1      19.227  -4.618  10.816  0.00  0.00     0.003 A 
ATOM      8  C20 <0> d   1      20.007  -3.741  11.542  0.00  0.00     0.038 A 
ATOM      9  C21 <0> d   1      19.466  -2.544  11.993  0.00  0.00     0.092 A 
ATOM     10  O22 <0> d   1      20.215  -1.673  12.704  0.00  0.00    -0.274 OA
ATOM     11  C23 <0> d   1      19.714  -0.508  13.145  0.00  0.00     0.298 A 
ATOM     12  O24 <0> d   1      20.432   0.242  13.782  0.00  0.00    -0.259 OA
ENDROOT
BRANCH   1  13
ATOM     13  C5  <0> d   1      17.859   1.179  13.420  0.00  0.00     0.067 C 
BRANCH  13  14
ATOM     14  C4  <0> d   1      18.688   2.324  12.836  0.00  0.00     0.092 C 
BRANCH  14  15
ATOM     15  C2  <0> d   1      18.213   2.627  11.438  0.00  0.00     0.124 C 
ATOM     16  C1  <0> d   1      19.169   2.519  10.278  0.00  0.00     0.091 C 
ATOM     17  O3  <0> d   1      17.067   2.956  11.248  0.00  0.00    -0.298 OA
ENDBRANCH  14  15
ENDBRANCH  13  14
BRANCH  13  18
ATOM     18  C7  <0> d   1      17.959   1.201  14.924  0.00  0.00    -0.049 A 
ATOM     19  C12 <0> d   1      17.414   0.172  15.667  0.00  0.00     0.008 A 
ATOM     20  C11 <0> d   1      17.509   0.190  17.047  0.00  0.00     0.001 A 
ATOM     21  C10 <0> d   1      18.141   1.242  17.681  0.00  0.00     0.000 A 
ATOM     22  C9  <0> d   1      18.682   2.274  16.938  0.00  0.00     0.001 A 
ATOM     23  C8  <0> d   1      18.590   2.254  15.558  0.00  0.00     0.008 A 
ENDBRANCH  13  18
ENDBRANCH   1  13
TORSDOF 4
ENDMDL
MODEL 7
REMARK VINA RESULT:      -7.5      3.511      5.434
REMARK  4 active torsions:
REMARK  status: ('A' for Active; 'I' for Inactive)
REMARK    1  A    between atoms: C2_2  and  C4_4 
REMARK    2  A    between atoms: C4_4  and  C5_5 
REMARK    3  A    between atoms: C5_5  and  C7_6 
REMARK    4  A    between atoms: C5_5  and  C13_12 
ROOT
ATOM      1  C13 <0> d   1      18.518   0.967   9.329  0.00  0.00     0.064 A 
ATOM      2  C14 <0> d   1      19.244   1.133   8.182  0.00  0.00     0.133 A 
ATOM      3  O15 <0> d   1      20.400   1.834   8.185  0.00  0.00    -0.190 OA
ATOM      4  C16 <0> d   1      18.730   0.522   6.946  0.00  0.00     0.035 A 
ATOM      5  C17 <0> d   1      19.420   0.651   5.739  0.00  0.00     0.017 A 
ATOM      6  C18 <0> d   1      18.913   0.068   4.599  0.00  0.00     0.001 A 
ATOM      7  C19 <0> d   1      17.723  -0.642   4.647  0.00  0.00     0.003 A 
ATOM      8  C20 <0> d   1      17.030  -0.777   5.833  0.00  0.00     0.038 A 
ATOM      9  C21 <0> d   1      17.526  -0.197   6.993  0.00  0.00     0.092 A 
ATOM     10  O22 <0> d   1      16.861  -0.318   8.163  0.00  0.00    -0.274 OA
ATOM     11  C23 <0> d   1      17.325   0.229   9.298  0.00  0.00     0.298 A 
ATOM     12  O24 <0> d   1      16.687   0.091  10.327  0.00  0.00    -0.259 OA
ENDROOT
BRANCH   1  13
ATOM     13  C5  <0> d   1      18.999   1.572  10.624  0.00  0.00     0.067 C 
BRANCH  13  14
ATOM     14  C4  <0> d   1      18.729   0.597  11.772  0.00  0.00     0.092 C 
BRANCH  14  15
ATOM     15  C2  <0> d   1      19.980   0.430  12.596  0.00  0.00     0.124 C 
ATOM     16  C1  <0> d   1      19.881   0.024  14.044  0.00  0.00     0.091 C 
ATOM     17  O3  <0> d   1      21.062   0.621  12.094  0.00  0.00    -0.298 OA
ENDBRANCH  14  15
ENDBRANCH  13  14
BRANCH  13  18
ATOM     18  C7  <0> d   1      18.268   2.864  10.877  0.00  0.00    -0.049 A 
ATOM     19  C12 <0> d   1      17.714   3.112  12.119  0.00  0.00     0.008 A 
ATOM     20  C11 <0> d   1      17.045   4.300  12.353  0.00  0.00     0.001 A 
ATOM     21  C10 <0> d   1      16.924   5.234  11.342  0.00  0.00     0.000 A 
ATOM     22  C9  <0> d   1      17.473   4.984  10.099  0.00  0.00     0.001 A 
ATOM     23  C8  <0> d   1      18.145   3.798   9.866  0.00  0.00     0.008 A 
ENDBRANCH  13  18
ENDBRANCH   1  13
TORSDOF 4
ENDMDL
MODEL 8
REMARK VINA RESULT:      -7.3      2.729      4.711
REMARK  4 active torsions:
REMARK  status: ('A' for Active; 'I' for Inactive)
REMARK    1  A    between atoms: C2_2  and  C4_4 
REMARK    2  A    between atoms: C4_4  and  C5_5 
REMARK    3  A    between atoms: C5_5  and  C7_6 
REMARK    4  A    between atoms: C5_5  and  C13_12 
ROOT
ATOM      1  C13 <0> d   1      18.073   1.337  11.059  0.00  0.00     0.064 A 
ATOM      2  C14 <0> d   1      18.853   1.669   9.986  0.00  0.00     0.133 A 
ATOM      3  O15 <0> d   1      19.914   2.495  10.125  0.00  0.00    -0.190 OA
ATOM      4  C16 <0> d   1      18.503   1.098   8.675  0.00  0.00     0.035 A 
ATOM      5  C17 <0> d   1      19.256   1.393   7.537  0.00  0.00     0.017 A 
ATOM      6  C18 <0> d   1      18.903   0.843   6.325  0.00  0.00     0.001 A 
ATOM      7  C19 <0> d   1      17.806   0.000   6.233  0.00  0.00     0.003 A 
ATOM      8  C20 <0> d   1      17.053  -0.300   7.349  0.00  0.00     0.038 A 
ATOM      9  C21 <0> d   1      17.393   0.245   8.581  0.00  0.00     0.092 A 
ATOM     10  O22 <0> d   1      16.667  -0.039   9.684  0.00  0.00    -0.274 OA
ATOM     11  C23 <0> d   1      16.982   0.472  10.886  0.00  0.00     0.298 A 
ATOM     12  O24 <0> d   1      16.295   0.185  11.850  0.00  0.00    -0.259 OA
ENDROOT
BRANCH   1  13
ATOM     13  C5  <0> d   1      18.387   1.894  12.424  0.00  0.00     0.067 C 
BRANCH  13  14
ATOM     14  C4  <0> d   1      17.821   0.961  13.497  0.00  0.00     0.092 C 
BRANCH  14  15
ATOM     15  C2  <0> d   1      18.954   0.355  14.285  0.00  0.00     0.124 C 
ATOM     16  C1  <0> d   1      19.325  -1.091  14.080  0.00  0.00     0.091 C 
ATOM     17  O3  <0> d   1      19.563   1.028  15.081  0.00  0.00    -0.298 OA
ENDBRANCH  14  15
ENDBRANCH  13  14
BRANCH  13  18
ATOM     18  C7  <0> d   1      17.765   3.259  12.565  0.00  0.00    -0.049 A 
ATOM     19  C12 <0> d   1      17.217   3.884  11.461  0.00  0.00     0.008 A 
ATOM     20  C11 <0> d   1      16.643   5.136  11.590  0.00  0.00     0.001 A 
ATOM     21  C10 <0> d   1      16.626   5.764  12.821  0.00  0.00     0.000 A 
ATOM     22  C9  <0> d   1      17.178   5.140  13.924  0.00  0.00     0.001 A 
ATOM     23  C8  <0> d   1      17.749   3.887  13.795  0.00  0.00     0.008 A 
ENDBRANCH  13  18
ENDBRANCH   1  13
TORSDOF 4
ENDMDL
MODEL 9
REMARK VINA RESULT:      -7.3      3.232      5.209
REMARK  4 active torsions:
REMARK  status: ('A' for Active; 'I' for Inactive)
REMARK    1  A    between atoms: C2_2  and  C4_4 
REMARK    2  A    between atoms: C4_4  and  C5_5 
REMARK    3  A    between atoms: C5_5  and  C7_6 
REMARK    4  A    between atoms: C5_5  and  C13_12 
ROOT
ATOM      1  C13 <0> d   1      18.239  -0.494  10.479  0.00  0.00     0.064 A 
ATOM      2  C14 <0> d   1      19.107  -1.532  10.277  0.00  0.00     0.133 A 
ATOM      3  O15 <0> d   1      20.226  -1.372   9.536  0.00  0.00    -0.190 OA
ATOM      4  C16 <0> d   1      18.785  -2.829  10.893  0.00  0.00     0.035 A 
ATOM      5  C17 <0> d   1      19.625  -3.933  10.730  0.00  0.00     0.017 A 
ATOM      6  C18 <0> d   1      19.296  -5.132  11.319  0.00  0.00     0.001 A 
ATOM      7  C19 <0> d   1      18.137  -5.248  12.071  0.00  0.00     0.003 A 
ATOM      8  C20 <0> d   1      17.297  -4.167  12.241  0.00  0.00     0.038 A 
ATOM      9  C21 <0> d   1      17.612  -2.947  11.654  0.00  0.00     0.092 A 
ATOM     10  O22 <0> d   1      16.801  -1.877  11.810  0.00  0.00    -0.274 OA
ATOM     11  C23 <0> d   1      17.089  -0.688  11.258  0.00  0.00     0.298 A 
ATOM     12  O24 <0> d   1      16.325   0.245  11.428  0.00  0.00    -0.259 OA
ENDROOT
BRANCH   1  13
ATOM     13  C5  <0> d   1      18.522   0.856   9.870  0.00  0.00     0.067 C 
BRANCH  13  14
ATOM     14  C4  <0> d   1      17.529   1.882  10.423  0.00  0.00     0.092 C 
BRANCH  14  15
ATOM     15  C2  <0> d   1      18.225   3.205  10.610  0.00  0.00     0.124 C 
ATOM     16  C1  <0> d   1      17.477   4.491  10.366  0.00  0.00     0.091 C 
ATOM     17  O3  <0> d   1      19.382   3.236  10.955  0.00  0.00    -0.298 OA
ENDBRANCH  14  15
ENDBRANCH  13  14
BRANCH  13  18
ATOM     18  C7  <0> d   1      18.376   0.772   8.373  0.00  0.00    -0.049 A 
ATOM     19  C12 <0> d   1      17.372   0.002   7.819  0.00  0.00     0.008 A 
ATOM     20  C11 <0> d   1      17.236  -0.073   6.445  0.00  0.00     0.001 A 
ATOM     21  C10 <0> d   1      18.111   0.616   5.626  0.00  0.00     0.000 A 
ATOM     22  C9  <0> d   1      19.119   1.382   6.180  0.00  0.00     0.001 A 
ATOM     23  C8  <0> d   1      19.252   1.460   7.554  0.00  0.00     0.008 A 
ENDBRANCH  13  18
ENDBRANCH   1  13
TORSDOF 4
ENDMDL
