MODEL 1
REMARK VINA RESULT:      -7.3      0.000      0.000
REMARK  6 active torsions:
REMARK  status: ('A' for Active; 'I' for Inactive)
REMARK    1  A    between atoms: C6_5  and  O8_6 
REMARK    2  A    between atoms: O8_6  and  C9_7 
REMARK    3  A    between atoms: C9_7  and  C11_9 
REMARK    4  A    between atoms: C11_9  and  C13_10 
REMARK    5  A    between atoms: C11_9  and  C15_12 
REMARK    6  A    between atoms: C13_10  and  O14_11 
ROOT
ATOM      1  C9  ZIN A   1      19.677  -0.509  10.496  0.00  0.00     0.270 C 
ATOM      2  O10 ZIN A   1      20.817  -0.246  10.798  0.00  0.00    -0.264 OA
ENDROOT
BRANCH   1   3
ATOM      3  O8  ZIN A   1      19.266  -1.788  10.477  0.00  0.00    -0.315 OA
BRANCH   3   4
ATOM      4  C6  ZIN A   1      19.446  -2.556  11.696  0.00  0.00     0.136 C 
ATOM      5  C5  ZIN A   1      20.195  -3.853  11.375  0.00  0.00     0.071 C 
ATOM      6  C3  ZIN A   1      19.304  -4.733  10.484  0.00  0.00     0.257 C 
ATOM      7  N2  ZIN A   1      18.104  -5.099  11.283  0.00  0.00     0.099 N 
ATOM      8  C27 ZIN A   1      18.745  -3.859   9.338  0.00  0.00     0.186 A 
ATOM      9  C1  ZIN A   1      17.340  -6.168  10.627  0.00  0.00     0.311 C 
ATOM     10  C22 ZIN A   1      17.321  -3.835  11.329  0.00  0.00     0.257 C 
ATOM     11  C21 ZIN A   1      18.076  -2.884  12.296  0.00  0.00     0.071 C 
ATOM     12  C24 ZIN A   1      17.422  -3.239   9.907  0.00  0.00     0.186 A 
ATOM     13  O26 ZIN A   1      17.402  -4.143   8.799  0.00  0.00    -0.371 OA
ENDBRANCH   3   4
ENDBRANCH   1   3
BRANCH   1  14
ATOM     14  C11 ZIN A   1      18.717   0.596  10.138  0.00  0.00     0.142 C 
BRANCH  14  15
ATOM     15  C13 ZIN A   1      17.405   0.399  10.901  0.00  0.00     0.183 C 
BRANCH  15  16
ATOM     16  O14 ZIN A   1      17.002   1.639  11.484  0.00  0.00    -0.400 OA
ATOM     17  H36 ZIN A   1      16.063   1.682  11.708  0.00  0.00     0.209 HD
ENDBRANCH  15  16
ENDBRANCH  14  15
BRANCH  14  18
ATOM     18  C15 ZIN A   1      18.447   0.566   8.657  0.00  0.00    -0.043 A 
ATOM     19  C20 ZIN A   1      19.286   1.238   7.787  0.00  0.00     0.008 A 
ATOM     20  C19 ZIN A   1      19.041   1.207   6.427  0.00  0.00     0.001 A 
ATOM     21  C18 ZIN A   1      17.950   0.512   5.937  0.00  0.00     0.000 A 
ATOM     22  C17 ZIN A   1      17.108  -0.155   6.806  0.00  0.00     0.001 A 
ATOM     23  C16 ZIN A   1      17.356  -0.128   8.166  0.00  0.00     0.008 A 
ENDBRANCH  14  18
ENDBRANCH   1  14
TORSDOF 6
ENDMDL
MODEL 2
REMARK VINA RESULT:      -7.3      1.539      2.339
REMARK  6 active torsions:
REMARK  status: ('A' for Active; 'I' for Inactive)
REMARK    1  A    between atoms: C6_5  and  O8_6 
REMARK    2  A    between atoms: O8_6  and  C9_7 
REMARK    3  A    between atoms: C9_7  and  C11_9 
REMARK    4  A    between atoms: C11_9  and  C13_10 
REMARK    5  A    between atoms: C11_9  and  C15_12 
REMARK    6  A    between atoms: C13_10  and  O14_11 
ROOT
ATOM      1  C9  ZIN A   1      18.680  -1.267  11.637  0.00  0.00     0.270 C 
ATOM      2  O10 ZIN A   1      17.997  -0.893  12.561  0.00  0.00    -0.264 OA
ENDROOT
BRANCH   1   3
ATOM      3  O8  ZIN A   1      18.360  -2.394  10.980  0.00  0.00    -0.315 OA
BRANCH   3   4
ATOM      4  C6  ZIN A   1      18.364  -3.627  11.746  0.00  0.00     0.136 C 
ATOM      5  C5  ZIN A   1      19.600  -4.452  11.375  0.00  0.00     0.071 C 
ATOM      6  C3  ZIN A   1      19.477  -4.901   9.910  0.00  0.00     0.257 C 
ATOM      7  N2  ZIN A   1      18.298  -5.802   9.822  0.00  0.00     0.099 N 
ATOM      8  C27 ZIN A   1      19.081  -3.673   9.056  0.00  0.00     0.186 A 
ATOM      9  C1  ZIN A   1      18.269  -6.508   8.534  0.00  0.00     0.311 C 
ATOM     10  C22 ZIN A   1      17.142  -4.874   9.947  0.00  0.00     0.257 C 
ATOM     11  C21 ZIN A   1      17.096  -4.425  11.431  0.00  0.00     0.071 C 
ATOM     12  C24 ZIN A   1      17.514  -3.641   9.092  0.00  0.00     0.186 A 
ATOM     13  O26 ZIN A   1      18.224  -3.861   7.871  0.00  0.00    -0.371 OA
ENDBRANCH   3   4
ENDBRANCH   1   3
BRANCH   1  14
ATOM     14  C11 ZIN A   1      19.890  -0.471  11.222  0.00  0.00     0.142 C 
BRANCH  14  15
ATOM     15  C13 ZIN A   1      20.395   0.347  12.414  0.00  0.00     0.183 C 
BRANCH  15  16
ATOM     16  O14 ZIN A   1      21.785   0.629  12.242  0.00  0.00    -0.400 OA
ATOM     17  H36 ZIN A   1      21.964   1.480  11.820  0.00  0.00     0.209 HD
ENDBRANCH  15  16
ENDBRANCH  14  15
BRANCH  14  18
ATOM     18  C15 ZIN A   1      19.518   0.458  10.097  0.00  0.00    -0.043 A 
ATOM     19  C20 ZIN A   1      19.585   0.019   8.787  0.00  0.00     0.008 A 
ATOM     20  C19 ZIN A   1      19.241   0.870   7.754  0.00  0.00     0.001 A 
ATOM     21  C18 ZIN A   1      18.837   2.164   8.029  0.00  0.00     0.000 A 
ATOM     22  C17 ZIN A   1      18.775   2.604   9.338  0.00  0.00     0.001 A 
ATOM     23  C16 ZIN A   1      19.116   1.752  10.371  0.00  0.00     0.008 A 
ENDBRANCH  14  18
ENDBRANCH   1  14
TORSDOF 6
ENDMDL
MODEL 3
REMARK VINA RESULT:      -7.2      2.676      4.886
REMARK  6 active torsions:
REMARK  status: ('A' for Active; 'I' for Inactive)
REMARK    1  A    between atoms: C6_5  and  O8_6 
REMARK    2  A    between atoms: O8_6  and  C9_7 
REMARK    3  A    between atoms: C9_7  and  C11_9 
REMARK    4  A    between atoms: C11_9  and  C13_10 
REMARK    5  A    between atoms: C11_9  and  C15_12 
REMARK    6  A    between atoms: C13_10  and  O14_11 
ROOT
ATOM      1  C9  ZIN A   1      17.729  -1.133  11.846  0.00  0.00     0.270 C 
ATOM      2  O10 ZIN A   1      16.540  -0.913  11.832  0.00  0.00    -0.264 OA
ENDROOT
BRANCH   1   3
ATOM      3  O8  ZIN A   1      18.221  -2.196  11.189  0.00  0.00    -0.315 OA
BRANCH   3   4
ATOM      4  C6  ZIN A   1      18.213  -3.467  11.891  0.00  0.00     0.136 C 
ATOM      5  C5  ZIN A   1      19.519  -4.214  11.607  0.00  0.00     0.071 C 
ATOM      6  C3  ZIN A   1      19.562  -4.589  10.116  0.00  0.00     0.257 C 
ATOM      7  N2  ZIN A   1      18.445  -5.538   9.867  0.00  0.00     0.099 N 
ATOM      8  C27 ZIN A   1      19.191  -3.337   9.288  0.00  0.00     0.186 A 
ATOM      9  C1  ZIN A   1      18.578  -6.174   8.550  0.00  0.00     0.311 C 
ATOM     10  C22 ZIN A   1      17.237  -4.670   9.920  0.00  0.00     0.257 C 
ATOM     11  C21 ZIN A   1      17.024  -4.304  11.413  0.00  0.00     0.071 C 
ATOM     12  C24 ZIN A   1      17.628  -3.378   9.168  0.00  0.00     0.186 A 
ATOM     13  O26 ZIN A   1      18.465  -3.501   8.016  0.00  0.00    -0.371 OA
ENDBRANCH   3   4
ENDBRANCH   1   3
BRANCH   1  14
ATOM     14  C11 ZIN A   1      18.657  -0.218  12.602  0.00  0.00     0.142 C 
BRANCH  14  15
ATOM     15  C13 ZIN A   1      20.104  -0.522  12.210  0.00  0.00     0.183 C 
BRANCH  15  16
ATOM     16  O14 ZIN A   1      20.954   0.528  12.675  0.00  0.00    -0.400 OA
ATOM     17  H36 ZIN A   1      21.525   0.275  13.412  0.00  0.00     0.209 HD
ENDBRANCH  15  16
ENDBRANCH  14  15
BRANCH  14  18
ATOM     18  C15 ZIN A   1      18.480  -0.436  14.082  0.00  0.00    -0.043 A 
ATOM     19  C20 ZIN A   1      17.601   0.356  14.798  0.00  0.00     0.008 A 
ATOM     20  C19 ZIN A   1      17.436   0.154  16.155  0.00  0.00     0.001 A 
ATOM     21  C18 ZIN A   1      18.158  -0.835  16.800  0.00  0.00     0.000 A 
ATOM     22  C17 ZIN A   1      19.041  -1.622  16.086  0.00  0.00     0.001 A 
ATOM     23  C16 ZIN A   1      19.203  -1.423  14.727  0.00  0.00     0.008 A 
ENDBRANCH  14  18
ENDBRANCH   1  14
TORSDOF 6
ENDMDL
MODEL 4
REMARK VINA RESULT:      -7.2      3.839      6.501
REMARK  6 active torsions:
REMARK  status: ('A' for Active; 'I' for Inactive)
REMARK    1  A    between atoms: C6_5  and  O8_6 
REMARK    2  A    between atoms: O8_6  and  C9_7 
REMARK    3  A    between atoms: C9_7  and  C11_9 
REMARK    4  A    between atoms: C11_9  and  C13_10 
REMARK    5  A    between atoms: C11_9  and  C15_12 
REMARK    6  A    between atoms: C13_10  and  O14_11 
ROOT
ATOM      1  C9  ZIN A   1      19.272   0.956  13.370  0.00  0.00     0.270 C 
ATOM      2  O10 ZIN A   1      20.299   0.494  13.811  0.00  0.00    -0.264 OA
ENDROOT
BRANCH   1   3
ATOM      3  O8  ZIN A   1      18.971   0.800  12.070  0.00  0.00    -0.315 OA
BRANCH   3   4
ATOM      4  C6  ZIN A   1      17.626   1.158  11.658  0.00  0.00     0.136 C 
ATOM      5  C5  ZIN A   1      16.860  -0.109  11.265  0.00  0.00     0.071 C 
ATOM      6  C3  ZIN A   1      17.508  -0.712  10.008  0.00  0.00     0.257 C 
ATOM      7  N2  ZIN A   1      17.335   0.272   8.907  0.00  0.00     0.099 N 
ATOM      8  C27 ZIN A   1      19.038  -0.770  10.229  0.00  0.00     0.186 A 
ATOM      9  C1  ZIN A   1      17.660  -0.330   7.607  0.00  0.00     0.311 C 
ATOM     10  C22 ZIN A   1      18.300   1.350   9.251  0.00  0.00     0.257 C 
ATOM     11  C21 ZIN A   1      17.698   2.111  10.462  0.00  0.00     0.071 C 
ATOM     12  C24 ZIN A   1      19.573   0.620   9.738  0.00  0.00     0.186 A 
ATOM     13  O26 ZIN A   1      19.942  -0.593   9.079  0.00  0.00    -0.371 OA
ENDBRANCH   3   4
ENDBRANCH   1   3
BRANCH   1  14
ATOM     14  C11 ZIN A   1      18.333   1.707  14.277  0.00  0.00     0.142 C 
BRANCH  14  15
ATOM     15  C13 ZIN A   1      18.790   3.163  14.392  0.00  0.00     0.183 C 
BRANCH  15  16
ATOM     16  O14 ZIN A   1      19.700   3.462  13.331  0.00  0.00    -0.400 OA
ATOM     17  H36 ZIN A   1      20.507   3.908  13.620  0.00  0.00     0.209 HD
ENDBRANCH  15  16
ENDBRANCH  14  15
BRANCH  14  18
ATOM     18  C15 ZIN A   1      18.336   1.070  15.642  0.00  0.00    -0.043 A 
ATOM     19  C20 ZIN A   1      17.600  -0.078  15.871  0.00  0.00     0.008 A 
ATOM     20  C19 ZIN A   1      17.605  -0.665  17.122  0.00  0.00     0.001 A 
ATOM     21  C18 ZIN A   1      18.341  -0.098  18.148  0.00  0.00     0.000 A 
ATOM     22  C17 ZIN A   1      19.072   1.052  17.920  0.00  0.00     0.001 A 
ATOM     23  C16 ZIN A   1      19.070   1.637  16.668  0.00  0.00     0.008 A 
ENDBRANCH  14  18
ENDBRANCH   1  14
TORSDOF 6
ENDMDL
MODEL 5
REMARK VINA RESULT:      -7.1      2.255      5.161
REMARK  6 active torsions:
REMARK  status: ('A' for Active; 'I' for Inactive)
REMARK    1  A    between atoms: C6_5  and  O8_6 
REMARK    2  A    between atoms: O8_6  and  C9_7 
REMARK    3  A    between atoms: C9_7  and  C11_9 
REMARK    4  A    between atoms: C11_9  and  C13_10 
REMARK    5  A    between atoms: C11_9  and  C15_12 
REMARK    6  A    between atoms: C13_10  and  O14_11 
ROOT
ATOM      1  C9  ZIN A   1      19.647  -0.172  12.245  0.00  0.00     0.270 C 
ATOM      2  O10 ZIN A   1      20.531   0.465  12.767  0.00  0.00    -0.264 OA
ENDROOT
BRANCH   1   3
ATOM      3  O8  ZIN A   1      19.388  -0.011  10.937  0.00  0.00    -0.315 OA
BRANCH   3   4
ATOM      4  C6  ZIN A   1      18.443   1.031  10.575  0.00  0.00     0.136 C 
ATOM      5  C5  ZIN A   1      17.134   0.390  10.107  0.00  0.00     0.071 C 
ATOM      6  C3  ZIN A   1      17.394  -0.375   8.799  0.00  0.00     0.257 C 
ATOM      7  N2  ZIN A   1      17.790   0.625   7.774  0.00  0.00     0.099 N 
ATOM      8  C27 ZIN A   1      18.657  -1.247   8.988  0.00  0.00     0.186 A 
ATOM      9  C1  ZIN A   1      17.778   0.035   6.429  0.00  0.00     0.311 C 
ATOM     10  C22 ZIN A   1      19.171   1.005   8.176  0.00  0.00     0.257 C 
ATOM     11  C21 ZIN A   1      19.034   1.882   9.449  0.00  0.00     0.071 C 
ATOM     12  C24 ZIN A   1      19.856  -0.319   8.588  0.00  0.00     0.186 A 
ATOM     13  O26 ZIN A   1      19.544  -1.495   7.838  0.00  0.00    -0.371 OA
ENDBRANCH   3   4
ENDBRANCH   1   3
BRANCH   1  14
ATOM     14  C11 ZIN A   1      18.834  -1.144  13.061  0.00  0.00     0.142 C 
BRANCH  14  15
ATOM     15  C13 ZIN A   1      19.521  -1.379  14.408  0.00  0.00     0.183 C 
BRANCH  15  16
ATOM     16  O14 ZIN A   1      19.196  -0.311  15.301  0.00  0.00    -0.400 OA
ATOM     17  H36 ZIN A   1      18.973   0.518  14.858  0.00  0.00     0.209 HD
ENDBRANCH  15  16
ENDBRANCH  14  15
BRANCH  14  18
ATOM     18  C15 ZIN A   1      18.721  -2.450  12.319  0.00  0.00    -0.043 A 
ATOM     19  C20 ZIN A   1      17.478  -2.930  11.949  0.00  0.00     0.008 A 
ATOM     20  C19 ZIN A   1      17.375  -4.127  11.265  0.00  0.00     0.001 A 
ATOM     21  C18 ZIN A   1      18.514  -4.848  10.959  0.00  0.00     0.000 A 
ATOM     22  C17 ZIN A   1      19.756  -4.371  11.334  0.00  0.00     0.001 A 
ATOM     23  C16 ZIN A   1      19.860  -3.173  12.014  0.00  0.00     0.008 A 
ENDBRANCH  14  18
ENDBRANCH   1  14
TORSDOF 6
ENDMDL
MODEL 6
REMARK VINA RESULT:      -7.1      2.149      5.264
REMARK  6 active torsions:
REMARK  status: ('A' for Active; 'I' for Inactive)
REMARK    1  A    between atoms: C6_5  and  O8_6 
REMARK    2  A    between atoms: O8_6  and  C9_7 
REMARK    3  A    between atoms: C9_7  and  C11_9 
REMARK    4  A    between atoms: C11_9  and  C13_10 
REMARK    5  A    between atoms: C11_9  and  C15_12 
REMARK    6  A    between atoms: C13_10  and  O14_11 
ROOT
ATOM      1  C9  ZIN A   1      18.425  -2.668  11.743  0.00  0.00     0.270 C 
ATOM      2  O10 ZIN A   1      18.207  -2.200  12.836  0.00  0.00    -0.264 OA
ENDROOT
BRANCH   1   3
ATOM      3  O8  ZIN A   1      18.350  -1.888  10.652  0.00  0.00    -0.315 OA
BRANCH   3   4
ATOM      4  C6  ZIN A   1      18.338  -0.452  10.868  0.00  0.00     0.136 C 
ATOM      5  C5  ZIN A   1      17.172   0.169  10.094  0.00  0.00     0.071 C 
ATOM      6  C3  ZIN A   1      17.429   0.001   8.588  0.00  0.00     0.257 C 
ATOM      7  N2  ZIN A   1      18.649   0.784   8.258  0.00  0.00     0.099 N 
ATOM      8  C27 ZIN A   1      17.837  -1.467   8.325  0.00  0.00     0.186 A 
ATOM      9  C1  ZIN A   1      18.808   0.923   6.804  0.00  0.00     0.311 C 
ATOM     10  C22 ZIN A   1      19.750  -0.029   8.840  0.00  0.00     0.257 C 
ATOM     11  C21 ZIN A   1      19.660   0.146  10.380  0.00  0.00     0.071 C 
ATOM     12  C24 ZIN A   1      19.394  -1.496   8.510  0.00  0.00     0.186 A 
ATOM     13  O26 ZIN A   1      18.791  -1.770   7.243  0.00  0.00    -0.371 OA
ENDBRANCH   3   4
ENDBRANCH   1   3
BRANCH   1  14
ATOM     14  C11 ZIN A   1      18.780  -4.126  11.604  0.00  0.00     0.142 C 
BRANCH  14  15
ATOM     15  C13 ZIN A   1      20.287  -4.265  11.377  0.00  0.00     0.183 C 
BRANCH  15  16
ATOM     16  O14 ZIN A   1      20.901  -2.977  11.455  0.00  0.00    -0.400 OA
ATOM     17  H36 ZIN A   1      21.625  -2.849  10.828  0.00  0.00     0.209 HD
ENDBRANCH  15  16
ENDBRANCH  14  15
BRANCH  14  18
ATOM     18  C15 ZIN A   1      18.038  -4.713  10.432  0.00  0.00    -0.043 A 
ATOM     19  C20 ZIN A   1      16.670  -4.900  10.503  0.00  0.00     0.008 A 
ATOM     20  C19 ZIN A   1      15.989  -5.436   9.426  0.00  0.00     0.001 A 
ATOM     21  C18 ZIN A   1      16.677  -5.792   8.280  0.00  0.00     0.000 A 
ATOM     22  C17 ZIN A   1      18.046  -5.610   8.211  0.00  0.00     0.001 A 
ATOM     23  C16 ZIN A   1      18.726  -5.071   9.287  0.00  0.00     0.008 A 
ENDBRANCH  14  18
ENDBRANCH   1  14
TORSDOF 6
ENDMDL
MODEL 7
REMARK VINA RESULT:      -7.1      3.140      5.154
REMARK  6 active torsions:
REMARK  status: ('A' for Active; 'I' for Inactive)
REMARK    1  A    between atoms: C6_5  and  O8_6 
REMARK    2  A    between atoms: O8_6  and  C9_7 
REMARK    3  A    between atoms: C9_7  and  C11_9 
REMARK    4  A    between atoms: C11_9  and  C13_10 
REMARK    5  A    between atoms: C11_9  and  C15_12 
REMARK    6  A    between atoms: C13_10  and  O14_11 
ROOT
ATOM      1  C9  ZIN A   1      17.985   0.657  10.238  0.00  0.00     0.270 C 
ATOM      2  O10 ZIN A   1      17.559  -0.254   9.569  0.00  0.00    -0.264 OA
ENDROOT
BRANCH   1   3
ATOM      3  O8  ZIN A   1      18.320   0.445  11.522  0.00  0.00    -0.315 OA
BRANCH   3   4
ATOM      4  C6  ZIN A   1      19.427  -0.460  11.774  0.00  0.00     0.136 C 
ATOM      5  C5  ZIN A   1      18.896  -1.750  12.404  0.00  0.00     0.071 C 
ATOM      6  C3  ZIN A   1      18.328  -1.427  13.796  0.00  0.00     0.257 C 
ATOM      7  N2  ZIN A   1      19.461  -0.956  14.636  0.00  0.00     0.099 N 
ATOM      8  C27 ZIN A   1      17.407  -0.191  13.671  0.00  0.00     0.186 A 
ATOM      9  C1  ZIN A   1      19.078  -0.901  16.053  0.00  0.00     0.311 C 
ATOM     10  C22 ZIN A   1      19.742   0.405  14.106  0.00  0.00     0.257 C 
ATOM     11  C21 ZIN A   1      20.423   0.209  12.726  0.00  0.00     0.071 C 
ATOM     12  C24 ZIN A   1      18.355   1.044  13.862  0.00  0.00     0.186 A 
ATOM     13  O26 ZIN A   1      17.312   0.757  14.796  0.00  0.00    -0.371 OA
ENDBRANCH   3   4
ENDBRANCH   1   3
BRANCH   1  14
ATOM     14  C11 ZIN A   1      18.140   2.029   9.635  0.00  0.00     0.142 C 
BRANCH  14  15
ATOM     15  C13 ZIN A   1      19.359   2.046   8.711  0.00  0.00     0.183 C 
BRANCH  15  16
ATOM     16  O14 ZIN A   1      20.092   0.829   8.867  0.00  0.00    -0.400 OA
ATOM     17  H36 ZIN A   1      20.967   0.944   9.261  0.00  0.00     0.209 HD
ENDBRANCH  15  16
ENDBRANCH  14  15
BRANCH  14  18
ATOM     18  C15 ZIN A   1      18.327   3.042  10.734  0.00  0.00    -0.043 A 
ATOM     19  C20 ZIN A   1      17.232   3.703  11.259  0.00  0.00     0.008 A 
ATOM     20  C19 ZIN A   1      17.403   4.630  12.270  0.00  0.00     0.001 A 
ATOM     21  C18 ZIN A   1      18.671   4.902  12.750  0.00  0.00     0.000 A 
ATOM     22  C17 ZIN A   1      19.766   4.246  12.222  0.00  0.00     0.001 A 
ATOM     23  C16 ZIN A   1      19.594   3.316  11.214  0.00  0.00     0.008 A 
ENDBRANCH  14  18
ENDBRANCH   1  14
TORSDOF 6
ENDMDL
MODEL 8
REMARK VINA RESULT:      -7.0      2.467      3.898
REMARK  6 active torsions:
REMARK  status: ('A' for Active; 'I' for Inactive)
REMARK    1  A    between atoms: C6_5  and  O8_6 
REMARK    2  A    between atoms: O8_6  and  C9_7 
REMARK    3  A    between atoms: C9_7  and  C11_9 
REMARK    4  A    between atoms: C11_9  and  C13_10 
REMARK    5  A    between atoms: C11_9  and  C15_12 
REMARK    6  A    between atoms: C13_10  and  O14_11 
ROOT
ATOM      1  C9  ZIN A   1      18.184   0.110   9.341  0.00  0.00     0.270 C 
ATOM      2  O10 ZIN A   1      17.075  -0.057   8.888  0.00  0.00    -0.264 OA
ENDROOT
BRANCH   1   3
ATOM      3  O8  ZIN A   1      18.409  -0.085  10.650  0.00  0.00    -0.315 OA
BRANCH   3   4
ATOM      4  C6  ZIN A   1      19.634  -0.776  11.013  0.00  0.00     0.136 C 
ATOM      5  C5  ZIN A   1      19.287  -2.076  11.745  0.00  0.00     0.071 C 
ATOM      6  C3  ZIN A   1      18.621  -1.729  13.086  0.00  0.00     0.257 C 
ATOM      7  N2  ZIN A   1      19.630  -1.011  13.908  0.00  0.00     0.099 N 
ATOM      8  C27 ZIN A   1      17.522  -0.672  12.825  0.00  0.00     0.186 A 
ATOM      9  C1  ZIN A   1      19.187  -0.896  15.304  0.00  0.00     0.311 C 
ATOM     10  C22 ZIN A   1      19.715   0.326  13.263  0.00  0.00     0.257 C 
ATOM     11  C21 ZIN A   1      20.473   0.123  11.925  0.00  0.00     0.071 C 
ATOM     12  C24 ZIN A   1      18.256   0.711  12.926  0.00  0.00     0.186 A 
ATOM     13  O26 ZIN A   1      17.234   0.342  13.855  0.00  0.00    -0.371 OA
ENDBRANCH   3   4
ENDBRANCH   1   3
BRANCH   1  14
ATOM     14  C11 ZIN A   1      19.311   0.538   8.437  0.00  0.00     0.142 C 
BRANCH  14  15
ATOM     15  C13 ZIN A   1      19.264   2.056   8.247  0.00  0.00     0.183 C 
BRANCH  15  16
ATOM     16  O14 ZIN A   1      18.592   2.654   9.358  0.00  0.00    -0.400 OA
ATOM     17  H36 ZIN A   1      17.755   2.229   9.587  0.00  0.00     0.209 HD
ENDBRANCH  15  16
ENDBRANCH  14  15
BRANCH  14  18
ATOM     18  C15 ZIN A   1      19.167  -0.140   7.100  0.00  0.00    -0.043 A 
ATOM     19  C20 ZIN A   1      19.259  -1.517   7.010  0.00  0.00     0.008 A 
ATOM     20  C19 ZIN A   1      19.124  -2.141   5.784  0.00  0.00     0.001 A 
ATOM     21  C18 ZIN A   1      18.906  -1.386   4.645  0.00  0.00     0.000 A 
ATOM     22  C17 ZIN A   1      18.820  -0.010   4.734  0.00  0.00     0.001 A 
ATOM     23  C16 ZIN A   1      18.951   0.613   5.961  0.00  0.00     0.008 A 
ENDBRANCH  14  18
ENDBRANCH   1  14
TORSDOF 6
ENDMDL
MODEL 9
REMARK VINA RESULT:      -6.9      2.861      4.877
REMARK  6 active torsions:
REMARK  status: ('A' for Active; 'I' for Inactive)
REMARK    1  A    between atoms: C6_5  and  O8_6 
REMARK    2  A    between atoms: O8_6  and  C9_7 
REMARK    3  A    between atoms: C9_7  and  C11_9 
REMARK    4  A    between atoms: C11_9  and  C13_10 
REMARK    5  A    between atoms: C11_9  and  C15_12 
REMARK    6  A    between atoms: C13_10  and  O14_11 
ROOT
ATOM      1  C9  ZIN A   1      17.828   0.672   9.761  0.00  0.00     0.270 C 
ATOM      2  O10 ZIN A   1      17.140  -0.013   9.041  0.00  0.00    -0.264 OA
ENDROOT
BRANCH   1   3
ATOM      3  O8  ZIN A   1      18.120   0.254  11.004  0.00  0.00    -0.315 OA
BRANCH   3   4
ATOM      4  C6  ZIN A   1      17.146  -0.601  11.657  0.00  0.00     0.136 C 
ATOM      5  C5  ZIN A   1      16.677   0.061  12.956  0.00  0.00     0.071 C 
ATOM      6  C3  ZIN A   1      17.860   0.129  13.935  0.00  0.00     0.257 C 
ATOM      7  N2  ZIN A   1      18.242  -1.269  14.263  0.00  0.00     0.099 N 
ATOM      8  C27 ZIN A   1      19.086   0.692  13.179  0.00  0.00     0.186 A 
ATOM      9  C1  ZIN A   1      19.164  -1.309  15.406  0.00  0.00     0.311 C 
ATOM     10  C22 ZIN A   1      18.911  -1.745  13.023  0.00  0.00     0.257 C 
ATOM     11  C21 ZIN A   1      17.789  -1.955  11.971  0.00  0.00     0.071 C 
ATOM     12  C24 ZIN A   1      19.786  -0.563  12.550  0.00  0.00     0.186 A 
ATOM     13  O26 ZIN A   1      20.437   0.229  13.546  0.00  0.00    -0.371 OA
ENDBRANCH   3   4
ENDBRANCH   1   3
BRANCH   1  14
ATOM     14  C11 ZIN A   1      18.354   1.995   9.267  0.00  0.00     0.142 C 
BRANCH  14  15
ATOM     15  C13 ZIN A   1      19.749   1.798   8.670  0.00  0.00     0.183 C 
BRANCH  15  16
ATOM     16  O14 ZIN A   1      20.217   0.483   8.976  0.00  0.00    -0.400 OA
ATOM     17  H36 ZIN A   1      20.695   0.057   8.252  0.00  0.00     0.209 HD
ENDBRANCH  15  16
ENDBRANCH  14  15
BRANCH  14  18
ATOM     18  C15 ZIN A   1      18.432   2.965  10.417  0.00  0.00    -0.043 A 
ATOM     19  C20 ZIN A   1      19.648   3.223  11.023  0.00  0.00     0.008 A 
ATOM     20  C19 ZIN A   1      19.721   4.115  12.076  0.00  0.00     0.001 A 
ATOM     21  C18 ZIN A   1      18.575   4.744  12.530  0.00  0.00     0.000 A 
ATOM     22  C17 ZIN A   1      17.359   4.482  11.928  0.00  0.00     0.001 A 
ATOM     23  C16 ZIN A   1      17.287   3.592  10.873  0.00  0.00     0.008 A 
ENDBRANCH  14  18
ENDBRANCH   1  14
TORSDOF 6
ENDMDL
