MODEL 1
REMARK VINA RESULT:      -5.5      0.000      0.000
REMARK  2 active torsions:
REMARK  status: ('A' for Active; 'I' for Inactive)
REMARK    1  A    between atoms: C2_2  and  C4_4 
REMARK    2  A    between atoms: C4_4  and  C5_5 
ROOT
ATOM      1  C5  <0> d   1      18.138   0.223   7.069  0.00  0.00    -0.048 A 
ATOM      2  C6  <0> d   1      19.013   1.287   7.180  0.00  0.00     0.007 A 
ATOM      3  C7  <0> d   1      19.151   1.944   8.387  0.00  0.00     0.001 A 
ATOM      4  C8  <0> d   1      18.413   1.539   9.484  0.00  0.00     0.000 A 
ATOM      5  C9  <0> d   1      17.537   0.475   9.372  0.00  0.00     0.001 A 
ATOM      6  C10 <0> d   1      17.396  -0.180   8.163  0.00  0.00     0.007 A 
ENDROOT
BRANCH   1   7
ATOM      7  C4  <0> d   1      17.988  -0.495   5.752  0.00  0.00     0.151 C 
BRANCH   7   8
ATOM      8  C2  <0> d   1      19.272  -1.212   5.422  0.00  0.00     0.176 C 
ATOM      9  O1  <0> d   1      19.609  -2.188   6.069  0.00  0.00    -0.648 OA
ATOM     10  O3  <0> d   1      19.971  -0.818   4.503  0.00  0.00    -0.648 OA
ENDBRANCH   7   8
ENDBRANCH   1   7
TORSDOF 2
ENDMDL
MODEL 2
REMARK VINA RESULT:      -5.2      3.986      5.342
REMARK  2 active torsions:
REMARK  status: ('A' for Active; 'I' for Inactive)
REMARK    1  A    between atoms: C2_2  and  C4_4 
REMARK    2  A    between atoms: C4_4  and  C5_5 
ROOT
ATOM      1  C5  <0> d   1      18.482   2.157   9.614  0.00  0.00    -0.048 A 
ATOM      2  C6  <0> d   1      17.655   1.115   9.988  0.00  0.00     0.007 A 
ATOM      3  C7  <0> d   1      17.452   0.052   9.128  0.00  0.00     0.001 A 
ATOM      4  C8  <0> d   1      18.075   0.031   7.895  0.00  0.00     0.000 A 
ATOM      5  C9  <0> d   1      18.901   1.074   7.521  0.00  0.00     0.001 A 
ATOM      6  C10 <0> d   1      19.101   2.139   8.379  0.00  0.00     0.007 A 
ENDROOT
BRANCH   1   7
ATOM      7  C4  <0> d   1      18.704   3.316  10.552  0.00  0.00     0.151 C 
BRANCH   7   8
ATOM      8  C2  <0> d   1      17.567   4.295  10.417  0.00  0.00     0.176 C 
ATOM      9  O1  <0> d   1      16.606   4.220  11.163  0.00  0.00    -0.648 OA
ATOM     10  O3  <0> d   1      17.610   5.167   9.565  0.00  0.00    -0.648 OA
ENDBRANCH   7   8
ENDBRANCH   1   7
TORSDOF 2
ENDMDL
MODEL 3
REMARK VINA RESULT:      -5.1      3.625      4.748
REMARK  2 active torsions:
REMARK  status: ('A' for Active; 'I' for Inactive)
REMARK    1  A    between atoms: C2_2  and  C4_4 
REMARK    2  A    between atoms: C4_4  and  C5_5 
ROOT
ATOM      1  C5  <0> d   1      18.579   1.563   9.007  0.00  0.00    -0.048 A 
ATOM      2  C6  <0> d   1      19.160   1.799   7.775  0.00  0.00     0.007 A 
ATOM      3  C7  <0> d   1      18.813   1.020   6.687  0.00  0.00     0.001 A 
ATOM      4  C8  <0> d   1      17.886   0.005   6.831  0.00  0.00     0.000 A 
ATOM      5  C9  <0> d   1      17.306  -0.231   8.064  0.00  0.00     0.001 A 
ATOM      6  C10 <0> d   1      17.656   0.545   9.152  0.00  0.00     0.007 A 
ENDROOT
BRANCH   1   7
ATOM      7  C4  <0> d   1      18.958   2.413  10.193  0.00  0.00     0.151 C 
BRANCH   7   8
ATOM      8  C2  <0> d   1      17.875   3.430  10.447  0.00  0.00     0.176 C 
ATOM      9  O1  <0> d   1      17.027   3.220  11.297  0.00  0.00    -0.648 OA
ATOM     10  O3  <0> d   1      17.851   4.468   9.805  0.00  0.00    -0.648 OA
ENDBRANCH   7   8
ENDBRANCH   1   7
TORSDOF 2
ENDMDL
MODEL 4
REMARK VINA RESULT:      -5.0      5.949      7.384
REMARK  2 active torsions:
REMARK  status: ('A' for Active; 'I' for Inactive)
REMARK    1  A    between atoms: C2_2  and  C4_4 
REMARK    2  A    between atoms: C4_4  and  C5_5 
ROOT
ATOM      1  C5  <0> d   1      18.212  -0.308  14.140  0.00  0.00    -0.048 A 
ATOM      2  C6  <0> d   1      17.327   0.332  14.986  0.00  0.00     0.007 A 
ATOM      3  C7  <0> d   1      17.309   0.019  16.332  0.00  0.00     0.001 A 
ATOM      4  C8  <0> d   1      18.175  -0.935  16.832  0.00  0.00     0.000 A 
ATOM      5  C9  <0> d   1      19.060  -1.576  15.985  0.00  0.00     0.001 A 
ATOM      6  C10 <0> d   1      19.075  -1.266  14.638  0.00  0.00     0.007 A 
ENDROOT
BRANCH   1   7
ATOM      7  C4  <0> d   1      18.232   0.033  12.672  0.00  0.00     0.151 C 
BRANCH   7   8
ATOM      8  C2  <0> d   1      17.037  -0.588  11.996  0.00  0.00     0.176 C 
ATOM      9  O1  <0> d   1      17.012  -1.788  11.782  0.00  0.00    -0.648 OA
ATOM     10  O3  <0> d   1      16.091   0.109  11.668  0.00  0.00    -0.648 OA
ENDBRANCH   7   8
ENDBRANCH   1   7
TORSDOF 2
ENDMDL
MODEL 5
REMARK VINA RESULT:      -5.0      5.941      7.351
REMARK  2 active torsions:
REMARK  status: ('A' for Active; 'I' for Inactive)
REMARK    1  A    between atoms: C2_2  and  C4_4 
REMARK    2  A    between atoms: C4_4  and  C5_5 
ROOT
ATOM      1  C5  <0> d   1      18.226  -0.294  14.128  0.00  0.00    -0.048 A 
ATOM      2  C6  <0> d   1      19.087  -1.259  14.615  0.00  0.00     0.007 A 
ATOM      3  C7  <0> d   1      19.080  -1.577  15.959  0.00  0.00     0.001 A 
ATOM      4  C8  <0> d   1      18.212  -0.929  16.818  0.00  0.00     0.000 A 
ATOM      5  C9  <0> d   1      17.351   0.037  16.332  0.00  0.00     0.001 A 
ATOM      6  C10 <0> d   1      17.362   0.358  14.987  0.00  0.00     0.007 A 
ENDROOT
BRANCH   1   7
ATOM      7  C4  <0> d   1      18.233   0.053  12.661  0.00  0.00     0.151 C 
BRANCH   7   8
ATOM      8  C2  <0> d   1      17.038  -0.574  11.991  0.00  0.00     0.176 C 
ATOM      9  O1  <0> d   1      17.016  -1.775  11.782  0.00  0.00    -0.648 OA
ATOM     10  O3  <0> d   1      16.090   0.119  11.663  0.00  0.00    -0.648 OA
ENDBRANCH   7   8
ENDBRANCH   1   7
TORSDOF 2
ENDMDL
MODEL 6
REMARK VINA RESULT:      -4.9      7.861      9.547
REMARK  2 active torsions:
REMARK  status: ('A' for Active; 'I' for Inactive)
REMARK    1  A    between atoms: C2_2  and  C4_4 
REMARK    2  A    between atoms: C4_4  and  C5_5 
ROOT
ATOM      1  C5  <0> d   1      18.109   0.101  15.845  0.00  0.00    -0.048 A 
ATOM      2  C6  <0> d   1      17.499   0.734  14.778  0.00  0.00     0.007 A 
ATOM      3  C7  <0> d   1      17.645   0.230  13.500  0.00  0.00     0.001 A 
ATOM      4  C8  <0> d   1      18.402  -0.907  13.288  0.00  0.00     0.000 A 
ATOM      5  C9  <0> d   1      19.014  -1.539  14.354  0.00  0.00     0.001 A 
ATOM      6  C10 <0> d   1      18.871  -1.032  15.632  0.00  0.00     0.007 A 
ENDROOT
BRANCH   1   7
ATOM      7  C4  <0> d   1      17.950   0.650  17.239  0.00  0.00     0.151 C 
BRANCH   7   8
ATOM      8  C2  <0> d   1      19.235   1.309  17.669  0.00  0.00     0.176 C 
ATOM      9  O1  <0> d   1      19.552   2.391  17.204  0.00  0.00    -0.648 OA
ATOM     10  O3  <0> d   1      19.956   0.763  18.487  0.00  0.00    -0.648 OA
ENDBRANCH   7   8
ENDBRANCH   1   7
TORSDOF 2
ENDMDL
MODEL 7
REMARK VINA RESULT:      -4.8      3.068      4.272
REMARK  2 active torsions:
REMARK  status: ('A' for Active; 'I' for Inactive)
REMARK    1  A    between atoms: C2_2  and  C4_4 
REMARK    2  A    between atoms: C4_4  and  C5_5 
ROOT
ATOM      1  C5  <0> d   1      17.694   0.583   9.450  0.00  0.00    -0.048 A 
ATOM      2  C6  <0> d   1      18.631   1.587   9.287  0.00  0.00     0.007 A 
ATOM      3  C7  <0> d   1      19.186   1.820   8.043  0.00  0.00     0.001 A 
ATOM      4  C8  <0> d   1      18.804   1.049   6.961  0.00  0.00     0.000 A 
ATOM      5  C9  <0> d   1      17.868   0.044   7.124  0.00  0.00     0.001 A 
ATOM      6  C10 <0> d   1      17.317  -0.191   8.369  0.00  0.00     0.007 A 
ENDROOT
BRANCH   1   7
ATOM      7  C4  <0> d   1      17.089   0.330  10.806  0.00  0.00     0.151 C 
BRANCH   7   8
ATOM      8  C2  <0> d   1      17.695  -0.916  11.401  0.00  0.00     0.176 C 
ATOM      9  O1  <0> d   1      18.891  -0.963  11.629  0.00  0.00    -0.648 OA
ATOM     10  O3  <0> d   1      16.986  -1.874  11.660  0.00  0.00    -0.648 OA
ENDBRANCH   7   8
ENDBRANCH   1   7
TORSDOF 2
ENDMDL
MODEL 8
REMARK VINA RESULT:      -4.6      3.259      4.521
REMARK  2 active torsions:
REMARK  status: ('A' for Active; 'I' for Inactive)
REMARK    1  A    between atoms: C2_2  and  C4_4 
REMARK    2  A    between atoms: C4_4  and  C5_5 
ROOT
ATOM      1  C5  <0> d   1      18.197   1.400   9.306  0.00  0.00    -0.048 A 
ATOM      2  C6  <0> d   1      18.993   1.921   8.304  0.00  0.00     0.007 A 
ATOM      3  C7  <0> d   1      19.055   1.293   7.074  0.00  0.00     0.001 A 
ATOM      4  C8  <0> d   1      18.320   0.145   6.847  0.00  0.00     0.000 A 
ATOM      5  C9  <0> d   1      17.524  -0.377   7.850  0.00  0.00     0.001 A 
ATOM      6  C10 <0> d   1      17.466   0.249   9.081  0.00  0.00     0.007 A 
ENDROOT
BRANCH   1   7
ATOM      7  C4  <0> d   1      18.129   2.085  10.647  0.00  0.00     0.151 C 
BRANCH   7   8
ATOM      8  C2  <0> d   1      19.506   2.124  11.260  0.00  0.00     0.176 C 
ATOM      9  O1  <0> d   1      20.044   1.091  11.619  0.00  0.00    -0.648 OA
ATOM     10  O3  <0> d   1      20.084   3.190  11.392  0.00  0.00    -0.648 OA
ENDBRANCH   7   8
ENDBRANCH   1   7
TORSDOF 2
ENDMDL
MODEL 9
REMARK VINA RESULT:      -4.3      6.433      7.807
REMARK  2 active torsions:
REMARK  status: ('A' for Active; 'I' for Inactive)
REMARK    1  A    between atoms: C2_2  and  C4_4 
REMARK    2  A    between atoms: C4_4  and  C5_5 
ROOT
ATOM      1  C5  <0> d   1      18.927  -0.926  14.965  0.00  0.00    -0.048 A 
ATOM      2  C6  <0> d   1      19.114   0.433  15.136  0.00  0.00     0.007 A 
ATOM      3  C7  <0> d   1      18.527   1.082  16.205  0.00  0.00     0.001 A 
ATOM      4  C8  <0> d   1      17.752   0.373  17.103  0.00  0.00     0.000 A 
ATOM      5  C9  <0> d   1      17.563  -0.985  16.931  0.00  0.00     0.001 A 
ATOM      6  C10 <0> d   1      18.147  -1.634  15.859  0.00  0.00     0.007 A 
ENDROOT
BRANCH   1   7
ATOM      7  C4  <0> d   1      19.567  -1.634  13.799  0.00  0.00     0.151 C 
BRANCH   7   8
ATOM      8  C2  <0> d   1      18.508  -2.002  12.791  0.00  0.00     0.176 C 
ATOM      9  O1  <0> d   1      17.660  -1.186  12.473  0.00  0.00    -0.648 OA
ATOM     10  O3  <0> d   1      18.503  -3.114  12.290  0.00  0.00    -0.648 OA
ENDBRANCH   7   8
ENDBRANCH   1   7
TORSDOF 2
ENDMDL
