MODEL 1
REMARK VINA RESULT:     -10.7      0.000      0.000
REMARK  6 active torsions:
REMARK  status: ('A' for Active; 'I' for Inactive)
REMARK    1  A    between atoms: O2_2  and  C3_3 
REMARK    2  A    between atoms: C4_4  and  C5_5 
REMARK    3  A    between atoms: C10_10  and  N11_11 
REMARK    4  A    between atoms: N11_11  and  S12_12 
REMARK    5  A    between atoms: C21_21  and  N22_22 
REMARK    6  A    between atoms: C31_31  and  C32_32 
ROOT
ATOM      1  C3  <0> d   1      18.089   0.257  14.484  0.00  0.00     0.086 A 
ATOM      2  C4  <0> d   1      17.983   1.261  13.517  0.00  0.00     0.010 A 
ATOM      3  C20 <0> d   1      18.027   2.599  13.901  0.00  0.00     0.045 A 
ATOM      4  C21 <0> d   1      18.176   2.928  15.239  0.00  0.00     0.045 A 
ATOM      5  C30 <0> d   1      18.283   1.926  16.195  0.00  0.00     0.041 A 
ATOM      6  C31 <0> d   1      18.233   0.598  15.820  0.00  0.00    -0.014 A 
ENDROOT
BRANCH   2   7
ATOM      7  C5  <0> d   1      17.821   0.902  12.087  0.00  0.00    -0.022 A 
ATOM      8  C19 <0> d   1      18.684   1.431  11.146  0.00  0.00     0.024 A 
ATOM      9  C18 <0> d   1      18.530   1.083   9.795  0.00  0.00    -0.025 A 
ATOM     10  C8  <0> d   1      17.484   0.204   9.416  0.00  0.00    -0.024 A 
ATOM     11  C17 <0> d   1      19.394   1.599   8.811  0.00  0.00     0.014 A 
ATOM     12  C7  <0> d   1      16.619  -0.313  10.398  0.00  0.00     0.013 A 
ATOM     13  C9  <0> d   1      17.328  -0.138   8.063  0.00  0.00     0.042 A 
ATOM     14  C6  <0> d   1      16.788   0.032  11.701  0.00  0.00     0.013 A 
ATOM     15  C10 <0> d   1      18.192   0.386   7.125  0.00  0.00     0.043 A 
ATOM     16  C16 <0> d   1      19.221   1.252   7.508  0.00  0.00     0.031 A 
BRANCH  15  17
ATOM     17  N11 <0> d   1      18.038   0.046   5.780  0.00  0.00    -0.285 N 
ATOM     18  H42 <0> d   1      17.466   0.580   5.207  0.00  0.00     0.178 HD
BRANCH  17  19
ATOM     19  S12 <0> d   1      18.834  -1.268   5.162  0.00  0.00     0.227 S 
ATOM     20  C13 <0> d   1      19.289  -2.261   6.610  0.00  0.00     0.186 C 
ATOM     21  O14 <0> d   1      17.859  -1.951   4.386  0.00  0.00    -0.206 OA
ATOM     22  O15 <0> d   1      20.000  -0.731   4.551  0.00  0.00    -0.206 OA
ENDBRANCH  17  19
ENDBRANCH  15  17
ENDBRANCH   2   7
BRANCH   1  23
ATOM     23  O2  <0> d   1      18.047  -1.051  14.116  0.00  0.00    -0.354 OA
ATOM     24  C1  <0> d   1      19.223  -1.592  13.511  0.00  0.00     0.210 C 
ENDBRANCH   1  23
BRANCH   6  25
ATOM     25  C32 <0> d   1      18.349  -0.484  16.863  0.00  0.00    -0.021 C 
ATOM     26  C33 <0> d   1      19.577  -1.348  16.567  0.00  0.00     0.019 C 
ATOM     27  C34 <0> d   1      18.498   0.155  18.245  0.00  0.00     0.019 C 
ATOM     28  C35 <0> d   1      17.093  -1.356  16.836  0.00  0.00     0.019 C 
ENDBRANCH   6  25
BRANCH   4  29
ATOM     29  N22 <0> d   1      18.220   4.275  15.627  0.00  0.00    -0.275 N 
ATOM     30  C28 <0> d   1      19.284   4.740  16.305  0.00  0.00     0.333 A 
ATOM     31  N27 <0> d   1      19.353   6.028  16.685  0.00  0.00    -0.275 N 
ATOM     32  O29 <0> d   1      20.202   3.987  16.569  0.00  0.00    -0.246 OA
ATOM     33  C25 <0> d   1      18.345   6.877  16.401  0.00  0.00     0.250 A 
ATOM     34  H52 <0> d   1      20.131   6.348  17.170  0.00  0.00     0.173 HD
ATOM     35  C24 <0> d   1      17.215   6.400  15.692  0.00  0.00     0.092 A 
ATOM     36  O26 <0> d   1      18.405   8.042  16.749  0.00  0.00    -0.268 OA
ATOM     37  C23 <0> d   1      17.173   5.104  15.318  0.00  0.00     0.107 A 
ENDBRANCH   4  29
TORSDOF 6
ENDMDL
MODEL 2
REMARK VINA RESULT:     -10.0      1.182      1.835
REMARK  6 active torsions:
REMARK  status: ('A' for Active; 'I' for Inactive)
REMARK    1  A    between atoms: O2_2  and  C3_3 
REMARK    2  A    between atoms: C4_4  and  C5_5 
REMARK    3  A    between atoms: C10_10  and  N11_11 
REMARK    4  A    between atoms: N11_11  and  S12_12 
REMARK    5  A    between atoms: C21_21  and  N22_22 
REMARK    6  A    between atoms: C31_31  and  C32_32 
ROOT
ATOM      1  C3  <0> d   1      18.452   0.480  14.969  0.00  0.00     0.086 A 
ATOM      2  C4  <0> d   1      18.669   1.314  13.869  0.00  0.00     0.010 A 
ATOM      3  C20 <0> d   1      18.627   2.697  14.030  0.00  0.00     0.045 A 
ATOM      4  C21 <0> d   1      18.370   3.238  15.280  0.00  0.00     0.045 A 
ATOM      5  C30 <0> d   1      18.156   2.404  16.370  0.00  0.00     0.041 A 
ATOM      6  C31 <0> d   1      18.190   1.032  16.213  0.00  0.00    -0.014 A 
ENDROOT
BRANCH   2   7
ATOM      7  C5  <0> d   1      18.942   0.729  12.533  0.00  0.00    -0.022 A 
ATOM      8  C19 <0> d   1      17.901   0.525  11.649  0.00  0.00     0.024 A 
ATOM      9  C18 <0> d   1      18.166  -0.023  10.385  0.00  0.00    -0.025 A 
ATOM     10  C8  <0> d   1      19.497  -0.371  10.040  0.00  0.00    -0.024 A 
ATOM     11  C17 <0> d   1      17.130  -0.239   9.456  0.00  0.00     0.014 A 
ATOM     12  C7  <0> d   1      20.534  -0.157  10.967  0.00  0.00     0.013 A 
ATOM     13  C9  <0> d   1      19.759  -0.925   8.777  0.00  0.00     0.042 A 
ATOM     14  C6  <0> d   1      20.257   0.380  12.183  0.00  0.00     0.013 A 
ATOM     15  C10 <0> d   1      18.721  -1.124   7.893  0.00  0.00     0.043 A 
ATOM     16  C16 <0> d   1      17.410  -0.778   8.241  0.00  0.00     0.031 A 
BRANCH  15  17
ATOM     17  N11 <0> d   1      18.980  -1.675   6.636  0.00  0.00    -0.285 N 
ATOM     18  H42 <0> d   1      19.236  -2.607   6.559  0.00  0.00     0.178 HD
BRANCH  17  19
ATOM     19  S12 <0> d   1      18.849  -0.736   5.279  0.00  0.00     0.227 S 
ATOM     20  C13 <0> d   1      19.052   0.968   5.868  0.00  0.00     0.186 C 
ATOM     21  O14 <0> d   1      19.956  -1.110   4.470  0.00  0.00    -0.206 OA
ATOM     22  O15 <0> d   1      17.518  -0.940   4.824  0.00  0.00    -0.206 OA
ENDBRANCH  17  19
ENDBRANCH  15  17
ENDBRANCH   2   7
BRANCH   1  23
ATOM     23  O2  <0> d   1      18.492  -0.871  14.819  0.00  0.00    -0.354 OA
ATOM     24  C1  <0> d   1      19.784  -1.476  14.740  0.00  0.00     0.210 C 
ENDBRANCH   1  23
BRANCH   6  25
ATOM     25  C32 <0> d   1      17.956   0.133  17.400  0.00  0.00    -0.021 C 
ATOM     26  C33 <0> d   1      16.981  -0.980  17.012  0.00  0.00     0.019 C 
ATOM     27  C34 <0> d   1      19.285  -0.485  17.840  0.00  0.00     0.019 C 
ATOM     28  C35 <0> d   1      17.367   0.950  18.551  0.00  0.00     0.019 C 
ENDBRANCH   6  25
BRANCH   4  29
ATOM     29  N22 <0> d   1      18.326   4.630  15.444  0.00  0.00    -0.275 N 
ATOM     30  C28 <0> d   1      19.389   5.276  15.956  0.00  0.00     0.333 A 
ATOM     31  N27 <0> d   1      19.374   6.611  16.118  0.00  0.00    -0.275 N 
ATOM     32  O29 <0> d   1      20.380   4.644  16.266  0.00  0.00    -0.246 OA
ATOM     33  C25 <0> d   1      18.283   7.326  15.780  0.00  0.00     0.250 A 
ATOM     34  H52 <0> d   1      20.152   7.061  16.485  0.00  0.00     0.173 HD
ATOM     35  C24 <0> d   1      17.154   6.660  15.244  0.00  0.00     0.092 A 
ATOM     36  O26 <0> d   1      18.268   8.535  15.932  0.00  0.00    -0.268 OA
ATOM     37  C23 <0> d   1      17.197   5.319  15.087  0.00  0.00     0.107 A 
ENDBRANCH   4  29
TORSDOF 6
ENDMDL
MODEL 3
REMARK VINA RESULT:      -9.3      2.017      4.576
REMARK  6 active torsions:
REMARK  status: ('A' for Active; 'I' for Inactive)
REMARK    1  A    between atoms: O2_2  and  C3_3 
REMARK    2  A    between atoms: C4_4  and  C5_5 
REMARK    3  A    between atoms: C10_10  and  N11_11 
REMARK    4  A    between atoms: N11_11  and  S12_12 
REMARK    5  A    between atoms: C21_21  and  N22_22 
REMARK    6  A    between atoms: C31_31  and  C32_32 
ROOT
ATOM      1  C3  <0> d   1      17.968   4.246  13.125  0.00  0.00     0.086 A 
ATOM      2  C4  <0> d   1      18.250   2.902  12.867  0.00  0.00     0.010 A 
ATOM      3  C20 <0> d   1      18.400   2.011  13.927  0.00  0.00     0.045 A 
ATOM      4  C21 <0> d   1      18.267   2.462  15.231  0.00  0.00     0.045 A 
ATOM      5  C30 <0> d   1      17.986   3.799  15.481  0.00  0.00     0.041 A 
ATOM      6  C31 <0> d   1      17.843   4.688  14.433  0.00  0.00    -0.014 A 
ENDROOT
BRANCH   2   7
ATOM      7  C5  <0> d   1      18.392   2.426  11.470  0.00  0.00    -0.022 A 
ATOM      8  C19 <0> d   1      17.624   1.366  11.025  0.00  0.00     0.024 A 
ATOM      9  C18 <0> d   1      17.758   0.924   9.700  0.00  0.00    -0.025 A 
ATOM     10  C8  <0> d   1      18.688   1.564   8.842  0.00  0.00    -0.024 A 
ATOM     11  C17 <0> d   1      16.988  -0.149   9.213  0.00  0.00     0.014 A 
ATOM     12  C7  <0> d   1      19.459   2.636   9.328  0.00  0.00     0.013 A 
ATOM     13  C9  <0> d   1      18.825   1.116   7.518  0.00  0.00     0.042 A 
ATOM     14  C6  <0> d   1      19.310   3.053  10.612  0.00  0.00     0.013 A 
ATOM     15  C10 <0> d   1      18.056   0.063   7.074  0.00  0.00     0.043 A 
ATOM     16  C16 <0> d   1      17.141  -0.563   7.928  0.00  0.00     0.031 A 
BRANCH  15  17
ATOM     17  N11 <0> d   1      18.191  -0.383   5.758  0.00  0.00    -0.285 N 
ATOM     18  H42 <0> d   1      17.786   0.116   5.033  0.00  0.00     0.178 HD
BRANCH  17  19
ATOM     19  S12 <0> d   1      19.044  -1.766   5.437  0.00  0.00     0.227 S 
ATOM     20  C13 <0> d   1      17.819  -2.927   4.772  0.00  0.00     0.186 C 
ATOM     21  O14 <0> d   1      19.968  -1.396   4.423  0.00  0.00    -0.206 OA
ATOM     22  O15 <0> d   1      19.501  -2.212   6.707  0.00  0.00    -0.206 OA
ENDBRANCH  17  19
ENDBRANCH  15  17
ENDBRANCH   2   7
BRANCH   1  23
ATOM     23  O2  <0> d   1      17.820   5.121  12.095  0.00  0.00    -0.354 OA
ATOM     24  C1  <0> d   1      16.612   5.032  11.337  0.00  0.00     0.210 C 
ENDBRANCH   1  23
BRANCH   6  25
ATOM     25  C32 <0> d   1      17.538   6.137  14.712  0.00  0.00    -0.021 C 
ATOM     26  C33 <0> d   1      17.414   6.350  16.222  0.00  0.00     0.019 C 
ATOM     27  C34 <0> d   1      18.670   7.010  14.166  0.00  0.00     0.019 C 
ATOM     28  C35 <0> d   1      16.223   6.522  14.032  0.00  0.00     0.019 C 
ENDBRANCH   6  25
BRANCH   4  29
ATOM     29  N22 <0> d   1      18.418   1.566  16.300  0.00  0.00    -0.275 N 
ATOM     30  C28 <0> d   1      19.255   1.867  17.309  0.00  0.00     0.333 A 
ATOM     31  N27 <0> d   1      19.415   1.028  18.349  0.00  0.00    -0.275 N 
ATOM     32  O29 <0> d   1      19.868   2.917  17.286  0.00  0.00    -0.246 OA
ATOM     33  C25 <0> d   1      18.743  -0.140  18.390  0.00  0.00     0.250 A 
ATOM     34  H52 <0> d   1      20.019   1.263  19.070  0.00  0.00     0.173 HD
ATOM     35  C24 <0> d   1      17.862  -0.473  17.332  0.00  0.00     0.092 A 
ATOM     36  O26 <0> d   1      18.891  -0.902  19.328  0.00  0.00    -0.268 OA
ATOM     37  C23 <0> d   1      17.717   0.389  16.303  0.00  0.00     0.107 A 
ENDBRANCH   4  29
TORSDOF 6
ENDMDL
MODEL 4
REMARK VINA RESULT:      -9.2      3.676     10.525
REMARK  6 active torsions:
REMARK  status: ('A' for Active; 'I' for Inactive)
REMARK    1  A    between atoms: O2_2  and  C3_3 
REMARK    2  A    between atoms: C4_4  and  C5_5 
REMARK    3  A    between atoms: C10_10  and  N11_11 
REMARK    4  A    between atoms: N11_11  and  S12_12 
REMARK    5  A    between atoms: C21_21  and  N22_22 
REMARK    6  A    between atoms: C31_31  and  C32_32 
ROOT
ATOM      1  C3  <0> d   1      18.217  -0.377   8.584  0.00  0.00     0.086 A 
ATOM      2  C4  <0> d   1      18.031  -1.358   9.562  0.00  0.00     0.010 A 
ATOM      3  C20 <0> d   1      17.994  -2.701   9.196  0.00  0.00     0.045 A 
ATOM      4  C21 <0> d   1      18.142  -3.058   7.864  0.00  0.00     0.045 A 
ATOM      5  C30 <0> d   1      18.327  -2.077   6.897  0.00  0.00     0.041 A 
ATOM      6  C31 <0> d   1      18.358  -0.744   7.255  0.00  0.00    -0.014 A 
ENDROOT
BRANCH   2   7
ATOM      7  C5  <0> d   1      17.873  -0.971  10.985  0.00  0.00    -0.022 A 
ATOM      8  C19 <0> d   1      18.747  -1.468  11.932  0.00  0.00     0.024 A 
ATOM      9  C18 <0> d   1      18.595  -1.093  13.276  0.00  0.00    -0.025 A 
ATOM     10  C8  <0> d   1      17.540  -0.219  13.642  0.00  0.00    -0.024 A 
ATOM     11  C17 <0> d   1      19.471  -1.576  14.267  0.00  0.00     0.014 A 
ATOM     12  C7  <0> d   1      16.663   0.265  12.653  0.00  0.00     0.013 A 
ATOM     13  C9  <0> d   1      17.387   0.150  14.988  0.00  0.00     0.042 A 
ATOM     14  C6  <0> d   1      16.830  -0.106  11.357  0.00  0.00     0.013 A 
ATOM     15  C10 <0> d   1      18.261  -0.342  15.932  0.00  0.00     0.043 A 
ATOM     16  C16 <0> d   1      19.300  -1.204  15.562  0.00  0.00     0.031 A 
BRANCH  15  17
ATOM     17  N11 <0> d   1      18.110   0.024  17.271  0.00  0.00    -0.285 N 
ATOM     18  H42 <0> d   1      17.606  -0.542  17.875  0.00  0.00     0.178 HD
BRANCH  17  19
ATOM     19  S12 <0> d   1      18.793   1.427  17.826  0.00  0.00     0.227 S 
ATOM     20  C13 <0> d   1      19.217   2.363  16.332  0.00  0.00     0.186 C 
ATOM     21  O14 <0> d   1      17.750   2.083  18.535  0.00  0.00    -0.206 OA
ATOM     22  O15 <0> d   1      19.976   1.013  18.497  0.00  0.00    -0.206 OA
ENDBRANCH  17  19
ENDBRANCH  15  17
ENDBRANCH   2   7
BRANCH   1  23
ATOM     23  O2  <0> d   1      18.254   0.936   8.935  0.00  0.00    -0.354 OA
ATOM     24  C1  <0> d   1      19.400   1.379   9.665  0.00  0.00     0.210 C 
ENDBRANCH   1  23
BRANCH   6  25
ATOM     25  C32 <0> d   1      18.559   0.314   6.200  0.00  0.00    -0.021 C 
ATOM     26  C33 <0> d   1      19.323   1.495   6.802  0.00  0.00     0.019 C 
ATOM     27  C34 <0> d   1      19.362  -0.272   5.038  0.00  0.00     0.019 C 
ATOM     28  C35 <0> d   1      17.198   0.793   5.691  0.00  0.00     0.019 C 
ENDBRANCH   6  25
BRANCH   4  29
ATOM     29  N22 <0> d   1      18.104  -4.409   7.493  0.00  0.00    -0.275 N 
ATOM     30  C28 <0> d   1      19.094  -4.923   6.741  0.00  0.00     0.333 A 
ATOM     31  N27 <0> d   1      19.084  -6.218   6.376  0.00  0.00    -0.275 N 
ATOM     32  O29 <0> d   1      20.015  -4.209   6.396  0.00  0.00    -0.246 OA
ATOM     33  C25 <0> d   1      18.069  -7.023   6.751  0.00  0.00     0.250 A 
ATOM     34  H52 <0> d   1      19.808  -6.573   5.837  0.00  0.00     0.173 HD
ATOM     35  C24 <0> d   1      17.018  -6.495   7.538  0.00  0.00     0.092 A 
ATOM     36  O26 <0> d   1      18.058  -8.194   6.416  0.00  0.00    -0.268 OA
ATOM     37  C23 <0> d   1      17.054  -5.193   7.895  0.00  0.00     0.107 A 
ENDBRANCH   4  29
TORSDOF 6
ENDMDL
MODEL 5
REMARK VINA RESULT:      -9.1      4.064     10.651
REMARK  6 active torsions:
REMARK  status: ('A' for Active; 'I' for Inactive)
REMARK    1  A    between atoms: O2_2  and  C3_3 
REMARK    2  A    between atoms: C4_4  and  C5_5 
REMARK    3  A    between atoms: C10_10  and  N11_11 
REMARK    4  A    between atoms: N11_11  and  S12_12 
REMARK    5  A    between atoms: C21_21  and  N22_22 
REMARK    6  A    between atoms: C31_31  and  C32_32 
ROOT
ATOM      1  C3  <0> d   1      18.726  -1.108   8.062  0.00  0.00     0.086 A 
ATOM      2  C4  <0> d   1      18.643  -1.821   9.261  0.00  0.00     0.010 A 
ATOM      3  C20 <0> d   1      18.267  -3.162   9.244  0.00  0.00     0.045 A 
ATOM      4  C21 <0> d   1      17.979  -3.782   8.038  0.00  0.00     0.045 A 
ATOM      5  C30 <0> d   1      18.065  -3.068   6.850  0.00  0.00     0.041 A 
ATOM      6  C31 <0> d   1      18.430  -1.736   6.862  0.00  0.00    -0.014 A 
ENDROOT
BRANCH   2   7
ATOM      7  C5  <0> d   1      18.951  -1.151  10.548  0.00  0.00    -0.022 A 
ATOM      8  C19 <0> d   1      17.940  -0.925  11.462  0.00  0.00     0.024 A 
ATOM      9  C18 <0> d   1      18.239  -0.296  12.681  0.00  0.00    -0.025 A 
ATOM     10  C8  <0> d   1      19.572   0.108  12.949  0.00  0.00    -0.024 A 
ATOM     11  C17 <0> d   1      17.235  -0.055  13.637  0.00  0.00     0.014 A 
ATOM     12  C7  <0> d   1      20.577  -0.131  11.994  0.00  0.00     0.013 A 
ATOM     13  C9  <0> d   1      19.867   0.743  14.166  0.00  0.00     0.042 A 
ATOM     14  C6  <0> d   1      20.268  -0.746  10.822  0.00  0.00     0.013 A 
ATOM     15  C10 <0> d   1      18.860   0.964  15.080  0.00  0.00     0.043 A 
ATOM     16  C16 <0> d   1      17.548   0.561  14.807  0.00  0.00     0.031 A 
BRANCH  15  17
ATOM     17  N11 <0> d   1      19.152   1.594  16.291  0.00  0.00    -0.285 N 
ATOM     18  H42 <0> d   1      19.404   2.530  16.302  0.00  0.00     0.178 HD
BRANCH  17  19
ATOM     19  S12 <0> d   1      19.068   0.742  17.708  0.00  0.00     0.227 S 
ATOM     20  C13 <0> d   1      17.371   0.985  18.300  0.00  0.00     0.186 C 
ATOM     21  O14 <0> d   1      19.265  -0.614  17.329  0.00  0.00    -0.206 OA
ATOM     22  O15 <0> d   1      19.988   1.392  18.577  0.00  0.00    -0.206 OA
ENDBRANCH  17  19
ENDBRANCH  15  17
ENDBRANCH   2   7
BRANCH   1  23
ATOM     23  O2  <0> d   1      19.092   0.201   8.071  0.00  0.00    -0.354 OA
ATOM     24  C1  <0> d   1      18.133   1.139   8.562  0.00  0.00     0.210 C 
ENDBRANCH   1  23
BRANCH   6  25
ATOM     25  C32 <0> d   1      18.520  -0.969   5.569  0.00  0.00    -0.021 C 
ATOM     26  C33 <0> d   1      18.629  -1.950   4.400  0.00  0.00     0.019 C 
ATOM     27  C34 <0> d   1      17.265  -0.111   5.396  0.00  0.00     0.019 C 
ATOM     28  C35 <0> d   1      19.756  -0.067   5.595  0.00  0.00     0.019 C 
ENDBRANCH   6  25
BRANCH   4  29
ATOM     29  N22 <0> d   1      17.600  -5.132   8.019  0.00  0.00    -0.275 N 
ATOM     30  C28 <0> d   1      18.484  -6.068   7.631  0.00  0.00     0.333 A 
ATOM     31  N27 <0> d   1      18.148  -7.371   7.609  0.00  0.00    -0.275 N 
ATOM     32  O29 <0> d   1      19.607  -5.733   7.306  0.00  0.00    -0.246 OA
ATOM     33  C25 <0> d   1      16.907  -7.759   7.966  0.00  0.00     0.250 A 
ATOM     34  H52 <0> d   1      18.800  -8.033   7.330  0.00  0.00     0.173 HD
ATOM     35  C24 <0> d   1      15.964  -6.784   8.372  0.00  0.00     0.092 A 
ATOM     36  O26 <0> d   1      16.601  -8.938   7.941  0.00  0.00    -0.268 OA
ATOM     37  C23 <0> d   1      16.329  -5.485   8.390  0.00  0.00     0.107 A 
ENDBRANCH   4  29
TORSDOF 6
ENDMDL
MODEL 6
REMARK VINA RESULT:      -8.9      4.139      6.346
REMARK  6 active torsions:
REMARK  status: ('A' for Active; 'I' for Inactive)
REMARK    1  A    between atoms: O2_2  and  C3_3 
REMARK    2  A    between atoms: C4_4  and  C5_5 
REMARK    3  A    between atoms: C10_10  and  N11_11 
REMARK    4  A    between atoms: N11_11  and  S12_12 
REMARK    5  A    between atoms: C21_21  and  N22_22 
REMARK    6  A    between atoms: C31_31  and  C32_32 
ROOT
ATOM      1  C3  <0> d   1      18.803  -0.535  10.728  0.00  0.00     0.086 A 
ATOM      2  C4  <0> d   1      18.648  -1.712  11.466  0.00  0.00     0.010 A 
ATOM      3  C20 <0> d   1      18.575  -1.653  12.855  0.00  0.00     0.045 A 
ATOM      4  C21 <0> d   1      18.654  -0.427  13.498  0.00  0.00     0.045 A 
ATOM      5  C30 <0> d   1      18.806   0.739  12.759  0.00  0.00     0.041 A 
ATOM      6  C31 <0> d   1      18.887   0.684  11.382  0.00  0.00    -0.014 A 
ENDROOT
BRANCH   2   7
ATOM      7  C5  <0> d   1      18.566  -3.020  10.771  0.00  0.00    -0.022 A 
ATOM      8  C19 <0> d   1      17.341  -3.489  10.337  0.00  0.00     0.024 A 
ATOM      9  C18 <0> d   1      17.269  -4.724   9.675  0.00  0.00    -0.025 A 
ATOM     10  C8  <0> d   1      18.454  -5.478   9.474  0.00  0.00    -0.024 A 
ATOM     11  C17 <0> d   1      16.039  -5.230   9.215  0.00  0.00     0.014 A 
ATOM     12  C7  <0> d   1      19.685  -4.974   9.934  0.00  0.00     0.013 A 
ATOM     13  C9  <0> d   1      18.379  -6.716   8.817  0.00  0.00     0.042 A 
ATOM     14  C6  <0> d   1      19.733  -3.774  10.567  0.00  0.00     0.013 A 
ATOM     15  C10 <0> d   1      17.158  -7.182   8.380  0.00  0.00     0.043 A 
ATOM     16  C16 <0> d   1      15.994  -6.432   8.582  0.00  0.00     0.031 A 
BRANCH  15  17
ATOM     17  N11 <0> d   1      17.082  -8.413   7.726  0.00  0.00    -0.285 N 
ATOM     18  H42 <0> d   1      16.972  -9.228   8.239  0.00  0.00     0.178 HD
BRANCH  17  19
ATOM     19  S12 <0> d   1      17.180  -8.480   6.074  0.00  0.00     0.227 S 
ATOM     20  C13 <0> d   1      15.463  -8.378   5.500  0.00  0.00     0.186 C 
ATOM     21  O14 <0> d   1      17.891  -7.305   5.705  0.00  0.00    -0.206 OA
ATOM     22  O15 <0> d   1      17.714  -9.767   5.795  0.00  0.00    -0.206 OA
ENDBRANCH  17  19
ENDBRANCH  15  17
ENDBRANCH   2   7
BRANCH   1  23
ATOM     23  O2  <0> d   1      18.875  -0.586   9.371  0.00  0.00    -0.354 OA
ATOM     24  C1  <0> d   1      17.639  -0.655   8.658  0.00  0.00     0.210 C 
ENDBRANCH   1  23
BRANCH   6  25
ATOM     25  C32 <0> d   1      19.053   1.954  10.586  0.00  0.00    -0.021 C 
ATOM     26  C33 <0> d   1      17.675   2.541  10.272  0.00  0.00     0.019 C 
ATOM     27  C34 <0> d   1      19.862   2.964  11.402  0.00  0.00     0.019 C 
ATOM     28  C35 <0> d   1      19.787   1.647   9.280  0.00  0.00     0.019 C 
ENDBRANCH   6  25
BRANCH   4  29
ATOM     29  N22 <0> d   1      18.581  -0.366  14.897  0.00  0.00    -0.275 N 
ATOM     30  C28 <0> d   1      17.884   0.623  15.486  0.00  0.00     0.333 A 
ATOM     31  N27 <0> d   1      17.794   0.702  16.826  0.00  0.00    -0.275 N 
ATOM     32  O29 <0> d   1      17.320   1.450  14.797  0.00  0.00    -0.246 OA
ATOM     33  C25 <0> d   1      18.414  -0.208  17.605  0.00  0.00     0.250 A 
ATOM     34  H52 <0> d   1      17.284   1.419  17.234  0.00  0.00     0.173 HD
ATOM     35  C24 <0> d   1      19.155  -1.251  16.999  0.00  0.00     0.092 A 
ATOM     36  O26 <0> d   1      18.336  -0.133  18.818  0.00  0.00    -0.268 OA
ATOM     37  C23 <0> d   1      19.226  -1.310  15.652  0.00  0.00     0.107 A 
ENDBRANCH   4  29
TORSDOF 6
ENDMDL
MODEL 7
REMARK VINA RESULT:      -8.8      3.513      9.699
REMARK  6 active torsions:
REMARK  status: ('A' for Active; 'I' for Inactive)
REMARK    1  A    between atoms: O2_2  and  C3_3 
REMARK    2  A    between atoms: C4_4  and  C5_5 
REMARK    3  A    between atoms: C10_10  and  N11_11 
REMARK    4  A    between atoms: N11_11  and  S12_12 
REMARK    5  A    between atoms: C21_21  and  N22_22 
REMARK    6  A    between atoms: C31_31  and  C32_32 
ROOT
ATOM      1  C3  <0> d   1      18.344  -3.602  10.178  0.00  0.00     0.086 A 
ATOM      2  C4  <0> d   1      18.183  -2.214  10.210  0.00  0.00     0.010 A 
ATOM      3  C20 <0> d   1      18.207  -1.488   9.022  0.00  0.00     0.045 A 
ATOM      4  C21 <0> d   1      18.390  -2.145   7.815  0.00  0.00     0.045 A 
ATOM      5  C30 <0> d   1      18.549  -3.525   7.790  0.00  0.00     0.041 A 
ATOM      6  C31 <0> d   1      18.532  -4.249   8.966  0.00  0.00    -0.014 A 
ENDROOT
BRANCH   2   7
ATOM      7  C5  <0> d   1      17.989  -1.517  11.505  0.00  0.00    -0.022 A 
ATOM      8  C19 <0> d   1      18.709  -1.919  12.614  0.00  0.00     0.024 A 
ATOM      9  C18 <0> d   1      18.526  -1.252  13.835  0.00  0.00    -0.025 A 
ATOM     10  C8  <0> d   1      17.596  -0.183  13.913  0.00  0.00    -0.024 A 
ATOM     11  C17 <0> d   1      19.245  -1.631  14.983  0.00  0.00     0.014 A 
ATOM     12  C7  <0> d   1      16.875   0.197  12.766  0.00  0.00     0.013 A 
ATOM     13  C9  <0> d   1      17.410   0.479  15.137  0.00  0.00     0.042 A 
ATOM     14  C6  <0> d   1      17.071  -0.458  11.593  0.00  0.00     0.013 A 
ATOM     15  C10 <0> d   1      18.131   0.082  16.242  0.00  0.00     0.043 A 
ATOM     16  C16 <0> d   1      19.046  -0.974  16.156  0.00  0.00     0.031 A 
BRANCH  15  17
ATOM     17  N11 <0> d   1      17.947   0.739  17.460  0.00  0.00    -0.285 N 
ATOM     18  H42 <0> d   1      17.238   0.461  18.059  0.00  0.00     0.178 HD
BRANCH  17  19
ATOM     19  S12 <0> d   1      18.942   1.995  17.879  0.00  0.00     0.227 S 
ATOM     20  C13 <0> d   1      17.942   3.036  18.978  0.00  0.00     0.186 C 
ATOM     21  O14 <0> d   1      20.002   1.390  18.609  0.00  0.00    -0.206 OA
ATOM     22  O15 <0> d   1      19.200   2.677  16.659  0.00  0.00    -0.206 OA
ENDBRANCH  17  19
ENDBRANCH  15  17
ENDBRANCH   2   7
BRANCH   1  23
ATOM     23  O2  <0> d   1      18.321  -4.318  11.334  0.00  0.00    -0.354 OA
ATOM     24  C1  <0> d   1      17.038  -4.685  11.844  0.00  0.00     0.210 C 
ENDBRANCH   1  23
BRANCH   6  25
ATOM     25  C32 <0> d   1      18.705  -5.745   8.931  0.00  0.00    -0.021 C 
ATOM     26  C33 <0> d   1      18.883  -6.204   7.483  0.00  0.00     0.019 C 
ATOM     27  C34 <0> d   1      19.942  -6.135   9.744  0.00  0.00     0.019 C 
ATOM     28  C35 <0> d   1      17.468  -6.416   9.531  0.00  0.00     0.019 C 
ENDBRANCH   6  25
BRANCH   4  29
ATOM     29  N22 <0> d   1      18.416  -1.415   6.618  0.00  0.00    -0.275 N 
ATOM     30  C28 <0> d   1      19.214  -1.812   5.611  0.00  0.00     0.333 A 
ATOM     31  N27 <0> d   1      19.253  -1.133   4.451  0.00  0.00    -0.275 N 
ATOM     32  O29 <0> d   1      19.901  -2.806   5.748  0.00  0.00    -0.246 OA
ATOM     33  C25 <0> d   1      18.497  -0.029   4.282  0.00  0.00     0.250 A 
ATOM     34  H52 <0> d   1      19.832  -1.436   3.733  0.00  0.00     0.173 HD
ATOM     35  C24 <0> d   1      17.656   0.404   5.335  0.00  0.00     0.092 A 
ATOM     36  O26 <0> d   1      18.537   0.589   3.233  0.00  0.00    -0.268 OA
ATOM     37  C23 <0> d   1      17.632  -0.299   6.488  0.00  0.00     0.107 A 
ENDBRANCH   4  29
TORSDOF 6
ENDMDL
MODEL 8
REMARK VINA RESULT:      -8.6      3.575      9.745
REMARK  6 active torsions:
REMARK  status: ('A' for Active; 'I' for Inactive)
REMARK    1  A    between atoms: O2_2  and  C3_3 
REMARK    2  A    between atoms: C4_4  and  C5_5 
REMARK    3  A    between atoms: C10_10  and  N11_11 
REMARK    4  A    between atoms: N11_11  and  S12_12 
REMARK    5  A    between atoms: C21_21  and  N22_22 
REMARK    6  A    between atoms: C31_31  and  C32_32 
ROOT
ATOM      1  C3  <0> d   1      18.840  -3.279  10.187  0.00  0.00     0.086 A 
ATOM      2  C4  <0> d   1      18.856  -1.884  10.096  0.00  0.00     0.010 A 
ATOM      3  C20 <0> d   1      18.701  -1.270   8.855  0.00  0.00     0.045 A 
ATOM      4  C21 <0> d   1      18.532  -2.045   7.718  0.00  0.00     0.045 A 
ATOM      5  C30 <0> d   1      18.517  -3.431   7.816  0.00  0.00     0.041 A 
ATOM      6  C31 <0> d   1      18.677  -4.044   9.043  0.00  0.00    -0.014 A 
ENDROOT
BRANCH   2   7
ATOM      7  C5  <0> d   1      19.038  -1.060  11.316  0.00  0.00    -0.022 A 
ATOM      8  C19 <0> d   1      18.009  -0.955  12.232  0.00  0.00     0.024 A 
ATOM      9  C18 <0> d   1      18.189  -0.179  13.387  0.00  0.00    -0.025 A 
ATOM     10  C8  <0> d   1      19.421   0.494  13.590  0.00  0.00    -0.024 A 
ATOM     11  C17 <0> d   1      17.164  -0.053  14.343  0.00  0.00     0.014 A 
ATOM     12  C7  <0> d   1      20.447   0.370  12.636  0.00  0.00     0.013 A 
ATOM     13  C9  <0> d   1      19.597   1.274  14.744  0.00  0.00     0.042 A 
ATOM     14  C6  <0> d   1      20.254  -0.390  11.526  0.00  0.00     0.013 A 
ATOM     15  C10 <0> d   1      18.572   1.376  15.660  0.00  0.00     0.043 A 
ATOM     16  C16 <0> d   1      17.360   0.709  15.451  0.00  0.00     0.031 A 
BRANCH  15  17
ATOM     17  N11 <0> d   1      18.746   2.151  16.807  0.00  0.00    -0.285 N 
ATOM     18  H42 <0> d   1      18.844   3.113  16.733  0.00  0.00     0.178 HD
BRANCH  17  19
ATOM     19  S12 <0> d   1      18.784   1.427  18.296  0.00  0.00     0.227 S 
ATOM     20  C13 <0> d   1      19.340  -0.269  17.976  0.00  0.00     0.186 C 
ATOM     21  O14 <0> d   1      19.778   2.140  19.021  0.00  0.00    -0.206 OA
ATOM     22  O15 <0> d   1      17.431   1.425  18.733  0.00  0.00    -0.206 OA
ENDBRANCH  17  19
ENDBRANCH  15  17
ENDBRANCH   2   7
BRANCH   1  23
ATOM     23  O2  <0> d   1      18.990  -3.884  11.395  0.00  0.00    -0.354 OA
ATOM     24  C1  <0> d   1      20.314  -3.950  11.927  0.00  0.00     0.210 C 
ENDBRANCH   1  23
BRANCH   6  25
ATOM     25  C32 <0> d   1      18.659  -5.548   9.141  0.00  0.00    -0.021 C 
ATOM     26  C33 <0> d   1      17.769  -5.972  10.311  0.00  0.00     0.019 C 
ATOM     27  C34 <0> d   1      18.104  -6.136   7.842  0.00  0.00     0.019 C 
ATOM     28  C35 <0> d   1      20.081  -6.062   9.368  0.00  0.00     0.019 C 
ENDBRANCH   6  25
BRANCH   4  29
ATOM     29  N22 <0> d   1      18.378  -1.429   6.468  0.00  0.00    -0.275 N 
ATOM     30  C28 <0> d   1      19.090  -1.868   5.415  0.00  0.00     0.333 A 
ATOM     31  N27 <0> d   1      18.957  -1.297   4.204  0.00  0.00    -0.275 N 
ATOM     32  O29 <0> d   1      19.858  -2.800   5.558  0.00  0.00    -0.246 OA
ATOM     33  C25 <0> d   1      18.111  -0.263   4.028  0.00  0.00     0.250 A 
ATOM     34  H52 <0> d   1      19.476  -1.630   3.455  0.00  0.00     0.173 HD
ATOM     35  C24 <0> d   1      17.358   0.213   5.129  0.00  0.00     0.092 A 
ATOM     36  O26 <0> d   1      17.994   0.257   2.933  0.00  0.00    -0.268 OA
ATOM     37  C23 <0> d   1      17.507  -0.380   6.332  0.00  0.00     0.107 A 
ENDBRANCH   4  29
TORSDOF 6
ENDMDL
MODEL 9
REMARK VINA RESULT:      -8.3      3.200      5.181
REMARK  6 active torsions:
REMARK  status: ('A' for Active; 'I' for Inactive)
REMARK    1  A    between atoms: O2_2  and  C3_3 
REMARK    2  A    between atoms: C4_4  and  C5_5 
REMARK    3  A    between atoms: C10_10  and  N11_11 
REMARK    4  A    between atoms: N11_11  and  S12_12 
REMARK    5  A    between atoms: C21_21  and  N22_22 
REMARK    6  A    between atoms: C31_31  and  C32_32 
ROOT
ATOM      1  C3  <0> d   1      18.034   1.798  11.516  0.00  0.00     0.086 A 
ATOM      2  C4  <0> d   1      18.124   0.455  11.892  0.00  0.00     0.010 A 
ATOM      3  C20 <0> d   1      18.163   0.115  13.242  0.00  0.00     0.045 A 
ATOM      4  C21 <0> d   1      18.110   1.111  14.205  0.00  0.00     0.045 A 
ATOM      5  C30 <0> d   1      18.020   2.444  13.825  0.00  0.00     0.041 A 
ATOM      6  C31 <0> d   1      17.988   2.786  12.487  0.00  0.00    -0.014 A 
ENDROOT
BRANCH   2   7
ATOM      7  C5  <0> d   1      18.181  -0.606  10.857  0.00  0.00    -0.022 A 
ATOM      8  C19 <0> d   1      18.802  -1.808  11.140  0.00  0.00     0.024 A 
ATOM      9  C18 <0> d   1      18.847  -2.809  10.158  0.00  0.00    -0.025 A 
ATOM     10  C8  <0> d   1      18.266  -2.568   8.888  0.00  0.00    -0.024 A 
ATOM     11  C17 <0> d   1      19.467  -4.047  10.414  0.00  0.00     0.014 A 
ATOM     12  C7  <0> d   1      17.646  -1.331   8.630  0.00  0.00     0.013 A 
ATOM     13  C9  <0> d   1      18.317  -3.570   7.905  0.00  0.00     0.042 A 
ATOM     14  C6  <0> d   1      17.608  -0.376   9.595  0.00  0.00     0.013 A 
ATOM     15  C10 <0> d   1      18.933  -4.770   8.189  0.00  0.00     0.043 A 
ATOM     16  C16 <0> d   1      19.504  -5.000   9.446  0.00  0.00     0.031 A 
BRANCH  15  17
ATOM     17  N11 <0> d   1      18.985  -5.767   7.213  0.00  0.00    -0.285 N 
ATOM     18  H42 <0> d   1      19.812  -5.938   6.738  0.00  0.00     0.178 HD
BRANCH  17  19
ATOM     19  S12 <0> d   1      17.632  -6.658   6.869  0.00  0.00     0.227 S 
ATOM     20  C13 <0> d   1      16.707  -6.725   8.427  0.00  0.00     0.186 C 
ATOM     21  O14 <0> d   1      16.922  -5.884   5.910  0.00  0.00    -0.206 OA
ATOM     22  O15 <0> d   1      18.124  -7.950   6.536  0.00  0.00    -0.206 OA
ENDBRANCH  17  19
ENDBRANCH  15  17
ENDBRANCH   2   7
BRANCH   1  23
ATOM     23  O2  <0> d   1      17.995   2.136  10.200  0.00  0.00    -0.354 OA
ATOM     24  C1  <0> d   1      19.245   2.200   9.510  0.00  0.00     0.210 C 
ENDBRANCH   1  23
BRANCH   6  25
ATOM     25  C32 <0> d   1      17.890   4.234  12.082  0.00  0.00    -0.021 C 
ATOM     26  C33 <0> d   1      17.010   4.356  10.836  0.00  0.00     0.019 C 
ATOM     27  C34 <0> d   1      17.268   5.041  13.224  0.00  0.00     0.019 C 
ATOM     28  C35 <0> d   1      19.287   4.775  11.776  0.00  0.00     0.019 C 
ENDBRANCH   6  25
BRANCH   4  29
ATOM     29  N22 <0> d   1      18.150   0.772  15.565  0.00  0.00    -0.275 N 
ATOM     30  C28 <0> d   1      18.950   1.458  16.401  0.00  0.00     0.333 A 
ATOM     31  N27 <0> d   1      19.003   1.155  17.711  0.00  0.00    -0.275 N 
ATOM     32  O29 <0> d   1      19.627   2.370  15.968  0.00  0.00    -0.246 OA
ATOM     33  C25 <0> d   1      18.259   0.147  18.208  0.00  0.00     0.250 A 
ATOM     34  H52 <0> d   1      19.583   1.663  18.300  0.00  0.00     0.173 HD
ATOM     35  C24 <0> d   1      17.416  -0.588  17.339  0.00  0.00     0.092 A 
ATOM     36  O26 <0> d   1      18.310  -0.130  19.393  0.00  0.00    -0.268 OA
ATOM     37  C23 <0> d   1      17.378  -0.261  16.029  0.00  0.00     0.107 A 
ENDBRANCH   4  29
TORSDOF 6
ENDMDL
