MODEL 1
REMARK VINA RESULT:      -7.5      0.000      0.000
REMARK  7 active torsions:
REMARK  status: ('A' for Active; 'I' for Inactive)
REMARK    1  A    between atoms: O2_2  and  C3_3 
REMARK    2  A    between atoms: C7_7  and  C8_8 
REMARK    3  A    between atoms: C8_8  and  S9_9 
REMARK    4  A    between atoms: S9_9  and  C11_11 
REMARK    5  A    between atoms: C15_15  and  O16_16 
REMARK    6  A    between atoms: O16_16  and  C17_17 
REMARK    7  A    between atoms: C24_24  and  O25_25 
ROOT
ATOM      1  C11 ZIN A   1      19.129   0.906  11.005  0.00  0.00     0.198 A 
ATOM      2  N12 ZIN A   1      19.123   1.660  12.067  0.00  0.00    -0.220 NA
ATOM      3  C13 ZIN A   1      19.103   0.883  13.179  0.00  0.00     0.089 A 
ATOM      4  C14 ZIN A   1      19.089   1.162  14.549  0.00  0.00     0.071 A 
ATOM      5  C15 ZIN A   1      19.068   0.125  15.459  0.00  0.00     0.077 A 
ATOM      6  C20 ZIN A   1      19.062  -1.197  15.022  0.00  0.00     0.039 A 
ATOM      7  C21 ZIN A   1      19.075  -1.486  13.674  0.00  0.00     0.035 A 
ATOM      8  C22 ZIN A   1      19.096  -0.454  12.746  0.00  0.00     0.063 A 
ATOM      9  N23 ZIN A   1      19.106  -0.406  11.364  0.00  0.00    -0.331 N 
ATOM     10  H38 ZIN A   1      19.101  -1.166  10.761  0.00  0.00     0.168 HD
ENDROOT
BRANCH   1  11
ATOM     11  S9  ZIN A   1      19.154   1.499   9.347  0.00  0.00     0.092 S 
ATOM     12  O10 ZIN A   1      18.767   2.860   9.488  0.00  0.00    -0.249 OA
BRANCH  11  13
ATOM     13  C8  ZIN A   1      17.810   0.568   8.560  0.00  0.00     0.179 C 
BRANCH  13  14
ATOM     14  C7  ZIN A   1      18.323  -0.094   7.308  0.00  0.00     0.082 A 
ATOM     15  N6  ZIN A   1      18.220   0.531   6.150  0.00  0.00    -0.262 NA
ATOM     16  C5  ZIN A   1      18.653  -0.007   5.027  0.00  0.00     0.120 A 
ATOM     17  C4  ZIN A   1      19.240  -1.258   5.018  0.00  0.00     0.059 A 
ATOM     18  C3  ZIN A   1      19.369  -1.953   6.215  0.00  0.00     0.104 A 
ATOM     19  C24 ZIN A   1      18.892  -1.353   7.384  0.00  0.00     0.127 A 
BRANCH  18  20
ATOM     20  O2  ZIN A   1      19.939  -3.186   6.248  0.00  0.00    -0.353 OA
ATOM     21  C1  ZIN A   1      19.119  -4.290   5.860  0.00  0.00     0.210 C 
ENDBRANCH  18  20
BRANCH  19  22
ATOM     22  O25 ZIN A   1      18.995  -1.993   8.580  0.00  0.00    -0.351 OA
ATOM     23  C26 ZIN A   1      17.926  -2.870   8.941  0.00  0.00     0.210 C 
ENDBRANCH  19  22
ENDBRANCH  13  14
ENDBRANCH  11  13
ENDBRANCH   1  11
BRANCH   5  24
ATOM     24  O16 ZIN A   1      19.055   0.395  16.792  0.00  0.00    -0.290 OA
BRANCH  24  25
ATOM     25  C17 ZIN A   1      18.071  -0.278  17.581  0.00  0.00     0.505 C 
ATOM     26  F18 ZIN A   1      18.174   0.141  18.911  0.00  0.00    -0.184 F 
ATOM     27  F19 ZIN A   1      16.796   0.026  17.093  0.00  0.00    -0.184 F 
ENDBRANCH  24  25
ENDBRANCH   5  24
TORSDOF 7
ENDMDL
MODEL 2
REMARK VINA RESULT:      -7.4      2.187      3.029
REMARK  7 active torsions:
REMARK  status: ('A' for Active; 'I' for Inactive)
REMARK    1  A    between atoms: O2_2  and  C3_3 
REMARK    2  A    between atoms: C7_7  and  C8_8 
REMARK    3  A    between atoms: C8_8  and  S9_9 
REMARK    4  A    between atoms: S9_9  and  C11_11 
REMARK    5  A    between atoms: C15_15  and  O16_16 
REMARK    6  A    between atoms: O16_16  and  C17_17 
REMARK    7  A    between atoms: C24_24  and  O25_25 
ROOT
ATOM      1  C11 ZIN A   1      18.087  -0.264  13.451  0.00  0.00     0.198 A 
ATOM      2  N12 ZIN A   1      18.384   0.889  13.977  0.00  0.00    -0.220 NA
ATOM      3  C13 ZIN A   1      18.683   0.729  15.291  0.00  0.00     0.089 A 
ATOM      4  C14 ZIN A   1      19.061   1.611  16.307  0.00  0.00     0.071 A 
ATOM      5  C15 ZIN A   1      19.303   1.130  17.578  0.00  0.00     0.077 A 
ATOM      6  C20 ZIN A   1      19.171  -0.229  17.854  0.00  0.00     0.039 A 
ATOM      7  C21 ZIN A   1      18.799  -1.109  16.861  0.00  0.00     0.035 A 
ATOM      8  C22 ZIN A   1      18.553  -0.640  15.578  0.00  0.00     0.063 A 
ATOM      9  N23 ZIN A   1      18.168  -1.242  14.393  0.00  0.00    -0.331 N 
ATOM     10  H38 ZIN A   1      17.990  -2.186  14.258  0.00  0.00     0.168 HD
ENDROOT
BRANCH   1  11
ATOM     11  S9  ZIN A   1      17.636  -0.519  11.768  0.00  0.00     0.092 S 
ATOM     12  O10 ZIN A   1      16.983  -1.782  11.800  0.00  0.00    -0.249 OA
BRANCH  11  13
ATOM     13  C8  ZIN A   1      19.239  -0.689  10.936  0.00  0.00     0.179 C 
BRANCH  13  14
ATOM     14  C7  ZIN A   1      19.186  -0.003   9.596  0.00  0.00     0.082 A 
ATOM     15  N6  ZIN A   1      19.136   1.314   9.539  0.00  0.00    -0.262 NA
ATOM     16  C5  ZIN A   1      19.087   1.960   8.390  0.00  0.00     0.120 A 
ATOM     17  C4  ZIN A   1      19.088   1.277   7.190  0.00  0.00     0.059 A 
ATOM     18  C3  ZIN A   1      19.139  -0.113   7.202  0.00  0.00     0.104 A 
ATOM     19  C24 ZIN A   1      19.183  -0.762   8.439  0.00  0.00     0.127 A 
BRANCH  18  20
ATOM     20  O2  ZIN A   1      19.141  -0.821   6.043  0.00  0.00    -0.353 OA
ATOM     21  C1  ZIN A   1      19.036  -0.076   4.828  0.00  0.00     0.210 C 
ENDBRANCH  18  20
BRANCH  19  22
ATOM     22  O25 ZIN A   1      19.234  -2.120   8.504  0.00  0.00    -0.351 OA
ATOM     23  C26 ZIN A   1      17.987  -2.818   8.487  0.00  0.00     0.210 C 
ENDBRANCH  19  22
ENDBRANCH  13  14
ENDBRANCH  11  13
ENDBRANCH   1  11
BRANCH   5  24
ATOM     24  O16 ZIN A   1      19.671   1.987  18.567  0.00  0.00    -0.290 OA
BRANCH  24  25
ATOM     25  C17 ZIN A   1      18.720   2.984  18.949  0.00  0.00     0.505 C 
ATOM     26  F18 ZIN A   1      18.804   4.068  18.069  0.00  0.00    -0.184 F 
ATOM     27  F19 ZIN A   1      17.432   2.441  18.900  0.00  0.00    -0.184 F 
ENDBRANCH  24  25
ENDBRANCH   5  24
TORSDOF 7
ENDMDL
MODEL 3
REMARK VINA RESULT:      -7.4      4.874      8.925
REMARK  7 active torsions:
REMARK  status: ('A' for Active; 'I' for Inactive)
REMARK    1  A    between atoms: O2_2  and  C3_3 
REMARK    2  A    between atoms: C7_7  and  C8_8 
REMARK    3  A    between atoms: C8_8  and  S9_9 
REMARK    4  A    between atoms: S9_9  and  C11_11 
REMARK    5  A    between atoms: C15_15  and  O16_16 
REMARK    6  A    between atoms: O16_16  and  C17_17 
REMARK    7  A    between atoms: C24_24  and  O25_25 
ROOT
ATOM      1  C11 ZIN A   1      18.755   0.419   9.591  0.00  0.00     0.198 A 
ATOM      2  N12 ZIN A   1      18.899  -0.770   9.083  0.00  0.00    -0.220 NA
ATOM      3  C13 ZIN A   1      19.033  -0.680   7.736  0.00  0.00     0.089 A 
ATOM      4  C14 ZIN A   1      19.211  -1.624   6.721  0.00  0.00     0.071 A 
ATOM      5  C15 ZIN A   1      19.316  -1.207   5.409  0.00  0.00     0.077 A 
ATOM      6  C20 ZIN A   1      19.245   0.147   5.092  0.00  0.00     0.039 A 
ATOM      7  C21 ZIN A   1      19.069   1.087   6.084  0.00  0.00     0.035 A 
ATOM      8  C22 ZIN A   1      18.962   0.684   7.408  0.00  0.00     0.063 A 
ATOM      9  N23 ZIN A   1      18.779   1.355   8.604  0.00  0.00    -0.331 N 
ATOM     10  H38 ZIN A   1      18.688   2.314   8.718  0.00  0.00     0.168 HD
ENDROOT
BRANCH   1  11
ATOM     11  S9  ZIN A   1      18.548   0.768  11.305  0.00  0.00     0.092 S 
ATOM     12  O10 ZIN A   1      17.158   1.048  11.409  0.00  0.00    -0.249 OA
BRANCH  11  13
ATOM     13  C8  ZIN A   1      19.491   2.301  11.527  0.00  0.00     0.179 C 
BRANCH  13  14
ATOM     14  C7  ZIN A   1      18.544   3.472  11.575  0.00  0.00     0.082 A 
ATOM     15  N6  ZIN A   1      17.982   3.902  10.461  0.00  0.00    -0.262 NA
ATOM     16  C5  ZIN A   1      17.147   4.923  10.451  0.00  0.00     0.120 A 
ATOM     17  C4  ZIN A   1      16.823   5.587  11.618  0.00  0.00     0.059 A 
ATOM     18  C3  ZIN A   1      17.392   5.168  12.815  0.00  0.00     0.104 A 
ATOM     19  C24 ZIN A   1      18.277   4.087  12.785  0.00  0.00     0.127 A 
BRANCH  18  20
ATOM     20  O2  ZIN A   1      17.099   5.797  13.983  0.00  0.00    -0.353 OA
ATOM     21  C1  ZIN A   1      15.728   5.810  14.387  0.00  0.00     0.210 C 
ENDBRANCH  18  20
BRANCH  19  22
ATOM     22  O25 ZIN A   1      18.860   3.640  13.930  0.00  0.00    -0.351 OA
ATOM     23  C26 ZIN A   1      18.155   2.644  14.672  0.00  0.00     0.210 C 
ENDBRANCH  19  22
ENDBRANCH  13  14
ENDBRANCH  11  13
ENDBRANCH   1  11
BRANCH   5  24
ATOM     24  O16 ZIN A   1      19.490  -2.124   4.420  0.00  0.00    -0.290 OA
BRANCH  24  25
ATOM     25  C17 ZIN A   1      18.467  -3.109   4.262  0.00  0.00     0.505 C 
ATOM     26  F18 ZIN A   1      17.234  -2.475   4.075  0.00  0.00    -0.184 F 
ATOM     27  F19 ZIN A   1      18.756  -3.905   3.149  0.00  0.00    -0.184 F 
ENDBRANCH  24  25
ENDBRANCH   5  24
TORSDOF 7
ENDMDL
MODEL 4
REMARK VINA RESULT:      -7.4      4.484      8.936
REMARK  7 active torsions:
REMARK  status: ('A' for Active; 'I' for Inactive)
REMARK    1  A    between atoms: O2_2  and  C3_3 
REMARK    2  A    between atoms: C7_7  and  C8_8 
REMARK    3  A    between atoms: C8_8  and  S9_9 
REMARK    4  A    between atoms: S9_9  and  C11_11 
REMARK    5  A    between atoms: C15_15  and  O16_16 
REMARK    6  A    between atoms: O16_16  and  C17_17 
REMARK    7  A    between atoms: C24_24  and  O25_25 
ROOT
ATOM      1  C11 ZIN A   1      19.034  -0.494  11.380  0.00  0.00     0.198 A 
ATOM      2  N12 ZIN A   1      18.400  -1.101  10.419  0.00  0.00    -0.220 NA
ATOM      3  C13 ZIN A   1      18.464  -0.356   9.287  0.00  0.00     0.089 A 
ATOM      4  C14 ZIN A   1      17.967  -0.528   7.991  0.00  0.00     0.071 A 
ATOM      5  C15 ZIN A   1      18.205   0.436   7.032  0.00  0.00     0.077 A 
ATOM      6  C20 ZIN A   1      18.936   1.578   7.348  0.00  0.00     0.039 A 
ATOM      7  C21 ZIN A   1      19.431   1.760   8.621  0.00  0.00     0.035 A 
ATOM      8  C22 ZIN A   1      19.200   0.800   9.596  0.00  0.00     0.063 A 
ATOM      9  N23 ZIN A   1      19.542   0.686  10.932  0.00  0.00    -0.331 N 
ATOM     10  H38 ZIN A   1      20.052   1.327  11.452  0.00  0.00     0.168 HD
ENDROOT
BRANCH   1  11
ATOM     11  S9  ZIN A   1      19.203  -1.105  13.023  0.00  0.00     0.092 S 
ATOM     12  O10 ZIN A   1      18.948  -2.496  12.874  0.00  0.00    -0.249 OA
BRANCH  11  13
ATOM     13  C8  ZIN A   1      17.815  -0.326  13.893  0.00  0.00     0.179 C 
BRANCH  13  14
ATOM     14  C7  ZIN A   1      18.250   1.008  14.440  0.00  0.00     0.082 A 
ATOM     15  N6  ZIN A   1      18.121   2.091  13.697  0.00  0.00    -0.262 NA
ATOM     16  C5  ZIN A   1      18.488   3.282  14.130  0.00  0.00     0.120 A 
ATOM     17  C4  ZIN A   1      19.025   3.444  15.392  0.00  0.00     0.059 A 
ATOM     18  C3  ZIN A   1      19.179   2.330  16.210  0.00  0.00     0.104 A 
ATOM     19  C24 ZIN A   1      18.785   1.084  15.713  0.00  0.00     0.127 A 
BRANCH  18  20
ATOM     20  O2  ZIN A   1      19.704   2.448  17.458  0.00  0.00    -0.353 OA
ATOM     21  C1  ZIN A   1      18.868   3.030  18.460  0.00  0.00     0.210 C 
ENDBRANCH  18  20
BRANCH  19  22
ATOM     22  O25 ZIN A   1      18.917  -0.035  16.475  0.00  0.00    -0.351 OA
ATOM     23  C26 ZIN A   1      17.816  -0.380  17.319  0.00  0.00     0.210 C 
ENDBRANCH  19  22
ENDBRANCH  13  14
ENDBRANCH  11  13
ENDBRANCH   1  11
BRANCH   5  24
ATOM     24  O16 ZIN A   1      17.723   0.269   5.772  0.00  0.00    -0.290 OA
BRANCH  24  25
ATOM     25  C17 ZIN A   1      18.445  -0.616   4.913  0.00  0.00     0.505 C 
ATOM     26  F18 ZIN A   1      17.644  -0.960   3.819  0.00  0.00    -0.184 F 
ATOM     27  F19 ZIN A   1      19.606   0.019   4.460  0.00  0.00    -0.184 F 
ENDBRANCH  24  25
ENDBRANCH   5  24
TORSDOF 7
ENDMDL
MODEL 5
REMARK VINA RESULT:      -7.3      4.382      8.673
REMARK  7 active torsions:
REMARK  status: ('A' for Active; 'I' for Inactive)
REMARK    1  A    between atoms: O2_2  and  C3_3 
REMARK    2  A    between atoms: C7_7  and  C8_8 
REMARK    3  A    between atoms: C8_8  and  S9_9 
REMARK    4  A    between atoms: S9_9  and  C11_11 
REMARK    5  A    between atoms: C15_15  and  O16_16 
REMARK    6  A    between atoms: O16_16  and  C17_17 
REMARK    7  A    between atoms: C24_24  and  O25_25 
ROOT
ATOM      1  C11 ZIN A   1      17.915   2.576  11.015  0.00  0.00     0.198 A 
ATOM      2  N12 ZIN A   1      18.572   2.953   9.957  0.00  0.00    -0.220 NA
ATOM      3  C13 ZIN A   1      18.519   1.979   9.013  0.00  0.00     0.089 A 
ATOM      4  C14 ZIN A   1      19.040   1.861   7.721  0.00  0.00     0.071 A 
ATOM      5  C15 ZIN A   1      18.807   0.712   6.992  0.00  0.00     0.077 A 
ATOM      6  C20 ZIN A   1      18.058  -0.328   7.535  0.00  0.00     0.039 A 
ATOM      7  C21 ZIN A   1      17.540  -0.223   8.808  0.00  0.00     0.035 A 
ATOM      8  C22 ZIN A   1      17.765   0.925   9.554  0.00  0.00     0.063 A 
ATOM      9  N23 ZIN A   1      17.402   1.330  10.826  0.00  0.00    -0.331 N 
ATOM     10  H38 ZIN A   1      16.876   0.822  11.464  0.00  0.00     0.168 HD
ENDROOT
BRANCH   1  11
ATOM     11  S9  ZIN A   1      17.726   3.533  12.481  0.00  0.00     0.092 S 
ATOM     12  O10 ZIN A   1      17.774   4.870  11.998  0.00  0.00    -0.249 OA
BRANCH  11  13
ATOM     13  C8  ZIN A   1      19.245   3.170  13.405  0.00  0.00     0.179 C 
BRANCH  13  14
ATOM     14  C7  ZIN A   1      19.116   1.828  14.076  0.00  0.00     0.082 A 
ATOM     15  N6  ZIN A   1      19.353   0.727  13.387  0.00  0.00    -0.262 NA
ATOM     16  C5  ZIN A   1      19.252  -0.470  13.929  0.00  0.00     0.120 A 
ATOM     17  C4  ZIN A   1      18.893  -0.622  15.254  0.00  0.00     0.059 A 
ATOM     18  C3  ZIN A   1      18.634   0.510  16.019  0.00  0.00     0.104 A 
ATOM     19  C24 ZIN A   1      18.744   1.761  15.407  0.00  0.00     0.127 A 
BRANCH  18  20
ATOM     20  O2  ZIN A   1      18.277   0.402  17.326  0.00  0.00    -0.353 OA
ATOM     21  C1  ZIN A   1      19.287  -0.032  18.240  0.00  0.00     0.210 C 
ENDBRANCH  18  20
BRANCH  19  22
ATOM     22  O25 ZIN A   1      18.500   2.899  16.113  0.00  0.00    -0.351 OA
ATOM     23  C26 ZIN A   1      19.595   3.461  16.838  0.00  0.00     0.210 C 
ENDBRANCH  19  22
ENDBRANCH  13  14
ENDBRANCH  11  13
ENDBRANCH   1  11
BRANCH   5  24
ATOM     24  O16 ZIN A   1      19.312   0.596   5.735  0.00  0.00    -0.290 OA
BRANCH  24  25
ATOM     25  C17 ZIN A   1      18.722  -0.393   4.888  0.00  0.00     0.505 C 
ATOM     26  F18 ZIN A   1      18.442   0.171   3.638  0.00  0.00    -0.184 F 
ATOM     27  F19 ZIN A   1      19.612  -1.461   4.730  0.00  0.00    -0.184 F 
ENDBRANCH  24  25
ENDBRANCH   5  24
TORSDOF 7
ENDMDL
MODEL 6
REMARK VINA RESULT:      -7.3      1.579      2.164
REMARK  7 active torsions:
REMARK  status: ('A' for Active; 'I' for Inactive)
REMARK    1  A    between atoms: O2_2  and  C3_3 
REMARK    2  A    between atoms: C7_7  and  C8_8 
REMARK    3  A    between atoms: C8_8  and  S9_9 
REMARK    4  A    between atoms: S9_9  and  C11_11 
REMARK    5  A    between atoms: C15_15  and  O16_16 
REMARK    6  A    between atoms: O16_16  and  C17_17 
REMARK    7  A    between atoms: C24_24  and  O25_25 
ROOT
ATOM      1  C11 ZIN A   1      18.405   0.603  11.503  0.00  0.00     0.198 A 
ATOM      2  N12 ZIN A   1      17.719   1.123  12.478  0.00  0.00    -0.220 NA
ATOM      3  C13 ZIN A   1      17.938   0.421  13.619  0.00  0.00     0.089 A 
ATOM      4  C14 ZIN A   1      17.467   0.541  14.929  0.00  0.00     0.071 A 
ATOM      5  C15 ZIN A   1      17.887  -0.354  15.893  0.00  0.00     0.077 A 
ATOM      6  C20 ZIN A   1      18.776  -1.374  15.567  0.00  0.00     0.039 A 
ATOM      7  C21 ZIN A   1      19.248  -1.503  14.279  0.00  0.00     0.035 A 
ATOM      8  C22 ZIN A   1      18.835  -0.612  13.298  0.00  0.00     0.063 A 
ATOM      9  N23 ZIN A   1      19.108  -0.474  11.949  0.00  0.00    -0.331 N 
ATOM     10  H38 ZIN A   1      19.692  -1.038  11.420  0.00  0.00     0.168 HD
ENDROOT
BRANCH   1  11
ATOM     11  S9  ZIN A   1      18.417   1.198   9.846  0.00  0.00     0.092 S 
ATOM     12  O10 ZIN A   1      17.828   2.487   9.965  0.00  0.00    -0.249 OA
BRANCH  11  13
ATOM     13  C8  ZIN A   1      17.263   0.082   9.002  0.00  0.00     0.179 C 
BRANCH  13  14
ATOM     14  C7  ZIN A   1      18.022  -1.084   8.425  0.00  0.00     0.082 A 
ATOM     15  N6  ZIN A   1      18.311  -2.118   9.193  0.00  0.00    -0.262 NA
ATOM     16  C5  ZIN A   1      18.974  -3.162   8.735  0.00  0.00     0.120 A 
ATOM     17  C4  ZIN A   1      19.396  -3.216   7.420  0.00  0.00     0.059 A 
ATOM     18  C3  ZIN A   1      19.113  -2.148   6.576  0.00  0.00     0.104 A 
ATOM     19  C24 ZIN A   1      18.415  -1.057   7.099  0.00  0.00     0.127 A 
BRANCH  18  20
ATOM     20  O2  ZIN A   1      19.511  -2.163   5.277  0.00  0.00    -0.353 OA
ATOM     21  C1  ZIN A   1      18.793  -3.022   4.388  0.00  0.00     0.210 C 
ENDBRANCH  18  20
BRANCH  19  22
ATOM     22  O25 ZIN A   1      18.115   0.012   6.312  0.00  0.00    -0.351 OA
ATOM     23  C26 ZIN A   1      19.141   0.989   6.126  0.00  0.00     0.210 C 
ENDBRANCH  19  22
ENDBRANCH  13  14
ENDBRANCH  11  13
ENDBRANCH   1  11
BRANCH   5  24
ATOM     24  O16 ZIN A   1      17.430  -0.238  17.168  0.00  0.00    -0.290 OA
BRANCH  24  25
ATOM     25  C17 ZIN A   1      18.144   0.647  18.035  0.00  0.00     0.505 C 
ATOM     26  F18 ZIN A   1      17.249   1.247  18.927  0.00  0.00    -0.184 F 
ATOM     27  F19 ZIN A   1      19.102  -0.077  18.751  0.00  0.00    -0.184 F 
ENDBRANCH  24  25
ENDBRANCH   5  24
TORSDOF 7
ENDMDL
MODEL 7
REMARK VINA RESULT:      -7.2      4.475      8.376
REMARK  7 active torsions:
REMARK  status: ('A' for Active; 'I' for Inactive)
REMARK    1  A    between atoms: O2_2  and  C3_3 
REMARK    2  A    between atoms: C7_7  and  C8_8 
REMARK    3  A    between atoms: C8_8  and  S9_9 
REMARK    4  A    between atoms: S9_9  and  C11_11 
REMARK    5  A    between atoms: C15_15  and  O16_16 
REMARK    6  A    between atoms: O16_16  and  C17_17 
REMARK    7  A    between atoms: C24_24  and  O25_25 
ROOT
ATOM      1  C11 ZIN A   1      19.179   2.312   9.905  0.00  0.00     0.198 A 
ATOM      2  N12 ZIN A   1      18.913   2.536   8.651  0.00  0.00    -0.220 NA
ATOM      3  C13 ZIN A   1      18.991   1.376   7.952  0.00  0.00     0.089 A 
ATOM      4  C14 ZIN A   1      18.806   1.048   6.606  0.00  0.00     0.071 A 
ATOM      5  C15 ZIN A   1      18.961  -0.259   6.191  0.00  0.00     0.077 A 
ATOM      6  C20 ZIN A   1      19.302  -1.252   7.105  0.00  0.00     0.039 A 
ATOM      7  C21 ZIN A   1      19.488  -0.942   8.435  0.00  0.00     0.035 A 
ATOM      8  C22 ZIN A   1      19.335   0.368   8.868  0.00  0.00     0.063 A 
ATOM      9  N23 ZIN A   1      19.453   0.994  10.096  0.00  0.00    -0.331 N 
ATOM     10  H38 ZIN A   1      19.686   0.571  10.937  0.00  0.00     0.168 HD
ENDROOT
BRANCH   1  11
ATOM     11  S9  ZIN A   1      19.192   3.539  11.169  0.00  0.00     0.092 S 
ATOM     12  O10 ZIN A   1      20.394   3.257  11.874  0.00  0.00    -0.249 OA
BRANCH  11  13
ATOM     13  C8  ZIN A   1      17.769   3.082  12.196  0.00  0.00     0.179 C 
BRANCH  13  14
ATOM     14  C7  ZIN A   1      18.252   2.594  13.537  0.00  0.00     0.082 A 
ATOM     15  N6  ZIN A   1      18.408   3.453  14.527  0.00  0.00    -0.262 NA
ATOM     16  C5  ZIN A   1      18.829   3.075  15.718  0.00  0.00     0.120 A 
ATOM     17  C4  ZIN A   1      19.125   1.751  15.980  0.00  0.00     0.059 A 
ATOM     18  C3  ZIN A   1      18.976   0.811  14.966  0.00  0.00     0.104 A 
ATOM     19  C24 ZIN A   1      18.534   1.251  13.716  0.00  0.00     0.127 A 
BRANCH  18  20
ATOM     20  O2  ZIN A   1      19.257  -0.500  15.185  0.00  0.00    -0.353 OA
ATOM     21  C1  ZIN A   1      18.317  -1.244  15.961  0.00  0.00     0.210 C 
ENDBRANCH  18  20
BRANCH  19  22
ATOM     22  O25 ZIN A   1      18.372   0.370  12.692  0.00  0.00    -0.351 OA
ATOM     23  C26 ZIN A   1      17.086  -0.238  12.554  0.00  0.00     0.210 C 
ENDBRANCH  19  22
ENDBRANCH  13  14
ENDBRANCH  11  13
ENDBRANCH   1  11
BRANCH   5  24
ATOM     24  O16 ZIN A   1      18.781  -0.579   4.882  0.00  0.00    -0.290 OA
BRANCH  24  25
ATOM     25  C17 ZIN A   1      18.255  -1.878   4.598  0.00  0.00     0.505 C 
ATOM     26  F18 ZIN A   1      17.144  -1.758   3.758  0.00  0.00    -0.184 F 
ATOM     27  F19 ZIN A   1      19.237  -2.649   3.967  0.00  0.00    -0.184 F 
ENDBRANCH  24  25
ENDBRANCH   5  24
TORSDOF 7
ENDMDL
MODEL 8
REMARK VINA RESULT:      -7.0      4.907      8.610
REMARK  7 active torsions:
REMARK  status: ('A' for Active; 'I' for Inactive)
REMARK    1  A    between atoms: O2_2  and  C3_3 
REMARK    2  A    between atoms: C7_7  and  C8_8 
REMARK    3  A    between atoms: C8_8  and  S9_9 
REMARK    4  A    between atoms: S9_9  and  C11_11 
REMARK    5  A    between atoms: C15_15  and  O16_16 
REMARK    6  A    between atoms: O16_16  and  C17_17 
REMARK    7  A    between atoms: C24_24  and  O25_25 
ROOT
ATOM      1  C11 ZIN A   1      17.943  -0.564  12.198  0.00  0.00     0.198 A 
ATOM      2  N12 ZIN A   1      17.075  -1.452  11.808  0.00  0.00    -0.220 NA
ATOM      3  C13 ZIN A   1      17.711  -2.612  11.506  0.00  0.00     0.089 A 
ATOM      4  C14 ZIN A   1      17.275  -3.859  11.050  0.00  0.00     0.071 A 
ATOM      5  C15 ZIN A   1      18.192  -4.867  10.829  0.00  0.00     0.077 A 
ATOM      6  C20 ZIN A   1      19.548  -4.648  11.057  0.00  0.00     0.039 A 
ATOM      7  C21 ZIN A   1      19.991  -3.423  11.507  0.00  0.00     0.035 A 
ATOM      8  C22 ZIN A   1      19.081  -2.400  11.734  0.00  0.00     0.063 A 
ATOM      9  N23 ZIN A   1      19.197  -1.091  12.165  0.00  0.00    -0.331 N 
ATOM     10  H38 ZIN A   1      20.018  -0.633  12.403  0.00  0.00     0.168 HD
ENDROOT
BRANCH   1  11
ATOM     11  S9  ZIN A   1      17.552   1.082  12.687  0.00  0.00     0.092 S 
ATOM     12  O10 ZIN A   1      17.370   1.750  11.445  0.00  0.00    -0.249 OA
BRANCH  11  13
ATOM     13  C8  ZIN A   1      19.090   1.654  13.460  0.00  0.00     0.179 C 
BRANCH  13  14
ATOM     14  C7  ZIN A   1      19.083   1.292  14.923  0.00  0.00     0.082 A 
ATOM     15  N6  ZIN A   1      18.943   0.029  15.281  0.00  0.00    -0.262 NA
ATOM     16  C5  ZIN A   1      18.929  -0.338  16.548  0.00  0.00     0.120 A 
ATOM     17  C4  ZIN A   1      19.064   0.594  17.559  0.00  0.00     0.059 A 
ATOM     18  C3  ZIN A   1      19.213   1.936  17.227  0.00  0.00     0.104 A 
ATOM     19  C24 ZIN A   1      19.216   2.287  15.875  0.00  0.00     0.127 A 
BRANCH  18  20
ATOM     20  O2  ZIN A   1      19.347   2.882  18.193  0.00  0.00    -0.353 OA
ATOM     21  C1  ZIN A   1      18.155   3.302  18.859  0.00  0.00     0.210 C 
ENDBRANCH  18  20
BRANCH  19  22
ATOM     22  O25 ZIN A   1      19.358   3.587  15.499  0.00  0.00    -0.351 OA
ATOM     23  C26 ZIN A   1      18.161   4.340  15.298  0.00  0.00     0.210 C 
ENDBRANCH  19  22
ENDBRANCH  13  14
ENDBRANCH  11  13
ENDBRANCH   1  11
BRANCH   5  24
ATOM     24  O16 ZIN A   1      17.769  -6.081  10.385  0.00  0.00    -0.290 OA
BRANCH  24  25
ATOM     25  C17 ZIN A   1      17.645  -6.248   8.971  0.00  0.00     0.505 C 
ATOM     26  F18 ZIN A   1      18.877  -6.642   8.439  0.00  0.00    -0.184 F 
ATOM     27  F19 ZIN A   1      16.685  -7.228   8.701  0.00  0.00    -0.184 F 
ENDBRANCH  24  25
ENDBRANCH   5  24
TORSDOF 7
ENDMDL
MODEL 9
REMARK VINA RESULT:      -7.0      4.563      9.209
REMARK  7 active torsions:
REMARK  status: ('A' for Active; 'I' for Inactive)
REMARK    1  A    between atoms: O2_2  and  C3_3 
REMARK    2  A    between atoms: C7_7  and  C8_8 
REMARK    3  A    between atoms: C8_8  and  S9_9 
REMARK    4  A    between atoms: S9_9  and  C11_11 
REMARK    5  A    between atoms: C15_15  and  O16_16 
REMARK    6  A    between atoms: O16_16  and  C17_17 
REMARK    7  A    between atoms: C24_24  and  O25_25 
ROOT
ATOM      1  C11 ZIN A   1      19.341  -0.682  10.772  0.00  0.00     0.198 A 
ATOM      2  N12 ZIN A   1      19.275  -1.466   9.736  0.00  0.00    -0.220 NA
ATOM      3  C13 ZIN A   1      19.140  -0.724   8.608  0.00  0.00     0.089 A 
ATOM      4  C14 ZIN A   1      19.025  -1.044   7.253  0.00  0.00     0.071 A 
ATOM      5  C15 ZIN A   1      18.896  -0.036   6.319  0.00  0.00     0.077 A 
ATOM      6  C20 ZIN A   1      18.880   1.297   6.719  0.00  0.00     0.039 A 
ATOM      7  C21 ZIN A   1      18.991   1.627   8.053  0.00  0.00     0.035 A 
ATOM      8  C22 ZIN A   1      19.121   0.624   9.004  0.00  0.00     0.063 A 
ATOM      9  N23 ZIN A   1      19.244   0.618  10.382  0.00  0.00    -0.331 N 
ATOM     10  H38 ZIN A   1      19.261   1.395  10.962  0.00  0.00     0.168 HD
ENDROOT
BRANCH   1  11
ATOM     11  S9  ZIN A   1      19.519  -1.223  12.439  0.00  0.00     0.092 S 
ATOM     12  O10 ZIN A   1      19.424  -2.637  12.327  0.00  0.00    -0.249 OA
BRANCH  11  13
ATOM     13  C8  ZIN A   1      18.024  -0.579  13.240  0.00  0.00     0.179 C 
BRANCH  13  14
ATOM     14  C7  ZIN A   1      18.291  -0.367  14.707  0.00  0.00     0.082 A 
ATOM     15  N6  ZIN A   1      18.632  -1.393  15.464  0.00  0.00    -0.262 NA
ATOM     16  C5  ZIN A   1      18.875  -1.258  16.753  0.00  0.00     0.120 A 
ATOM     17  C4  ZIN A   1      18.783  -0.024  17.368  0.00  0.00     0.059 A 
ATOM     18  C3  ZIN A   1      18.427   1.085  16.609  0.00  0.00     0.104 A 
ATOM     19  C24 ZIN A   1      18.170   0.901  15.248  0.00  0.00     0.127 A 
BRANCH  18  20
ATOM     20  O2  ZIN A   1      18.325   2.315  17.178  0.00  0.00    -0.353 OA
ATOM     21  C1  ZIN A   1      19.230   2.614  18.242  0.00  0.00     0.210 C 
ENDBRANCH  18  20
BRANCH  19  22
ATOM     22  O25 ZIN A   1      17.817   1.955  14.464  0.00  0.00    -0.351 OA
ATOM     23  C26 ZIN A   1      18.871   2.801  13.999  0.00  0.00     0.210 C 
ENDBRANCH  19  22
ENDBRANCH  13  14
ENDBRANCH  11  13
ENDBRANCH   1  11
BRANCH   5  24
ATOM     24  O16 ZIN A   1      18.786  -0.346   5.000  0.00  0.00    -0.290 OA
BRANCH  24  25
ATOM     25  C17 ZIN A   1      18.277  -1.643   4.679  0.00  0.00     0.505 C 
ATOM     26  F18 ZIN A   1      17.128  -1.512   3.893  0.00  0.00    -0.184 F 
ATOM     27  F19 ZIN A   1      19.247  -2.361   3.971  0.00  0.00    -0.184 F 
ENDBRANCH  24  25
ENDBRANCH   5  24
TORSDOF 7
ENDMDL
