MODEL 1
REMARK VINA RESULT:      -9.4      0.000      0.000
REMARK  9 active torsions:
REMARK  status: ('A' for Active; 'I' for Inactive)
REMARK    1  A    between atoms: C4_4  and  N5_5 
REMARK    2  A    between atoms: N5_5  and  C6_6 
REMARK    3  A    between atoms: C11_11  and  N12_12 
REMARK    4  A    between atoms: N12_12  and  C13_13 
REMARK    5  A    between atoms: C18_18  and  S19_19 
REMARK    6  A    between atoms: S19_19  and  C22_22 
REMARK    7  A    between atoms: C26_26  and  O27_27 
REMARK    8  A    between atoms: O27_27  and  C28_28 
REMARK    9  A    between atoms: C32_32  and  C33_33 
ROOT
ATOM      1  C6  ZIN A   1      19.177   2.135  10.286  0.00  0.00     0.728 A 
ATOM      2  N7  ZIN A   1      18.749   3.109   9.498  0.00  0.00    -0.073 NA
ATOM      3  C8  ZIN A   1      17.901   4.025   9.945  0.00  0.00     0.164 A 
ATOM      4  C9  ZIN A   1      17.461   3.958  11.253  0.00  0.00     0.098 A 
ATOM      5 Cl10 ZIN A   1      16.350   5.137  11.878  0.00  0.00    -0.079 Cl
ATOM      6  C11 ZIN A   1      17.930   2.918  12.061  0.00  0.00     0.170 A 
ATOM      7  N25 ZIN A   1      18.775   2.032  11.544  0.00  0.00    -0.043 NA
ENDROOT
BRANCH   1   8
ATOM      8  N5  ZIN A   1      20.062   1.198   9.781  0.00  0.00    -0.185 N 
ATOM      9  H45 ZIN A   1      20.923   1.481   9.435  0.00  0.00     0.184 HD
BRANCH   8  10
ATOM     10  C4  ZIN A   1      19.714  -0.159   9.770  0.00  0.00     0.083 A 
ATOM     11  C3  ZIN A   1      19.845  -0.920  10.923  0.00  0.00     0.040 A 
ATOM     12  C2  ZIN A   1      19.501  -2.258  10.910  0.00  0.00    -0.053 A 
ATOM     13  C1  ZIN A   1      19.644  -3.083  12.162  0.00  0.00     0.049 C 
ATOM     14  C32 ZIN A   1      19.032  -2.843   9.749  0.00  0.00    -0.045 A 
ATOM     15  C31 ZIN A   1      18.894  -2.091   8.597  0.00  0.00     0.047 A 
ATOM     16  C26 ZIN A   1      19.235  -0.748   8.602  0.00  0.00     0.097 A 
BRANCH  14  17
ATOM     17  C33 ZIN A   1      18.659  -4.304   9.740  0.00  0.00     0.022 C 
ATOM     18  C40 ZIN A   1      19.240  -4.973   8.491  0.00  0.00     0.037 C 
ATOM     19  C39 ZIN A   1      18.791  -6.436   8.449  0.00  0.00     0.233 C 
ATOM     20  N36 ZIN A   1      17.326  -6.501   8.405  0.00  0.00    -0.075 N 
ATOM     21  C35 ZIN A   1      16.764  -5.925   9.632  0.00  0.00     0.233 C 
ATOM     22  H37 ZIN A   1      17.035  -7.464   8.323  0.00  0.00     0.277 HD
ATOM     23  H38 ZIN A   1      16.992  -5.982   7.607  0.00  0.00     0.277 HD
ATOM     24  C34 ZIN A   1      17.135  -4.443   9.720  0.00  0.00     0.037 C 
ENDBRANCH  14  17
BRANCH  16  25
ATOM     25  O27 ZIN A   1      19.105  -0.007   7.469  0.00  0.00    -0.344 OA
BRANCH  25  26
ATOM     26  C28 ZIN A   1      18.496  -0.644   6.344  0.00  0.00     0.120 C 
ATOM     27  C29 ZIN A   1      17.098  -0.059   6.122  0.00  0.00     0.040 C 
ATOM     28  C30 ZIN A   1      19.351  -0.407   5.098  0.00  0.00     0.040 C 
ENDBRANCH  25  26
ENDBRANCH  16  25
ENDBRANCH   8  10
ENDBRANCH   1   8
BRANCH   6  29
ATOM     29  N12 ZIN A   1      17.514   2.810  13.379  0.00  0.00    -0.338 N 
ATOM     30  H47 ZIN A   1      16.656   2.410  13.587  0.00  0.00     0.167 HD
BRANCH  29  31
ATOM     31  C13 ZIN A   1      18.335   3.279  14.411  0.00  0.00     0.055 A 
ATOM     32  C18 ZIN A   1      18.843   2.395  15.352  0.00  0.00     0.086 A 
ATOM     33  C17 ZIN A   1      19.658   2.860  16.366  0.00  0.00     0.026 A 
ATOM     34  C16 ZIN A   1      19.957   4.208  16.450  0.00  0.00     0.002 A 
ATOM     35  C15 ZIN A   1      19.447   5.092  15.517  0.00  0.00     0.002 A 
ATOM     36  C14 ZIN A   1      18.637   4.632  14.498  0.00  0.00     0.031 A 
BRANCH  32  37
ATOM     37  S19 ZIN A   1      18.462   0.678  15.247  0.00  0.00     0.181 S 
ATOM     38  O20 ZIN A   1      17.051   0.641  15.084  0.00  0.00    -0.222 OA
ATOM     39  O21 ZIN A   1      19.330   0.187  14.234  0.00  0.00    -0.222 OA
BRANCH  37  40
ATOM     40  C22 ZIN A   1      18.933   0.009  16.866  0.00  0.00     0.105 C 
ATOM     41  C23 ZIN A   1      17.790   0.224  17.860  0.00  0.00     0.026 C 
ATOM     42  C24 ZIN A   1      19.219  -1.489  16.735  0.00  0.00     0.026 C 
ENDBRANCH  37  40
ENDBRANCH  32  37
ENDBRANCH  29  31
ENDBRANCH   6  29
TORSDOF 9
ENDMDL
MODEL 2
REMARK VINA RESULT:      -9.3      3.316      9.049
REMARK  9 active torsions:
REMARK  status: ('A' for Active; 'I' for Inactive)
REMARK    1  A    between atoms: C4_4  and  N5_5 
REMARK    2  A    between atoms: N5_5  and  C6_6 
REMARK    3  A    between atoms: C11_11  and  N12_12 
REMARK    4  A    between atoms: N12_12  and  C13_13 
REMARK    5  A    between atoms: C18_18  and  S19_19 
REMARK    6  A    between atoms: S19_19  and  C22_22 
REMARK    7  A    between atoms: C26_26  and  O27_27 
REMARK    8  A    between atoms: O27_27  and  C28_28 
REMARK    9  A    between atoms: C32_32  and  C33_33 
ROOT
ATOM      1  C6  ZIN A   1      18.834  -2.421  11.771  0.00  0.00     0.728 A 
ATOM      2  N7  ZIN A   1      18.200  -3.476  12.259  0.00  0.00    -0.073 NA
ATOM      3  C8  ZIN A   1      17.486  -4.268  11.472  0.00  0.00     0.164 A 
ATOM      4  C9  ZIN A   1      17.408  -3.985  10.121  0.00  0.00     0.098 A 
ATOM      5 Cl10 ZIN A   1      16.485  -4.997   9.054  0.00  0.00    -0.079 Cl
ATOM      6  C11 ZIN A   1      18.088  -2.865   9.635  0.00  0.00     0.170 A 
ATOM      7  N25 ZIN A   1      18.779  -2.112  10.484  0.00  0.00    -0.043 NA
ENDROOT
BRANCH   1   8
ATOM      8  N5  ZIN A   1      19.567  -1.618  12.628  0.00  0.00    -0.185 N 
ATOM      9  H45 ZIN A   1      20.306  -1.994  13.132  0.00  0.00     0.184 HD
BRANCH   8  10
ATOM     10  C4  ZIN A   1      19.244  -0.262  12.766  0.00  0.00     0.083 A 
ATOM     11  C3  ZIN A   1      19.776   0.672  11.889  0.00  0.00     0.040 A 
ATOM     12  C2  ZIN A   1      19.455   2.010  12.027  0.00  0.00    -0.053 A 
ATOM     13  C1  ZIN A   1      20.033   3.024  11.074  0.00  0.00     0.049 C 
ATOM     14  C32 ZIN A   1      18.609   2.420  13.040  0.00  0.00    -0.045 A 
ATOM     15  C31 ZIN A   1      18.071   1.495  13.915  0.00  0.00     0.047 A 
ATOM     16  C26 ZIN A   1      18.387   0.152  13.783  0.00  0.00     0.097 A 
BRANCH  14  17
ATOM     17  C33 ZIN A   1      18.264   3.880  13.186  0.00  0.00     0.022 C 
ATOM     18  C40 ZIN A   1      17.863   4.169  14.635  0.00  0.00     0.037 C 
ATOM     19  C39 ZIN A   1      17.437   5.634  14.758  0.00  0.00     0.233 C 
ATOM     20  N36 ZIN A   1      16.296   5.892  13.872  0.00  0.00    -0.075 N 
ATOM     21  C35 ZIN A   1      16.694   5.686  12.474  0.00  0.00     0.233 C 
ATOM     22  H37 ZIN A   1      15.985   6.844  13.995  0.00  0.00     0.277 HD
ATOM     23  H38 ZIN A   1      15.544   5.261  14.103  0.00  0.00     0.277 HD
ATOM     24  C34 ZIN A   1      17.091   4.223  12.264  0.00  0.00     0.037 C 
ENDBRANCH  14  17
BRANCH  16  25
ATOM     25  O27 ZIN A   1      17.863  -0.760  14.646  0.00  0.00    -0.344 OA
BRANCH  25  26
ATOM     26  C28 ZIN A   1      18.165  -0.588  16.032  0.00  0.00     0.120 C 
ATOM     27  C29 ZIN A   1      16.889  -0.773  16.858  0.00  0.00     0.040 C 
ATOM     28  C30 ZIN A   1      19.204  -1.626  16.460  0.00  0.00     0.040 C 
ENDBRANCH  25  26
ENDBRANCH  16  25
ENDBRANCH   8  10
ENDBRANCH   1   8
BRANCH   6  29
ATOM     29  N12 ZIN A   1      18.037  -2.542   8.287  0.00  0.00    -0.338 N 
ATOM     30  H47 ZIN A   1      17.836  -3.227   7.631  0.00  0.00     0.167 HD
BRANCH  29  31
ATOM     31  C13 ZIN A   1      18.276  -1.227   7.875  0.00  0.00     0.055 A 
ATOM     32  C18 ZIN A   1      18.856  -0.981   6.637  0.00  0.00     0.086 A 
ATOM     33  C17 ZIN A   1      19.085   0.319   6.229  0.00  0.00     0.026 A 
ATOM     34  C16 ZIN A   1      18.748   1.373   7.058  0.00  0.00     0.002 A 
ATOM     35  C15 ZIN A   1      18.176   1.132   8.293  0.00  0.00     0.002 A 
ATOM     36  C14 ZIN A   1      17.939  -0.165   8.704  0.00  0.00     0.031 A 
BRANCH  32  37
ATOM     37  S19 ZIN A   1      19.286  -2.324   5.581  0.00  0.00     0.181 S 
ATOM     38  O20 ZIN A   1      19.867  -1.703   4.443  0.00  0.00    -0.222 OA
ATOM     39  O21 ZIN A   1      20.046  -3.192   6.410  0.00  0.00    -0.222 OA
BRANCH  37  40
ATOM     40  C22 ZIN A   1      17.698  -3.087   5.148  0.00  0.00     0.105 C 
ATOM     41  C23 ZIN A   1      17.034  -2.283   4.028  0.00  0.00     0.026 C 
ATOM     42  C24 ZIN A   1      17.935  -4.522   4.674  0.00  0.00     0.026 C 
ENDBRANCH  37  40
ENDBRANCH  32  37
ENDBRANCH  29  31
ENDBRANCH   6  29
TORSDOF 9
ENDMDL
MODEL 3
REMARK VINA RESULT:      -9.2      1.649      2.564
REMARK  9 active torsions:
REMARK  status: ('A' for Active; 'I' for Inactive)
REMARK    1  A    between atoms: C4_4  and  N5_5 
REMARK    2  A    between atoms: N5_5  and  C6_6 
REMARK    3  A    between atoms: C11_11  and  N12_12 
REMARK    4  A    between atoms: N12_12  and  C13_13 
REMARK    5  A    between atoms: C18_18  and  S19_19 
REMARK    6  A    between atoms: S19_19  and  C22_22 
REMARK    7  A    between atoms: C26_26  and  O27_27 
REMARK    8  A    between atoms: O27_27  and  C28_28 
REMARK    9  A    between atoms: C32_32  and  C33_33 
ROOT
ATOM      1  C6  ZIN A   1      19.216   2.303  10.925  0.00  0.00     0.728 A 
ATOM      2  N7  ZIN A   1      18.325   3.162  10.452  0.00  0.00    -0.073 NA
ATOM      3  C8  ZIN A   1      17.646   3.958  11.266  0.00  0.00     0.164 A 
ATOM      4  C9  ZIN A   1      17.876   3.887  12.627  0.00  0.00     0.098 A 
ATOM      5 Cl10 ZIN A   1      17.008   4.911  13.728  0.00  0.00    -0.079 Cl
ATOM      6  C11 ZIN A   1      18.822   2.971  13.096  0.00  0.00     0.170 A 
ATOM      7  N25 ZIN A   1      19.462   2.201  12.223  0.00  0.00    -0.043 NA
ENDROOT
BRANCH   1   8
ATOM      8  N5  ZIN A   1      19.903   1.489  10.041  0.00  0.00    -0.185 N 
ATOM      9  H45 ZIN A   1      20.579   1.868   9.457  0.00  0.00     0.184 HD
BRANCH   8  10
ATOM     10  C4  ZIN A   1      19.624   0.117   9.990  0.00  0.00     0.083 A 
ATOM     11  C3  ZIN A   1      19.768  -0.664  11.127  0.00  0.00     0.040 A 
ATOM     12  C2  ZIN A   1      19.491  -2.017  11.075  0.00  0.00    -0.053 A 
ATOM     13  C1  ZIN A   1      19.647  -2.865  12.310  0.00  0.00     0.049 C 
ATOM     14  C32 ZIN A   1      19.076  -2.596   9.890  0.00  0.00    -0.045 A 
ATOM     15  C31 ZIN A   1      18.925  -1.823   8.753  0.00  0.00     0.047 A 
ATOM     16  C26 ZIN A   1      19.200  -0.465   8.798  0.00  0.00     0.097 A 
BRANCH  14  17
ATOM     17  C33 ZIN A   1      18.776  -4.072   9.838  0.00  0.00     0.022 C 
ATOM     18  C40 ZIN A   1      19.390  -4.675   8.572  0.00  0.00     0.037 C 
ATOM     19  C39 ZIN A   1      19.014  -6.157   8.486  0.00  0.00     0.233 C 
ATOM     20  N36 ZIN A   1      17.554  -6.293   8.437  0.00  0.00    -0.075 N 
ATOM     21  C35 ZIN A   1      16.964  -5.782   9.680  0.00  0.00     0.233 C 
ATOM     22  H37 ZIN A   1      17.312  -7.266   8.327  0.00  0.00     0.277 HD
ATOM     23  H38 ZIN A   1      17.195  -5.768   7.654  0.00  0.00     0.277 HD
ATOM     24  C34 ZIN A   1      17.260  -4.286   9.811  0.00  0.00     0.037 C 
ENDBRANCH  14  17
BRANCH  16  25
ATOM     25  O27 ZIN A   1      19.058   0.296   7.680  0.00  0.00    -0.344 OA
BRANCH  25  26
ATOM     26  C28 ZIN A   1      18.531  -0.349   6.519  0.00  0.00     0.120 C 
ATOM     27  C29 ZIN A   1      17.065   0.049   6.334  0.00  0.00     0.040 C 
ATOM     28  C30 ZIN A   1      19.334   0.080   5.289  0.00  0.00     0.040 C 
ENDBRANCH  25  26
ENDBRANCH  16  25
ENDBRANCH   8  10
ENDBRANCH   1   8
BRANCH   6  29
ATOM     29  N12 ZIN A   1      19.085   2.865  14.454  0.00  0.00    -0.338 N 
ATOM     30  H47 ZIN A   1      19.535   3.587  14.919  0.00  0.00     0.167 HD
BRANCH  29  31
ATOM     31  C13 ZIN A   1      18.700   1.715  15.152  0.00  0.00     0.055 A 
ATOM     32  C18 ZIN A   1      18.778   1.685  16.538  0.00  0.00     0.086 A 
ATOM     33  C17 ZIN A   1      18.392   0.551  17.226  0.00  0.00     0.026 A 
ATOM     34  C16 ZIN A   1      17.940  -0.557  16.534  0.00  0.00     0.002 A 
ATOM     35  C15 ZIN A   1      17.866  -0.532  15.153  0.00  0.00     0.002 A 
ATOM     36  C14 ZIN A   1      18.245   0.600  14.461  0.00  0.00     0.031 A 
BRANCH  32  37
ATOM     37  S19 ZIN A   1      19.355   3.096  17.421  0.00  0.00     0.181 S 
ATOM     38  O20 ZIN A   1      19.613   2.610  18.731  0.00  0.00    -0.222 OA
ATOM     39  O21 ZIN A   1      20.403   3.612  16.612  0.00  0.00    -0.222 OA
BRANCH  37  40
ATOM     40  C22 ZIN A   1      17.942   4.234  17.432  0.00  0.00     0.105 C 
ATOM     41  C23 ZIN A   1      17.349   4.298  18.841  0.00  0.00     0.026 C 
ATOM     42  C24 ZIN A   1      18.407   5.629  17.011  0.00  0.00     0.026 C 
ENDBRANCH  37  40
ENDBRANCH  32  37
ENDBRANCH  29  31
ENDBRANCH   6  29
TORSDOF 9
ENDMDL
MODEL 4
REMARK VINA RESULT:      -9.2      2.761      4.975
REMARK  9 active torsions:
REMARK  status: ('A' for Active; 'I' for Inactive)
REMARK    1  A    between atoms: C4_4  and  N5_5 
REMARK    2  A    between atoms: N5_5  and  C6_6 
REMARK    3  A    between atoms: C11_11  and  N12_12 
REMARK    4  A    between atoms: N12_12  and  C13_13 
REMARK    5  A    between atoms: C18_18  and  S19_19 
REMARK    6  A    between atoms: S19_19  and  C22_22 
REMARK    7  A    between atoms: C26_26  and  O27_27 
REMARK    8  A    between atoms: O27_27  and  C28_28 
REMARK    9  A    between atoms: C32_32  and  C33_33 
ROOT
ATOM      1  C6  ZIN A   1      19.553  -0.522  13.838  0.00  0.00     0.728 A 
ATOM      2  N7  ZIN A   1      19.169  -1.529  14.607  0.00  0.00    -0.073 NA
ATOM      3  C8  ZIN A   1      18.352  -1.332  15.633  0.00  0.00     0.164 A 
ATOM      4  C9  ZIN A   1      17.898  -0.054  15.898  0.00  0.00     0.098 A 
ATOM      5 Cl10 ZIN A   1      16.828   0.249  17.232  0.00  0.00    -0.079 Cl
ATOM      6  C11 ZIN A   1      18.321   0.989  15.069  0.00  0.00     0.170 A 
ATOM      7  N25 ZIN A   1      19.144   0.719  14.062  0.00  0.00    -0.043 NA
ENDROOT
BRANCH   1   8
ATOM      8  N5  ZIN A   1      20.407  -0.770  12.777  0.00  0.00    -0.185 N 
ATOM      9  H45 ZIN A   1      21.315  -1.067  12.945  0.00  0.00     0.184 HD
BRANCH   8  10
ATOM     10  C4  ZIN A   1      19.960  -0.593  11.462  0.00  0.00     0.083 A 
ATOM     11  C3  ZIN A   1      19.784   0.686  10.953  0.00  0.00     0.040 A 
ATOM     12  C2  ZIN A   1      19.343   0.858   9.655  0.00  0.00    -0.053 A 
ATOM     13  C1  ZIN A   1      19.153   2.248   9.104  0.00  0.00     0.049 C 
ATOM     14  C32 ZIN A   1      19.070  -0.241   8.863  0.00  0.00    -0.045 A 
ATOM     15  C31 ZIN A   1      19.247  -1.519   9.360  0.00  0.00     0.047 A 
ATOM     16  C26 ZIN A   1      19.690  -1.700  10.661  0.00  0.00     0.097 A 
BRANCH  14  17
ATOM     17  C33 ZIN A   1      18.588  -0.047   7.448  0.00  0.00     0.022 C 
ATOM     18  C40 ZIN A   1      17.067  -0.219   7.396  0.00  0.00     0.037 C 
ATOM     19  C39 ZIN A   1      16.595  -0.099   5.945  0.00  0.00     0.233 C 
ATOM     20  N36 ZIN A   1      17.235  -1.138   5.131  0.00  0.00    -0.075 N 
ATOM     21  C35 ZIN A   1      18.689  -0.937   5.117  0.00  0.00     0.233 C 
ATOM     22  H37 ZIN A   1      16.881  -1.091   4.187  0.00  0.00     0.277 HD
ATOM     23  H38 ZIN A   1      17.025  -2.045   5.521  0.00  0.00     0.277 HD
ATOM     24  C34 ZIN A   1      19.241  -1.089   6.537  0.00  0.00     0.037 C 
ENDBRANCH  14  17
BRANCH  16  25
ATOM     25  O27 ZIN A   1      19.860  -2.956  11.154  0.00  0.00    -0.344 OA
BRANCH  25  26
ATOM     26  C28 ZIN A   1      18.977  -3.969  10.666  0.00  0.00     0.120 C 
ATOM     27  C29 ZIN A   1      19.797  -5.119  10.076  0.00  0.00     0.040 C 
ATOM     28  C30 ZIN A   1      18.118  -4.494  11.818  0.00  0.00     0.040 C 
ENDBRANCH  25  26
ENDBRANCH  16  25
ENDBRANCH   8  10
ENDBRANCH   1   8
BRANCH   6  29
ATOM     29  N12 ZIN A   1      17.891   2.288  15.298  0.00  0.00    -0.338 N 
ATOM     30  H47 ZIN A   1      17.416   2.505  16.115  0.00  0.00     0.167 HD
BRANCH  29  31
ATOM     31  C13 ZIN A   1      18.144   3.285  14.350  0.00  0.00     0.055 A 
ATOM     32  C18 ZIN A   1      18.858   4.420  14.708  0.00  0.00     0.086 A 
ATOM     33  C17 ZIN A   1      19.111   5.401  13.768  0.00  0.00     0.026 A 
ATOM     34  C16 ZIN A   1      18.643   5.256  12.475  0.00  0.00     0.002 A 
ATOM     35  C15 ZIN A   1      17.927   4.129  12.117  0.00  0.00     0.002 A 
ATOM     36  C14 ZIN A   1      17.676   3.143  13.050  0.00  0.00     0.031 A 
BRANCH  32  37
ATOM     37  S19 ZIN A   1      19.453   4.606  16.356  0.00  0.00     0.181 S 
ATOM     38  O20 ZIN A   1      20.097   3.371  16.638  0.00  0.00    -0.222 OA
ATOM     39  O21 ZIN A   1      20.184   5.824  16.330  0.00  0.00    -0.222 OA
BRANCH  37  40
ATOM     40  C22 ZIN A   1      17.954   4.785  17.362  0.00  0.00     0.105 C 
ATOM     41  C23 ZIN A   1      18.065   3.902  18.606  0.00  0.00     0.026 C 
ATOM     42  C24 ZIN A   1      17.796   6.246  17.786  0.00  0.00     0.026 C 
ENDBRANCH  37  40
ENDBRANCH  32  37
ENDBRANCH  29  31
ENDBRANCH   6  29
TORSDOF 9
ENDMDL
MODEL 5
REMARK VINA RESULT:      -9.1      2.944      7.685
REMARK  9 active torsions:
REMARK  status: ('A' for Active; 'I' for Inactive)
REMARK    1  A    between atoms: C4_4  and  N5_5 
REMARK    2  A    between atoms: N5_5  and  C6_6 
REMARK    3  A    between atoms: C11_11  and  N12_12 
REMARK    4  A    between atoms: N12_12  and  C13_13 
REMARK    5  A    between atoms: C18_18  and  S19_19 
REMARK    6  A    between atoms: S19_19  and  C22_22 
REMARK    7  A    between atoms: C26_26  and  O27_27 
REMARK    8  A    between atoms: O27_27  and  C28_28 
REMARK    9  A    between atoms: C32_32  and  C33_33 
ROOT
ATOM      1  C6  ZIN A   1      19.358   1.475   9.309  0.00  0.00     0.728 A 
ATOM      2  N7  ZIN A   1      19.428   2.010   8.100  0.00  0.00    -0.073 NA
ATOM      3  C8  ZIN A   1      18.822   1.443   7.067  0.00  0.00     0.164 A 
ATOM      4  C9  ZIN A   1      18.106   0.276   7.261  0.00  0.00     0.098 A 
ATOM      5 Cl10 ZIN A   1      17.297  -0.500   5.935  0.00  0.00    -0.079 Cl
ATOM      6  C11 ZIN A   1      18.051  -0.265   8.548  0.00  0.00     0.170 A 
ATOM      7  N25 ZIN A   1      18.688   0.355   9.536  0.00  0.00    -0.043 NA
ENDROOT
BRANCH   1   8
ATOM      8  N5  ZIN A   1      20.007   2.099  10.362  0.00  0.00    -0.185 N 
ATOM      9  H45 ZIN A   1      20.676   2.779  10.184  0.00  0.00     0.184 HD
BRANCH   8  10
ATOM     10  C4  ZIN A   1      19.698   1.747  11.682  0.00  0.00     0.083 A 
ATOM     11  C3  ZIN A   1      20.006   0.479  12.153  0.00  0.00     0.040 A 
ATOM     12  C2  ZIN A   1      19.700   0.134  13.457  0.00  0.00    -0.053 A 
ATOM     13  C1  ZIN A   1      20.035  -1.243  13.968  0.00  0.00     0.049 C 
ATOM     14  C32 ZIN A   1      19.083   1.048  14.290  0.00  0.00    -0.045 A 
ATOM     15  C31 ZIN A   1      18.778   2.315  13.829  0.00  0.00     0.047 A 
ATOM     16  C26 ZIN A   1      19.082   2.669  12.524  0.00  0.00     0.097 A 
BRANCH  14  17
ATOM     17  C33 ZIN A   1      18.752   0.666  15.710  0.00  0.00     0.022 C 
ATOM     18  C40 ZIN A   1      17.296   0.197  15.788  0.00  0.00     0.037 C 
ATOM     19  C39 ZIN A   1      16.943  -0.113  17.245  0.00  0.00     0.233 C 
ATOM     20  N36 ZIN A   1      17.115   1.094  18.061  0.00  0.00    -0.075 N 
ATOM     21  C35 ZIN A   1      18.523   1.508  18.049  0.00  0.00     0.233 C 
ATOM     22  H37 ZIN A   1      16.831   0.900  19.010  0.00  0.00     0.277 HD
ATOM     23  H38 ZIN A   1      16.544   1.836  17.686  0.00  0.00     0.277 HD
ATOM     24  C34 ZIN A   1      18.936   1.881  16.623  0.00  0.00     0.037 C 
ENDBRANCH  14  17
BRANCH  16  25
ATOM     25  O27 ZIN A   1      18.778   3.913  12.067  0.00  0.00    -0.344 OA
BRANCH  25  26
ATOM     26  C28 ZIN A   1      17.441   4.127  11.609  0.00  0.00     0.120 C 
ATOM     27  C29 ZIN A   1      16.729   5.102  12.550  0.00  0.00     0.040 C 
ATOM     28  C30 ZIN A   1      17.473   4.713  10.196  0.00  0.00     0.040 C 
ENDBRANCH  25  26
ENDBRANCH  16  25
ENDBRANCH   8  10
ENDBRANCH   1   8
BRANCH   6  29
ATOM     29  N12 ZIN A   1      17.346  -1.434   8.790  0.00  0.00    -0.338 N 
ATOM     30  H47 ZIN A   1      16.525  -1.615   8.305  0.00  0.00     0.167 HD
BRANCH  29  31
ATOM     31  C13 ZIN A   1      17.818  -2.353   9.734  0.00  0.00     0.055 A 
ATOM     32  C18 ZIN A   1      18.516  -3.479   9.319  0.00  0.00     0.086 A 
ATOM     33  C17 ZIN A   1      18.986  -4.381  10.253  0.00  0.00     0.026 A 
ATOM     34  C16 ZIN A   1      18.751  -4.169  11.599  0.00  0.00     0.002 A 
ATOM     35  C15 ZIN A   1      18.051  -3.051  12.015  0.00  0.00     0.002 A 
ATOM     36  C14 ZIN A   1      17.583  -2.143  11.086  0.00  0.00     0.031 A 
BRANCH  32  37
ATOM     37  S19 ZIN A   1      18.816  -3.750   7.604  0.00  0.00     0.181 S 
ATOM     38  O20 ZIN A   1      17.528  -3.686   7.009  0.00  0.00    -0.222 OA
ATOM     39  O21 ZIN A   1      19.825  -2.807   7.270  0.00  0.00    -0.222 OA
BRANCH  37  40
ATOM     40  C22 ZIN A   1      19.471  -5.440   7.521  0.00  0.00     0.105 C 
ATOM     41  C23 ZIN A   1      18.819  -6.184   6.354  0.00  0.00     0.026 C 
ATOM     42  C24 ZIN A   1      20.986  -5.389   7.309  0.00  0.00     0.026 C 
ENDBRANCH  37  40
ENDBRANCH  32  37
ENDBRANCH  29  31
ENDBRANCH   6  29
TORSDOF 9
ENDMDL
MODEL 6
REMARK VINA RESULT:      -9.1      3.628      6.799
REMARK  9 active torsions:
REMARK  status: ('A' for Active; 'I' for Inactive)
REMARK    1  A    between atoms: C4_4  and  N5_5 
REMARK    2  A    between atoms: N5_5  and  C6_6 
REMARK    3  A    between atoms: C11_11  and  N12_12 
REMARK    4  A    between atoms: N12_12  and  C13_13 
REMARK    5  A    between atoms: C18_18  and  S19_19 
REMARK    6  A    between atoms: S19_19  and  C22_22 
REMARK    7  A    between atoms: C26_26  and  O27_27 
REMARK    8  A    between atoms: O27_27  and  C28_28 
REMARK    9  A    between atoms: C32_32  and  C33_33 
ROOT
ATOM      1  C6  ZIN A   1      19.516  -3.920   9.469  0.00  0.00     0.728 A 
ATOM      2  N7  ZIN A   1      19.780  -4.336  10.698  0.00  0.00    -0.073 NA
ATOM      3  C8  ZIN A   1      19.351  -3.660  11.755  0.00  0.00     0.164 A 
ATOM      4  C9  ZIN A   1      18.618  -2.504  11.565  0.00  0.00     0.098 A 
ATOM      5 Cl10 ZIN A   1      18.038  -1.588  12.921  0.00  0.00    -0.079 Cl
ATOM      6  C11 ZIN A   1      18.356  -2.089  10.256  0.00  0.00     0.170 A 
ATOM      7  N25 ZIN A   1      18.821  -2.814   9.244  0.00  0.00    -0.043 NA
ENDROOT
BRANCH   1   8
ATOM      8  N5  ZIN A   1      19.982  -4.655   8.392  0.00  0.00    -0.185 N 
ATOM      9  H45 ZIN A   1      20.748  -5.240   8.500  0.00  0.00     0.184 HD
BRANCH   8  10
ATOM     10  C4  ZIN A   1      19.348  -4.553   7.148  0.00  0.00     0.083 A 
ATOM     11  C3  ZIN A   1      19.528  -3.420   6.367  0.00  0.00     0.040 A 
ATOM     12  C2  ZIN A   1      18.901  -3.321   5.139  0.00  0.00    -0.053 A 
ATOM     13  C1  ZIN A   1      19.097  -2.091   4.291  0.00  0.00     0.049 C 
ATOM     14  C32 ZIN A   1      18.090  -4.347   4.689  0.00  0.00    -0.045 A 
ATOM     15  C31 ZIN A   1      17.910  -5.480   5.459  0.00  0.00     0.047 A 
ATOM     16  C26 ZIN A   1      18.536  -5.587   6.691  0.00  0.00     0.097 A 
BRANCH  14  17
ATOM     17  C33 ZIN A   1      17.409  -4.233   3.349  0.00  0.00     0.022 C 
ATOM     18  C40 ZIN A   1      15.923  -4.573   3.499  0.00  0.00     0.037 C 
ATOM     19  C39 ZIN A   1      15.255  -4.533   2.123  0.00  0.00     0.233 C 
ATOM     20  N36 ZIN A   1      15.895  -5.511   1.236  0.00  0.00    -0.075 N 
ATOM     21  C35 ZIN A   1      17.302  -5.151   1.030  0.00  0.00     0.233 C 
ATOM     22  H37 ZIN A   1      15.418  -5.520   0.347  0.00  0.00     0.277 HD
ATOM     23  H38 ZIN A   1      15.841  -6.427   1.654  0.00  0.00     0.277 HD
ATOM     24  C34 ZIN A   1      18.050  -5.215   2.364  0.00  0.00     0.037 C 
ENDBRANCH  14  17
BRANCH  16  25
ATOM     25  O27 ZIN A   1      18.355  -6.699   7.453  0.00  0.00    -0.344 OA
BRANCH  25  26
ATOM     26  C28 ZIN A   1      17.047  -6.913   7.988  0.00  0.00     0.120 C 
ATOM     27  C29 ZIN A   1      16.643  -8.375   7.778  0.00  0.00     0.040 C 
ATOM     28  C30 ZIN A   1      17.051  -6.596   9.485  0.00  0.00     0.040 C 
ENDBRANCH  25  26
ENDBRANCH  16  25
ENDBRANCH   8  10
ENDBRANCH   1   8
BRANCH   6  29
ATOM     29  N12 ZIN A   1      17.625  -0.935  10.018  0.00  0.00    -0.338 N 
ATOM     30  H47 ZIN A   1      16.831  -0.746  10.543  0.00  0.00     0.167 HD
BRANCH  29  31
ATOM     31  C13 ZIN A   1      18.031  -0.044   9.020  0.00  0.00     0.055 A 
ATOM     32  C18 ZIN A   1      18.463   1.232   9.359  0.00  0.00     0.086 A 
ATOM     33  C17 ZIN A   1      18.870   2.107   8.372  0.00  0.00     0.026 A 
ATOM     34  C16 ZIN A   1      18.836   1.719   7.045  0.00  0.00     0.002 A 
ATOM     35  C15 ZIN A   1      18.401   0.452   6.703  0.00  0.00     0.002 A 
ATOM     36  C14 ZIN A   1      17.999  -0.430   7.686  0.00  0.00     0.031 A 
BRANCH  32  37
ATOM     37  S19 ZIN A   1      18.506   1.728  11.049  0.00  0.00     0.181 S 
ATOM     38  O20 ZIN A   1      17.199   1.448  11.530  0.00  0.00    -0.222 OA
ATOM     39  O21 ZIN A   1      19.641   1.061  11.583  0.00  0.00    -0.222 OA
BRANCH  37  40
ATOM     40  C22 ZIN A   1      18.791   3.519  10.988  0.00  0.00     0.105 C 
ATOM     41  C23 ZIN A   1      17.448   4.251  11.032  0.00  0.00     0.026 C 
ATOM     42  C24 ZIN A   1      19.641   3.940  12.189  0.00  0.00     0.026 C 
ENDBRANCH  37  40
ENDBRANCH  32  37
ENDBRANCH  29  31
ENDBRANCH   6  29
TORSDOF 9
ENDMDL
MODEL 7
REMARK VINA RESULT:      -9.0      1.635      2.713
REMARK  9 active torsions:
REMARK  status: ('A' for Active; 'I' for Inactive)
REMARK    1  A    between atoms: C4_4  and  N5_5 
REMARK    2  A    between atoms: N5_5  and  C6_6 
REMARK    3  A    between atoms: C11_11  and  N12_12 
REMARK    4  A    between atoms: N12_12  and  C13_13 
REMARK    5  A    between atoms: C18_18  and  S19_19 
REMARK    6  A    between atoms: S19_19  and  C22_22 
REMARK    7  A    between atoms: C26_26  and  O27_27 
REMARK    8  A    between atoms: O27_27  and  C28_28 
REMARK    9  A    between atoms: C32_32  and  C33_33 
ROOT
ATOM      1  C6  ZIN A   1      19.439   0.968   9.909  0.00  0.00     0.728 A 
ATOM      2  N7  ZIN A   1      19.342   1.936   9.010  0.00  0.00    -0.073 NA
ATOM      3  C8  ZIN A   1      18.599   3.009   9.240  0.00  0.00     0.164 A 
ATOM      4  C9  ZIN A   1      17.918   3.115  10.438  0.00  0.00     0.098 A 
ATOM      5 Cl10 ZIN A   1      16.933   4.504  10.780  0.00  0.00    -0.079 Cl
ATOM      6  C11 ZIN A   1      18.039   2.078  11.367  0.00  0.00     0.170 A 
ATOM      7  N25 ZIN A   1      18.798   1.029  11.067  0.00  0.00    -0.043 NA
ENDROOT
BRANCH   1   8
ATOM      8  N5  ZIN A   1      20.225  -0.137   9.630  0.00  0.00    -0.185 N 
ATOM      9  H45 ZIN A   1      21.186  -0.038   9.539  0.00  0.00     0.184 HD
BRANCH   8  10
ATOM     10  C4  ZIN A   1      19.633  -1.397   9.479  0.00  0.00     0.083 A 
ATOM     11  C3  ZIN A   1      19.474  -2.227  10.579  0.00  0.00     0.040 A 
ATOM     12  C2  ZIN A   1      18.889  -3.470  10.428  0.00  0.00    -0.053 A 
ATOM     13  C1  ZIN A   1      18.717  -4.371  11.624  0.00  0.00     0.049 C 
ATOM     14  C32 ZIN A   1      18.467  -3.892   9.181  0.00  0.00    -0.045 A 
ATOM     15  C31 ZIN A   1      18.618  -3.069   8.081  0.00  0.00     0.047 A 
ATOM     16  C26 ZIN A   1      19.201  -1.820   8.224  0.00  0.00     0.097 A 
BRANCH  14  17
ATOM     17  C33 ZIN A   1      17.831  -5.249   9.022  0.00  0.00     0.022 C 
ATOM     18  C40 ZIN A   1      18.463  -5.975   7.831  0.00  0.00     0.037 C 
ATOM     19  C39 ZIN A   1      17.758  -7.318   7.627  0.00  0.00     0.233 C 
ATOM     20  N36 ZIN A   1      16.333  -7.092   7.364  0.00  0.00    -0.075 N 
ATOM     21  C35 ZIN A   1      15.705  -6.461   8.531  0.00  0.00     0.233 C 
ATOM     22  H37 ZIN A   1      15.882  -7.975   7.177  0.00  0.00     0.277 HD
ATOM     23  H38 ZIN A   1      16.232  -6.489   6.562  0.00  0.00     0.277 HD
ATOM     24  C34 ZIN A   1      16.330  -5.085   8.769  0.00  0.00     0.037 C 
ENDBRANCH  14  17
BRANCH  16  25
ATOM     25  O27 ZIN A   1      19.355  -1.011   7.142  0.00  0.00    -0.344 OA
BRANCH  25  26
ATOM     26  C28 ZIN A   1      18.386  -1.133   6.098  0.00  0.00     0.120 C 
ATOM     27  C29 ZIN A   1      17.409   0.043   6.170  0.00  0.00     0.040 C 
ATOM     28  C30 ZIN A   1      19.094  -1.126   4.742  0.00  0.00     0.040 C 
ENDBRANCH  25  26
ENDBRANCH  16  25
ENDBRANCH   8  10
ENDBRANCH   1   8
BRANCH   6  29
ATOM     29  N12 ZIN A   1      17.373   2.141  12.583  0.00  0.00    -0.338 N 
ATOM     30  H47 ZIN A   1      16.549   2.645  12.659  0.00  0.00     0.167 HD
BRANCH  29  31
ATOM     31  C13 ZIN A   1      17.893   1.477  13.699  0.00  0.00     0.055 A 
ATOM     32  C18 ZIN A   1      18.513   2.198  14.710  0.00  0.00     0.086 A 
ATOM     33  C17 ZIN A   1      19.020   1.541  15.814  0.00  0.00     0.026 A 
ATOM     34  C16 ZIN A   1      18.919   0.165  15.907  0.00  0.00     0.002 A 
ATOM     35  C15 ZIN A   1      18.307  -0.557  14.899  0.00  0.00     0.002 A 
ATOM     36  C14 ZIN A   1      17.793   0.095  13.795  0.00  0.00     0.031 A 
BRANCH  32  37
ATOM     37  S19 ZIN A   1      18.642   3.951  14.593  0.00  0.00     0.181 S 
ATOM     38  O20 ZIN A   1      19.510   4.166  13.489  0.00  0.00    -0.222 OA
ATOM     39  O21 ZIN A   1      17.295   4.402  14.564  0.00  0.00    -0.222 OA
BRANCH  37  40
ATOM     40  C22 ZIN A   1      19.447   4.451  16.141  0.00  0.00     0.105 C 
ATOM     41  C23 ZIN A   1      20.423   5.596  15.862  0.00  0.00     0.026 C 
ATOM     42  C24 ZIN A   1      18.386   4.917  17.139  0.00  0.00     0.026 C 
ENDBRANCH  37  40
ENDBRANCH  32  37
ENDBRANCH  29  31
ENDBRANCH   6  29
TORSDOF 9
ENDMDL
MODEL 8
REMARK VINA RESULT:      -8.8      1.555      3.235
REMARK  9 active torsions:
REMARK  status: ('A' for Active; 'I' for Inactive)
REMARK    1  A    between atoms: C4_4  and  N5_5 
REMARK    2  A    between atoms: N5_5  and  C6_6 
REMARK    3  A    between atoms: C11_11  and  N12_12 
REMARK    4  A    between atoms: N12_12  and  C13_13 
REMARK    5  A    between atoms: C18_18  and  S19_19 
REMARK    6  A    between atoms: S19_19  and  C22_22 
REMARK    7  A    between atoms: C26_26  and  O27_27 
REMARK    8  A    between atoms: O27_27  and  C28_28 
REMARK    9  A    between atoms: C32_32  and  C33_33 
ROOT
ATOM      1  C6  ZIN A   1      19.119   2.024  10.397  0.00  0.00     0.728 A 
ATOM      2  N7  ZIN A   1      18.714   2.979   9.575  0.00  0.00    -0.073 NA
ATOM      3  C8  ZIN A   1      17.876   3.921   9.983  0.00  0.00     0.164 A 
ATOM      4  C9  ZIN A   1      17.421   3.901  11.289  0.00  0.00     0.098 A 
ATOM      5 Cl10 ZIN A   1      16.322   5.115  11.865  0.00  0.00    -0.079 Cl
ATOM      6  C11 ZIN A   1      17.866   2.879  12.132  0.00  0.00     0.170 A 
ATOM      7  N25 ZIN A   1      18.703   1.965  11.653  0.00  0.00    -0.043 NA
ENDROOT
BRANCH   1   8
ATOM      8  N5  ZIN A   1      19.995   1.058   9.930  0.00  0.00    -0.185 N 
ATOM      9  H45 ZIN A   1      20.861   0.945  10.352  0.00  0.00     0.184 HD
BRANCH   8  10
ATOM     10  C4  ZIN A   1      19.629   0.244   8.850  0.00  0.00     0.083 A 
ATOM     11  C3  ZIN A   1      19.625   0.759   7.562  0.00  0.00     0.040 A 
ATOM     12  C2  ZIN A   1      19.264  -0.046   6.498  0.00  0.00    -0.053 A 
ATOM     13  C1  ZIN A   1      19.260   0.514   5.099  0.00  0.00     0.049 C 
ATOM     14  C32 ZIN A   1      18.902  -1.362   6.714  0.00  0.00    -0.045 A 
ATOM     15  C31 ZIN A   1      18.908  -1.884   7.994  0.00  0.00     0.047 A 
ATOM     16  C26 ZIN A   1      19.270  -1.084   9.067  0.00  0.00     0.097 A 
BRANCH  14  17
ATOM     17  C33 ZIN A   1      18.508  -2.235   5.550  0.00  0.00     0.022 C 
ATOM     18  C40 ZIN A   1      17.189  -1.732   4.956  0.00  0.00     0.037 C 
ATOM     19  C39 ZIN A   1      16.756  -2.670   3.826  0.00  0.00     0.233 C 
ATOM     20  N36 ZIN A   1      16.572  -4.026   4.354  0.00  0.00    -0.075 N 
ATOM     21  C35 ZIN A   1      17.849  -4.542   4.860  0.00  0.00     0.233 C 
ATOM     22  H37 ZIN A   1      16.235  -4.629   3.618  0.00  0.00     0.277 HD
ATOM     23  H38 ZIN A   1      15.898  -4.004   5.104  0.00  0.00     0.277 HD
ATOM     24  C34 ZIN A   1      18.324  -3.677   6.030  0.00  0.00     0.037 C 
ENDBRANCH  14  17
BRANCH  16  25
ATOM     25  O27 ZIN A   1      19.271  -1.594  10.328  0.00  0.00    -0.344 OA
BRANCH  25  26
ATOM     26  C28 ZIN A   1      18.880  -2.961  10.475  0.00  0.00     0.120 C 
ATOM     27  C29 ZIN A   1      20.004  -3.741  11.161  0.00  0.00     0.040 C 
ATOM     28  C30 ZIN A   1      17.611  -3.039  11.326  0.00  0.00     0.040 C 
ENDBRANCH  25  26
ENDBRANCH  16  25
ENDBRANCH   8  10
ENDBRANCH   1   8
BRANCH   6  29
ATOM     29  N12 ZIN A   1      17.435   2.818  13.450  0.00  0.00    -0.338 N 
ATOM     30  H47 ZIN A   1      16.561   2.454  13.658  0.00  0.00     0.167 HD
BRANCH  29  31
ATOM     31  C13 ZIN A   1      18.262   3.283  14.477  0.00  0.00     0.055 A 
ATOM     32  C18 ZIN A   1      18.795   2.390  15.398  0.00  0.00     0.086 A 
ATOM     33  C17 ZIN A   1      19.616   2.851  16.409  0.00  0.00     0.026 A 
ATOM     34  C16 ZIN A   1      19.899   4.201  16.509  0.00  0.00     0.002 A 
ATOM     35  C15 ZIN A   1      19.366   5.093  15.597  0.00  0.00     0.002 A 
ATOM     36  C14 ZIN A   1      18.548   4.638  14.582  0.00  0.00     0.031 A 
BRANCH  32  37
ATOM     37  S19 ZIN A   1      18.435   0.670  15.271  0.00  0.00     0.181 S 
ATOM     38  O20 ZIN A   1      17.025   0.618  15.103  0.00  0.00    -0.222 OA
ATOM     39  O21 ZIN A   1      19.311   0.202  14.255  0.00  0.00    -0.222 OA
BRANCH  37  40
ATOM     40  C22 ZIN A   1      18.909  -0.012  16.884  0.00  0.00     0.105 C 
ATOM     41  C23 ZIN A   1      17.749   0.149  17.868  0.00  0.00     0.026 C 
ATOM     42  C24 ZIN A   1      19.244  -1.497  16.730  0.00  0.00     0.026 C 
ENDBRANCH  37  40
ENDBRANCH  32  37
ENDBRANCH  29  31
ENDBRANCH   6  29
TORSDOF 9
ENDMDL
MODEL 9
REMARK VINA RESULT:      -8.7      2.446      4.275
REMARK  9 active torsions:
REMARK  status: ('A' for Active; 'I' for Inactive)
REMARK    1  A    between atoms: C4_4  and  N5_5 
REMARK    2  A    between atoms: N5_5  and  C6_6 
REMARK    3  A    between atoms: C11_11  and  N12_12 
REMARK    4  A    between atoms: N12_12  and  C13_13 
REMARK    5  A    between atoms: C18_18  and  S19_19 
REMARK    6  A    between atoms: S19_19  and  C22_22 
REMARK    7  A    between atoms: C26_26  and  O27_27 
REMARK    8  A    between atoms: O27_27  and  C28_28 
REMARK    9  A    between atoms: C32_32  and  C33_33 
ROOT
ATOM      1  C6  ZIN A   1      19.886  -1.122  12.096  0.00  0.00     0.728 A 
ATOM      2  N7  ZIN A   1      19.533  -1.744  13.210  0.00  0.00    -0.073 NA
ATOM      3  C8  ZIN A   1      19.227  -1.063  14.305  0.00  0.00     0.164 A 
ATOM      4  C9  ZIN A   1      19.277   0.318  14.276  0.00  0.00     0.098 A 
ATOM      5 Cl10 ZIN A   1      18.884   1.250  15.687  0.00  0.00    -0.079 Cl
ATOM      6  C11 ZIN A   1      19.653   0.947  13.086  0.00  0.00     0.170 A 
ATOM      7  N25 ZIN A   1      19.951   0.199  12.028  0.00  0.00    -0.043 NA
ENDROOT
BRANCH   1   8
ATOM      8  N5  ZIN A   1      20.199  -1.872  10.974  0.00  0.00    -0.185 N 
ATOM      9  H45 ZIN A   1      21.014  -1.689  10.481  0.00  0.00     0.184 HD
BRANCH   8  10
ATOM     10  C4  ZIN A   1      19.339  -2.893  10.552  0.00  0.00     0.083 A 
ATOM     11  C3  ZIN A   1      18.954  -3.888  11.439  0.00  0.00     0.040 A 
ATOM     12  C2  ZIN A   1      18.105  -4.896  11.020  0.00  0.00    -0.053 A 
ATOM     13  C1  ZIN A   1      17.687  -5.976  11.984  0.00  0.00     0.049 C 
ATOM     14  C32 ZIN A   1      17.643  -4.918   9.717  0.00  0.00    -0.045 A 
ATOM     15  C31 ZIN A   1      18.019  -3.927   8.829  0.00  0.00     0.047 A 
ATOM     16  C26 ZIN A   1      18.868  -2.913   9.241  0.00  0.00     0.097 A 
BRANCH  14  17
ATOM     17  C33 ZIN A   1      16.719  -6.019   9.266  0.00  0.00     0.022 C 
ATOM     18  C40 ZIN A   1      17.429  -6.891   8.227  0.00  0.00     0.037 C 
ATOM     19  C39 ZIN A   1      16.458  -7.959   7.716  0.00  0.00     0.233 C 
ATOM     20  N36 ZIN A   1      15.295  -7.312   7.100  0.00  0.00    -0.075 N 
ATOM     21  C35 ZIN A   1      14.567  -6.531   8.108  0.00  0.00     0.233 C 
ATOM     22  H37 ZIN A   1      14.683  -8.016   6.717  0.00  0.00     0.277 HD
ATOM     23  H38 ZIN A   1      15.604  -6.699   6.360  0.00  0.00     0.277 HD
ATOM     24  C34 ZIN A   1      15.465  -5.409   8.634  0.00  0.00     0.037 C 
ENDBRANCH  14  17
BRANCH  16  25
ATOM     25  O27 ZIN A   1      19.244  -1.941   8.367  0.00  0.00    -0.344 OA
BRANCH  25  26
ATOM     26  C28 ZIN A   1      18.203  -1.142   7.800  0.00  0.00     0.120 C 
ATOM     27  C29 ZIN A   1      17.545  -0.305   8.900  0.00  0.00     0.040 C 
ATOM     28  C30 ZIN A   1      18.795  -0.213   6.738  0.00  0.00     0.040 C 
ENDBRANCH  25  26
ENDBRANCH  16  25
ENDBRANCH   8  10
ENDBRANCH   1   8
BRANCH   6  29
ATOM     29  N12 ZIN A   1      19.718   2.330  13.011  0.00  0.00    -0.338 N 
ATOM     30  H47 ZIN A   1      20.226   2.828  13.670  0.00  0.00     0.167 HD
BRANCH  29  31
ATOM     31  C13 ZIN A   1      19.049   3.007  11.986  0.00  0.00     0.055 A 
ATOM     32  C18 ZIN A   1      18.263   4.113  12.280  0.00  0.00     0.086 A 
ATOM     33  C17 ZIN A   1      17.609   4.783  11.265  0.00  0.00     0.026 A 
ATOM     34  C16 ZIN A   1      17.727   4.346   9.958  0.00  0.00     0.002 A 
ATOM     35  C15 ZIN A   1      18.505   3.241   9.663  0.00  0.00     0.002 A 
ATOM     36  C14 ZIN A   1      19.166   2.571  10.672  0.00  0.00     0.031 A 
BRANCH  32  37
ATOM     37  S19 ZIN A   1      18.111   4.671  13.944  0.00  0.00     0.181 S 
ATOM     38  O20 ZIN A   1      17.385   3.638  14.595  0.00  0.00    -0.222 OA
ATOM     39  O21 ZIN A   1      19.441   4.987  14.332  0.00  0.00    -0.222 OA
BRANCH  37  40
ATOM     40  C22 ZIN A   1      17.107   6.177  13.827  0.00  0.00     0.105 C 
ATOM     41  C23 ZIN A   1      15.668   5.866  14.244  0.00  0.00     0.026 C 
ATOM     42  C24 ZIN A   1      17.685   7.248  14.754  0.00  0.00     0.026 C 
ENDBRANCH  37  40
ENDBRANCH  32  37
ENDBRANCH  29  31
ENDBRANCH   6  29
TORSDOF 9
ENDMDL
