MODEL 1
REMARK VINA RESULT:      -6.7      0.000      0.000
REMARK  3 active torsions:
REMARK  status: ('A' for Active; 'I' for Inactive)
REMARK    1  A    between atoms: N10_10  and  C11_11 
REMARK    2  A    between atoms: C15_14  and  C17_15 
REMARK    3  A    between atoms: C17_15  and  O18_16 
ROOT
ATOM      1  O1  ZIN A   1      19.773   1.918  18.683  0.00  0.00    -0.265 OA
ATOM      2  C2  ZIN A   1      19.390   1.179  17.792  0.00  0.00     0.279 A 
ATOM      3  N3  ZIN A   1      19.275  -0.152  17.995  0.00  0.00    -0.316 N 
ATOM      4  C4  ZIN A   1      18.848  -0.965  16.997  0.00  0.00     0.212 A 
ATOM      5  N5  ZIN A   1      18.536  -0.509  15.816  0.00  0.00    -0.223 NA
ATOM      6  C6  ZIN A   1      18.622   0.799  15.531  0.00  0.00     0.168 A 
ATOM      7  C7  ZIN A   1      19.049   1.694  16.516  0.00  0.00     0.172 A 
ATOM      8  N8  ZIN A   1      19.044   2.930  15.967  0.00  0.00    -0.234 NA
ATOM      9  C9  ZIN A   1      18.647   2.849  14.729  0.00  0.00     0.214 A 
ATOM     10  N10 ZIN A   1      18.371   1.552  14.417  0.00  0.00    -0.296 N 
ATOM     11  H20 ZIN A   1      19.498  -0.529  18.861  0.00  0.00     0.170 HD
ENDROOT
BRANCH  10  12
ATOM     12  C11 ZIN A   1      17.901   1.053  13.122  0.00  0.00     0.231 C 
ATOM     13  O19 ZIN A   1      18.755  -0.004  12.669  0.00  0.00    -0.359 OA
ATOM     14  C15 ZIN A   1      19.326   0.341  11.395  0.00  0.00     0.147 C 
ATOM     15  C14 ZIN A   1      19.299   1.890  11.344  0.00  0.00     0.038 C 
ATOM     16  C13 ZIN A   1      17.959   2.185  12.073  0.00  0.00     0.057 C 
BRANCH  14  17
ATOM     17  C17 ZIN A   1      20.766  -0.168  11.301  0.00  0.00     0.196 C 
BRANCH  17  18
ATOM     18  O18 ZIN A   1      21.603   0.611  12.159  0.00  0.00    -0.398 OA
ATOM     19  H29 ZIN A   1      21.257   0.714  13.057  0.00  0.00     0.209 HD
ENDBRANCH  17  18
ENDBRANCH  14  17
ENDBRANCH  10  12
TORSDOF 3
ENDMDL
MODEL 2
REMARK VINA RESULT:      -6.6      6.205      8.970
REMARK  3 active torsions:
REMARK  status: ('A' for Active; 'I' for Inactive)
REMARK    1  A    between atoms: N10_10  and  C11_11 
REMARK    2  A    between atoms: C15_14  and  C17_15 
REMARK    3  A    between atoms: C17_15  and  O18_16 
ROOT
ATOM      1  O1  ZIN A   1      19.940  -0.696   4.566  0.00  0.00    -0.265 OA
ATOM      2  C2  ZIN A   1      19.259  -0.844   5.566  0.00  0.00     0.279 A 
ATOM      3  N3  ZIN A   1      18.462   0.149   6.017  0.00  0.00    -0.316 N 
ATOM      4  C4  ZIN A   1      17.708  -0.027   7.132  0.00  0.00     0.212 A 
ATOM      5  N5  ZIN A   1      17.718  -1.143   7.807  0.00  0.00    -0.223 NA
ATOM      6  C6  ZIN A   1      18.480  -2.179   7.427  0.00  0.00     0.168 A 
ATOM      7  C7  ZIN A   1      19.277  -2.067   6.284  0.00  0.00     0.172 A 
ATOM      8  N8  ZIN A   1      19.933  -3.241   6.134  0.00  0.00    -0.234 NA
ATOM      9  C9  ZIN A   1      19.594  -4.049   7.097  0.00  0.00     0.214 A 
ATOM     10  N10 ZIN A   1      18.694  -3.437   7.918  0.00  0.00    -0.296 N 
ATOM     11  H20 ZIN A   1      18.428   0.994   5.541  0.00  0.00     0.170 HD
ENDROOT
BRANCH  10  12
ATOM     12  C11 ZIN A   1      18.077  -4.018   9.112  0.00  0.00     0.231 C 
ATOM     13  O19 ZIN A   1      18.097  -3.066  10.182  0.00  0.00    -0.359 OA
ATOM     14  C15 ZIN A   1      18.818  -3.606  11.303  0.00  0.00     0.147 C 
ATOM     15  C14 ZIN A   1      19.772  -4.668  10.700  0.00  0.00     0.038 C 
ATOM     16  C13 ZIN A   1      18.882  -5.254   9.570  0.00  0.00     0.057 C 
BRANCH  14  17
ATOM     17  C17 ZIN A   1      19.621  -2.506  12.001  0.00  0.00     0.196 C 
BRANCH  17  18
ATOM     18  O18 ZIN A   1      20.725  -2.127  11.175  0.00  0.00    -0.398 OA
ATOM     19  H29 ZIN A   1      20.793  -2.634  10.354  0.00  0.00     0.209 HD
ENDBRANCH  17  18
ENDBRANCH  14  17
ENDBRANCH  10  12
TORSDOF 3
ENDMDL
MODEL 3
REMARK VINA RESULT:      -6.6      5.342      8.366
REMARK  3 active torsions:
REMARK  status: ('A' for Active; 'I' for Inactive)
REMARK    1  A    between atoms: N10_10  and  C11_11 
REMARK    2  A    between atoms: C15_14  and  C17_15 
REMARK    3  A    between atoms: C17_15  and  O18_16 
ROOT
ATOM      1  O1  ZIN A   1      19.715  -1.695   4.425  0.00  0.00    -0.265 OA
ATOM      2  C2  ZIN A   1      19.363  -0.992   5.357  0.00  0.00     0.279 A 
ATOM      3  N3  ZIN A   1      19.323   0.352   5.236  0.00  0.00    -0.316 N 
ATOM      4  C4  ZIN A   1      18.930   1.125   6.280  0.00  0.00     0.212 A 
ATOM      5  N5  ZIN A   1      18.581   0.615   7.429  0.00  0.00    -0.223 NA
ATOM      6  C6  ZIN A   1      18.593  -0.711   7.632  0.00  0.00     0.168 A 
ATOM      7  C7  ZIN A   1      18.981  -1.566   6.596  0.00  0.00     0.172 A 
ATOM      8  N8  ZIN A   1      18.902  -2.831   7.068  0.00  0.00    -0.234 NA
ATOM      9  C9  ZIN A   1      18.498  -2.805   8.306  0.00  0.00     0.214 A 
ATOM     10  N10 ZIN A   1      18.290  -1.516   8.695  0.00  0.00    -0.296 N 
ATOM     11  H20 ZIN A   1      19.575   0.769   4.397  0.00  0.00     0.170 HD
ENDROOT
BRANCH  10  12
ATOM     12  C11 ZIN A   1      17.834  -1.073  10.015  0.00  0.00     0.231 C 
ATOM     13  O19 ZIN A   1      18.682  -0.023  10.496  0.00  0.00    -0.359 OA
ATOM     14  C15 ZIN A   1      19.277  -0.409  11.746  0.00  0.00     0.147 C 
ATOM     15  C14 ZIN A   1      19.270  -1.959  11.739  0.00  0.00     0.038 C 
ATOM     16  C13 ZIN A   1      17.922  -2.244  11.020  0.00  0.00     0.057 C 
BRANCH  14  17
ATOM     17  C17 ZIN A   1      20.712   0.114  11.838  0.00  0.00     0.196 C 
BRANCH  17  18
ATOM     18  O18 ZIN A   1      21.521  -0.543  10.860  0.00  0.00    -0.398 OA
ATOM     19  H29 ZIN A   1      21.480  -1.509  10.901  0.00  0.00     0.209 HD
ENDBRANCH  17  18
ENDBRANCH  14  17
ENDBRANCH  10  12
TORSDOF 3
ENDMDL
MODEL 4
REMARK VINA RESULT:      -6.4      1.614      2.063
REMARK  3 active torsions:
REMARK  status: ('A' for Active; 'I' for Inactive)
REMARK    1  A    between atoms: N10_10  and  C11_11 
REMARK    2  A    between atoms: C15_14  and  C17_15 
REMARK    3  A    between atoms: C17_15  and  O18_16 
ROOT
ATOM      1  O1  ZIN A   1      19.940   0.784  18.602  0.00  0.00    -0.265 OA
ATOM      2  C2  ZIN A   1      19.275   0.857  17.583  0.00  0.00     0.279 A 
ATOM      3  N3  ZIN A   1      18.544  -0.194  17.153  0.00  0.00    -0.316 N 
ATOM      4  C4  ZIN A   1      17.808  -0.101  16.016  0.00  0.00     0.212 A 
ATOM      5  N5  ZIN A   1      17.774   0.987  15.298  0.00  0.00    -0.223 NA
ATOM      6  C6  ZIN A   1      18.471   2.077  15.655  0.00  0.00     0.168 A 
ATOM      7  C7  ZIN A   1      19.246   2.052  16.819  0.00  0.00     0.172 A 
ATOM      8  N8  ZIN A   1      19.834   3.264  16.937  0.00  0.00    -0.234 NA
ATOM      9  C9  ZIN A   1      19.476   4.016  15.936  0.00  0.00     0.214 A 
ATOM     10  N10 ZIN A   1      18.630   3.326  15.121  0.00  0.00    -0.296 N 
ATOM     11  H20 ZIN A   1      18.544  -1.021  17.660  0.00  0.00     0.170 HD
ENDROOT
BRANCH  10  12
ATOM     12  C11 ZIN A   1      18.010   3.827  13.891  0.00  0.00     0.231 C 
ATOM     13  O19 ZIN A   1      18.035   2.809  12.884  0.00  0.00    -0.359 OA
ATOM     14  C15 ZIN A   1      18.754   3.279  11.731  0.00  0.00     0.147 C 
ATOM     15  C14 ZIN A   1      19.704   4.381  12.266  0.00  0.00     0.038 C 
ATOM     16  C13 ZIN A   1      18.812   5.035  13.356  0.00  0.00     0.057 C 
BRANCH  14  17
ATOM     17  C17 ZIN A   1      19.562   2.139  11.105  0.00  0.00     0.196 C 
BRANCH  17  18
ATOM     18  O18 ZIN A   1      20.761   1.939  11.856  0.00  0.00    -0.398 OA
ATOM     19  H29 ZIN A   1      20.655   1.351  12.617  0.00  0.00     0.209 HD
ENDBRANCH  17  18
ENDBRANCH  14  17
ENDBRANCH  10  12
TORSDOF 3
ENDMDL
MODEL 5
REMARK VINA RESULT:      -6.3      6.192      8.942
REMARK  3 active torsions:
REMARK  status: ('A' for Active; 'I' for Inactive)
REMARK    1  A    between atoms: N10_10  and  C11_11 
REMARK    2  A    between atoms: C15_14  and  C17_15 
REMARK    3  A    between atoms: C17_15  and  O18_16 
ROOT
ATOM      1  O1  ZIN A   1      19.626  -1.757   4.468  0.00  0.00    -0.265 OA
ATOM      2  C2  ZIN A   1      19.213  -2.609   5.236  0.00  0.00     0.279 A 
ATOM      3  N3  ZIN A   1      18.843  -3.828   4.787  0.00  0.00    -0.316 N 
ATOM      4  C4  ZIN A   1      18.385  -4.769   5.651  0.00  0.00     0.212 A 
ATOM      5  N5  ZIN A   1      18.281  -4.544   6.931  0.00  0.00    -0.223 NA
ATOM      6  C6  ZIN A   1      18.627  -3.360   7.459  0.00  0.00     0.168 A 
ATOM      7  C7  ZIN A   1      19.113  -2.348   6.626  0.00  0.00     0.172 A 
ATOM      8  N8  ZIN A   1      19.381  -1.277   7.408  0.00  0.00    -0.234 NA
ATOM      9  C9  ZIN A   1      19.094  -1.564   8.645  0.00  0.00     0.214 A 
ATOM     10  N10 ZIN A   1      18.629  -2.843   8.725  0.00  0.00    -0.296 N 
ATOM     11  H20 ZIN A   1      18.906  -4.033   3.840  0.00  0.00     0.170 HD
ENDROOT
BRANCH  10  12
ATOM     12  C11 ZIN A   1      18.201  -3.534   9.944  0.00  0.00     0.231 C 
ATOM     13  O19 ZIN A   1      17.909  -2.577  10.969  0.00  0.00    -0.359 OA
ATOM     14  C15 ZIN A   1      18.743  -2.819  12.115  0.00  0.00     0.147 C 
ATOM     15  C14 ZIN A   1      19.987  -3.559  11.564  0.00  0.00     0.038 C 
ATOM     16  C13 ZIN A   1      19.341  -4.440  10.460  0.00  0.00     0.057 C 
BRANCH  14  17
ATOM     17  C17 ZIN A   1      19.156  -1.495  12.763  0.00  0.00     0.196 C 
BRANCH  17  18
ATOM     18  O18 ZIN A   1      19.995  -1.759  13.889  0.00  0.00    -0.398 OA
ATOM     19  H29 ZIN A   1      20.558  -2.539  13.786  0.00  0.00     0.209 HD
ENDBRANCH  17  18
ENDBRANCH  14  17
ENDBRANCH  10  12
TORSDOF 3
ENDMDL
MODEL 6
REMARK VINA RESULT:      -6.0      4.995      7.446
REMARK  3 active torsions:
REMARK  status: ('A' for Active; 'I' for Inactive)
REMARK    1  A    between atoms: N10_10  and  C11_11 
REMARK    2  A    between atoms: C15_14  and  C17_15 
REMARK    3  A    between atoms: C17_15  and  O18_16 
ROOT
ATOM      1  O1  ZIN A   1      20.043  -6.514   8.840  0.00  0.00    -0.265 OA
ATOM      2  C2  ZIN A   1      19.727  -5.355   8.633  0.00  0.00     0.279 A 
ATOM      3  N3  ZIN A   1      19.826  -4.818   7.398  0.00  0.00    -0.316 N 
ATOM      4  C4  ZIN A   1      19.472  -3.527   7.179  0.00  0.00     0.212 A 
ATOM      5  N5  ZIN A   1      19.029  -2.757   8.134  0.00  0.00    -0.223 NA
ATOM      6  C6  ZIN A   1      18.900  -3.212   9.389  0.00  0.00     0.168 A 
ATOM      7  C7  ZIN A   1      19.241  -4.535   9.683  0.00  0.00     0.172 A 
ATOM      8  N8  ZIN A   1      19.017  -4.725  11.004  0.00  0.00    -0.234 NA
ATOM      9  C9  ZIN A   1      18.569  -3.620  11.528  0.00  0.00     0.214 A 
ATOM     10  N10 ZIN A   1      18.475  -2.658  10.566  0.00  0.00    -0.296 N 
ATOM     11  H20 ZIN A   1      20.153  -5.360   6.661  0.00  0.00     0.170 HD
ENDROOT
BRANCH  10  12
ATOM     12  C11 ZIN A   1      18.014  -1.282  10.759  0.00  0.00     0.231 C 
ATOM     13  O19 ZIN A   1      19.123  -0.379  10.663  0.00  0.00    -0.359 OA
ATOM     14  C15 ZIN A   1      19.250   0.369  11.884  0.00  0.00     0.147 C 
ATOM     15  C14 ZIN A   1      18.584  -0.510  12.972  0.00  0.00     0.038 C 
ATOM     16  C13 ZIN A   1      17.405  -1.127  12.170  0.00  0.00     0.057 C 
BRANCH  14  17
ATOM     17  C17 ZIN A   1      20.727   0.598  12.217  0.00  0.00     0.196 C 
BRANCH  17  18
ATOM     18  O18 ZIN A   1      21.539  -0.182  11.337  0.00  0.00    -0.398 OA
ATOM     19  H29 ZIN A   1      21.041  -0.641  10.646  0.00  0.00     0.209 HD
ENDBRANCH  17  18
ENDBRANCH  14  17
ENDBRANCH  10  12
TORSDOF 3
ENDMDL
MODEL 7
REMARK VINA RESULT:      -6.0      3.551      5.623
REMARK  3 active torsions:
REMARK  status: ('A' for Active; 'I' for Inactive)
REMARK    1  A    between atoms: N10_10  and  C11_11 
REMARK    2  A    between atoms: C15_14  and  C17_15 
REMARK    3  A    between atoms: C17_15  and  O18_16 
ROOT
ATOM      1  O1  ZIN A   1      19.722  -3.072  11.639  0.00  0.00    -0.265 OA
ATOM      2  C2  ZIN A   1      19.635  -2.113  10.891  0.00  0.00     0.279 A 
ATOM      3  N3  ZIN A   1      19.548  -2.281   9.553  0.00  0.00    -0.316 N 
ATOM      4  C4  ZIN A   1      19.452  -1.207   8.730  0.00  0.00     0.212 A 
ATOM      5  N5  ZIN A   1      19.440   0.016   9.183  0.00  0.00    -0.223 NA
ATOM      6  C6  ZIN A   1      19.522   0.271  10.497  0.00  0.00     0.168 A 
ATOM      7  C7  ZIN A   1      19.617  -0.791  11.402  0.00  0.00     0.172 A 
ATOM      8  N8  ZIN A   1      19.685  -0.257  12.643  0.00  0.00    -0.234 NA
ATOM      9  C9  ZIN A   1      19.639   1.042  12.556  0.00  0.00     0.214 A 
ATOM     10  N10 ZIN A   1      19.533   1.413  11.249  0.00  0.00    -0.296 N 
ATOM     11  H20 ZIN A   1      19.554  -3.177   9.179  0.00  0.00     0.170 HD
ENDROOT
BRANCH  10  12
ATOM     12  C11 ZIN A   1      19.456   2.785  10.742  0.00  0.00     0.231 C 
ATOM     13  O19 ZIN A   1      19.831   3.707  11.773  0.00  0.00    -0.359 OA
ATOM     14  C15 ZIN A   1      18.750   4.620  12.028  0.00  0.00     0.147 C 
ATOM     15  C14 ZIN A   1      17.471   3.874  11.573  0.00  0.00     0.038 C 
ATOM     16  C13 ZIN A   1      18.003   3.110  10.330  0.00  0.00     0.057 C 
BRANCH  14  17
ATOM     17  C17 ZIN A   1      18.671   4.947  13.521  0.00  0.00     0.196 C 
BRANCH  17  18
ATOM     18  O18 ZIN A   1      19.714   4.261  14.215  0.00  0.00    -0.398 OA
ATOM     19  H29 ZIN A   1      20.569   4.285  13.762  0.00  0.00     0.209 HD
ENDBRANCH  17  18
ENDBRANCH  14  17
ENDBRANCH  10  12
TORSDOF 3
ENDMDL
MODEL 8
REMARK VINA RESULT:      -5.9      2.033      2.667
REMARK  3 active torsions:
REMARK  status: ('A' for Active; 'I' for Inactive)
REMARK    1  A    between atoms: N10_10  and  C11_11 
REMARK    2  A    between atoms: C15_14  and  C17_15 
REMARK    3  A    between atoms: C17_15  and  O18_16 
ROOT
ATOM      1  O1  ZIN A   1      20.181   5.837  16.144  0.00  0.00    -0.265 OA
ATOM      2  C2  ZIN A   1      19.741   4.727  15.896  0.00  0.00     0.279 A 
ATOM      3  N3  ZIN A   1      19.607   3.800  16.869  0.00  0.00    -0.316 N 
ATOM      4  C4  ZIN A   1      19.117   2.568  16.582  0.00  0.00     0.212 A 
ATOM      5  N5  ZIN A   1      18.759   2.227  15.375  0.00  0.00    -0.223 NA
ATOM      6  C6  ZIN A   1      18.860   3.088  14.351  0.00  0.00     0.168 A 
ATOM      7  C7  ZIN A   1      19.352   4.377  14.578  0.00  0.00     0.172 A 
ATOM      8  N8  ZIN A   1      19.347   5.025  13.391  0.00  0.00    -0.234 NA
ATOM      9  C9  ZIN A   1      18.892   4.227  12.467  0.00  0.00     0.214 A 
ATOM     10  N10 ZIN A   1      18.573   3.021  13.016  0.00  0.00    -0.296 N 
ATOM     11  H20 ZIN A   1      19.863   4.016  17.780  0.00  0.00     0.170 HD
ENDROOT
BRANCH  10  12
ATOM     12  C11 ZIN A   1      18.032   1.861  12.303  0.00  0.00     0.231 C 
ATOM     13  O19 ZIN A   1      18.917   0.744  12.449  0.00  0.00    -0.359 OA
ATOM     14  C15 ZIN A   1      19.354   0.294  11.155  0.00  0.00     0.147 C 
ATOM     15  C14 ZIN A   1      19.214   1.527  10.227  0.00  0.00     0.038 C 
ATOM     16  C13 ZIN A   1      17.923   2.178  10.795  0.00  0.00     0.057 C 
BRANCH  14  17
ATOM     17  C17 ZIN A   1      20.813  -0.163  11.214  0.00  0.00     0.196 C 
BRANCH  17  18
ATOM     18  O18 ZIN A   1      21.534   0.665  12.130  0.00  0.00    -0.398 OA
ATOM     19  H29 ZIN A   1      21.371   1.612  12.016  0.00  0.00     0.209 HD
ENDBRANCH  17  18
ENDBRANCH  14  17
ENDBRANCH  10  12
TORSDOF 3
ENDMDL
MODEL 9
REMARK VINA RESULT:      -5.9      5.058      7.824
REMARK  3 active torsions:
REMARK  status: ('A' for Active; 'I' for Inactive)
REMARK    1  A    between atoms: N10_10  and  C11_11 
REMARK    2  A    between atoms: C15_14  and  C17_15 
REMARK    3  A    between atoms: C17_15  and  O18_16 
ROOT
ATOM      1  O1  ZIN A   1      19.791  -0.959   4.735  0.00  0.00    -0.265 OA
ATOM      2  C2  ZIN A   1      19.289  -1.216   5.816  0.00  0.00     0.279 A 
ATOM      3  N3  ZIN A   1      18.952  -2.482   6.141  0.00  0.00    -0.316 N 
ATOM      4  C4  ZIN A   1      18.394  -2.757   7.347  0.00  0.00     0.212 A 
ATOM      5  N5  ZIN A   1      18.161  -1.828   8.232  0.00  0.00    -0.223 NA
ATOM      6  C6  ZIN A   1      18.466  -0.545   7.989  0.00  0.00     0.168 A 
ATOM      7  C7  ZIN A   1      19.049  -0.193   6.768  0.00  0.00     0.172 A 
ATOM      8  N8  ZIN A   1      19.249   1.145   6.788  0.00  0.00    -0.234 NA
ATOM      9  C9  ZIN A   1      18.831   1.626   7.924  0.00  0.00     0.214 A 
ATOM     10  N10 ZIN A   1      18.343   0.617   8.700  0.00  0.00    -0.296 N 
ATOM     11  H20 ZIN A   1      19.110  -3.201   5.509  0.00  0.00     0.170 HD
ENDROOT
BRANCH  10  12
ATOM     12  C11 ZIN A   1      17.782   0.754  10.046  0.00  0.00     0.231 C 
ATOM     13  O19 ZIN A   1      17.698   2.140  10.399  0.00  0.00    -0.359 OA
ATOM     14  C15 ZIN A   1      18.464   2.388  11.590  0.00  0.00     0.147 C 
ATOM     15  C14 ZIN A   1      19.526   1.260  11.633  0.00  0.00     0.038 C 
ATOM     16  C13 ZIN A   1      18.708   0.064  11.072  0.00  0.00     0.057 C 
BRANCH  14  17
ATOM     17  C17 ZIN A   1      19.146   3.756  11.511  0.00  0.00     0.196 C 
BRANCH  17  18
ATOM     18  O18 ZIN A   1      20.508   3.633  11.927  0.00  0.00    -0.398 OA
ATOM     19  H29 ZIN A   1      20.627   3.634  12.887  0.00  0.00     0.209 HD
ENDBRANCH  17  18
ENDBRANCH  14  17
ENDBRANCH  10  12
TORSDOF 3
ENDMDL
