MODEL 1
REMARK VINA RESULT:      -7.4      0.000      0.000
REMARK  5 active torsions:
REMARK  status: ('A' for Active; 'I' for Inactive)
REMARK    1  A    between atoms: C2_2  and  O4_4 
REMARK    2  A    between atoms: O4_4  and  C5_5 
REMARK    3  A    between atoms: C10_10  and  C11_11 
REMARK       I    between atoms: C11_11  and  N13_13 
REMARK    4  A    between atoms: N13_13  and  C14_14 
REMARK    5  A    between atoms: C17_17  and  N18_18 
ROOT
ATOM      1  C11 <0> d   1      19.610   0.536  11.899  0.00  0.00     0.260 C 
ATOM      2  O12 <0> d   1      20.723   0.501  12.388  0.00  0.00    -0.267 OA
ATOM      3  N13 <0> d   1      18.525   0.397  12.686  0.00  0.00    -0.301 N 
ATOM      4  H29 <0> d   1      17.637   0.425  12.295  0.00  0.00     0.171 HD
ENDROOT
BRANCH   1   5
ATOM      5  C10 <0> d   1      19.448   0.730  10.446  0.00  0.00     0.066 A 
ATOM      6  C5  <0> d   1      19.186   2.007   9.930  0.00  0.00     0.094 A 
ATOM      7  C6  <0> d   1      19.036   2.179   8.563  0.00  0.00     0.038 A 
ATOM      8  C7  <0> d   1      19.138   1.095   7.713  0.00  0.00     0.003 A 
ATOM      9  C8  <0> d   1      19.392  -0.170   8.219  0.00  0.00     0.001 A 
ATOM     10  C9  <0> d   1      19.544  -0.358   9.576  0.00  0.00     0.020 A 
BRANCH   6  11
ATOM     11  O4  <0> d   1      19.085   3.072  10.766  0.00  0.00    -0.278 OA
BRANCH  11  12
ATOM     12  C2  <0> d   1      17.860   3.593  10.943  0.00  0.00     0.260 C 
ATOM     13  C1  <0> d   1      17.537   4.959  10.395  0.00  0.00     0.126 C 
ATOM     14  O3  <0> d   1      17.017   2.967  11.540  0.00  0.00    -0.265 OA
ENDBRANCH  11  12
ENDBRANCH   6  11
ENDBRANCH   1   5
BRANCH   3  15
ATOM     15  C14 <0> d   1      18.677   0.215  14.053  0.00  0.00     0.175 A 
ATOM     16  S21 <0> d   1      18.797   1.477  15.201  0.00  0.00    -0.026 SA
ATOM     17  C17 <0> d   1      18.947   0.296  16.500  0.00  0.00     0.164 A 
ATOM     18  C16 <0> d   1      18.899  -0.923  15.958  0.00  0.00     0.163 A 
ATOM     19  N15 <0> d   1      18.754  -0.935  14.646  0.00  0.00    -0.234 NA
BRANCH  17  20
ATOM     20  N18 <0> d   1      19.103   0.601  17.940  0.00  0.00    -0.107 N 
ATOM     21  O19 <0> d   1      19.839   1.505  18.294  0.00  0.00    -0.531 OA
ATOM     22  O20 <0> d   1      18.498  -0.053  18.770  0.00  0.00    -0.531 OA
ENDBRANCH  17  20
ENDBRANCH   3  15
TORSDOF 5
ENDMDL
MODEL 2
REMARK VINA RESULT:      -7.1      4.029      7.320
REMARK  5 active torsions:
REMARK  status: ('A' for Active; 'I' for Inactive)
REMARK    1  A    between atoms: C2_2  and  O4_4 
REMARK    2  A    between atoms: O4_4  and  C5_5 
REMARK    3  A    between atoms: C10_10  and  C11_11 
REMARK       I    between atoms: C11_11  and  N13_13 
REMARK    4  A    between atoms: N13_13  and  C14_14 
REMARK    5  A    between atoms: C17_17  and  N18_18 
ROOT
ATOM      1  C11 <0> d   1      18.562   2.104   9.491  0.00  0.00     0.260 C 
ATOM      2  O12 <0> d   1      19.630   2.259   8.931  0.00  0.00    -0.267 OA
ATOM      3  N13 <0> d   1      17.831   0.997   9.250  0.00  0.00    -0.301 N 
ATOM      4  H29 <0> d   1      16.979   0.873   9.697  0.00  0.00     0.171 HD
ENDROOT
BRANCH   1   5
ATOM      5  C10 <0> d   1      18.067   3.124  10.433  0.00  0.00     0.066 A 
ATOM      6  C5  <0> d   1      18.008   2.847  11.806  0.00  0.00     0.094 A 
ATOM      7  C6  <0> d   1      17.541   3.813  12.684  0.00  0.00     0.038 A 
ATOM      8  C7  <0> d   1      17.130   5.043  12.205  0.00  0.00     0.003 A 
ATOM      9  C8  <0> d   1      17.182   5.319  10.848  0.00  0.00     0.001 A 
ATOM     10  C9  <0> d   1      17.644   4.369   9.963  0.00  0.00     0.020 A 
BRANCH   6  11
ATOM     11  O4  <0> d   1      18.411   1.638  12.275  0.00  0.00    -0.278 OA
BRANCH  11  12
ATOM     12  C2  <0> d   1      17.460   0.830  12.770  0.00  0.00     0.260 C 
ATOM     13  C1  <0> d   1      17.503   0.416  14.218  0.00  0.00     0.126 C 
ATOM     14  O3  <0> d   1      16.570   0.434  12.055  0.00  0.00    -0.265 OA
ENDBRANCH  11  12
ENDBRANCH   6  11
ENDBRANCH   1   5
BRANCH   3  15
ATOM     15  C14 <0> d   1      18.298   0.036   8.363  0.00  0.00     0.175 A 
ATOM     16  S21 <0> d   1      18.166   0.128   6.661  0.00  0.00    -0.026 SA
ATOM     17  C17 <0> d   1      18.985  -1.424   6.503  0.00  0.00     0.164 A 
ATOM     18  C16 <0> d   1      19.274  -1.866   7.729  0.00  0.00     0.163 A 
ATOM     19  N15 <0> d   1      18.895  -1.063   8.705  0.00  0.00    -0.234 NA
BRANCH  17  20
ATOM     20  N18 <0> d   1      19.293  -2.120   5.233  0.00  0.00    -0.107 N 
ATOM     21  O19 <0> d   1      19.705  -1.487   4.277  0.00  0.00    -0.531 OA
ATOM     22  O20 <0> d   1      19.134  -3.324   5.144  0.00  0.00    -0.531 OA
ENDBRANCH  17  20
ENDBRANCH   3  15
TORSDOF 5
ENDMDL
MODEL 3
REMARK VINA RESULT:      -7.0      1.875      3.146
REMARK  5 active torsions:
REMARK  status: ('A' for Active; 'I' for Inactive)
REMARK    1  A    between atoms: C2_2  and  O4_4 
REMARK    2  A    between atoms: O4_4  and  C5_5 
REMARK    3  A    between atoms: C10_10  and  C11_11 
REMARK       I    between atoms: C11_11  and  N13_13 
REMARK    4  A    between atoms: N13_13  and  C14_14 
REMARK    5  A    between atoms: C17_17  and  N18_18 
ROOT
ATOM      1  C11 <0> d   1      19.471   0.953  11.793  0.00  0.00     0.260 C 
ATOM      2  O12 <0> d   1      20.600   1.167  12.189  0.00  0.00    -0.267 OA
ATOM      3  N13 <0> d   1      18.446   0.921  12.668  0.00  0.00    -0.301 N 
ATOM      4  H29 <0> d   1      17.544   0.750  12.352  0.00  0.00     0.171 HD
ENDROOT
BRANCH   1   5
ATOM      5  C10 <0> d   1      19.221   0.730  10.357  0.00  0.00     0.066 A 
ATOM      6  C5  <0> d   1      18.987  -0.565   9.874  0.00  0.00     0.094 A 
ATOM      7  C6  <0> d   1      18.753  -0.764   8.522  0.00  0.00     0.038 A 
ATOM      8  C7  <0> d   1      18.758   0.310   7.654  0.00  0.00     0.003 A 
ATOM      9  C8  <0> d   1      18.994   1.592   8.125  0.00  0.00     0.001 A 
ATOM     10  C9  <0> d   1      19.228   1.806   9.466  0.00  0.00     0.020 A 
BRANCH   6  11
ATOM     11  O4  <0> d   1      18.984  -1.620  10.729  0.00  0.00    -0.278 OA
BRANCH  11  12
ATOM     12  C2  <0> d   1      17.796  -2.186  10.993  0.00  0.00     0.260 C 
ATOM     13  C1  <0> d   1      17.502  -3.582  10.508  0.00  0.00     0.126 C 
ATOM     14  O3  <0> d   1      16.961  -1.577  11.620  0.00  0.00    -0.265 OA
ENDBRANCH  11  12
ENDBRANCH   6  11
ENDBRANCH   1   5
BRANCH   3  15
ATOM     15  C14 <0> d   1      18.680   1.131  14.020  0.00  0.00     0.175 A 
ATOM     16  S21 <0> d   1      18.964  -0.104  15.169  0.00  0.00    -0.026 SA
ATOM     17  C17 <0> d   1      19.127   1.103  16.442  0.00  0.00     0.164 A 
ATOM     18  C16 <0> d   1      18.950   2.308  15.895  0.00  0.00     0.163 A 
ATOM     19  N15 <0> d   1      18.713   2.292  14.597  0.00  0.00    -0.234 NA
BRANCH  17  20
ATOM     20  N18 <0> d   1      19.405   0.829  17.870  0.00  0.00    -0.107 N 
ATOM     21  O19 <0> d   1      19.258  -0.296  18.314  0.00  0.00    -0.531 OA
ATOM     22  O20 <0> d   1      19.780   1.729  18.600  0.00  0.00    -0.531 OA
ENDBRANCH  17  20
ENDBRANCH   3  15
TORSDOF 5
ENDMDL
MODEL 4
REMARK VINA RESULT:      -6.9      3.880      7.245
REMARK  5 active torsions:
REMARK  status: ('A' for Active; 'I' for Inactive)
REMARK    1  A    between atoms: C2_2  and  O4_4 
REMARK    2  A    between atoms: O4_4  and  C5_5 
REMARK    3  A    between atoms: C10_10  and  C11_11 
REMARK       I    between atoms: C11_11  and  N13_13 
REMARK    4  A    between atoms: N13_13  and  C14_14 
REMARK    5  A    between atoms: C17_17  and  N18_18 
ROOT
ATOM      1  C11 <0> d   1      18.945  -0.954  11.106  0.00  0.00     0.260 C 
ATOM      2  O12 <0> d   1      20.100  -1.219  10.835  0.00  0.00    -0.267 OA
ATOM      3  N13 <0> d   1      18.015  -0.921  10.131  0.00  0.00    -0.301 N 
ATOM      4  H29 <0> d   1      17.093  -0.710  10.347  0.00  0.00     0.171 HD
ENDROOT
BRANCH   1   5
ATOM      5  C10 <0> d   1      18.561  -0.670  12.501  0.00  0.00     0.066 A 
ATOM      6  C5  <0> d   1      17.752   0.436  12.799  0.00  0.00     0.094 A 
ATOM      7  C6  <0> d   1      17.396   0.694  14.114  0.00  0.00     0.038 A 
ATOM      8  C7  <0> d   1      17.843  -0.132  15.127  0.00  0.00     0.003 A 
ATOM      9  C8  <0> d   1      18.648  -1.223  14.838  0.00  0.00     0.001 A 
ATOM     10  C9  <0> d   1      19.010  -1.493  13.536  0.00  0.00     0.020 A 
BRANCH   6  11
ATOM     11  O4  <0> d   1      17.314   1.247  11.802  0.00  0.00    -0.278 OA
BRANCH  11  12
ATOM     12  C2  <0> d   1      17.813   2.492  11.768  0.00  0.00     0.260 C 
ATOM     13  C1  <0> d   1      19.295   2.706  11.600  0.00  0.00     0.126 C 
ATOM     14  O3  <0> d   1      17.074   3.443  11.870  0.00  0.00    -0.265 OA
ENDBRANCH  11  12
ENDBRANCH   6  11
ENDBRANCH   1   5
BRANCH   3  15
ATOM     15  C14 <0> d   1      18.377  -1.190   8.817  0.00  0.00     0.175 A 
ATOM     16  S21 <0> d   1      18.767  -0.004   7.648  0.00  0.00    -0.026 SA
ATOM     17  C17 <0> d   1      19.050  -1.265   6.450  0.00  0.00     0.164 A 
ATOM     18  C16 <0> d   1      18.823  -2.446   7.030  0.00  0.00     0.163 A 
ATOM     19  N15 <0> d   1      18.464  -2.374   8.298  0.00  0.00    -0.234 NA
BRANCH  17  20
ATOM     20  N18 <0> d   1      19.463  -1.052   5.044  0.00  0.00    -0.107 N 
ATOM     21  O19 <0> d   1      19.693   0.074   4.641  0.00  0.00    -0.531 OA
ATOM     22  O20 <0> d   1      19.570  -2.003   4.291  0.00  0.00    -0.531 OA
ENDBRANCH  17  20
ENDBRANCH   3  15
TORSDOF 5
ENDMDL
MODEL 5
REMARK VINA RESULT:      -6.7      4.363      8.129
REMARK  5 active torsions:
REMARK  status: ('A' for Active; 'I' for Inactive)
REMARK    1  A    between atoms: C2_2  and  O4_4 
REMARK    2  A    between atoms: O4_4  and  C5_5 
REMARK    3  A    between atoms: C10_10  and  C11_11 
REMARK       I    between atoms: C11_11  and  N13_13 
REMARK    4  A    between atoms: N13_13  and  C14_14 
REMARK    5  A    between atoms: C17_17  and  N18_18 
ROOT
ATOM      1  C11 <0> d   1      19.544  -0.386  10.721  0.00  0.00     0.260 C 
ATOM      2  O12 <0> d   1      20.664  -0.419  10.250  0.00  0.00    -0.267 OA
ATOM      3  N13 <0> d   1      18.479  -0.209   9.913  0.00  0.00    -0.301 N 
ATOM      4  H29 <0> d   1      17.585  -0.182  10.290  0.00  0.00     0.171 HD
ENDROOT
BRANCH   1   5
ATOM      5  C10 <0> d   1      19.350  -0.540  12.175  0.00  0.00     0.066 A 
ATOM      6  C5  <0> d   1      18.575  -1.596  12.675  0.00  0.00     0.094 A 
ATOM      7  C6  <0> d   1      18.398  -1.732  14.043  0.00  0.00     0.038 A 
ATOM      8  C7  <0> d   1      18.980  -0.827  14.909  0.00  0.00     0.003 A 
ATOM      9  C8  <0> d   1      19.743   0.222  14.419  0.00  0.00     0.001 A 
ATOM     10  C9  <0> d   1      19.928   0.371  13.062  0.00  0.00     0.020 A 
BRANCH   6  11
ATOM     11  O4  <0> d   1      18.003  -2.484  11.822  0.00  0.00    -0.278 OA
BRANCH  11  12
ATOM     12  C2  <0> d   1      18.507  -3.728  11.811  0.00  0.00     0.260 C 
ATOM     13  C1  <0> d   1      17.589  -4.914  11.963  0.00  0.00     0.126 C 
ATOM     14  O3  <0> d   1      19.696  -3.898  11.678  0.00  0.00    -0.265 OA
ENDBRANCH  11  12
ENDBRANCH   6  11
ENDBRANCH   1   5
BRANCH   3  15
ATOM     15  C14 <0> d   1      18.662  -0.065   8.545  0.00  0.00     0.175 A 
ATOM     16  S21 <0> d   1      18.745  -1.356   7.427  0.00  0.00    -0.026 SA
ATOM     17  C17 <0> d   1      18.968  -0.212   6.106  0.00  0.00     0.164 A 
ATOM     18  C16 <0> d   1      18.965   1.019   6.619  0.00  0.00     0.163 A 
ATOM     19  N15 <0> d   1      18.799   1.068   7.928  0.00  0.00    -0.234 NA
BRANCH  17  20
ATOM     20  N18 <0> d   1      19.135  -0.557   4.675  0.00  0.00    -0.107 N 
ATOM     21  O19 <0> d   1      19.848  -1.491   4.354  0.00  0.00    -0.531 OA
ATOM     22  O20 <0> d   1      18.560   0.094   3.822  0.00  0.00    -0.531 OA
ENDBRANCH  17  20
ENDBRANCH   3  15
TORSDOF 5
ENDMDL
MODEL 6
REMARK VINA RESULT:      -6.5      3.259      4.482
REMARK  5 active torsions:
REMARK  status: ('A' for Active; 'I' for Inactive)
REMARK    1  A    between atoms: C2_2  and  O4_4 
REMARK    2  A    between atoms: O4_4  and  C5_5 
REMARK    3  A    between atoms: C10_10  and  C11_11 
REMARK       I    between atoms: C11_11  and  N13_13 
REMARK    4  A    between atoms: N13_13  and  C14_14 
REMARK    5  A    between atoms: C17_17  and  N18_18 
ROOT
ATOM      1  C11 <0> d   1      18.251   2.740  10.553  0.00  0.00     0.260 C 
ATOM      2  O12 <0> d   1      17.517   3.700  10.420  0.00  0.00    -0.267 OA
ATOM      3  N13 <0> d   1      18.949   2.580  11.695  0.00  0.00    -0.301 N 
ATOM      4  H29 <0> d   1      19.535   1.813  11.801  0.00  0.00     0.171 HD
ENDROOT
BRANCH   1   5
ATOM      5  C10 <0> d   1      18.377   1.751   9.466  0.00  0.00     0.066 A 
ATOM      6  C5  <0> d   1      17.869   0.455   9.629  0.00  0.00     0.094 A 
ATOM      7  C6  <0> d   1      17.993  -0.467   8.601  0.00  0.00     0.038 A 
ATOM      8  C7  <0> d   1      18.620  -0.110   7.423  0.00  0.00     0.003 A 
ATOM      9  C8  <0> d   1      19.129   1.168   7.260  0.00  0.00     0.001 A 
ATOM     10  C9  <0> d   1      19.014   2.096   8.272  0.00  0.00     0.020 A 
BRANCH   6  11
ATOM     11  O4  <0> d   1      17.254   0.105  10.788  0.00  0.00    -0.278 OA
BRANCH  11  12
ATOM     12  C2  <0> d   1      17.899  -0.764  11.581  0.00  0.00     0.260 C 
ATOM     13  C1  <0> d   1      17.489  -2.214  11.600  0.00  0.00     0.126 C 
ATOM     14  O3  <0> d   1      18.809  -0.385  12.281  0.00  0.00    -0.265 OA
ENDBRANCH  11  12
ENDBRANCH   6  11
ENDBRANCH   1   5
BRANCH   3  15
ATOM     15  C14 <0> d   1      18.829   3.510  12.718  0.00  0.00     0.175 A 
ATOM     16  S21 <0> d   1      19.858   4.858  12.941  0.00  0.00    -0.026 SA
ATOM     17  C17 <0> d   1      18.937   5.338  14.365  0.00  0.00     0.164 A 
ATOM     18  C16 <0> d   1      17.957   4.450  14.543  0.00  0.00     0.163 A 
ATOM     19  N15 <0> d   1      17.924   3.482  13.646  0.00  0.00    -0.234 NA
BRANCH  17  20
ATOM     20  N18 <0> d   1      19.207   6.517  15.218  0.00  0.00    -0.107 N 
ATOM     21  O19 <0> d   1      18.753   7.606  14.913  0.00  0.00    -0.531 OA
ATOM     22  O20 <0> d   1      19.885   6.399  16.223  0.00  0.00    -0.531 OA
ENDBRANCH  17  20
ENDBRANCH   3  15
TORSDOF 5
ENDMDL
MODEL 7
REMARK VINA RESULT:      -6.4      3.455      4.874
REMARK  5 active torsions:
REMARK  status: ('A' for Active; 'I' for Inactive)
REMARK    1  A    between atoms: C2_2  and  O4_4 
REMARK    2  A    between atoms: O4_4  and  C5_5 
REMARK    3  A    between atoms: C10_10  and  C11_11 
REMARK       I    between atoms: C11_11  and  N13_13 
REMARK    4  A    between atoms: N13_13  and  C14_14 
REMARK    5  A    between atoms: C17_17  and  N18_18 
ROOT
ATOM      1  C11 <0> d   1      18.802   1.372   8.665  0.00  0.00     0.260 C 
ATOM      2  O12 <0> d   1      19.580   2.306   8.658  0.00  0.00    -0.267 OA
ATOM      3  N13 <0> d   1      17.944   1.219   9.693  0.00  0.00    -0.301 N 
ATOM      4  H29 <0> d   1      17.323   0.473   9.698  0.00  0.00     0.171 HD
ENDROOT
BRANCH   1   5
ATOM      5  C10 <0> d   1      18.797   0.408   7.549  0.00  0.00     0.066 A 
ATOM      6  C5  <0> d   1      19.178  -0.924   7.766  0.00  0.00     0.094 A 
ATOM      7  C6  <0> d   1      19.170  -1.823   6.710  0.00  0.00     0.038 A 
ATOM      8  C7  <0> d   1      18.792  -1.405   5.449  0.00  0.00     0.003 A 
ATOM      9  C8  <0> d   1      18.420  -0.088   5.229  0.00  0.00     0.001 A 
ATOM     10  C9  <0> d   1      18.423   0.817   6.267  0.00  0.00     0.020 A 
BRANCH   6  11
ATOM     11  O4  <0> d   1      19.550  -1.332   9.006  0.00  0.00    -0.278 OA
BRANCH  11  12
ATOM     12  C2  <0> d   1      18.726  -2.182   9.640  0.00  0.00     0.260 C 
ATOM     13  C1  <0> d   1      19.134  -3.618   9.840  0.00  0.00     0.126 C 
ATOM     14  O3  <0> d   1      17.657  -1.795  10.050  0.00  0.00    -0.265 OA
ENDBRANCH  11  12
ENDBRANCH   6  11
ENDBRANCH   1   5
BRANCH   3  15
ATOM     15  C14 <0> d   1      17.949   2.127  10.742  0.00  0.00     0.175 A 
ATOM     16  S21 <0> d   1      18.939   2.013  12.132  0.00  0.00    -0.026 SA
ATOM     17  C17 <0> d   1      18.241   3.502  12.765  0.00  0.00     0.164 A 
ATOM     18  C16 <0> d   1      17.335   3.940  11.888  0.00  0.00     0.163 A 
ATOM     19  N15 <0> d   1      17.201   3.184  10.814  0.00  0.00    -0.234 NA
BRANCH  17  20
ATOM     20  N18 <0> d   1      18.594   4.150  14.048  0.00  0.00    -0.107 N 
ATOM     21  O19 <0> d   1      17.918   3.943  15.041  0.00  0.00    -0.531 OA
ATOM     22  O20 <0> d   1      19.557   4.892  14.111  0.00  0.00    -0.531 OA
ENDBRANCH  17  20
ENDBRANCH   3  15
TORSDOF 5
ENDMDL
MODEL 8
REMARK VINA RESULT:      -6.4      4.304      7.038
REMARK  5 active torsions:
REMARK  status: ('A' for Active; 'I' for Inactive)
REMARK    1  A    between atoms: C2_2  and  O4_4 
REMARK    2  A    between atoms: O4_4  and  C5_5 
REMARK    3  A    between atoms: C10_10  and  C11_11 
REMARK       I    between atoms: C11_11  and  N13_13 
REMARK    4  A    between atoms: N13_13  and  C14_14 
REMARK    5  A    between atoms: C17_17  and  N18_18 
ROOT
ATOM      1  C11 <0> d   1      18.029  -1.790  12.093  0.00  0.00     0.260 C 
ATOM      2  O12 <0> d   1      17.029  -2.438  11.853  0.00  0.00    -0.267 OA
ATOM      3  N13 <0> d   1      19.113  -1.908  11.300  0.00  0.00    -0.301 N 
ATOM      4  H29 <0> d   1      19.911  -1.391  11.492  0.00  0.00     0.171 HD
ENDROOT
BRANCH   1   5
ATOM      5  C10 <0> d   1      18.056  -0.875  13.249  0.00  0.00     0.066 A 
ATOM      6  C5  <0> d   1      17.598   0.444  13.116  0.00  0.00     0.094 A 
ATOM      7  C6  <0> d   1      17.628   1.296  14.209  0.00  0.00     0.038 A 
ATOM      8  C7  <0> d   1      18.112   0.848  15.422  0.00  0.00     0.003 A 
ATOM      9  C8  <0> d   1      18.571  -0.453  15.557  0.00  0.00     0.001 A 
ATOM     10  C9  <0> d   1      18.548  -1.312  14.481  0.00  0.00     0.020 A 
BRANCH   6  11
ATOM     11  O4  <0> d   1      17.123   0.882  11.922  0.00  0.00    -0.278 OA
BRANCH  11  12
ATOM     12  C2  <0> d   1      17.749   1.931  11.366  0.00  0.00     0.260 C 
ATOM     13  C1  <0> d   1      19.217   1.843  11.033  0.00  0.00     0.126 C 
ATOM     14  O3  <0> d   1      17.137   2.947  11.131  0.00  0.00    -0.265 OA
ENDBRANCH  11  12
ENDBRANCH   6  11
ENDBRANCH   1   5
BRANCH   3  15
ATOM     15  C14 <0> d   1      19.087  -2.769  10.212  0.00  0.00     0.175 A 
ATOM     16  S21 <0> d   1      19.431  -4.443  10.279  0.00  0.00    -0.026 SA
ATOM     17  C17 <0> d   1      19.143  -4.582   8.546  0.00  0.00     0.164 A 
ATOM     18  C16 <0> d   1      18.825  -3.373   8.081  0.00  0.00     0.163 A 
ATOM     19  N15 <0> d   1      18.802  -2.421   8.996  0.00  0.00    -0.234 NA
BRANCH  17  20
ATOM     20  N18 <0> d   1      19.243  -5.823   7.745  0.00  0.00    -0.107 N 
ATOM     21  O19 <0> d   1      18.887  -6.886   8.222  0.00  0.00    -0.531 OA
ATOM     22  O20 <0> d   1      19.683  -5.781   6.610  0.00  0.00    -0.531 OA
ENDBRANCH  17  20
ENDBRANCH   3  15
TORSDOF 5
ENDMDL
MODEL 9
REMARK VINA RESULT:      -6.4      4.049      6.232
REMARK  5 active torsions:
REMARK  status: ('A' for Active; 'I' for Inactive)
REMARK    1  A    between atoms: C2_2  and  O4_4 
REMARK    2  A    between atoms: O4_4  and  C5_5 
REMARK    3  A    between atoms: C10_10  and  C11_11 
REMARK       I    between atoms: C11_11  and  N13_13 
REMARK    4  A    between atoms: N13_13  and  C14_14 
REMARK    5  A    between atoms: C17_17  and  N18_18 
ROOT
ATOM      1  C11 <0> d   1      19.201  -0.176  10.405  0.00  0.00     0.260 C 
ATOM      2  O12 <0> d   1      20.278  -0.356   9.873  0.00  0.00    -0.267 OA
ATOM      3  N13 <0> d   1      18.431  -1.231  10.739  0.00  0.00    -0.301 N 
ATOM      4  H29 <0> d   1      17.570  -1.087  11.165  0.00  0.00     0.171 HD
ENDROOT
BRANCH   1   5
ATOM      5  C10 <0> d   1      18.736   1.195  10.686  0.00  0.00     0.066 A 
ATOM      6  C5  <0> d   1      18.296   1.542  11.971  0.00  0.00     0.094 A 
ATOM      7  C6  <0> d   1      17.861   2.833  12.225  0.00  0.00     0.038 A 
ATOM      8  C7  <0> d   1      17.856   3.773  11.212  0.00  0.00     0.003 A 
ATOM      9  C8  <0> d   1      18.285   3.434   9.939  0.00  0.00     0.001 A 
ATOM     10  C9  <0> d   1      18.720   2.154   9.670  0.00  0.00     0.020 A 
BRANCH   6  11
ATOM     11  O4  <0> d   1      18.301   0.616  12.965  0.00  0.00    -0.278 OA
BRANCH  11  12
ATOM     12  C2  <0> d   1      19.283   0.706  13.875  0.00  0.00     0.260 C 
ATOM     13  C1  <0> d   1      19.020   1.367  15.204  0.00  0.00     0.126 C 
ATOM     14  O3  <0> d   1      20.378   0.256  13.630  0.00  0.00    -0.265 OA
ENDBRANCH  11  12
ENDBRANCH   6  11
ENDBRANCH   1   5
BRANCH   3  15
ATOM     15  C14 <0> d   1      18.869  -2.522  10.476  0.00  0.00     0.175 A 
ATOM     16  S21 <0> d   1      18.546  -3.391   9.039  0.00  0.00    -0.026 SA
ATOM     17  C17 <0> d   1      19.456  -4.768   9.655  0.00  0.00     0.164 A 
ATOM     18  C16 <0> d   1      19.909  -4.455  10.871  0.00  0.00     0.163 A 
ATOM     19  N15 <0> d   1      19.579  -3.245  11.284  0.00  0.00    -0.234 NA
BRANCH  17  20
ATOM     20  N18 <0> d   1      19.676  -6.051   8.950  0.00  0.00    -0.107 N 
ATOM     21  O19 <0> d   1      20.801  -6.510   8.857  0.00  0.00    -0.531 OA
ATOM     22  O20 <0> d   1      18.732  -6.646   8.461  0.00  0.00    -0.531 OA
ENDBRANCH  17  20
ENDBRANCH   3  15
TORSDOF 5
ENDMDL
