MODEL 1
REMARK VINA RESULT:      -8.7      0.000      0.000
REMARK  5 active torsions:
REMARK  status: ('A' for Active; 'I' for Inactive)
REMARK    1  A    between atoms: O1_1  and  C2_2 
REMARK    2  A    between atoms: C2_2  and  C4_3 
REMARK    3  A    between atoms: C2_2  and  C22_21 
REMARK    4  A    between atoms: C9_8  and  C10_9 
REMARK    5  A    between atoms: C16_15  and  C17_16 
ROOT
ATOM      1  C4  <0> d   1      19.418  -0.309  11.635  0.00  0.00    -0.013 A 
ATOM      2  C5  <0> d   1      19.258   0.437  10.453  0.00  0.00     0.002 A 
ATOM      3  C6  <0> d   1      19.298   1.841  10.462  0.00  0.00     0.014 A 
ATOM      4  C7  <0> d   1      19.140   2.526   9.296  0.00  0.00     0.002 A 
ATOM      5  C8  <0> d   1      18.938   1.854   8.093  0.00  0.00     0.019 A 
ATOM      6  C9  <0> d   1      18.893   0.494   8.046  0.00  0.00     0.077 A 
ATOM      7  C14 <0> d   1      19.052  -0.249   9.229  0.00  0.00     0.083 A 
ATOM      8  N15 <0> d   1      19.014  -1.585   9.215  0.00  0.00    -0.243 NA
ATOM      9  C16 <0> d   1      19.163  -2.283  10.315  0.00  0.00     0.141 A 
ATOM     10  C21 <0> d   1      19.372  -1.672  11.548  0.00  0.00     0.047 A 
ENDROOT
BRANCH   1  11
ATOM     11  C2  <0> d   1      19.639   0.376  12.959  0.00  0.00     0.182 C 
BRANCH  11  12
ATOM     12  O1  <0> d   1      21.002   0.215  13.357  0.00  0.00    -0.389 OA
ATOM     13  H31 <0> d   1      21.248   0.734  14.135  0.00  0.00     0.210 HD
ENDBRANCH  11  12
BRANCH  11  14
ATOM     14  C22 <0> d   1      18.722  -0.246  14.015  0.00  0.00     0.219 C 
ATOM     15  N28 <0> d   1      18.066   0.820  14.781  0.00  0.00    -0.068 N 
ATOM     16  C27 <0> d   1      17.126   0.234  15.745  0.00  0.00     0.233 C 
ATOM     17  H29 <0> d   1      18.763   1.356  15.275  0.00  0.00     0.277 HD
ATOM     18  H30 <0> d   1      17.563   1.425  14.149  0.00  0.00     0.277 HD
ATOM     19  C26 <0> d   1      17.895  -0.622  16.755  0.00  0.00     0.027 C 
ATOM     20  C25 <0> d   1      18.631  -1.740  16.012  0.00  0.00     0.004 C 
ATOM     21  C24 <0> d   1      19.552  -1.120  14.957  0.00  0.00     0.036 C 
ENDBRANCH  11  14
ENDBRANCH   1  11
BRANCH   9  22
ATOM     22  C17 <0> d   1      19.111  -3.788  10.242  0.00  0.00     0.434 C 
ATOM     23  F18 <0> d   1      20.206  -4.325  10.927  0.00  0.00    -0.165 F 
ATOM     24  F19 <0> d   1      17.925  -4.242  10.828  0.00  0.00    -0.165 F 
ATOM     25  F20 <0> d   1      19.155  -4.191   8.904  0.00  0.00    -0.165 F 
ENDBRANCH   9  22
BRANCH   6  26
ATOM     26  C10 <0> d   1      18.673  -0.211   6.733  0.00  0.00     0.419 C 
ATOM     27  F11 <0> d   1      17.379  -0.743   6.701  0.00  0.00    -0.166 F 
ATOM     28  F12 <0> d   1      18.828   0.700   5.682  0.00  0.00    -0.166 F 
ATOM     29  F13 <0> d   1      19.606  -1.244   6.597  0.00  0.00    -0.166 F 
ENDBRANCH   6  26
TORSDOF 5
ENDMDL
MODEL 2
REMARK VINA RESULT:      -8.7      2.508      3.798
REMARK  5 active torsions:
REMARK  status: ('A' for Active; 'I' for Inactive)
REMARK    1  A    between atoms: O1_1  and  C2_2 
REMARK    2  A    between atoms: C2_2  and  C4_3 
REMARK    3  A    between atoms: C2_2  and  C22_21 
REMARK    4  A    between atoms: C9_8  and  C10_9 
REMARK    5  A    between atoms: C16_15  and  C17_16 
ROOT
ATOM      1  C4  <0> d   1      19.457   1.253  10.511  0.00  0.00    -0.013 A 
ATOM      2  C5  <0> d   1      19.231   0.823   9.191  0.00  0.00     0.002 A 
ATOM      3  C6  <0> d   1      19.203   1.730   8.120  0.00  0.00     0.014 A 
ATOM      4  C7  <0> d   1      18.982   1.273   6.857  0.00  0.00     0.002 A 
ATOM      5  C8  <0> d   1      18.782  -0.084   6.611  0.00  0.00     0.019 A 
ATOM      6  C9  <0> d   1      18.802  -0.991   7.625  0.00  0.00     0.077 A 
ATOM      7  C14 <0> d   1      19.028  -0.558   8.944  0.00  0.00     0.083 A 
ATOM      8  N15 <0> d   1      19.054  -1.427   9.960  0.00  0.00    -0.243 NA
ATOM      9  C16 <0> d   1      19.265  -1.028  11.191  0.00  0.00     0.141 A 
ATOM     10  C21 <0> d   1      19.475   0.312  11.502  0.00  0.00     0.047 A 
ENDROOT
BRANCH   1  11
ATOM     11  C2  <0> d   1      19.678   2.711  10.823  0.00  0.00     0.182 C 
BRANCH  11  12
ATOM     12  O1  <0> d   1      20.735   2.839  11.777  0.00  0.00    -0.389 OA
ATOM     13  H31 <0> d   1      20.596   3.543  12.425  0.00  0.00     0.210 HD
ENDBRANCH  11  12
BRANCH  11  14
ATOM     14  C22 <0> d   1      18.394   3.310  11.402  0.00  0.00     0.219 C 
ATOM     15  N28 <0> d   1      17.861   4.313  10.473  0.00  0.00    -0.068 N 
ATOM     16  C27 <0> d   1      16.588   4.838  10.983  0.00  0.00     0.233 C 
ATOM     17  H29 <0> d   1      18.522   5.069  10.379  0.00  0.00     0.277 HD
ATOM     18  H30 <0> d   1      17.710   3.886   9.571  0.00  0.00     0.277 HD
ATOM     19  C26 <0> d   1      16.825   5.555  12.313  0.00  0.00     0.027 C 
ATOM     20  C25 <0> d   1      17.413   4.566  13.323  0.00  0.00     0.004 C 
ATOM     21  C24 <0> d   1      18.701   3.969  12.748  0.00  0.00     0.036 C 
ENDBRANCH  11  14
ENDBRANCH   1  11
BRANCH   9  22
ATOM     22  C17 <0> d   1      19.284  -2.050  12.299  0.00  0.00     0.434 C 
ATOM     23  F18 <0> d   1      20.165  -3.084  11.963  0.00  0.00    -0.165 F 
ATOM     24  F19 <0> d   1      19.710  -1.442  13.486  0.00  0.00    -0.165 F 
ATOM     25  F20 <0> d   1      17.999  -2.571  12.476  0.00  0.00    -0.165 F 
ENDBRANCH   9  22
BRANCH   6  26
ATOM     26  C10 <0> d   1      18.583  -2.454   7.336  0.00  0.00     0.419 C 
ATOM     27  F11 <0> d   1      19.794  -3.141   7.470  0.00  0.00    -0.166 F 
ATOM     28  F12 <0> d   1      17.649  -2.973   8.239  0.00  0.00    -0.166 F 
ATOM     29  F13 <0> d   1      18.103  -2.604   6.030  0.00  0.00    -0.166 F 
ENDBRANCH   6  26
TORSDOF 5
ENDMDL
MODEL 3
REMARK VINA RESULT:      -8.5      2.059      2.765
REMARK  5 active torsions:
REMARK  status: ('A' for Active; 'I' for Inactive)
REMARK    1  A    between atoms: O1_1  and  C2_2 
REMARK    2  A    between atoms: C2_2  and  C4_3 
REMARK    3  A    between atoms: C2_2  and  C22_21 
REMARK    4  A    between atoms: C9_8  and  C10_9 
REMARK    5  A    between atoms: C16_15  and  C17_16 
ROOT
ATOM      1  C4  <0> d   1      18.682   1.505  13.391  0.00  0.00    -0.013 A 
ATOM      2  C5  <0> d   1      18.566   2.161  12.152  0.00  0.00     0.002 A 
ATOM      3  C6  <0> d   1      18.301   3.538  12.075  0.00  0.00     0.014 A 
ATOM      4  C7  <0> d   1      18.196   4.136  10.856  0.00  0.00     0.002 A 
ATOM      5  C8  <0> d   1      18.348   3.400   9.683  0.00  0.00     0.019 A 
ATOM      6  C9  <0> d   1      18.605   2.064   9.720  0.00  0.00     0.077 A 
ATOM      7  C14 <0> d   1      18.721   1.410  10.960  0.00  0.00     0.083 A 
ATOM      8  N15 <0> d   1      18.974   0.099  11.027  0.00  0.00    -0.243 NA
ATOM      9  C16 <0> d   1      19.083  -0.515  12.181  0.00  0.00     0.141 A 
ATOM     10  C21 <0> d   1      18.946   0.164  13.388  0.00  0.00     0.047 A 
ENDROOT
BRANCH   1  11
ATOM     11  C2  <0> d   1      18.526   2.261  14.686  0.00  0.00     0.182 C 
BRANCH  11  12
ATOM     12  O1  <0> d   1      19.576   3.223  14.806  0.00  0.00    -0.389 OA
ATOM     13  H31 <0> d   1      19.661   3.604  15.690  0.00  0.00     0.210 HD
ENDBRANCH  11  12
BRANCH  11  14
ATOM     14  C22 <0> d   1      18.594   1.282  15.860  0.00  0.00     0.219 C 
ATOM     15  N28 <0> d   1      17.236   0.860  16.224  0.00  0.00    -0.068 N 
ATOM     16  C27 <0> d   1      17.297  -0.139  17.299  0.00  0.00     0.233 C 
ATOM     17  H29 <0> d   1      16.708   1.660  16.537  0.00  0.00     0.277 HD
ATOM     18  H30 <0> d   1      16.785   0.455  15.417  0.00  0.00     0.277 HD
ATOM     19  C26 <0> d   1      17.909   0.493  18.551  0.00  0.00     0.027 C 
ATOM     20  C25 <0> d   1      19.322   0.985  18.230  0.00  0.00     0.004 C 
ATOM     21  C24 <0> d   1      19.256   1.968  17.057  0.00  0.00     0.036 C 
ENDBRANCH  11  14
ENDBRANCH   1  11
BRANCH   9  22
ATOM     22  C17 <0> d   1      19.370  -1.995  12.200  0.00  0.00     0.434 C 
ATOM     23  F18 <0> d   1      20.303  -2.300  11.203  0.00  0.00    -0.165 F 
ATOM     24  F19 <0> d   1      19.887  -2.353  13.449  0.00  0.00    -0.165 F 
ATOM     25  F20 <0> d   1      18.187  -2.701  11.963  0.00  0.00    -0.165 F 
ENDBRANCH   9  22
BRANCH   6  26
ATOM     26  C10 <0> d   1      18.765   1.288   8.438  0.00  0.00     0.419 C 
ATOM     27  F11 <0> d   1      18.933   2.179   7.373  0.00  0.00    -0.166 F 
ATOM     28  F12 <0> d   1      19.888   0.458   8.533  0.00  0.00    -0.166 F 
ATOM     29  F13 <0> d   1      17.625   0.508   8.219  0.00  0.00    -0.166 F 
ENDBRANCH   6  26
TORSDOF 5
ENDMDL
MODEL 4
REMARK VINA RESULT:      -8.4      1.767      2.295
REMARK  5 active torsions:
REMARK  status: ('A' for Active; 'I' for Inactive)
REMARK    1  A    between atoms: O1_1  and  C2_2 
REMARK    2  A    between atoms: C2_2  and  C4_3 
REMARK    3  A    between atoms: C2_2  and  C22_21 
REMARK    4  A    between atoms: C9_8  and  C10_9 
REMARK    5  A    between atoms: C16_15  and  C17_16 
ROOT
ATOM      1  C4  <0> d   1      19.474  -1.037   9.437  0.00  0.00    -0.013 A 
ATOM      2  C5  <0> d   1      19.251  -0.289   8.267  0.00  0.00     0.002 A 
ATOM      3  C6  <0> d   1      19.455   1.101   8.237  0.00  0.00     0.014 A 
ATOM      4  C7  <0> d   1      19.229   1.789   7.084  0.00  0.00     0.002 A 
ATOM      5  C8  <0> d   1      18.798   1.134   5.933  0.00  0.00     0.019 A 
ATOM      6  C9  <0> d   1      18.591  -0.211   5.925  0.00  0.00     0.077 A 
ATOM      7  C14 <0> d   1      18.813  -0.957   7.096  0.00  0.00     0.083 A 
ATOM      8  N15 <0> d   1      18.619  -2.280   7.118  0.00  0.00    -0.243 NA
ATOM      9  C16 <0> d   1      18.826  -2.980   8.207  0.00  0.00     0.141 A 
ATOM     10  C21 <0> d   1      19.260  -2.386   9.389  0.00  0.00     0.047 A 
ENDROOT
BRANCH   1  11
ATOM     11  C2  <0> d   1      19.940  -0.371  10.706  0.00  0.00     0.182 C 
BRANCH  11  12
ATOM     12  O1  <0> d   1      21.181  -0.947  11.118  0.00  0.00    -0.389 OA
ATOM     13  H31 <0> d   1      21.572  -0.524  11.895  0.00  0.00     0.210 HD
ENDBRANCH  11  12
BRANCH  11  14
ATOM     14  C22 <0> d   1      18.894  -0.576  11.804  0.00  0.00     0.219 C 
ATOM     15  N28 <0> d   1      18.385   0.729  12.244  0.00  0.00    -0.068 N 
ATOM     16  C27 <0> d   1      17.326   0.540  13.242  0.00  0.00     0.233 C 
ATOM     17  H29 <0> d   1      19.138   1.263  12.650  0.00  0.00     0.277 HD
ATOM     18  H30 <0> d   1      18.012   1.226  11.449  0.00  0.00     0.277 HD
ATOM     19  C26 <0> d   1      17.906  -0.145  14.482  0.00  0.00     0.027 C 
ATOM     20  C25 <0> d   1      18.484  -1.505  14.084  0.00  0.00     0.004 C 
ATOM     21  C24 <0> d   1      19.534  -1.302  12.988  0.00  0.00     0.036 C 
ENDBRANCH  11  14
ENDBRANCH   1  11
BRANCH   9  22
ATOM     22  C17 <0> d   1      18.592  -4.469   8.177  0.00  0.00     0.434 C 
ATOM     23  F18 <0> d   1      19.818  -5.135   8.280  0.00  0.00    -0.165 F 
ATOM     24  F19 <0> d   1      17.771  -4.833   9.250  0.00  0.00    -0.165 F 
ATOM     25  F20 <0> d   1      17.970  -4.819   6.975  0.00  0.00    -0.165 F 
ENDBRANCH   9  22
BRANCH   6  26
ATOM     26  C10 <0> d   1      18.125  -0.897   4.667  0.00  0.00     0.419 C 
ATOM     27  F11 <0> d   1      16.825  -1.378   4.854  0.00  0.00    -0.166 F 
ATOM     28  F12 <0> d   1      18.137   0.015   3.606  0.00  0.00    -0.166 F 
ATOM     29  F13 <0> d   1      18.981  -1.965   4.374  0.00  0.00    -0.166 F 
ENDBRANCH   6  26
TORSDOF 5
ENDMDL
MODEL 5
REMARK VINA RESULT:      -8.3      5.031      8.247
REMARK  5 active torsions:
REMARK  status: ('A' for Active; 'I' for Inactive)
REMARK    1  A    between atoms: O1_1  and  C2_2 
REMARK    2  A    between atoms: C2_2  and  C4_3 
REMARK    3  A    between atoms: C2_2  and  C22_21 
REMARK    4  A    between atoms: C9_8  and  C10_9 
REMARK    5  A    between atoms: C16_15  and  C17_16 
ROOT
ATOM      1  C4  <0> d   1      19.339   1.184  13.696  0.00  0.00    -0.013 A 
ATOM      2  C5  <0> d   1      19.153   0.417  14.861  0.00  0.00     0.002 A 
ATOM      3  C6  <0> d   1      19.406  -0.965  14.875  0.00  0.00     0.014 A 
ATOM      4  C7  <0> d   1      19.214  -1.672  16.022  0.00  0.00     0.002 A 
ATOM      5  C8  <0> d   1      18.771  -1.044  17.184  0.00  0.00     0.019 A 
ATOM      6  C9  <0> d   1      18.517   0.293  17.207  0.00  0.00     0.077 A 
ATOM      7  C14 <0> d   1      18.703   1.058  16.042  0.00  0.00     0.083 A 
ATOM      8  N15 <0> d   1      18.462   2.373  16.035  0.00  0.00    -0.243 NA
ATOM      9  C16 <0> d   1      18.635   3.091  14.951  0.00  0.00     0.141 A 
ATOM     10  C21 <0> d   1      19.079   2.524  13.759  0.00  0.00     0.047 A 
ENDROOT
BRANCH   1  11
ATOM     11  C2  <0> d   1      19.817   0.547  12.417  0.00  0.00     0.182 C 
BRANCH  11  12
ATOM     12  O1  <0> d   1      21.118   1.043  12.095  0.00  0.00    -0.389 OA
ATOM     13  H31 <0> d   1      21.769   0.925  12.800  0.00  0.00     0.210 HD
ENDBRANCH  11  12
BRANCH  11  14
ATOM     14  C22 <0> d   1      18.847   0.889  11.284  0.00  0.00     0.219 C 
ATOM     15  N28 <0> d   1      18.314  -0.351  10.707  0.00  0.00    -0.068 N 
ATOM     16  C27 <0> d   1      17.324  -0.033   9.670  0.00  0.00     0.233 C 
ATOM     17  H29 <0> d   1      19.067  -0.884  10.299  0.00  0.00     0.277 HD
ATOM     18  H30 <0> d   1      17.874  -0.895  11.434  0.00  0.00     0.277 HD
ATOM     19  C26 <0> d   1      18.004   0.725   8.528  0.00  0.00     0.027 C 
ATOM     20  C25 <0> d   1      18.611   2.020   9.071  0.00  0.00     0.004 C 
ATOM     21  C24 <0> d   1      19.585   1.681  10.203  0.00  0.00     0.036 C 
ENDBRANCH  11  14
ENDBRANCH   1  11
BRANCH   9  22
ATOM     22  C17 <0> d   1      18.349   4.570  14.998  0.00  0.00     0.434 C 
ATOM     23  F18 <0> d   1      18.723   5.077  16.247  0.00  0.00    -0.165 F 
ATOM     24  F19 <0> d   1      19.077   5.218  13.994  0.00  0.00    -0.165 F 
ATOM     25  F20 <0> d   1      16.983   4.788  14.797  0.00  0.00    -0.165 F 
ENDBRANCH   9  22
BRANCH   6  26
ATOM     26  C10 <0> d   1      18.038   0.951  18.476  0.00  0.00     0.419 C 
ATOM     27  F11 <0> d   1      16.718   1.379  18.308  0.00  0.00    -0.166 F 
ATOM     28  F12 <0> d   1      18.101   0.032  19.530  0.00  0.00    -0.166 F 
ATOM     29  F13 <0> d   1      18.853   2.050  18.767  0.00  0.00    -0.166 F 
ENDBRANCH   6  26
TORSDOF 5
ENDMDL
MODEL 6
REMARK VINA RESULT:      -8.3      3.410      5.179
REMARK  5 active torsions:
REMARK  status: ('A' for Active; 'I' for Inactive)
REMARK    1  A    between atoms: O1_1  and  C2_2 
REMARK    2  A    between atoms: C2_2  and  C4_3 
REMARK    3  A    between atoms: C2_2  and  C22_21 
REMARK    4  A    between atoms: C9_8  and  C10_9 
REMARK    5  A    between atoms: C16_15  and  C17_16 
ROOT
ATOM      1  C4  <0> d   1      19.320  -1.556  12.075  0.00  0.00    -0.013 A 
ATOM      2  C5  <0> d   1      19.299  -0.716  10.947  0.00  0.00     0.002 A 
ATOM      3  C6  <0> d   1      19.648  -1.193   9.673  0.00  0.00     0.014 A 
ATOM      4  C7  <0> d   1      19.614  -0.347   8.606  0.00  0.00     0.002 A 
ATOM      5  C8  <0> d   1      19.237   0.985   8.760  0.00  0.00     0.019 A 
ATOM      6  C9  <0> d   1      18.892   1.481   9.980  0.00  0.00     0.077 A 
ATOM      7  C14 <0> d   1      18.915   0.639  11.107  0.00  0.00     0.083 A 
ATOM      8  N15 <0> d   1      18.580   1.098  12.317  0.00  0.00    -0.243 NA
ATOM      9  C16 <0> d   1      18.599   0.317  13.370  0.00  0.00     0.141 A 
ATOM     10  C21 <0> d   1      18.962  -1.024  13.282  0.00  0.00     0.047 A 
ENDROOT
BRANCH   1  11
ATOM     11  C2  <0> d   1      19.721  -3.004  11.955  0.00  0.00     0.182 C 
BRANCH  11  12
ATOM     12  O1  <0> d   1      21.020  -3.091  11.366  0.00  0.00    -0.389 OA
ATOM     13  H31 <0> d   1      21.613  -3.713  11.810  0.00  0.00     0.210 HD
ENDBRANCH  11  12
BRANCH  11  14
ATOM     14  C22 <0> d   1      18.711  -3.743  11.074  0.00  0.00     0.219 C 
ATOM     15  N28 <0> d   1      17.638  -4.290  11.914  0.00  0.00    -0.068 N 
ATOM     16  C27 <0> d   1      16.624  -4.933  11.070  0.00  0.00     0.233 C 
ATOM     17  H29 <0> d   1      18.024  -4.968  12.552  0.00  0.00     0.277 HD
ATOM     18  H30 <0> d   1      17.211  -3.541  12.439  0.00  0.00     0.277 HD
ATOM     19  C26 <0> d   1      17.250  -6.119  10.331  0.00  0.00     0.027 C 
ATOM     20  C25 <0> d   1      18.402  -5.618   9.456  0.00  0.00     0.004 C 
ATOM     21  C24 <0> d   1      19.416  -4.882  10.337  0.00  0.00     0.036 C 
ENDBRANCH  11  14
ENDBRANCH   1  11
BRANCH   9  22
ATOM     22  C17 <0> d   1      18.212   0.885  14.711  0.00  0.00     0.434 C 
ATOM     23  F18 <0> d   1      19.352   1.002  15.514  0.00  0.00    -0.165 F 
ATOM     24  F19 <0> d   1      17.635   2.148  14.534  0.00  0.00    -0.165 F 
ATOM     25  F20 <0> d   1      17.291   0.035  15.330  0.00  0.00    -0.165 F 
ENDBRANCH   9  22
BRANCH   6  26
ATOM     26  C10 <0> d   1      18.488   2.926  10.123  0.00  0.00     0.419 C 
ATOM     27  F11 <0> d   1      19.357   3.566  11.012  0.00  0.00    -0.166 F 
ATOM     28  F12 <0> d   1      18.552   3.553   8.873  0.00  0.00    -0.166 F 
ATOM     29  F13 <0> d   1      17.180   2.997  10.614  0.00  0.00    -0.166 F 
ENDBRANCH   6  26
TORSDOF 5
ENDMDL
MODEL 7
REMARK VINA RESULT:      -8.1      2.858      5.056
REMARK  5 active torsions:
REMARK  status: ('A' for Active; 'I' for Inactive)
REMARK    1  A    between atoms: O1_1  and  C2_2 
REMARK    2  A    between atoms: C2_2  and  C4_3 
REMARK    3  A    between atoms: C2_2  and  C22_21 
REMARK    4  A    between atoms: C9_8  and  C10_9 
REMARK    5  A    between atoms: C16_15  and  C17_16 
ROOT
ATOM      1  C4  <0> d   1      18.313  -0.238   9.790  0.00  0.00    -0.013 A 
ATOM      2  C5  <0> d   1      18.543  -1.626   9.797  0.00  0.00     0.002 A 
ATOM      3  C6  <0> d   1      18.527  -2.365  10.991  0.00  0.00     0.014 A 
ATOM      4  C7  <0> d   1      18.754  -3.707  10.955  0.00  0.00     0.002 A 
ATOM      5  C8  <0> d   1      19.002  -4.359   9.749  0.00  0.00     0.019 A 
ATOM      6  C9  <0> d   1      19.026  -3.675   8.572  0.00  0.00     0.077 A 
ATOM      7  C14 <0> d   1      18.796  -2.287   8.568  0.00  0.00     0.083 A 
ATOM      8  N15 <0> d   1      18.811  -1.589   7.428  0.00  0.00    -0.243 NA
ATOM      9  C16 <0> d   1      18.597  -0.296   7.419  0.00  0.00     0.141 A 
ATOM     10  C21 <0> d   1      18.339   0.413   8.589  0.00  0.00     0.047 A 
ENDROOT
BRANCH   1  11
ATOM     11  C2  <0> d   1      18.040   0.507  11.071  0.00  0.00     0.182 C 
BRANCH  11  12
ATOM     12  O1  <0> d   1      16.629   0.594  11.280  0.00  0.00    -0.389 OA
ATOM     13  H31 <0> d   1      16.101   0.248  10.548  0.00  0.00     0.210 HD
ENDBRANCH  11  12
BRANCH  11  14
ATOM     14  C22 <0> d   1      18.629   1.917  10.976  0.00  0.00     0.219 C 
ATOM     15  N28 <0> d   1      19.674   2.080  11.993  0.00  0.00    -0.068 N 
ATOM     16  C27 <0> d   1      20.297   3.402  11.859  0.00  0.00     0.233 C 
ATOM     17  H29 <0> d   1      19.265   1.992  12.911  0.00  0.00     0.277 HD
ATOM     18  H30 <0> d   1      20.375   1.365  11.869  0.00  0.00     0.277 HD
ATOM     19  C26 <0> d   1      19.254   4.490  12.125  0.00  0.00     0.027 C 
ATOM     20  C25 <0> d   1      18.115   4.356  11.112  0.00  0.00     0.004 C 
ATOM     21  C24 <0> d   1      17.522   2.947  11.208  0.00  0.00     0.036 C 
ENDBRANCH  11  14
ENDBRANCH   1  11
BRANCH   9  22
ATOM     22  C17 <0> d   1      18.625   0.443   6.105  0.00  0.00     0.434 C 
ATOM     23  F18 <0> d   1      17.381   0.324   5.477  0.00  0.00    -0.165 F 
ATOM     24  F19 <0> d   1      18.904   1.795   6.337  0.00  0.00    -0.165 F 
ATOM     25  F20 <0> d   1      19.616  -0.103   5.285  0.00  0.00    -0.165 F 
ENDBRANCH   9  22
BRANCH   6  26
ATOM     26  C10 <0> d   1      19.297  -4.401   7.280  0.00  0.00     0.419 C 
ATOM     27  F11 <0> d   1      19.578  -5.744   7.551  0.00  0.00    -0.166 F 
ATOM     28  F12 <0> d   1      18.170  -4.318   6.454  0.00  0.00    -0.166 F 
ATOM     29  F13 <0> d   1      20.391  -3.814   6.636  0.00  0.00    -0.166 F 
ENDBRANCH   6  26
TORSDOF 5
ENDMDL
MODEL 8
REMARK VINA RESULT:      -8.0      3.419      5.544
REMARK  5 active torsions:
REMARK  status: ('A' for Active; 'I' for Inactive)
REMARK    1  A    between atoms: O1_1  and  C2_2 
REMARK    2  A    between atoms: C2_2  and  C4_3 
REMARK    3  A    between atoms: C2_2  and  C22_21 
REMARK    4  A    between atoms: C9_8  and  C10_9 
REMARK    5  A    between atoms: C16_15  and  C17_16 
ROOT
ATOM      1  C4  <0> d   1      18.833  -1.230   9.724  0.00  0.00    -0.013 A 
ATOM      2  C5  <0> d   1      18.848   0.153   9.469  0.00  0.00     0.002 A 
ATOM      3  C6  <0> d   1      18.888   0.655   8.158  0.00  0.00     0.014 A 
ATOM      4  C7  <0> d   1      18.900   2.001   7.953  0.00  0.00     0.002 A 
ATOM      5  C8  <0> d   1      18.874   2.889   9.027  0.00  0.00     0.019 A 
ATOM      6  C9  <0> d   1      18.835   2.438  10.310  0.00  0.00     0.077 A 
ATOM      7  C14 <0> d   1      18.821   1.054  10.563  0.00  0.00     0.083 A 
ATOM      8  N15 <0> d   1      18.782   0.582  11.813  0.00  0.00    -0.243 NA
ATOM      9  C16 <0> d   1      18.767  -0.707  12.054  0.00  0.00     0.141 A 
ATOM     10  C21 <0> d   1      18.788  -1.645  11.025  0.00  0.00     0.047 A 
ENDROOT
BRANCH   1  11
ATOM     11  C2  <0> d   1      18.861  -2.227   8.594  0.00  0.00     0.182 C 
BRANCH  11  12
ATOM     12  O1  <0> d   1      17.699  -2.055   7.779  0.00  0.00    -0.389 OA
ATOM     13  H31 <0> d   1      17.880  -2.061   6.829  0.00  0.00     0.210 HD
ENDBRANCH  11  12
BRANCH  11  14
ATOM     14  C22 <0> d   1      18.878  -3.646   9.165  0.00  0.00     0.219 C 
ATOM     15  N28 <0> d   1      19.925  -4.429   8.496  0.00  0.00    -0.068 N 
ATOM     16  C27 <0> d   1      20.001  -5.769   9.091  0.00  0.00     0.233 C 
ATOM     17  H29 <0> d   1      19.709  -4.509   7.514  0.00  0.00     0.277 HD
ATOM     18  H30 <0> d   1      20.813  -3.962   8.607  0.00  0.00     0.277 HD
ATOM     19  C26 <0> d   1      18.683  -6.510   8.856  0.00  0.00     0.027 C 
ATOM     20  C25 <0> d   1      17.539  -5.726   9.505  0.00  0.00     0.004 C 
ATOM     21  C24 <0> d   1      17.517  -4.305   8.932  0.00  0.00     0.036 C 
ENDBRANCH  11  14
ENDBRANCH   1  11
BRANCH   9  22
ATOM     22  C17 <0> d   1      18.723  -1.186  13.482  0.00  0.00     0.434 C 
ATOM     23  F18 <0> d   1      19.972  -0.985  14.079  0.00  0.00    -0.165 F 
ATOM     24  F19 <0> d   1      17.749  -0.467  14.184  0.00  0.00    -0.165 F 
ATOM     25  F20 <0> d   1      18.406  -2.547  13.508  0.00  0.00    -0.165 F 
ENDBRANCH   9  22
BRANCH   6  26
ATOM     26  C10 <0> d   1      18.807   3.417  11.456  0.00  0.00     0.419 C 
ATOM     27  F11 <0> d   1      20.059   3.442  12.077  0.00  0.00    -0.166 F 
ATOM     28  F12 <0> d   1      18.501   4.693  10.970  0.00  0.00    -0.166 F 
ATOM     29  F13 <0> d   1      17.834   3.023  12.381  0.00  0.00    -0.166 F 
ENDBRANCH   6  26
TORSDOF 5
ENDMDL
MODEL 9
REMARK VINA RESULT:      -8.0      3.545      5.669
REMARK  5 active torsions:
REMARK  status: ('A' for Active; 'I' for Inactive)
REMARK    1  A    between atoms: O1_1  and  C2_2 
REMARK    2  A    between atoms: C2_2  and  C4_3 
REMARK    3  A    between atoms: C2_2  and  C22_21 
REMARK    4  A    between atoms: C9_8  and  C10_9 
REMARK    5  A    between atoms: C16_15  and  C17_16 
ROOT
ATOM      1  C4  <0> d   1      17.931  -1.611  11.263  0.00  0.00    -0.013 A 
ATOM      2  C5  <0> d   1      18.101  -0.355  10.653  0.00  0.00     0.002 A 
ATOM      3  C6  <0> d   1      17.815  -0.157   9.292  0.00  0.00     0.014 A 
ATOM      4  C7  <0> d   1      17.993   1.075   8.740  0.00  0.00     0.002 A 
ATOM      5  C8  <0> d   1      18.454   2.143   9.506  0.00  0.00     0.019 A 
ATOM      6  C9  <0> d   1      18.741   1.988  10.827  0.00  0.00     0.077 A 
ATOM      7  C14 <0> d   1      18.571   0.731  11.435  0.00  0.00     0.083 A 
ATOM      8  N15 <0> d   1      18.843   0.548  12.731  0.00  0.00    -0.243 NA
ATOM      9  C16 <0> d   1      18.685  -0.621  13.302  0.00  0.00     0.141 A 
ATOM     10  C21 <0> d   1      18.224  -1.727  12.593  0.00  0.00     0.047 A 
ENDROOT
BRANCH   1  11
ATOM     11  C2  <0> d   1      17.434  -2.794  10.473  0.00  0.00     0.182 C 
BRANCH  11  12
ATOM     12  O1  <0> d   1      16.856  -3.752  11.363  0.00  0.00    -0.389 OA
ATOM     13  H31 <0> d   1      16.899  -3.499  12.295  0.00  0.00     0.210 HD
ENDBRANCH  11  12
BRANCH  11  14
ATOM     14  C22 <0> d   1      18.604  -3.436   9.725  0.00  0.00     0.219 C 
ATOM     15  N28 <0> d   1      18.269  -3.552   8.301  0.00  0.00    -0.068 N 
ATOM     16  C27 <0> d   1      19.415  -4.095   7.561  0.00  0.00     0.233 C 
ATOM     17  H29 <0> d   1      17.476  -4.166   8.191  0.00  0.00     0.277 HD
ATOM     18  H30 <0> d   1      18.038  -2.639   7.937  0.00  0.00     0.277 HD
ATOM     19  C26 <0> d   1      19.719  -5.511   8.056  0.00  0.00     0.027 C 
ATOM     20  C25 <0> d   1      20.048  -5.465   9.550  0.00  0.00     0.004 C 
ATOM     21  C24 <0> d   1      18.877  -4.827  10.302  0.00  0.00     0.036 C 
ENDBRANCH  11  14
ENDBRANCH   1  11
BRANCH   9  22
ATOM     22  C17 <0> d   1      19.008  -0.771  14.767  0.00  0.00     0.434 C 
ATOM     23  F18 <0> d   1      19.461   0.452  15.271  0.00  0.00    -0.165 F 
ATOM     24  F19 <0> d   1      17.857  -1.164  15.459  0.00  0.00    -0.165 F 
ATOM     25  F20 <0> d   1      20.003  -1.740  14.928  0.00  0.00    -0.165 F 
ENDBRANCH   9  22
BRANCH   6  26
ATOM     26  C10 <0> d   1      19.239   3.158  11.636  0.00  0.00     0.419 C 
ATOM     27  F11 <0> d   1      18.698   3.097  12.924  0.00  0.00    -0.166 F 
ATOM     28  F12 <0> d   1      20.636   3.110  11.713  0.00  0.00    -0.166 F 
ATOM     29  F13 <0> d   1      18.847   4.351  11.020  0.00  0.00    -0.166 F 
ENDBRANCH   6  26
TORSDOF 5
ENDMDL
