MODEL 1
REMARK VINA RESULT:      -8.2      0.000      0.000
REMARK  9 active torsions:
REMARK  status: ('A' for Active; 'I' for Inactive)
REMARK       I    between atoms: C2_2  and  N3_3 
REMARK    1  A    between atoms: C2_2  and  C14_13 
REMARK    2  A    between atoms: N3_3  and  C4_4 
REMARK    3  A    between atoms: C4_4  and  C5_5 
REMARK    4  A    between atoms: C16_15  and  O17_16 
REMARK    5  A    between atoms: O17_16  and  C18_17 
REMARK    6  A    between atoms: C18_17  and  C19_18 
REMARK    7  A    between atoms: C25_24  and  O26_25 
REMARK    8  A    between atoms: O26_25  and  C27_26 
REMARK    9  A    between atoms: C27_26  and  C28_27 
ROOT
ATOM      1  C14 ZIN A   1      17.936   0.988  10.643  0.00  0.00     0.068 A 
ATOM      2  C15 ZIN A   1      18.350   0.074   9.670  0.00  0.00     0.056 A 
ATOM      3  C16 ZIN A   1      18.924   0.529   8.498  0.00  0.00     0.070 A 
ATOM      4  C23 ZIN A   1      19.091   1.892   8.285  0.00  0.00     0.039 A 
ATOM      5  C24 ZIN A   1      18.685   2.802   9.240  0.00  0.00     0.040 A 
ATOM      6  C25 ZIN A   1      18.103   2.362  10.419  0.00  0.00     0.085 A 
ENDROOT
BRANCH   1   7
ATOM      7  C2  ZIN A   1      17.322   0.510  11.896  0.00  0.00     0.254 C 
ATOM      8  O1  ZIN A   1      16.198   0.045  11.883  0.00  0.00    -0.268 OA
ATOM      9  N3  ZIN A   1      18.008   0.582  13.053  0.00  0.00    -0.355 N 
ATOM     10  H32 ZIN A   1      18.904   0.953  13.063  0.00  0.00     0.162 HD
BRANCH   9  11
ATOM     11  C4  ZIN A   1      17.400   0.101  14.297  0.00  0.00     0.155 C 
BRANCH  11  12
ATOM     12  C5  ZIN A   1      18.366   0.333  15.459  0.00  0.00     0.203 C 
ATOM     13  N11 ZIN A   1      18.082   1.632  16.081  0.00  0.00    -0.069 N 
ATOM     14  C10 ZIN A   1      19.054   1.897  17.149  0.00  0.00     0.233 C 
ATOM     15  H12 ZIN A   1      18.144   2.358  15.384  0.00  0.00     0.277 HD
ATOM     16  H13 ZIN A   1      17.151   1.619  16.471  0.00  0.00     0.277 HD
ATOM     17  C9  ZIN A   1      18.908   0.842  18.249  0.00  0.00     0.027 C 
ATOM     18  C8  ZIN A   1      19.165  -0.545  17.656  0.00  0.00     0.004 C 
ATOM     19  C7  ZIN A   1      18.194  -0.781  16.495  0.00  0.00     0.035 C 
ENDBRANCH  11  12
ENDBRANCH   9  11
ENDBRANCH   1   7
BRANCH   6  20
ATOM     20  O26 ZIN A   1      17.704   3.258  11.358  0.00  0.00    -0.341 OA
BRANCH  20  21
ATOM     21  C27 ZIN A   1      18.462   4.464  11.467  0.00  0.00     0.293 C 
BRANCH  21  22
ATOM     22  C28 ZIN A   1      19.619   4.252  12.445  0.00  0.00     0.408 C 
ATOM     23  F29 ZIN A   1      20.717   3.717  11.760  0.00  0.00    -0.169 F 
ATOM     24  F30 ZIN A   1      19.979   5.477  13.015  0.00  0.00    -0.169 F 
ATOM     25  F31 ZIN A   1      19.222   3.367  13.453  0.00  0.00    -0.169 F 
ENDBRANCH  21  22
ENDBRANCH  20  21
ENDBRANCH   6  20
BRANCH   3  26
ATOM     26  O17 ZIN A   1      19.327  -0.360   7.551  0.00  0.00    -0.342 OA
BRANCH  26  27
ATOM     27  C18 ZIN A   1      18.303  -1.032   6.815  0.00  0.00     0.293 C 
BRANCH  27  28
ATOM     28  C19 ZIN A   1      18.107  -0.340   5.465  0.00  0.00     0.408 C 
ATOM     29  F20 ZIN A   1      17.415  -1.193   4.599  0.00  0.00    -0.169 F 
ATOM     30  F21 ZIN A   1      17.371   0.836   5.647  0.00  0.00    -0.169 F 
ATOM     31  F22 ZIN A   1      19.355  -0.029   4.914  0.00  0.00    -0.169 F 
ENDBRANCH  27  28
ENDBRANCH  26  27
ENDBRANCH   3  26
TORSDOF 9
ENDMDL
MODEL 2
REMARK VINA RESULT:      -8.1      3.355      8.230
REMARK  9 active torsions:
REMARK  status: ('A' for Active; 'I' for Inactive)
REMARK       I    between atoms: C2_2  and  N3_3 
REMARK    1  A    between atoms: C2_2  and  C14_13 
REMARK    2  A    between atoms: N3_3  and  C4_4 
REMARK    3  A    between atoms: C4_4  and  C5_5 
REMARK    4  A    between atoms: C16_15  and  O17_16 
REMARK    5  A    between atoms: O17_16  and  C18_17 
REMARK    6  A    between atoms: C18_17  and  C19_18 
REMARK    7  A    between atoms: C25_24  and  O26_25 
REMARK    8  A    between atoms: O26_25  and  C27_26 
REMARK    9  A    between atoms: C27_26  and  C28_27 
ROOT
ATOM      1  C14 ZIN A   1      19.169  -0.698  12.350  0.00  0.00     0.068 A 
ATOM      2  C15 ZIN A   1      18.721  -1.262  13.547  0.00  0.00     0.056 A 
ATOM      3  C16 ZIN A   1      18.547  -0.462  14.661  0.00  0.00     0.070 A 
ATOM      4  C23 ZIN A   1      18.817   0.899  14.593  0.00  0.00     0.039 A 
ATOM      5  C24 ZIN A   1      19.260   1.465  13.414  0.00  0.00     0.040 A 
ATOM      6  C25 ZIN A   1      19.444   0.675  12.289  0.00  0.00     0.085 A 
ENDROOT
BRANCH   1   7
ATOM      7  C2  ZIN A   1      19.358  -1.545  11.156  0.00  0.00     0.254 C 
ATOM      8  O1  ZIN A   1      19.993  -2.579  11.240  0.00  0.00    -0.268 OA
ATOM      9  N3  ZIN A   1      18.820  -1.178   9.978  0.00  0.00    -0.355 N 
ATOM     10  H32 ZIN A   1      18.314  -0.353   9.911  0.00  0.00     0.162 HD
BRANCH   9  11
ATOM     11  C4  ZIN A   1      19.002  -2.022   8.794  0.00  0.00     0.155 C 
BRANCH  11  12
ATOM     12  C5  ZIN A   1      19.043  -1.144   7.542  0.00  0.00     0.203 C 
ATOM     13  N11 ZIN A   1      19.308  -1.981   6.366  0.00  0.00    -0.069 N 
ATOM     14  C10 ZIN A   1      19.425  -1.137   5.170  0.00  0.00     0.233 C 
ATOM     15  H12 ZIN A   1      20.168  -2.489   6.503  0.00  0.00     0.277 HD
ATOM     16  H13 ZIN A   1      18.548  -2.634   6.242  0.00  0.00     0.277 HD
ATOM     17  C9  ZIN A   1      18.095  -0.425   4.912  0.00  0.00     0.027 C 
ATOM     18  C8  ZIN A   1      17.745   0.446   6.121  0.00  0.00     0.004 C 
ATOM     19  C7  ZIN A   1      17.699  -0.432   7.374  0.00  0.00     0.035 C 
ENDBRANCH  11  12
ENDBRANCH   9  11
ENDBRANCH   1   7
BRANCH   6  20
ATOM     20  O26 ZIN A   1      19.881   1.232  11.131  0.00  0.00    -0.341 OA
BRANCH  20  21
ATOM     21  C27 ZIN A   1      19.516   2.591  10.887  0.00  0.00     0.293 C 
BRANCH  21  22
ATOM     22  C28 ZIN A   1      18.650   2.670   9.628  0.00  0.00     0.408 C 
ATOM     23  F29 ZIN A   1      17.530   1.844   9.781  0.00  0.00    -0.169 F 
ATOM     24  F30 ZIN A   1      18.233   3.990   9.430  0.00  0.00    -0.169 F 
ATOM     25  F31 ZIN A   1      19.395   2.245   8.523  0.00  0.00    -0.169 F 
ENDBRANCH  21  22
ENDBRANCH  20  21
ENDBRANCH   6  20
BRANCH   3  26
ATOM     26  O17 ZIN A   1      18.110  -1.009  15.827  0.00  0.00    -0.342 OA
BRANCH  26  27
ATOM     27  C18 ZIN A   1      17.836  -0.109  16.903  0.00  0.00     0.293 C 
BRANCH  27  28
ATOM     28  C19 ZIN A   1      18.949  -0.211  17.948  0.00  0.00     0.408 C 
ATOM     29  F20 ZIN A   1      18.383  -0.304  19.225  0.00  0.00    -0.169 F 
ATOM     30  F21 ZIN A   1      19.721  -1.349  17.698  0.00  0.00    -0.169 F 
ATOM     31  F22 ZIN A   1      19.758   0.928  17.880  0.00  0.00    -0.169 F 
ENDBRANCH  27  28
ENDBRANCH  26  27
ENDBRANCH   3  26
TORSDOF 9
ENDMDL
MODEL 3
REMARK VINA RESULT:      -7.9      3.932      9.035
REMARK  9 active torsions:
REMARK  status: ('A' for Active; 'I' for Inactive)
REMARK       I    between atoms: C2_2  and  N3_3 
REMARK    1  A    between atoms: C2_2  and  C14_13 
REMARK    2  A    between atoms: N3_3  and  C4_4 
REMARK    3  A    between atoms: C4_4  and  C5_5 
REMARK    4  A    between atoms: C16_15  and  O17_16 
REMARK    5  A    between atoms: O17_16  and  C18_17 
REMARK    6  A    between atoms: C18_17  and  C19_18 
REMARK    7  A    between atoms: C25_24  and  O26_25 
REMARK    8  A    between atoms: O26_25  and  C27_26 
REMARK    9  A    between atoms: C27_26  and  C28_27 
ROOT
ATOM      1  C14 ZIN A   1      17.915  -0.472  12.425  0.00  0.00     0.068 A 
ATOM      2  C15 ZIN A   1      17.582   0.280  13.553  0.00  0.00     0.056 A 
ATOM      3  C16 ZIN A   1      18.187   0.007  14.766  0.00  0.00     0.070 A 
ATOM      4  C23 ZIN A   1      19.125  -1.013  14.864  0.00  0.00     0.039 A 
ATOM      5  C24 ZIN A   1      19.461  -1.761  13.754  0.00  0.00     0.040 A 
ATOM      6  C25 ZIN A   1      18.859  -1.503  12.532  0.00  0.00     0.085 A 
ENDROOT
BRANCH   1   7
ATOM      7  C2  ZIN A   1      17.273  -0.187  11.127  0.00  0.00     0.254 C 
ATOM      8  O1  ZIN A   1      16.077   0.024  11.075  0.00  0.00    -0.268 OA
ATOM      9  N3  ZIN A   1      18.013  -0.153  10.002  0.00  0.00    -0.355 N 
ATOM     10  H32 ZIN A   1      18.967  -0.322  10.044  0.00  0.00     0.162 HD
BRANCH   9  11
ATOM     11  C4  ZIN A   1      17.376   0.136   8.714  0.00  0.00     0.155 C 
BRANCH  11  12
ATOM     12  C5  ZIN A   1      18.297  -0.313   7.578  0.00  0.00     0.203 C 
ATOM     13  N11 ZIN A   1      17.780  -1.555   6.992  0.00  0.00    -0.069 N 
ATOM     14  C10 ZIN A   1      18.698  -2.034   5.951  0.00  0.00     0.233 C 
ATOM     15  H12 ZIN A   1      17.696  -2.256   7.712  0.00  0.00     0.277 HD
ATOM     16  H13 ZIN A   1      16.874  -1.382   6.584  0.00  0.00     0.277 HD
ATOM     17  C9  ZIN A   1      18.768  -1.010   4.816  0.00  0.00     0.027 C 
ATOM     18  C8  ZIN A   1      19.274   0.325   5.370  0.00  0.00     0.004 C 
ATOM     19  C7  ZIN A   1      18.351   0.778   6.505  0.00  0.00     0.035 C 
ENDBRANCH  11  12
ENDBRANCH   9  11
ENDBRANCH   1   7
BRANCH   6  20
ATOM     20  O26 ZIN A   1      19.190  -2.239  11.441  0.00  0.00    -0.341 OA
BRANCH  20  21
ATOM     21  C27 ZIN A   1      19.384  -3.641  11.639  0.00  0.00     0.293 C 
BRANCH  21  22
ATOM     22  C28 ZIN A   1      18.089  -4.387  11.311  0.00  0.00     0.408 C 
ATOM     23  F29 ZIN A   1      17.246  -3.552  10.569  0.00  0.00    -0.169 F 
ATOM     24  F30 ZIN A   1      18.386  -5.532  10.565  0.00  0.00    -0.169 F 
ATOM     25  F31 ZIN A   1      17.451  -4.757  12.500  0.00  0.00    -0.169 F 
ENDBRANCH  21  22
ENDBRANCH  20  21
ENDBRANCH   6  20
BRANCH   3  26
ATOM     26  O17 ZIN A   1      17.863   0.739  15.866  0.00  0.00    -0.342 OA
BRANCH  26  27
ATOM     27  C18 ZIN A   1      17.569   0.015  17.063  0.00  0.00     0.293 C 
BRANCH  27  28
ATOM     28  C19 ZIN A   1      18.615   0.349  18.129  0.00  0.00     0.408 C 
ATOM     29  F20 ZIN A   1      19.363   1.457  17.717  0.00  0.00    -0.169 F 
ATOM     30  F21 ZIN A   1      17.973   0.642  19.336  0.00  0.00    -0.169 F 
ATOM     31  F22 ZIN A   1      19.466  -0.747  18.306  0.00  0.00    -0.169 F 
ENDBRANCH  27  28
ENDBRANCH  26  27
ENDBRANCH   3  26
TORSDOF 9
ENDMDL
MODEL 4
REMARK VINA RESULT:      -7.9      3.675      4.327
REMARK  9 active torsions:
REMARK  status: ('A' for Active; 'I' for Inactive)
REMARK       I    between atoms: C2_2  and  N3_3 
REMARK    1  A    between atoms: C2_2  and  C14_13 
REMARK    2  A    between atoms: N3_3  and  C4_4 
REMARK    3  A    between atoms: C4_4  and  C5_5 
REMARK    4  A    between atoms: C16_15  and  O17_16 
REMARK    5  A    between atoms: O17_16  and  C18_17 
REMARK    6  A    between atoms: C18_17  and  C19_18 
REMARK    7  A    between atoms: C25_24  and  O26_25 
REMARK    8  A    between atoms: O26_25  and  C27_26 
REMARK    9  A    between atoms: C27_26  and  C28_27 
ROOT
ATOM      1  C14 ZIN A   1      19.652  -0.588  10.732  0.00  0.00     0.068 A 
ATOM      2  C15 ZIN A   1      19.413  -1.958  10.867  0.00  0.00     0.056 A 
ATOM      3  C16 ZIN A   1      19.129  -2.720   9.750  0.00  0.00     0.070 A 
ATOM      4  C23 ZIN A   1      19.082  -2.128   8.494  0.00  0.00     0.039 A 
ATOM      5  C24 ZIN A   1      19.316  -0.775   8.351  0.00  0.00     0.040 A 
ATOM      6  C25 ZIN A   1      19.597   0.004   9.463  0.00  0.00     0.085 A 
ENDROOT
BRANCH   1   7
ATOM      7  C2  ZIN A   1      19.955   0.232  11.921  0.00  0.00     0.254 C 
ATOM      8  O1  ZIN A   1      21.094   0.604  12.128  0.00  0.00    -0.268 OA
ATOM      9  N3  ZIN A   1      18.969   0.573  12.773  0.00  0.00    -0.355 N 
ATOM     10  H32 ZIN A   1      18.061   0.275  12.608  0.00  0.00     0.162 HD
BRANCH   9  11
ATOM     11  C4  ZIN A   1      19.269   1.392  13.950  0.00  0.00     0.155 C 
BRANCH  11  12
ATOM     12  C5  ZIN A   1      18.901   0.618  15.218  0.00  0.00     0.203 C 
ATOM     13  N11 ZIN A   1      17.488   0.848  15.539  0.00  0.00    -0.069 N 
ATOM     14  C10 ZIN A   1      17.146   0.171  16.796  0.00  0.00     0.233 C 
ATOM     15  H12 ZIN A   1      17.324   1.839  15.637  0.00  0.00     0.277 HD
ATOM     16  H13 ZIN A   1      16.912   0.484  14.795  0.00  0.00     0.277 HD
ATOM     17  C9  ZIN A   1      17.317  -1.340  16.628  0.00  0.00     0.027 C 
ATOM     18  C8  ZIN A   1      18.771  -1.647  16.260  0.00  0.00     0.004 C 
ATOM     19  C7  ZIN A   1      19.139  -0.876  14.989  0.00  0.00     0.035 C 
ENDBRANCH  11  12
ENDBRANCH   9  11
ENDBRANCH   1   7
BRANCH   6  20
ATOM     20  O26 ZIN A   1      19.828   1.334   9.322  0.00  0.00    -0.341 OA
BRANCH  20  21
ATOM     21  C27 ZIN A   1      18.724   2.144   8.914  0.00  0.00     0.293 C 
BRANCH  21  22
ATOM     22  C28 ZIN A   1      18.385   3.141  10.024  0.00  0.00     0.408 C 
ATOM     23  F29 ZIN A   1      17.320   2.647  10.785  0.00  0.00    -0.169 F 
ATOM     24  F30 ZIN A   1      19.502   3.321  10.847  0.00  0.00    -0.169 F 
ATOM     25  F31 ZIN A   1      18.023   4.367   9.455  0.00  0.00    -0.169 F 
ENDBRANCH  21  22
ENDBRANCH  20  21
ENDBRANCH   6  20
BRANCH   3  26
ATOM     26  O17 ZIN A   1      18.896  -4.054   9.879  0.00  0.00    -0.342 OA
BRANCH  26  27
ATOM     27  C18 ZIN A   1      17.531  -4.478   9.875  0.00  0.00     0.293 C 
BRANCH  27  28
ATOM     28  C19 ZIN A   1      17.233  -5.251  11.161  0.00  0.00     0.408 C 
ATOM     29  F20 ZIN A   1      18.268  -5.044  12.080  0.00  0.00    -0.169 F 
ATOM     30  F21 ZIN A   1      16.028  -4.799  11.708  0.00  0.00    -0.169 F 
ATOM     31  F22 ZIN A   1      17.133  -6.616  10.872  0.00  0.00    -0.169 F 
ENDBRANCH  27  28
ENDBRANCH  26  27
ENDBRANCH   3  26
TORSDOF 9
ENDMDL
MODEL 5
REMARK VINA RESULT:      -7.8      2.232      3.950
REMARK  9 active torsions:
REMARK  status: ('A' for Active; 'I' for Inactive)
REMARK       I    between atoms: C2_2  and  N3_3 
REMARK    1  A    between atoms: C2_2  and  C14_13 
REMARK    2  A    between atoms: N3_3  and  C4_4 
REMARK    3  A    between atoms: C4_4  and  C5_5 
REMARK    4  A    between atoms: C16_15  and  O17_16 
REMARK    5  A    between atoms: O17_16  and  C18_17 
REMARK    6  A    between atoms: C18_17  and  C19_18 
REMARK    7  A    between atoms: C25_24  and  O26_25 
REMARK    8  A    between atoms: O26_25  and  C27_26 
REMARK    9  A    between atoms: C27_26  and  C28_27 
ROOT
ATOM      1  C14 ZIN A   1      17.866   1.305  10.782  0.00  0.00     0.068 A 
ATOM      2  C15 ZIN A   1      17.804   0.960   9.429  0.00  0.00     0.056 A 
ATOM      3  C16 ZIN A   1      17.732  -0.371   9.062  0.00  0.00     0.070 A 
ATOM      4  C23 ZIN A   1      17.722  -1.364  10.034  0.00  0.00     0.039 A 
ATOM      5  C24 ZIN A   1      17.783  -1.032  11.372  0.00  0.00     0.040 A 
ATOM      6  C25 ZIN A   1      17.861   0.298  11.756  0.00  0.00     0.085 A 
ENDROOT
BRANCH   1   7
ATOM      7  C2  ZIN A   1      17.943   2.723  11.181  0.00  0.00     0.254 C 
ATOM      8  O1  ZIN A   1      17.029   3.480  10.916  0.00  0.00    -0.268 OA
ATOM      9  N3  ZIN A   1      19.023   3.178  11.846  0.00  0.00    -0.355 N 
ATOM     10  H32 ZIN A   1      19.752   2.575  12.057  0.00  0.00     0.162 HD
BRANCH   9  11
ATOM     11  C4  ZIN A   1      19.097   4.586  12.248  0.00  0.00     0.155 C 
BRANCH  11  12
ATOM     12  C5  ZIN A   1      18.987   4.687  13.770  0.00  0.00     0.203 C 
ATOM     13  N11 ZIN A   1      19.175   3.358  14.364  0.00  0.00    -0.069 N 
ATOM     14  C10 ZIN A   1      18.996   3.433  15.819  0.00  0.00     0.233 C 
ATOM     15  H12 ZIN A   1      18.499   2.719  13.976  0.00  0.00     0.277 HD
ATOM     16  H13 ZIN A   1      20.106   3.028  14.158  0.00  0.00     0.277 HD
ATOM     17  C9  ZIN A   1      20.071   4.339  16.424  0.00  0.00     0.027 C 
ATOM     18  C8  ZIN A   1      19.948   5.741  15.820  0.00  0.00     0.004 C 
ATOM     19  C7  ZIN A   1      20.062   5.642  14.296  0.00  0.00     0.035 C 
ENDBRANCH  11  12
ENDBRANCH   9  11
ENDBRANCH   1   7
BRANCH   6  20
ATOM     20  O26 ZIN A   1      17.921   0.624  13.072  0.00  0.00    -0.341 OA
BRANCH  20  21
ATOM     21  C27 ZIN A   1      17.892  -0.454  14.009  0.00  0.00     0.293 C 
BRANCH  21  22
ATOM     22  C28 ZIN A   1      19.299  -0.684  14.566  0.00  0.00     0.408 C 
ATOM     23  F29 ZIN A   1      19.240  -0.765  15.962  0.00  0.00    -0.169 F 
ATOM     24  F30 ZIN A   1      19.816  -1.878  14.052  0.00  0.00    -0.169 F 
ATOM     25  F31 ZIN A   1      20.127   0.381  14.195  0.00  0.00    -0.169 F 
ENDBRANCH  21  22
ENDBRANCH  20  21
ENDBRANCH   6  20
BRANCH   3  26
ATOM     26  O17 ZIN A   1      17.671  -0.709   7.746  0.00  0.00    -0.342 OA
BRANCH  26  27
ATOM     27  C18 ZIN A   1      18.888  -0.634   7.000  0.00  0.00     0.293 C 
BRANCH  27  28
ATOM     28  C19 ZIN A   1      18.786   0.495   5.972  0.00  0.00     0.408 C 
ATOM     29  F20 ZIN A   1      19.559   0.176   4.851  0.00  0.00    -0.169 F 
ATOM     30  F21 ZIN A   1      17.452   0.656   5.587  0.00  0.00    -0.169 F 
ATOM     31  F22 ZIN A   1      19.256   1.685   6.538  0.00  0.00    -0.169 F 
ENDBRANCH  27  28
ENDBRANCH  26  27
ENDBRANCH   3  26
TORSDOF 9
ENDMDL
MODEL 6
REMARK VINA RESULT:      -7.7      3.593      7.905
REMARK  9 active torsions:
REMARK  status: ('A' for Active; 'I' for Inactive)
REMARK       I    between atoms: C2_2  and  N3_3 
REMARK    1  A    between atoms: C2_2  and  C14_13 
REMARK    2  A    between atoms: N3_3  and  C4_4 
REMARK    3  A    between atoms: C4_4  and  C5_5 
REMARK    4  A    between atoms: C16_15  and  O17_16 
REMARK    5  A    between atoms: O17_16  and  C18_17 
REMARK    6  A    between atoms: C18_17  and  C19_18 
REMARK    7  A    between atoms: C25_24  and  O26_25 
REMARK    8  A    between atoms: O26_25  and  C27_26 
REMARK    9  A    between atoms: C27_26  and  C28_27 
ROOT
ATOM      1  C14 ZIN A   1      17.903  -1.223  12.232  0.00  0.00     0.068 A 
ATOM      2  C15 ZIN A   1      17.831  -0.973  13.604  0.00  0.00     0.056 A 
ATOM      3  C16 ZIN A   1      17.745   0.328  14.063  0.00  0.00     0.070 A 
ATOM      4  C23 ZIN A   1      17.730   1.386  13.162  0.00  0.00     0.039 A 
ATOM      5  C24 ZIN A   1      17.801   1.149  11.805  0.00  0.00     0.040 A 
ATOM      6  C25 ZIN A   1      17.893  -0.151  11.329  0.00  0.00     0.085 A 
ENDROOT
BRANCH   1   7
ATOM      7  C2  ZIN A   1      17.996  -2.610  11.735  0.00  0.00     0.254 C 
ATOM      8  O1  ZIN A   1      17.016  -3.329  11.756  0.00  0.00    -0.268 OA
ATOM      9  N3  ZIN A   1      19.164  -3.076  11.253  0.00  0.00    -0.355 N 
ATOM     10  H32 ZIN A   1      19.946  -2.502  11.236  0.00  0.00     0.162 HD
BRANCH   9  11
ATOM     11  C4  ZIN A   1      19.254  -4.451  10.754  0.00  0.00     0.155 C 
BRANCH  11  12
ATOM     12  C5  ZIN A   1      19.063  -4.456   9.236  0.00  0.00     0.203 C 
ATOM     13  N11 ZIN A   1      19.293  -3.106   8.709  0.00  0.00    -0.069 N 
ATOM     14  C10 ZIN A   1      19.037  -3.085   7.264  0.00  0.00     0.233 C 
ATOM     15  H12 ZIN A   1      18.672  -2.457   9.169  0.00  0.00     0.277 HD
ATOM     16  H13 ZIN A   1      20.249  -2.836   8.884  0.00  0.00     0.277 HD
ATOM     17  C9  ZIN A   1      20.030  -4.007   6.553  0.00  0.00     0.027 C 
ATOM     18  C8  ZIN A   1      19.862  -5.434   7.082  0.00  0.00     0.004 C 
ATOM     19  C7  ZIN A   1      20.058  -5.431   8.601  0.00  0.00     0.035 C 
ENDBRANCH  11  12
ENDBRANCH   9  11
ENDBRANCH   1   7
BRANCH   6  20
ATOM     20  O26 ZIN A   1      17.962  -0.384   9.994  0.00  0.00    -0.341 OA
BRANCH  20  21
ATOM     21  C27 ZIN A   1      17.983   0.758   9.136  0.00  0.00     0.293 C 
BRANCH  21  22
ATOM     22  C28 ZIN A   1      19.297   0.785   8.354  0.00  0.00     0.408 C 
ATOM     23  F29 ZIN A   1      19.071   0.337   7.047  0.00  0.00    -0.169 F 
ATOM     24  F30 ZIN A   1      19.794   2.092   8.318  0.00  0.00    -0.169 F 
ATOM     25  F31 ZIN A   1      20.229  -0.051   8.978  0.00  0.00    -0.169 F 
ENDBRANCH  21  22
ENDBRANCH  20  21
ENDBRANCH   6  20
BRANCH   3  26
ATOM     26  O17 ZIN A   1      17.675   0.574  15.399  0.00  0.00    -0.342 OA
BRANCH  26  27
ATOM     27  C18 ZIN A   1      18.891   0.470  16.142  0.00  0.00     0.293 C 
BRANCH  27  28
ATOM     28  C19 ZIN A   1      18.817  -0.742  17.073  0.00  0.00     0.408 C 
ATOM     29  F20 ZIN A   1      19.450  -0.440  18.284  0.00  0.00    -0.169 F 
ATOM     30  F21 ZIN A   1      17.478  -1.063  17.315  0.00  0.00    -0.169 F 
ATOM     31  F22 ZIN A   1      19.458  -1.831  16.472  0.00  0.00    -0.169 F 
ENDBRANCH  27  28
ENDBRANCH  26  27
ENDBRANCH   3  26
TORSDOF 9
ENDMDL
MODEL 7
REMARK VINA RESULT:      -7.6      4.133      8.106
REMARK  9 active torsions:
REMARK  status: ('A' for Active; 'I' for Inactive)
REMARK       I    between atoms: C2_2  and  N3_3 
REMARK    1  A    between atoms: C2_2  and  C14_13 
REMARK    2  A    between atoms: N3_3  and  C4_4 
REMARK    3  A    between atoms: C4_4  and  C5_5 
REMARK    4  A    between atoms: C16_15  and  O17_16 
REMARK    5  A    between atoms: O17_16  and  C18_17 
REMARK    6  A    between atoms: C18_17  and  C19_18 
REMARK    7  A    between atoms: C25_24  and  O26_25 
REMARK    8  A    between atoms: O26_25  and  C27_26 
REMARK    9  A    between atoms: C27_26  and  C28_27 
ROOT
ATOM      1  C14 ZIN A   1      17.859  -0.629   9.850  0.00  0.00     0.068 A 
ATOM      2  C15 ZIN A   1      17.645   0.719  10.151  0.00  0.00     0.056 A 
ATOM      3  C16 ZIN A   1      17.352   1.096  11.448  0.00  0.00     0.070 A 
ATOM      4  C23 ZIN A   1      17.270   0.139  12.452  0.00  0.00     0.039 A 
ATOM      5  C24 ZIN A   1      17.480  -1.195  12.164  0.00  0.00     0.040 A 
ATOM      6  C25 ZIN A   1      17.770  -1.590  10.867  0.00  0.00     0.085 A 
ENDROOT
BRANCH   1   7
ATOM      7  C2  ZIN A   1      18.173  -1.039   8.468  0.00  0.00     0.254 C 
ATOM      8  O1  ZIN A   1      17.398  -0.778   7.567  0.00  0.00    -0.268 OA
ATOM      9  N3  ZIN A   1      19.318  -1.696   8.203  0.00  0.00    -0.355 N 
ATOM     10  H32 ZIN A   1      19.935  -1.904   8.921  0.00  0.00     0.162 HD
BRANCH   9  11
ATOM     11  C4  ZIN A   1      19.632  -2.097   6.829  0.00  0.00     0.155 C 
BRANCH  11  12
ATOM     12  C5  ZIN A   1      19.674  -3.624   6.741  0.00  0.00     0.203 C 
ATOM     13  N11 ZIN A   1      19.697  -4.192   8.094  0.00  0.00    -0.069 N 
ATOM     14  C10 ZIN A   1      19.815  -5.653   8.020  0.00  0.00     0.233 C 
ATOM     15  H12 ZIN A   1      20.484  -3.817   8.601  0.00  0.00     0.277 HD
ATOM     16  H13 ZIN A   1      18.843  -3.948   8.574  0.00  0.00     0.277 HD
ATOM     17  C9  ZIN A   1      18.583  -6.233   7.322  0.00  0.00     0.027 C 
ATOM     18  C8  ZIN A   1      18.484  -5.655   5.908  0.00  0.00     0.004 C 
ATOM     19  C7  ZIN A   1      18.437  -4.126   5.994  0.00  0.00     0.035 C 
ENDBRANCH  11  12
ENDBRANCH   9  11
ENDBRANCH   1   7
BRANCH   6  20
ATOM     20  O26 ZIN A   1      17.977  -2.901  10.584  0.00  0.00    -0.341 OA
BRANCH  20  21
ATOM     21  C27 ZIN A   1      17.108  -3.844  11.213  0.00  0.00     0.293 C 
BRANCH  21  22
ATOM     22  C28 ZIN A   1      17.862  -5.156  11.446  0.00  0.00     0.408 C 
ATOM     23  F29 ZIN A   1      17.548  -6.061  10.425  0.00  0.00    -0.169 F 
ATOM     24  F30 ZIN A   1      19.239  -4.910  11.443  0.00  0.00    -0.169 F 
ATOM     25  F31 ZIN A   1      17.487  -5.697  12.680  0.00  0.00    -0.169 F 
ENDBRANCH  21  22
ENDBRANCH  20  21
ENDBRANCH   6  20
BRANCH   3  26
ATOM     26  O17 ZIN A   1      17.143   2.407  11.742  0.00  0.00    -0.342 OA
BRANCH  26  27
ATOM     27  C18 ZIN A   1      18.130   3.057  12.546  0.00  0.00     0.293 C 
BRANCH  27  28
ATOM     28  C19 ZIN A   1      19.136   3.769  11.640  0.00  0.00     0.408 C 
ATOM     29  F20 ZIN A   1      19.565   4.950  12.256  0.00  0.00    -0.169 F 
ATOM     30  F21 ZIN A   1      20.236   2.934  11.419  0.00  0.00    -0.169 F 
ATOM     31  F22 ZIN A   1      18.529   4.075  10.418  0.00  0.00    -0.169 F 
ENDBRANCH  27  28
ENDBRANCH  26  27
ENDBRANCH   3  26
TORSDOF 9
ENDMDL
MODEL 8
REMARK VINA RESULT:      -7.4      3.006      7.080
REMARK  9 active torsions:
REMARK  status: ('A' for Active; 'I' for Inactive)
REMARK       I    between atoms: C2_2  and  N3_3 
REMARK    1  A    between atoms: C2_2  and  C14_13 
REMARK    2  A    between atoms: N3_3  and  C4_4 
REMARK    3  A    between atoms: C4_4  and  C5_5 
REMARK    4  A    between atoms: C16_15  and  O17_16 
REMARK    5  A    between atoms: O17_16  and  C18_17 
REMARK    6  A    between atoms: C18_17  and  C19_18 
REMARK    7  A    between atoms: C25_24  and  O26_25 
REMARK    8  A    between atoms: O26_25  and  C27_26 
REMARK    9  A    between atoms: C27_26  and  C28_27 
ROOT
ATOM      1  C14 ZIN A   1      17.852   1.224  11.238  0.00  0.00     0.068 A 
ATOM      2  C15 ZIN A   1      17.659   2.330  12.069  0.00  0.00     0.056 A 
ATOM      3  C16 ZIN A   1      17.933   3.601  11.598  0.00  0.00     0.070 A 
ATOM      4  C23 ZIN A   1      18.399   3.779  10.301  0.00  0.00     0.039 A 
ATOM      5  C24 ZIN A   1      18.591   2.692   9.473  0.00  0.00     0.040 A 
ATOM      6  C25 ZIN A   1      18.326   1.411   9.933  0.00  0.00     0.085 A 
ENDROOT
BRANCH   1   7
ATOM      7  C2  ZIN A   1      17.562  -0.135  11.735  0.00  0.00     0.254 C 
ATOM      8  O1  ZIN A   1      16.418  -0.457  11.991  0.00  0.00    -0.268 OA
ATOM      9  N3  ZIN A   1      18.563  -1.021  11.897  0.00  0.00    -0.355 N 
ATOM     10  H32 ZIN A   1      19.476  -0.764  11.693  0.00  0.00     0.162 HD
BRANCH   9  11
ATOM     11  C4  ZIN A   1      18.275  -2.372  12.385  0.00  0.00     0.155 C 
BRANCH  11  12
ATOM     12  C5  ZIN A   1      18.236  -3.343  11.203  0.00  0.00     0.203 C 
ATOM     13  N11 ZIN A   1      17.992  -2.596   9.964  0.00  0.00    -0.069 N 
ATOM     14  C10 ZIN A   1      17.877  -3.527   8.835  0.00  0.00     0.233 C 
ATOM     15  H12 ZIN A   1      17.135  -2.070  10.053  0.00  0.00     0.277 HD
ATOM     16  H13 ZIN A   1      18.759  -1.962   9.798  0.00  0.00     0.277 HD
ATOM     17  C9  ZIN A   1      19.201  -4.270   8.645  0.00  0.00     0.027 C 
ATOM     18  C8  ZIN A   1      19.531  -5.050   9.920  0.00  0.00     0.004 C 
ATOM     19  C7  ZIN A   1      19.575  -4.079  11.104  0.00  0.00     0.035 C 
ENDBRANCH  11  12
ENDBRANCH   9  11
ENDBRANCH   1   7
BRANCH   6  20
ATOM     20  O26 ZIN A   1      18.516   0.342   9.118  0.00  0.00    -0.341 OA
BRANCH  20  21
ATOM     21  C27 ZIN A   1      18.852   0.616   7.757  0.00  0.00     0.293 C 
BRANCH  21  22
ATOM     22  C28 ZIN A   1      17.848  -0.078   6.834  0.00  0.00     0.408 C 
ATOM     23  F29 ZIN A   1      17.556   0.759   5.751  0.00  0.00    -0.169 F 
ATOM     24  F30 ZIN A   1      18.397  -1.275   6.362  0.00  0.00    -0.169 F 
ATOM     25  F31 ZIN A   1      16.674  -0.351   7.543  0.00  0.00    -0.169 F 
ENDBRANCH  21  22
ENDBRANCH  20  21
ENDBRANCH   6  20
BRANCH   3  26
ATOM     26  O17 ZIN A   1      17.746   4.679  12.406  0.00  0.00    -0.342 OA
BRANCH  26  27
ATOM     27  C18 ZIN A   1      16.468   5.316  12.352  0.00  0.00     0.293 C 
BRANCH  27  28
ATOM     28  C19 ZIN A   1      16.065   5.770  13.757  0.00  0.00     0.408 C 
ATOM     29  F20 ZIN A   1      16.688   4.952  14.707  0.00  0.00    -0.169 F 
ATOM     30  F21 ZIN A   1      16.465   7.096  13.951  0.00  0.00    -0.169 F 
ATOM     31  F22 ZIN A   1      14.677   5.674  13.898  0.00  0.00    -0.169 F 
ENDBRANCH  27  28
ENDBRANCH  26  27
ENDBRANCH   3  26
TORSDOF 9
ENDMDL
MODEL 9
REMARK VINA RESULT:      -7.3      3.911      5.472
REMARK  9 active torsions:
REMARK  status: ('A' for Active; 'I' for Inactive)
REMARK       I    between atoms: C2_2  and  N3_3 
REMARK    1  A    between atoms: C2_2  and  C14_13 
REMARK    2  A    between atoms: N3_3  and  C4_4 
REMARK    3  A    between atoms: C4_4  and  C5_5 
REMARK    4  A    between atoms: C16_15  and  O17_16 
REMARK    5  A    between atoms: O17_16  and  C18_17 
REMARK    6  A    between atoms: C18_17  and  C19_18 
REMARK    7  A    between atoms: C25_24  and  O26_25 
REMARK    8  A    between atoms: O26_25  and  C27_26 
REMARK    9  A    between atoms: C27_26  and  C28_27 
ROOT
ATOM      1  C14 ZIN A   1      18.425  -0.182  11.300  0.00  0.00     0.068 A 
ATOM      2  C15 ZIN A   1      18.109  -1.304  10.530  0.00  0.00     0.056 A 
ATOM      3  C16 ZIN A   1      18.556  -2.553  10.919  0.00  0.00     0.070 A 
ATOM      4  C23 ZIN A   1      19.320  -2.694  12.071  0.00  0.00     0.039 A 
ATOM      5  C24 ZIN A   1      19.638  -1.591  12.837  0.00  0.00     0.040 A 
ATOM      6  C25 ZIN A   1      19.200  -0.330  12.458  0.00  0.00     0.085 A 
ENDROOT
BRANCH   1   7
ATOM      7  C2  ZIN A   1      17.951   1.155  10.891  0.00  0.00     0.254 C 
ATOM      8  O1  ZIN A   1      16.759   1.387  10.843  0.00  0.00    -0.268 OA
ATOM      9  N3  ZIN A   1      18.839   2.118  10.578  0.00  0.00    -0.355 N 
ATOM     10  H32 ZIN A   1      19.790   1.932  10.617  0.00  0.00     0.162 HD
BRANCH   9  11
ATOM     11  C4  ZIN A   1      18.368   3.447  10.178  0.00  0.00     0.155 C 
BRANCH  11  12
ATOM     12  C5  ZIN A   1      18.394   4.383  11.388  0.00  0.00     0.203 C 
ATOM     13  N11 ZIN A   1      17.198   4.157  12.208  0.00  0.00    -0.069 N 
ATOM     14  C10 ZIN A   1      17.176   5.104  13.329  0.00  0.00     0.233 C 
ATOM     15  H12 ZIN A   1      16.374   4.290  11.641  0.00  0.00     0.277 HD
ATOM     16  H13 ZIN A   1      17.211   3.214  12.566  0.00  0.00     0.277 HD
ATOM     17  C9  ZIN A   1      18.383   4.853  14.237  0.00  0.00     0.027 C 
ATOM     18  C8  ZIN A   1      19.670   5.044  13.430  0.00  0.00     0.004 C 
ATOM     19  C7  ZIN A   1      19.648   4.104  12.221  0.00  0.00     0.035 C 
ENDBRANCH  11  12
ENDBRANCH   9  11
ENDBRANCH   1   7
BRANCH   6  20
ATOM     20  O26 ZIN A   1      19.513   0.754  13.212  0.00  0.00    -0.341 OA
BRANCH  20  21
ATOM     21  C27 ZIN A   1      19.456   0.596  14.630  0.00  0.00     0.293 C 
BRANCH  21  22
ATOM     22  C28 ZIN A   1      18.029   0.858  15.116  0.00  0.00     0.408 C 
ATOM     23  F29 ZIN A   1      17.338  -0.356  15.207  0.00  0.00    -0.169 F 
ATOM     24  F30 ZIN A   1      18.068   1.468  16.374  0.00  0.00    -0.169 F 
ATOM     25  F31 ZIN A   1      17.375   1.700  14.210  0.00  0.00    -0.169 F 
ENDBRANCH  21  22
ENDBRANCH  20  21
ENDBRANCH   6  20
BRANCH   3  26
ATOM     26  O17 ZIN A   1      18.249  -3.646  10.171  0.00  0.00    -0.342 OA
BRANCH  26  27
ATOM     27  C18 ZIN A   1      18.605  -4.922  10.710  0.00  0.00     0.293 C 
BRANCH  27  28
ATOM     28  C19 ZIN A   1      17.350  -5.622  11.233  0.00  0.00     0.408 C 
ATOM     29  F20 ZIN A   1      16.246  -4.776  11.081  0.00  0.00    -0.169 F 
ATOM     30  F21 ZIN A   1      17.136  -6.799  10.508  0.00  0.00    -0.169 F 
ATOM     31  F22 ZIN A   1      17.517  -5.931  12.587  0.00  0.00    -0.169 F 
ENDBRANCH  27  28
ENDBRANCH  26  27
ENDBRANCH   3  26
TORSDOF 9
ENDMDL
