MODEL 1
REMARK VINA RESULT:      -6.9      0.000      0.000
REMARK  8 active torsions:
REMARK  status: ('A' for Active; 'I' for Inactive)
REMARK       I    between atoms: C2_2  and  N3_3 
REMARK    1  A    between atoms: C2_2  and  C20_18 
REMARK    2  A    between atoms: N3_3  and  C4_4 
REMARK    3  A    between atoms: C4_4  and  C6_5 
REMARK    4  A    between atoms: C4_4  and  C8_7 
REMARK    5  A    between atoms: C6_5  and  O7_6 
REMARK    6  A    between atoms: C8_7  and  O10_8 
REMARK    7  A    between atoms: C8_7  and  C11_9 
REMARK    8  A    between atoms: C14_12  and  N15_13 
ROOT
ATOM      1  C8  ZIN A   1      20.261  -0.411  10.852  0.00  0.00     0.176 C 
ENDROOT
BRANCH   1   2
ATOM      2  C4  ZIN A   1      19.451  -1.451  11.629  0.00  0.00     0.141 C 
BRANCH   2   3
ATOM      3  N3  ZIN A   1      19.767  -1.351  13.056  0.00  0.00    -0.349 N 
ATOM      4  C2  ZIN A   1      18.825  -0.942  13.928  0.00  0.00     0.251 C 
ATOM      5  O1  ZIN A   1      17.713  -0.661  13.532  0.00  0.00    -0.271 OA
ATOM      6  H23 ZIN A   1      20.656  -1.576  13.372  0.00  0.00     0.163 HD
BRANCH   4   7
ATOM      7  C20 ZIN A   1      19.152  -0.832  15.395  0.00  0.00     0.269 C 
ATOM      8 Cl21 ZIN A   1      19.144   0.902  15.885  0.00  0.00    -0.098 Cl
ATOM      9 Cl22 ZIN A   1      17.921  -1.735  16.355  0.00  0.00    -0.098 Cl
ENDBRANCH   4   7
ENDBRANCH   2   3
BRANCH   2  10
ATOM     10  C6  ZIN A   1      19.803  -2.852  11.125  0.00  0.00     0.192 C 
BRANCH  10  11
ATOM     11  O7  ZIN A   1      21.169  -3.140  11.434  0.00  0.00    -0.399 OA
ATOM     12  H26 ZIN A   1      21.782  -2.963  10.708  0.00  0.00     0.209 HD
ENDBRANCH  10  11
ENDBRANCH   2  10
ENDBRANCH   1   2
BRANCH   1  13
ATOM     13  O10 ZIN A   1      21.501  -0.176  11.522  0.00  0.00    -0.389 OA
ATOM     14  H27 ZIN A   1      21.505   0.618  12.075  0.00  0.00     0.210 HD
ENDBRANCH   1  13
BRANCH   1  15
ATOM     15  C11 ZIN A   1      19.482   0.875  10.772  0.00  0.00    -0.028 A 
ATOM     16  C19 ZIN A   1      18.330   0.940  10.010  0.00  0.00     0.012 A 
ATOM     17  C18 ZIN A   1      17.615   2.120   9.937  0.00  0.00     0.037 A 
ATOM     18  C14 ZIN A   1      18.051   3.237  10.626  0.00  0.00     0.102 A 
ATOM     19  C13 ZIN A   1      19.202   3.173  11.388  0.00  0.00     0.037 A 
ATOM     20  C12 ZIN A   1      19.915   1.990  11.465  0.00  0.00     0.012 A 
BRANCH  18  21
ATOM     21  N15 ZIN A   1      17.285   4.501  10.546  0.00  0.00    -0.116 N 
ATOM     22  O16 ZIN A   1      17.606   5.359   9.744  0.00  0.00    -0.532 OA
ATOM     23  O17 ZIN A   1      16.331   4.682  11.282  0.00  0.00    -0.532 OA
ENDBRANCH  18  21
ENDBRANCH   1  15
TORSDOF 8
ENDMDL
MODEL 2
REMARK VINA RESULT:      -6.8      3.707      4.926
REMARK  8 active torsions:
REMARK  status: ('A' for Active; 'I' for Inactive)
REMARK       I    between atoms: C2_2  and  N3_3 
REMARK    1  A    between atoms: C2_2  and  C20_18 
REMARK    2  A    between atoms: N3_3  and  C4_4 
REMARK    3  A    between atoms: C4_4  and  C6_5 
REMARK    4  A    between atoms: C4_4  and  C8_7 
REMARK    5  A    between atoms: C6_5  and  O7_6 
REMARK    6  A    between atoms: C8_7  and  O10_8 
REMARK    7  A    between atoms: C8_7  and  C11_9 
REMARK    8  A    between atoms: C14_12  and  N15_13 
ROOT
ATOM      1  C8  ZIN A   1      18.019   1.701  10.317  0.00  0.00     0.176 C 
ENDROOT
BRANCH   1   2
ATOM      2  C4  ZIN A   1      19.259   1.438  11.174  0.00  0.00     0.141 C 
BRANCH   2   3
ATOM      3  N3  ZIN A   1      18.989   0.332  12.096  0.00  0.00    -0.349 N 
ATOM      4  C2  ZIN A   1      19.557  -0.873  11.888  0.00  0.00     0.251 C 
ATOM      5  O1  ZIN A   1      20.295  -1.039  10.940  0.00  0.00    -0.271 OA
ATOM      6  H23 ZIN A   1      18.399   0.465  12.854  0.00  0.00     0.163 HD
BRANCH   4   7
ATOM      7  C20 ZIN A   1      19.275  -2.012  12.832  0.00  0.00     0.269 C 
ATOM      8 Cl21 ZIN A   1      18.547  -1.369  14.350  0.00  0.00    -0.098 Cl
ATOM      9 Cl22 ZIN A   1      18.127  -3.167  12.056  0.00  0.00    -0.098 Cl
ENDBRANCH   4   7
ENDBRANCH   2   3
BRANCH   2  10
ATOM     10  C6  ZIN A   1      19.602   2.697  11.974  0.00  0.00     0.192 C 
BRANCH  10  11
ATOM     11  O7  ZIN A   1      20.903   3.158  11.603  0.00  0.00    -0.399 OA
ATOM     12  H26 ZIN A   1      21.483   2.464  11.260  0.00  0.00     0.209 HD
ENDBRANCH  10  11
ENDBRANCH   2  10
ENDBRANCH   1   2
BRANCH   1  13
ATOM     13  O10 ZIN A   1      16.878   1.102  10.932  0.00  0.00    -0.389 OA
ATOM     14  H27 ZIN A   1      16.212   1.738  11.230  0.00  0.00     0.210 HD
ENDBRANCH   1  13
BRANCH   1  15
ATOM     15  C11 ZIN A   1      18.221   1.108   8.947  0.00  0.00    -0.028 A 
ATOM     16  C19 ZIN A   1      19.044   1.740   8.033  0.00  0.00     0.012 A 
ATOM     17  C18 ZIN A   1      19.229   1.195   6.777  0.00  0.00     0.037 A 
ATOM     18  C14 ZIN A   1      18.591   0.018   6.433  0.00  0.00     0.102 A 
ATOM     19  C13 ZIN A   1      17.769  -0.615   7.346  0.00  0.00     0.037 A 
ATOM     20  C12 ZIN A   1      17.587  -0.072   8.605  0.00  0.00     0.012 A 
BRANCH  18  21
ATOM     21  N15 ZIN A   1      18.789  -0.565   5.087  0.00  0.00    -0.116 N 
ATOM     22  O16 ZIN A   1      17.827  -0.817   4.384  0.00  0.00    -0.532 OA
ATOM     23  O17 ZIN A   1      19.915  -0.791   4.681  0.00  0.00    -0.532 OA
ENDBRANCH  18  21
ENDBRANCH   1  15
TORSDOF 8
ENDMDL
MODEL 3
REMARK VINA RESULT:      -6.7      3.495      5.950
REMARK  8 active torsions:
REMARK  status: ('A' for Active; 'I' for Inactive)
REMARK       I    between atoms: C2_2  and  N3_3 
REMARK    1  A    between atoms: C2_2  and  C20_18 
REMARK    2  A    between atoms: N3_3  and  C4_4 
REMARK    3  A    between atoms: C4_4  and  C6_5 
REMARK    4  A    between atoms: C4_4  and  C8_7 
REMARK    5  A    between atoms: C6_5  and  O7_6 
REMARK    6  A    between atoms: C8_7  and  O10_8 
REMARK    7  A    between atoms: C8_7  and  C11_9 
REMARK    8  A    between atoms: C14_12  and  N15_13 
ROOT
ATOM      1  C8  ZIN A   1      18.444  -1.189  12.853  0.00  0.00     0.176 C 
ENDROOT
BRANCH   1   2
ATOM      2  C4  ZIN A   1      19.394  -0.396  11.952  0.00  0.00     0.141 C 
BRANCH   2   3
ATOM      3  N3  ZIN A   1      18.618   0.335  10.948  0.00  0.00    -0.349 N 
ATOM      4  C2  ZIN A   1      18.930   1.613  10.654  0.00  0.00     0.251 C 
ATOM      5  O1  ZIN A   1      19.857   2.155  11.218  0.00  0.00    -0.271 OA
ATOM      6  H23 ZIN A   1      17.877  -0.099  10.496  0.00  0.00     0.163 HD
BRANCH   4   7
ATOM      7  C20 ZIN A   1      18.128   2.368   9.625  0.00  0.00     0.269 C 
ATOM      8 Cl21 ZIN A   1      17.965   4.089  10.135  0.00  0.00    -0.098 Cl
ATOM      9 Cl22 ZIN A   1      18.966   2.289   8.031  0.00  0.00    -0.098 Cl
ENDBRANCH   4   7
ENDBRANCH   2   3
BRANCH   2  10
ATOM     10  C6  ZIN A   1      20.355  -1.360  11.252  0.00  0.00     0.192 C 
BRANCH  10  11
ATOM     11  O7  ZIN A   1      21.560  -0.669  10.914  0.00  0.00    -0.399 OA
ATOM     12  H26 ZIN A   1      21.873  -0.841  10.015  0.00  0.00     0.209 HD
ENDBRANCH  10  11
ENDBRANCH   2  10
ENDBRANCH   1   2
BRANCH   1  13
ATOM     13  O10 ZIN A   1      17.102  -1.018  12.396  0.00  0.00    -0.389 OA
ATOM     14  H27 ZIN A   1      16.975  -0.248  11.824  0.00  0.00     0.210 HD
ENDBRANCH   1  13
BRANCH   1  15
ATOM     15  C11 ZIN A   1      18.560  -0.688  14.269  0.00  0.00    -0.028 A 
ATOM     16  C19 ZIN A   1      18.761  -1.582  15.305  0.00  0.00     0.012 A 
ATOM     17  C18 ZIN A   1      18.868  -1.122  16.604  0.00  0.00     0.037 A 
ATOM     18  C14 ZIN A   1      18.775   0.231  16.868  0.00  0.00     0.102 A 
ATOM     19  C13 ZIN A   1      18.576   1.126  15.833  0.00  0.00     0.037 A 
ATOM     20  C12 ZIN A   1      18.473   0.666  14.533  0.00  0.00     0.012 A 
BRANCH  18  21
ATOM     21  N15 ZIN A   1      18.889   0.723  18.259  0.00  0.00    -0.116 N 
ATOM     22  O16 ZIN A   1      19.896   1.306  18.619  0.00  0.00    -0.532 OA
ATOM     23  O17 ZIN A   1      17.975   0.545  19.044  0.00  0.00    -0.532 OA
ENDBRANCH  18  21
ENDBRANCH   1  15
TORSDOF 8
ENDMDL
MODEL 4
REMARK VINA RESULT:      -6.6      3.965      5.712
REMARK  8 active torsions:
REMARK  status: ('A' for Active; 'I' for Inactive)
REMARK       I    between atoms: C2_2  and  N3_3 
REMARK    1  A    between atoms: C2_2  and  C20_18 
REMARK    2  A    between atoms: N3_3  and  C4_4 
REMARK    3  A    between atoms: C4_4  and  C6_5 
REMARK    4  A    between atoms: C4_4  and  C8_7 
REMARK    5  A    between atoms: C6_5  and  O7_6 
REMARK    6  A    between atoms: C8_7  and  O10_8 
REMARK    7  A    between atoms: C8_7  and  C11_9 
REMARK    8  A    between atoms: C14_12  and  N15_13 
ROOT
ATOM      1  C8  ZIN A   1      17.936  -1.745  12.793  0.00  0.00     0.176 C 
ENDROOT
BRANCH   1   2
ATOM      2  C4  ZIN A   1      19.144  -1.785  11.855  0.00  0.00     0.141 C 
BRANCH   2   3
ATOM      3  N3  ZIN A   1      18.752  -1.290  10.533  0.00  0.00    -0.349 N 
ATOM      4  C2  ZIN A   1      19.626  -0.580   9.792  0.00  0.00     0.251 C 
ATOM      5  O1  ZIN A   1      20.739  -0.355  10.219  0.00  0.00    -0.271 OA
ATOM      6  H23 ZIN A   1      17.862  -1.470  10.191  0.00  0.00     0.163 HD
BRANCH   4   7
ATOM      7  C20 ZIN A   1      19.221  -0.065   8.435  0.00  0.00     0.269 C 
ATOM      8 Cl21 ZIN A   1      17.465  -0.376   8.174  0.00  0.00    -0.098 Cl
ATOM      9 Cl22 ZIN A   1      19.539   1.707   8.345  0.00  0.00    -0.098 Cl
ENDBRANCH   4   7
ENDBRANCH   2   3
BRANCH   2  10
ATOM     10  C6  ZIN A   1      19.647  -3.225  11.732  0.00  0.00     0.192 C 
BRANCH  10  11
ATOM     11  O7  ZIN A   1      21.045  -3.217  11.431  0.00  0.00    -0.399 OA
ATOM     12  H26 ZIN A   1      21.270  -2.737  10.623  0.00  0.00     0.209 HD
ENDBRANCH  10  11
ENDBRANCH   2  10
ENDBRANCH   1   2
BRANCH   1  13
ATOM     13  O10 ZIN A   1      16.828  -1.146  12.118  0.00  0.00    -0.389 OA
ATOM     14  H27 ZIN A   1      15.999  -1.181  12.616  0.00  0.00     0.210 HD
ENDBRANCH   1  13
BRANCH   1  15
ATOM     15  C11 ZIN A   1      18.276  -0.936  14.017  0.00  0.00    -0.028 A 
ATOM     16  C19 ZIN A   1      18.577  -1.573  15.206  0.00  0.00     0.012 A 
ATOM     17  C18 ZIN A   1      18.890  -0.830  16.329  0.00  0.00     0.037 A 
ATOM     18  C14 ZIN A   1      18.902   0.550  16.263  0.00  0.00     0.102 A 
ATOM     19  C13 ZIN A   1      18.602   1.188  15.074  0.00  0.00     0.037 A 
ATOM     20  C12 ZIN A   1      18.294   0.445  13.950  0.00  0.00     0.012 A 
BRANCH  18  21
ATOM     21  N15 ZIN A   1      19.236   1.345  17.466  0.00  0.00    -0.116 N 
ATOM     22  O16 ZIN A   1      19.905   0.852  18.356  0.00  0.00    -0.532 OA
ATOM     23  O17 ZIN A   1      18.845   2.494  17.564  0.00  0.00    -0.532 OA
ENDBRANCH  18  21
ENDBRANCH   1  15
TORSDOF 8
ENDMDL
MODEL 5
REMARK VINA RESULT:      -6.5      4.266      7.058
REMARK  8 active torsions:
REMARK  status: ('A' for Active; 'I' for Inactive)
REMARK       I    between atoms: C2_2  and  N3_3 
REMARK    1  A    between atoms: C2_2  and  C20_18 
REMARK    2  A    between atoms: N3_3  and  C4_4 
REMARK    3  A    between atoms: C4_4  and  C6_5 
REMARK    4  A    between atoms: C4_4  and  C8_7 
REMARK    5  A    between atoms: C6_5  and  O7_6 
REMARK    6  A    between atoms: C8_7  and  O10_8 
REMARK    7  A    between atoms: C8_7  and  C11_9 
REMARK    8  A    between atoms: C14_12  and  N15_13 
ROOT
ATOM      1  C8  ZIN A   1      20.140  -0.642  11.420  0.00  0.00     0.176 C 
ENDROOT
BRANCH   1   2
ATOM      2  C4  ZIN A   1      19.298   0.317  10.577  0.00  0.00     0.141 C 
BRANCH   2   3
ATOM      3  N3  ZIN A   1      19.666   0.178   9.165  0.00  0.00    -0.349 N 
ATOM      4  C2  ZIN A   1      18.725  -0.124   8.249  0.00  0.00     0.251 C 
ATOM      5  O1  ZIN A   1      17.572  -0.275   8.593  0.00  0.00    -0.271 OA
ATOM      6  H23 ZIN A   1      20.588   0.300   8.890  0.00  0.00     0.163 HD
BRANCH   4   7
ATOM      7  C20 ZIN A   1      19.105  -0.273   6.799  0.00  0.00     0.269 C 
ATOM      8 Cl21 ZIN A   1      19.148  -2.023   6.366  0.00  0.00    -0.098 Cl
ATOM      9 Cl22 ZIN A   1      17.890   0.572   5.768  0.00  0.00    -0.098 Cl
ENDBRANCH   4   7
ENDBRANCH   2   3
BRANCH   2  10
ATOM     10  C6  ZIN A   1      19.555   1.756  11.031  0.00  0.00     0.192 C 
BRANCH  10  11
ATOM     11  O7  ZIN A   1      20.636   1.774  11.967  0.00  0.00    -0.399 OA
ATOM     12  H26 ZIN A   1      20.864   0.904  12.321  0.00  0.00     0.209 HD
ENDBRANCH  10  11
ENDBRANCH   2  10
ENDBRANCH   1   2
BRANCH   1  13
ATOM     13  O10 ZIN A   1      21.435  -0.780  10.835  0.00  0.00    -0.389 OA
ATOM     14  H27 ZIN A   1      21.513  -0.385   9.955  0.00  0.00     0.210 HD
ENDBRANCH   1  13
BRANCH   1  15
ATOM     15  C11 ZIN A   1      19.466  -1.988  11.472  0.00  0.00    -0.028 A 
ATOM     16  C19 ZIN A   1      20.223  -3.144  11.412  0.00  0.00     0.012 A 
ATOM     17  C18 ZIN A   1      19.604  -4.379  11.460  0.00  0.00     0.037 A 
ATOM     18  C14 ZIN A   1      18.229  -4.459  11.570  0.00  0.00     0.102 A 
ATOM     19  C13 ZIN A   1      17.471  -3.304  11.631  0.00  0.00     0.037 A 
ATOM     20  C12 ZIN A   1      18.091  -2.069  11.587  0.00  0.00     0.012 A 
BRANCH  18  21
ATOM     21  N15 ZIN A   1      17.567  -5.782  11.621  0.00  0.00    -0.116 N 
ATOM     22  O16 ZIN A   1      17.361  -6.320  12.694  0.00  0.00    -0.532 OA
ATOM     23  O17 ZIN A   1      17.226  -6.332  10.589  0.00  0.00    -0.532 OA
ENDBRANCH  18  21
ENDBRANCH   1  15
TORSDOF 8
ENDMDL
MODEL 6
REMARK VINA RESULT:      -6.4      5.027      7.827
REMARK  8 active torsions:
REMARK  status: ('A' for Active; 'I' for Inactive)
REMARK       I    between atoms: C2_2  and  N3_3 
REMARK    1  A    between atoms: C2_2  and  C20_18 
REMARK    2  A    between atoms: N3_3  and  C4_4 
REMARK    3  A    between atoms: C4_4  and  C6_5 
REMARK    4  A    between atoms: C4_4  and  C8_7 
REMARK    5  A    between atoms: C6_5  and  O7_6 
REMARK    6  A    between atoms: C8_7  and  O10_8 
REMARK    7  A    between atoms: C8_7  and  C11_9 
REMARK    8  A    between atoms: C14_12  and  N15_13 
ROOT
ATOM      1  C8  ZIN A   1      19.678  -3.079  11.335  0.00  0.00     0.176 C 
ENDROOT
BRANCH   1   2
ATOM      2  C4  ZIN A   1      19.378  -1.724  10.691  0.00  0.00     0.141 C 
BRANCH   2   3
ATOM      3  N3  ZIN A   1      19.731  -1.771   9.269  0.00  0.00    -0.349 N 
ATOM      4  C2  ZIN A   1      18.845  -1.360   8.340  0.00  0.00     0.251 C 
ATOM      5  O1  ZIN A   1      17.756  -0.947   8.682  0.00  0.00    -0.271 OA
ATOM      6  H23 ZIN A   1      20.601  -2.100   8.996  0.00  0.00     0.163 HD
BRANCH   4   7
ATOM      7  C20 ZIN A   1      19.204  -1.415   6.878  0.00  0.00     0.269 C 
ATOM      8 Cl21 ZIN A   1      19.605  -3.111   6.421  0.00  0.00    -0.098 Cl
ATOM      9 Cl22 ZIN A   1      17.809  -0.839   5.893  0.00  0.00    -0.098 Cl
ENDBRANCH   4   7
ENDBRANCH   2   3
BRANCH   2  10
ATOM     10  C6  ZIN A   1      20.200  -0.636  11.385  0.00  0.00     0.192 C 
BRANCH  10  11
ATOM     11  O7  ZIN A   1      21.511  -0.592  10.814  0.00  0.00    -0.399 OA
ATOM     12  H26 ZIN A   1      21.545  -0.863   9.887  0.00  0.00     0.209 HD
ENDBRANCH  10  11
ENDBRANCH   2  10
ENDBRANCH   1   2
BRANCH   1  13
ATOM     13  O10 ZIN A   1      21.091  -3.263  11.421  0.00  0.00    -0.389 OA
ATOM     14  H27 ZIN A   1      21.395  -4.125  11.103  0.00  0.00     0.210 HD
ENDBRANCH   1  13
BRANCH   1  15
ATOM     15  C11 ZIN A   1      19.077  -4.177  10.497  0.00  0.00    -0.028 A 
ATOM     16  C19 ZIN A   1      19.899  -5.051   9.809  0.00  0.00     0.012 A 
ATOM     17  C18 ZIN A   1      19.348  -6.059   9.041  0.00  0.00     0.037 A 
ATOM     18  C14 ZIN A   1      17.975  -6.194   8.961  0.00  0.00     0.102 A 
ATOM     19  C13 ZIN A   1      17.153  -5.322   9.648  0.00  0.00     0.037 A 
ATOM     20  C12 ZIN A   1      17.704  -4.316  10.420  0.00  0.00     0.012 A 
BRANCH  18  21
ATOM     21  N15 ZIN A   1      17.386  -7.274   8.137  0.00  0.00    -0.116 N 
ATOM     22  O16 ZIN A   1      18.063  -7.840   7.298  0.00  0.00    -0.532 OA
ATOM     23  O17 ZIN A   1      16.223  -7.598   8.299  0.00  0.00    -0.532 OA
ENDBRANCH  18  21
ENDBRANCH   1  15
TORSDOF 8
ENDMDL
MODEL 7
REMARK VINA RESULT:      -6.3      3.452      4.302
REMARK  8 active torsions:
REMARK  status: ('A' for Active; 'I' for Inactive)
REMARK       I    between atoms: C2_2  and  N3_3 
REMARK    1  A    between atoms: C2_2  and  C20_18 
REMARK    2  A    between atoms: N3_3  and  C4_4 
REMARK    3  A    between atoms: C4_4  and  C6_5 
REMARK    4  A    between atoms: C4_4  and  C8_7 
REMARK    5  A    between atoms: C6_5  and  O7_6 
REMARK    6  A    between atoms: C8_7  and  O10_8 
REMARK    7  A    between atoms: C8_7  and  C11_9 
REMARK    8  A    between atoms: C14_12  and  N15_13 
ROOT
ATOM      1  C8  ZIN A   1      18.682   1.422  10.595  0.00  0.00     0.176 C 
ENDROOT
BRANCH   1   2
ATOM      2  C4  ZIN A   1      19.200   0.259  11.445  0.00  0.00     0.141 C 
BRANCH   2   3
ATOM      3  N3  ZIN A   1      19.062   0.593  12.865  0.00  0.00    -0.349 N 
ATOM      4  C2  ZIN A   1      18.047   0.075  13.584  0.00  0.00     0.251 C 
ATOM      5  O1  ZIN A   1      17.250  -0.671  13.056  0.00  0.00    -0.271 OA
ATOM      6  H23 ZIN A   1      19.701   1.190  13.286  0.00  0.00     0.163 HD
BRANCH   4   7
ATOM      7  C20 ZIN A   1      17.902   0.424  15.043  0.00  0.00     0.269 C 
ATOM      8 Cl21 ZIN A   1      17.969  -1.083  16.030  0.00  0.00    -0.098 Cl
ATOM      9 Cl22 ZIN A   1      19.242   1.525  15.535  0.00  0.00    -0.098 Cl
ENDBRANCH   4   7
ENDBRANCH   2   3
BRANCH   2  10
ATOM     10  C6  ZIN A   1      20.674   0.008  11.120  0.00  0.00     0.192 C 
BRANCH  10  11
ATOM     11  O7  ZIN A   1      21.492   0.585  12.140  0.00  0.00    -0.399 OA
ATOM     12  H26 ZIN A   1      22.236   1.102  11.802  0.00  0.00     0.209 HD
ENDBRANCH  10  11
ENDBRANCH   2  10
ENDBRANCH   1   2
BRANCH   1  13
ATOM     13  O10 ZIN A   1      17.419   1.856  11.101  0.00  0.00    -0.389 OA
ATOM     14  H27 ZIN A   1      16.937   2.445  10.503  0.00  0.00     0.210 HD
ENDBRANCH   1  13
BRANCH   1  15
ATOM     15  C11 ZIN A   1      18.522   0.968   9.167  0.00  0.00    -0.028 A 
ATOM     16  C19 ZIN A   1      19.188   1.629   8.152  0.00  0.00     0.012 A 
ATOM     17  C18 ZIN A   1      19.042   1.212   6.843  0.00  0.00     0.037 A 
ATOM     18  C14 ZIN A   1      18.228   0.134   6.548  0.00  0.00     0.102 A 
ATOM     19  C13 ZIN A   1      17.562  -0.527   7.562  0.00  0.00     0.037 A 
ATOM     20  C12 ZIN A   1      17.712  -0.113   8.872  0.00  0.00     0.012 A 
BRANCH  18  21
ATOM     21  N15 ZIN A   1      18.071  -0.311   5.145  0.00  0.00    -0.116 N 
ATOM     22  O16 ZIN A   1      17.189  -1.098   4.850  0.00  0.00    -0.532 OA
ATOM     23  O17 ZIN A   1      18.822   0.112   4.284  0.00  0.00    -0.532 OA
ENDBRANCH  18  21
ENDBRANCH   1  15
TORSDOF 8
ENDMDL
MODEL 8
REMARK VINA RESULT:      -6.3      4.252      5.435
REMARK  8 active torsions:
REMARK  status: ('A' for Active; 'I' for Inactive)
REMARK       I    between atoms: C2_2  and  N3_3 
REMARK    1  A    between atoms: C2_2  and  C20_18 
REMARK    2  A    between atoms: N3_3  and  C4_4 
REMARK    3  A    between atoms: C4_4  and  C6_5 
REMARK    4  A    between atoms: C4_4  and  C8_7 
REMARK    5  A    between atoms: C6_5  and  O7_6 
REMARK    6  A    between atoms: C8_7  and  O10_8 
REMARK    7  A    between atoms: C8_7  and  C11_9 
REMARK    8  A    between atoms: C14_12  and  N15_13 
ROOT
ATOM      1  C8  ZIN A   1      18.192   1.844  12.044  0.00  0.00     0.176 C 
ENDROOT
BRANCH   1   2
ATOM      2  C4  ZIN A   1      19.467   1.330  11.372  0.00  0.00     0.141 C 
BRANCH   2   3
ATOM      3  N3  ZIN A   1      19.112   0.512  10.210  0.00  0.00    -0.349 N 
ATOM      4  C2  ZIN A   1      19.192   1.031   8.969  0.00  0.00     0.251 C 
ATOM      5  O1  ZIN A   1      19.563   2.176   8.814  0.00  0.00    -0.271 OA
ATOM      6  H23 ZIN A   1      18.816  -0.404  10.334  0.00  0.00     0.163 HD
BRANCH   4   7
ATOM      7  C20 ZIN A   1      18.820   0.192   7.775  0.00  0.00     0.269 C 
ATOM      8 Cl21 ZIN A   1      17.094  -0.312   7.907  0.00  0.00    -0.098 Cl
ATOM      9 Cl22 ZIN A   1      19.052   1.153   6.267  0.00  0.00    -0.098 Cl
ENDBRANCH   4   7
ENDBRANCH   2   3
BRANCH   2  10
ATOM     10  C6  ZIN A   1      20.263   0.484  12.368  0.00  0.00     0.192 C 
BRANCH  10  11
ATOM     11  O7  ZIN A   1      21.662   0.653  12.128  0.00  0.00    -0.399 OA
ATOM     12  H26 ZIN A   1      22.039  -0.003  11.526  0.00  0.00     0.209 HD
ENDBRANCH  10  11
ENDBRANCH   2  10
ENDBRANCH   1   2
BRANCH   1  13
ATOM     13  O10 ZIN A   1      17.239   2.206  11.043  0.00  0.00    -0.389 OA
ATOM     14  H27 ZIN A   1      17.525   2.933  10.473  0.00  0.00     0.210 HD
ENDBRANCH   1  13
BRANCH   1  15
ATOM     15  C11 ZIN A   1      18.519   3.050  12.886  0.00  0.00    -0.028 A 
ATOM     16  C19 ZIN A   1      19.380   4.018  12.404  0.00  0.00     0.012 A 
ATOM     17  C18 ZIN A   1      19.679   5.124  13.176  0.00  0.00     0.037 A 
ATOM     18  C14 ZIN A   1      19.116   5.263  14.431  0.00  0.00     0.102 A 
ATOM     19  C13 ZIN A   1      18.254   4.297  14.913  0.00  0.00     0.037 A 
ATOM     20  C12 ZIN A   1      17.952   3.192  14.138  0.00  0.00     0.012 A 
BRANCH  18  21
ATOM     21  N15 ZIN A   1      19.437   6.448  15.258  0.00  0.00    -0.116 N 
ATOM     22  O16 ZIN A   1      20.143   6.330  16.244  0.00  0.00    -0.532 OA
ATOM     23  O17 ZIN A   1      18.997   7.542  14.952  0.00  0.00    -0.532 OA
ENDBRANCH  18  21
ENDBRANCH   1  15
TORSDOF 8
ENDMDL
MODEL 9
REMARK VINA RESULT:      -6.2      2.768      3.382
REMARK  8 active torsions:
REMARK  status: ('A' for Active; 'I' for Inactive)
REMARK       I    between atoms: C2_2  and  N3_3 
REMARK    1  A    between atoms: C2_2  and  C20_18 
REMARK    2  A    between atoms: N3_3  and  C4_4 
REMARK    3  A    between atoms: C4_4  and  C6_5 
REMARK    4  A    between atoms: C4_4  and  C8_7 
REMARK    5  A    between atoms: C6_5  and  O7_6 
REMARK    6  A    between atoms: C8_7  and  O10_8 
REMARK    7  A    between atoms: C8_7  and  C11_9 
REMARK    8  A    between atoms: C14_12  and  N15_13 
ROOT
ATOM      1  C8  ZIN A   1      18.672   2.009   9.204  0.00  0.00     0.176 C 
ENDROOT
BRANCH   1   2
ATOM      2  C4  ZIN A   1      17.708   0.842   9.428  0.00  0.00     0.141 C 
BRANCH   2   3
ATOM      3  N3  ZIN A   1      18.122   0.086  10.613  0.00  0.00    -0.349 N 
ATOM      4  C2  ZIN A   1      17.221  -0.222  11.565  0.00  0.00     0.251 C 
ATOM      5  O1  ZIN A   1      16.064   0.122  11.439  0.00  0.00    -0.271 OA
ATOM      6  H23 ZIN A   1      19.047  -0.189  10.714  0.00  0.00     0.163 HD
BRANCH   4   7
ATOM      7  C20 ZIN A   1      17.647  -0.993  12.787  0.00  0.00     0.269 C 
ATOM      8 Cl21 ZIN A   1      18.281  -2.605  12.290  0.00  0.00    -0.098 Cl
ATOM      9 Cl22 ZIN A   1      18.938  -0.081  13.654  0.00  0.00    -0.098 Cl
ENDBRANCH   4   7
ENDBRANCH   2   3
BRANCH   2  10
ATOM     10  C6  ZIN A   1      17.728  -0.077   8.204  0.00  0.00     0.192 C 
BRANCH  10  11
ATOM     11  O7  ZIN A   1      18.762  -1.053   8.357  0.00  0.00    -0.399 OA
ATOM     12  H26 ZIN A   1      18.750  -1.507   9.211  0.00  0.00     0.209 HD
ENDBRANCH  10  11
ENDBRANCH   2  10
ENDBRANCH   1   2
BRANCH   1  13
ATOM     13  O10 ZIN A   1      20.003   1.508   9.067  0.00  0.00    -0.389 OA
ATOM     14  H27 ZIN A   1      20.091   0.566   9.267  0.00  0.00     0.210 HD
ENDBRANCH   1  13
BRANCH   1  15
ATOM     15  C11 ZIN A   1      18.607   2.946  10.382  0.00  0.00    -0.028 A 
ATOM     16  C19 ZIN A   1      17.446   3.651  10.642  0.00  0.00     0.012 A 
ATOM     17  C18 ZIN A   1      17.386   4.511  11.722  0.00  0.00     0.037 A 
ATOM     18  C14 ZIN A   1      18.487   4.666  12.544  0.00  0.00     0.102 A 
ATOM     19  C13 ZIN A   1      19.648   3.961  12.285  0.00  0.00     0.037 A 
ATOM     20  C12 ZIN A   1      19.706   3.098  11.207  0.00  0.00     0.012 A 
BRANCH  18  21
ATOM     21  N15 ZIN A   1      18.423   5.587  13.700  0.00  0.00    -0.116 N 
ATOM     22  O16 ZIN A   1      19.363   5.666  14.471  0.00  0.00    -0.532 OA
ATOM     23  O17 ZIN A   1      17.430   6.269  13.881  0.00  0.00    -0.532 OA
ENDBRANCH  18  21
ENDBRANCH   1  15
TORSDOF 8
ENDMDL
