MODEL 1
REMARK VINA RESULT:      -8.2      0.000      0.000
REMARK  5 active torsions:
REMARK  status: ('A' for Active; 'I' for Inactive)
REMARK    1  A    between atoms: C6_6  and  N7_7 
REMARK    2  A    between atoms: N7_7  and  C8_8 
REMARK    3  A    between atoms: C13_13  and  S14_14 
REMARK    4  A    between atoms: S14_14  and  N17_17 
REMARK       I    between atoms: N17_17  and  C18_18 
REMARK       I    between atoms: C18_18  and  N20_20 
REMARK    5  A    between atoms: N20_20  and  C21_21 
ROOT
ATOM      1  C8  ZIN A   1      18.687   2.904  10.199  0.00  0.00     0.059 A 
ATOM      2  C9  ZIN A   1      18.117   4.014   9.577  0.00  0.00     0.050 A 
ATOM      3  C10 ZIN A   1      17.385   4.904  10.336  0.00  0.00     0.118 A 
ATOM      4  N11 ZIN A   1      17.223   4.715  11.631  0.00  0.00    -0.271 NA
ATOM      5  C12 ZIN A   1      17.747   3.677  12.256  0.00  0.00     0.144 A 
ATOM      6  C13 ZIN A   1      18.487   2.739  11.570  0.00  0.00     0.125 A 
ENDROOT
BRANCH   6   7
ATOM      7  S14 ZIN A   1      19.182   1.357  12.414  0.00  0.00     0.291 S 
ATOM      8  O15 ZIN A   1      18.553   0.118  11.928  0.00  0.00    -0.198 OA
ATOM      9  O16 ZIN A   1      20.631   1.304  12.158  0.00  0.00    -0.198 OA
BRANCH   7  10
ATOM     10  N17 ZIN A   1      18.940   1.497  13.881  0.00  0.00    -0.102 NA
ATOM     11  C18 ZIN A   1      18.993   0.422  14.671  0.00  0.00     0.353 C 
ATOM     12  O19 ZIN A   1      19.240  -0.671  14.196  0.00  0.00    -0.244 OA
ATOM     13  N20 ZIN A   1      18.774   0.548  15.994  0.00  0.00    -0.337 N 
ATOM     14  H35 ZIN A   1      18.578   1.419  16.373  0.00  0.00     0.164 HD
BRANCH  13  15
ATOM     15  C21 ZIN A   1      18.833  -0.631  16.862  0.00  0.00     0.078 C 
ATOM     16  C22 ZIN A   1      19.286  -0.212  18.262  0.00  0.00     0.032 C 
ATOM     17  C23 ZIN A   1      17.446  -1.272  16.945  0.00  0.00     0.032 C 
ENDBRANCH  13  15
ENDBRANCH   7  10
ENDBRANCH   6   7
BRANCH   1  18
ATOM     18  N7  ZIN A   1      19.432   1.982   9.469  0.00  0.00    -0.355 N 
ATOM     19  H31 ZIN A   1      20.382   1.880   9.642  0.00  0.00     0.166 HD
BRANCH  18  20
ATOM     20  C6  ZIN A   1      18.813   1.202   8.489  0.00  0.00     0.033 A 
ATOM     21  C5  ZIN A   1      17.690   0.447   8.805  0.00  0.00     0.029 A 
ATOM     22  C4  ZIN A   1      17.081  -0.322   7.834  0.00  0.00     0.003 A 
ATOM     23  C3  ZIN A   1      17.587  -0.343   6.547  0.00  0.00     0.007 A 
ATOM     24  C2  ZIN A   1      18.704   0.408   6.228  0.00  0.00    -0.060 A 
ATOM     25  C1  ZIN A   1      19.252   0.383   4.825  0.00  0.00     0.048 C 
ATOM     26  C24 ZIN A   1      19.322   1.176   7.197  0.00  0.00     0.036 A 
ENDBRANCH  18  20
ENDBRANCH   1  18
TORSDOF 5
ENDMDL
MODEL 2
REMARK VINA RESULT:      -8.1      2.530      3.083
REMARK  5 active torsions:
REMARK  status: ('A' for Active; 'I' for Inactive)
REMARK    1  A    between atoms: C6_6  and  N7_7 
REMARK    2  A    between atoms: N7_7  and  C8_8 
REMARK    3  A    between atoms: C13_13  and  S14_14 
REMARK    4  A    between atoms: S14_14  and  N17_17 
REMARK       I    between atoms: N17_17  and  C18_18 
REMARK       I    between atoms: C18_18  and  N20_20 
REMARK    5  A    between atoms: N20_20  and  C21_21 
ROOT
ATOM      1  C8  ZIN A   1      18.732   2.520  10.455  0.00  0.00     0.059 A 
ATOM      2  C9  ZIN A   1      18.230   3.727   9.973  0.00  0.00     0.050 A 
ATOM      3  C10 ZIN A   1      17.523   4.548  10.827  0.00  0.00     0.118 A 
ATOM      4  N11 ZIN A   1      17.321   4.202  12.084  0.00  0.00    -0.271 NA
ATOM      5  C12 ZIN A   1      17.780   3.067  12.578  0.00  0.00     0.144 A 
ATOM      6  C13 ZIN A   1      18.491   2.189  11.789  0.00  0.00     0.125 A 
ENDROOT
BRANCH   6   7
ATOM      7  S14 ZIN A   1      19.100   0.678  12.459  0.00  0.00     0.291 S 
ATOM      8  O15 ZIN A   1      20.551   0.588  12.230  0.00  0.00    -0.198 OA
ATOM      9  O16 ZIN A   1      18.829   0.638  13.906  0.00  0.00    -0.198 OA
BRANCH   7  10
ATOM     10  N17 ZIN A   1      18.418  -0.472  11.794  0.00  0.00    -0.102 NA
ATOM     11  C18 ZIN A   1      18.771  -1.723  12.098  0.00  0.00     0.353 C 
ATOM     12  O19 ZIN A   1      19.647  -1.927  12.918  0.00  0.00    -0.244 OA
ATOM     13  N20 ZIN A   1      18.156  -2.761  11.497  0.00  0.00    -0.337 N 
ATOM     14  H35 ZIN A   1      17.458  -2.599  10.844  0.00  0.00     0.164 HD
BRANCH  13  15
ATOM     15  C21 ZIN A   1      18.543  -4.134  11.830  0.00  0.00     0.078 C 
ATOM     16  C22 ZIN A   1      17.296  -5.021  11.865  0.00  0.00     0.032 C 
ATOM     17  C23 ZIN A   1      19.514  -4.662  10.772  0.00  0.00     0.032 C 
ENDBRANCH  13  15
ENDBRANCH   7  10
ENDBRANCH   6   7
BRANCH   1  18
ATOM     18  N7  ZIN A   1      19.451   1.663   9.626  0.00  0.00    -0.355 N 
ATOM     19  H31 ZIN A   1      20.395   1.511   9.787  0.00  0.00     0.166 HD
BRANCH  18  20
ATOM     20  C6  ZIN A   1      18.811   1.021   8.561  0.00  0.00     0.033 A 
ATOM     21  C5  ZIN A   1      17.618   0.340   8.774  0.00  0.00     0.029 A 
ATOM     22  C4  ZIN A   1      16.990  -0.292   7.720  0.00  0.00     0.003 A 
ATOM     23  C3  ZIN A   1      17.546  -0.250   6.455  0.00  0.00     0.007 A 
ATOM     24  C2  ZIN A   1      18.733   0.427   6.240  0.00  0.00    -0.060 A 
ATOM     25  C1  ZIN A   1      19.335   0.470   4.859  0.00  0.00     0.048 C 
ATOM     26  C24 ZIN A   1      19.370   1.058   7.291  0.00  0.00     0.036 A 
ENDBRANCH  18  20
ENDBRANCH   1  18
TORSDOF 5
ENDMDL
MODEL 3
REMARK VINA RESULT:      -7.9      4.308      6.203
REMARK  5 active torsions:
REMARK  status: ('A' for Active; 'I' for Inactive)
REMARK    1  A    between atoms: C6_6  and  N7_7 
REMARK    2  A    between atoms: N7_7  and  C8_8 
REMARK    3  A    between atoms: C13_13  and  S14_14 
REMARK    4  A    between atoms: S14_14  and  N17_17 
REMARK       I    between atoms: N17_17  and  C18_18 
REMARK       I    between atoms: C18_18  and  N20_20 
REMARK    5  A    between atoms: N20_20  and  C21_21 
ROOT
ATOM      1  C8  ZIN A   1      18.674  -3.831   7.934  0.00  0.00     0.059 A 
ATOM      2  C9  ZIN A   1      19.716  -3.899   7.012  0.00  0.00     0.050 A 
ATOM      3  C10 ZIN A   1      20.645  -4.913   7.123  0.00  0.00     0.118 A 
ATOM      4  N11 ZIN A   1      20.554  -5.810   8.086  0.00  0.00    -0.271 NA
ATOM      5  C12 ZIN A   1      19.582  -5.780   8.979  0.00  0.00     0.144 A 
ATOM      6  C13 ZIN A   1      18.618  -4.797   8.941  0.00  0.00     0.125 A 
ENDROOT
BRANCH   6   7
ATOM      7  S14 ZIN A   1      17.324  -4.766  10.137  0.00  0.00     0.291 S 
ATOM      8  O15 ZIN A   1      16.037  -5.033   9.474  0.00  0.00    -0.198 OA
ATOM      9  O16 ZIN A   1      17.574  -5.800  11.155  0.00  0.00    -0.198 OA
BRANCH   7  10
ATOM     10  N17 ZIN A   1      17.281  -3.424  10.789  0.00  0.00    -0.102 NA
ATOM     11  C18 ZIN A   1      18.272  -3.044  11.599  0.00  0.00     0.353 C 
ATOM     12  O19 ZIN A   1      19.210  -3.791  11.805  0.00  0.00    -0.244 OA
ATOM     13  N20 ZIN A   1      18.233  -1.833  12.188  0.00  0.00    -0.337 N 
ATOM     14  H35 ZIN A   1      17.485  -1.237  12.024  0.00  0.00     0.164 HD
BRANCH  13  15
ATOM     15  C21 ZIN A   1      19.320  -1.415  13.077  0.00  0.00     0.078 C 
ATOM     16  C22 ZIN A   1      19.846  -0.049  12.633  0.00  0.00     0.032 C 
ATOM     17  C23 ZIN A   1      18.797  -1.318  14.512  0.00  0.00     0.032 C 
ENDBRANCH  13  15
ENDBRANCH   7  10
ENDBRANCH   6   7
BRANCH   1  18
ATOM     18  N7  ZIN A   1      17.716  -2.824   7.857  0.00  0.00    -0.355 N 
ATOM     19  H31 ZIN A   1      16.785  -3.023   8.045  0.00  0.00     0.166 HD
BRANCH  18  20
ATOM     20  C6  ZIN A   1      18.095  -1.524   7.510  0.00  0.00     0.033 A 
ATOM     21  C5  ZIN A   1      18.080  -1.126   6.178  0.00  0.00     0.029 A 
ATOM     22  C4  ZIN A   1      18.455   0.158   5.840  0.00  0.00     0.003 A 
ATOM     23  C3  ZIN A   1      18.847   1.049   6.822  0.00  0.00     0.007 A 
ATOM     24  C2  ZIN A   1      18.863   0.656   8.149  0.00  0.00    -0.060 A 
ATOM     25  C1  ZIN A   1      19.290   1.630   9.217  0.00  0.00     0.048 C 
ATOM     26  C24 ZIN A   1      18.494  -0.629   8.495  0.00  0.00     0.036 A 
ENDBRANCH  18  20
ENDBRANCH   1  18
TORSDOF 5
ENDMDL
MODEL 4
REMARK VINA RESULT:      -7.9      1.690      4.400
REMARK  5 active torsions:
REMARK  status: ('A' for Active; 'I' for Inactive)
REMARK    1  A    between atoms: C6_6  and  N7_7 
REMARK    2  A    between atoms: N7_7  and  C8_8 
REMARK    3  A    between atoms: C13_13  and  S14_14 
REMARK    4  A    between atoms: S14_14  and  N17_17 
REMARK       I    between atoms: N17_17  and  C18_18 
REMARK       I    between atoms: C18_18  and  N20_20 
REMARK    5  A    between atoms: N20_20  and  C21_21 
ROOT
ATOM      1  C8  ZIN A   1      19.247   1.043   9.247  0.00  0.00     0.059 A 
ATOM      2  C9  ZIN A   1      18.791   1.308   7.957  0.00  0.00     0.050 A 
ATOM      3  C10 ZIN A   1      18.137   0.313   7.260  0.00  0.00     0.118 A 
ATOM      4  N11 ZIN A   1      17.941  -0.874   7.801  0.00  0.00    -0.271 NA
ATOM      5  C12 ZIN A   1      18.359  -1.164   9.019  0.00  0.00     0.144 A 
ATOM      6  C13 ZIN A   1      19.026  -0.227   9.779  0.00  0.00     0.125 A 
ENDROOT
BRANCH   6   7
ATOM      7  S14 ZIN A   1      19.577  -0.624  11.405  0.00  0.00     0.291 S 
ATOM      8  O15 ZIN A   1      19.640  -2.087  11.558  0.00  0.00    -0.198 OA
ATOM      9  O16 ZIN A   1      20.916  -0.052  11.622  0.00  0.00    -0.198 OA
BRANCH   7  10
ATOM     10  N17 ZIN A   1      18.625  -0.059  12.406  0.00  0.00    -0.102 NA
ATOM     11  C18 ZIN A   1      18.877  -0.183  13.710  0.00  0.00     0.353 C 
ATOM     12  O19 ZIN A   1      19.883  -0.757  14.085  0.00  0.00    -0.244 OA
ATOM     13  N20 ZIN A   1      18.018   0.327  14.615  0.00  0.00    -0.337 N 
ATOM     14  H35 ZIN A   1      17.215   0.784  14.317  0.00  0.00     0.164 HD
BRANCH  13  15
ATOM     15  C21 ZIN A   1      18.293   0.190  16.046  0.00  0.00     0.078 C 
ATOM     16  C22 ZIN A   1      18.751   1.538  16.609  0.00  0.00     0.032 C 
ATOM     17  C23 ZIN A   1      17.023  -0.260  16.770  0.00  0.00     0.032 C 
ENDBRANCH  13  15
ENDBRANCH   7  10
ENDBRANCH   6   7
BRANCH   1  18
ATOM     18  N7  ZIN A   1      19.912   2.020   9.984  0.00  0.00    -0.355 N 
ATOM     19  H31 ZIN A   1      20.882   2.029  10.014  0.00  0.00     0.166 HD
BRANCH  18  20
ATOM     20  C6  ZIN A   1      19.183   2.988  10.680  0.00  0.00     0.033 A 
ATOM     21  C5  ZIN A   1      17.911   3.345  10.249  0.00  0.00     0.029 A 
ATOM     22  C4  ZIN A   1      17.193   4.301  10.939  0.00  0.00     0.003 A 
ATOM     23  C3  ZIN A   1      17.739   4.905  12.058  0.00  0.00     0.007 A 
ATOM     24  C2  ZIN A   1      19.004   4.551  12.490  0.00  0.00    -0.060 A 
ATOM     25  C1  ZIN A   1      19.594   5.210  13.710  0.00  0.00     0.048 C 
ATOM     26  C24 ZIN A   1      19.730   3.598  11.801  0.00  0.00     0.036 A 
ENDBRANCH  18  20
ENDBRANCH   1  18
TORSDOF 5
ENDMDL
MODEL 5
REMARK VINA RESULT:      -7.9      3.100      7.106
REMARK  5 active torsions:
REMARK  status: ('A' for Active; 'I' for Inactive)
REMARK    1  A    between atoms: C6_6  and  N7_7 
REMARK    2  A    between atoms: N7_7  and  C8_8 
REMARK    3  A    between atoms: C13_13  and  S14_14 
REMARK    4  A    between atoms: S14_14  and  N17_17 
REMARK       I    between atoms: N17_17  and  C18_18 
REMARK       I    between atoms: C18_18  and  N20_20 
REMARK    5  A    between atoms: N20_20  and  C21_21 
ROOT
ATOM      1  C8  ZIN A   1      19.058  -2.484  11.240  0.00  0.00     0.059 A 
ATOM      2  C9  ZIN A   1      18.789  -3.774  11.695  0.00  0.00     0.050 A 
ATOM      3  C10 ZIN A   1      18.148  -4.661  10.856  0.00  0.00     0.118 A 
ATOM      4  N11 ZIN A   1      17.791  -4.301   9.637  0.00  0.00    -0.271 NA
ATOM      5  C12 ZIN A   1      18.028  -3.090   9.169  0.00  0.00     0.144 A 
ATOM      6  C13 ZIN A   1      18.659  -2.143   9.947  0.00  0.00     0.125 A 
ENDROOT
BRANCH   6   7
ATOM      7  S14 ZIN A   1      18.971  -0.529   9.312  0.00  0.00     0.291 S 
ATOM      8  O15 ZIN A   1      20.397  -0.202   9.481  0.00  0.00    -0.198 OA
ATOM      9  O16 ZIN A   1      18.627  -0.490   7.881  0.00  0.00    -0.198 OA
BRANCH   7  10
ATOM     10  N17 ZIN A   1      18.140   0.466  10.052  0.00  0.00    -0.102 NA
ATOM     11  C18 ZIN A   1      18.460   1.761  10.014  0.00  0.00     0.353 C 
ATOM     12  O19 ZIN A   1      19.428   2.132   9.377  0.00  0.00    -0.244 OA
ATOM     13  N20 ZIN A   1      17.710   2.660  10.682  0.00  0.00    -0.337 N 
ATOM     14  H35 ZIN A   1      16.938   2.365  11.191  0.00  0.00     0.164 HD
BRANCH  13  15
ATOM     15  C21 ZIN A   1      18.060   4.081  10.642  0.00  0.00     0.078 C 
ATOM     16  C22 ZIN A   1      16.782   4.923  10.662  0.00  0.00     0.032 C 
ATOM     17  C23 ZIN A   1      18.919   4.430  11.859  0.00  0.00     0.032 C 
ENDBRANCH  13  15
ENDBRANCH   7  10
ENDBRANCH   6   7
BRANCH   1  18
ATOM     18  N7  ZIN A   1      19.703  -1.558  12.056  0.00  0.00    -0.355 N 
ATOM     19  H31 ZIN A   1      20.585  -1.233  11.817  0.00  0.00     0.166 HD
BRANCH  18  20
ATOM     20  C6  ZIN A   1      19.080  -1.098  13.219  0.00  0.00     0.033 A 
ATOM     21  C5  ZIN A   1      18.030  -0.192  13.134  0.00  0.00     0.029 A 
ATOM     22  C4  ZIN A   1      17.417   0.260  14.285  0.00  0.00     0.003 A 
ATOM     23  C3  ZIN A   1      17.846  -0.186  15.522  0.00  0.00     0.007 A 
ATOM     24  C2  ZIN A   1      18.891  -1.088  15.609  0.00  0.00    -0.060 A 
ATOM     25  C1  ZIN A   1      19.356  -1.573  16.958  0.00  0.00     0.048 C 
ATOM     26  C24 ZIN A   1      19.513  -1.541  14.462  0.00  0.00     0.036 A 
ENDBRANCH  18  20
ENDBRANCH   1  18
TORSDOF 5
ENDMDL
MODEL 6
REMARK VINA RESULT:      -7.8      3.185      4.275
REMARK  5 active torsions:
REMARK  status: ('A' for Active; 'I' for Inactive)
REMARK    1  A    between atoms: C6_6  and  N7_7 
REMARK    2  A    between atoms: N7_7  and  C8_8 
REMARK    3  A    between atoms: C13_13  and  S14_14 
REMARK    4  A    between atoms: S14_14  and  N17_17 
REMARK       I    between atoms: N17_17  and  C18_18 
REMARK       I    between atoms: C18_18  and  N20_20 
REMARK    5  A    between atoms: N20_20  and  C21_21 
ROOT
ATOM      1  C8  ZIN A   1      19.500  -0.872   9.503  0.00  0.00     0.059 A 
ATOM      2  C9  ZIN A   1      19.226  -1.145   8.164  0.00  0.00     0.050 A 
ATOM      3  C10 ZIN A   1      18.919  -0.101   7.316  0.00  0.00     0.118 A 
ATOM      4  N11 ZIN A   1      18.885   1.141   7.758  0.00  0.00    -0.271 NA
ATOM      5  C12 ZIN A   1      19.139   1.441   9.019  0.00  0.00     0.144 A 
ATOM      6  C13 ZIN A   1      19.448   0.455   9.931  0.00  0.00     0.125 A 
ENDROOT
BRANCH   6   7
ATOM      7  S14 ZIN A   1      19.785   0.866  11.611  0.00  0.00     0.291 S 
ATOM      8  O15 ZIN A   1      21.147   0.429  11.959  0.00  0.00    -0.198 OA
ATOM      9  O16 ZIN A   1      19.678   2.323  11.790  0.00  0.00    -0.198 OA
BRANCH   7  10
ATOM     10  N17 ZIN A   1      18.799   0.181  12.498  0.00  0.00    -0.102 NA
ATOM     11  C18 ZIN A   1      18.956   0.220  13.823  0.00  0.00     0.353 C 
ATOM     12  O19 ZIN A   1      19.901   0.815  14.308  0.00  0.00    -0.244 OA
ATOM     13  N20 ZIN A   1      18.067  -0.399  14.625  0.00  0.00    -0.337 N 
ATOM     14  H35 ZIN A   1      17.313  -0.873  14.239  0.00  0.00     0.164 HD
BRANCH  13  15
ATOM     15  C21 ZIN A   1      18.237  -0.356  16.079  0.00  0.00     0.078 C 
ATOM     16  C22 ZIN A   1      16.864  -0.320  16.754  0.00  0.00     0.032 C 
ATOM     17  C23 ZIN A   1      18.999  -1.600  16.541  0.00  0.00     0.032 C 
ENDBRANCH  13  15
ENDBRANCH   7  10
ENDBRANCH   6   7
BRANCH   1  18
ATOM     18  N7  ZIN A   1      19.814  -1.897  10.391  0.00  0.00    -0.355 N 
ATOM     19  H31 ZIN A   1      20.597  -1.825  10.959  0.00  0.00     0.166 HD
BRANCH  18  20
ATOM     20  C6  ZIN A   1      19.000  -3.031  10.465  0.00  0.00     0.033 A 
ATOM     21  C5  ZIN A   1      17.914  -3.053  11.332  0.00  0.00     0.029 A 
ATOM     22  C4  ZIN A   1      17.112  -4.175  11.403  0.00  0.00     0.003 A 
ATOM     23  C3  ZIN A   1      17.388  -5.276  10.613  0.00  0.00     0.007 A 
ATOM     24  C2  ZIN A   1      18.468  -5.257   9.748  0.00  0.00    -0.060 A 
ATOM     25  C1  ZIN A   1      18.765  -6.458   8.889  0.00  0.00     0.048 C 
ATOM     26  C24 ZIN A   1      19.278  -4.139   9.677  0.00  0.00     0.036 A 
ENDBRANCH  18  20
ENDBRANCH   1  18
TORSDOF 5
ENDMDL
MODEL 7
REMARK VINA RESULT:      -7.8      1.851      6.452
REMARK  5 active torsions:
REMARK  status: ('A' for Active; 'I' for Inactive)
REMARK    1  A    between atoms: C6_6  and  N7_7 
REMARK    2  A    between atoms: N7_7  and  C8_8 
REMARK    3  A    between atoms: C13_13  and  S14_14 
REMARK    4  A    between atoms: S14_14  and  N17_17 
REMARK       I    between atoms: N17_17  and  C18_18 
REMARK       I    between atoms: C18_18  and  N20_20 
REMARK    5  A    between atoms: N20_20  and  C21_21 
ROOT
ATOM      1  C8  ZIN A   1      19.285   1.160  13.629  0.00  0.00     0.059 A 
ATOM      2  C9  ZIN A   1      18.898   1.537  14.913  0.00  0.00     0.050 A 
ATOM      3  C10 ZIN A   1      18.389   0.581  15.768  0.00  0.00     0.118 A 
ATOM      4  N11 ZIN A   1      18.268  -0.675  15.382  0.00  0.00    -0.271 NA
ATOM      5  C12 ZIN A   1      18.623  -1.071  14.174  0.00  0.00     0.144 A 
ATOM      6  C13 ZIN A   1      19.135  -0.177  13.259  0.00  0.00     0.125 A 
ENDROOT
BRANCH   6   7
ATOM      7  S14 ZIN A   1      19.606  -0.717  11.649  0.00  0.00     0.291 S 
ATOM      8  O15 ZIN A   1      20.912  -0.135  11.299  0.00  0.00    -0.198 OA
ATOM      9  O16 ZIN A   1      19.705  -2.186  11.634  0.00  0.00    -0.198 OA
BRANCH   7  10
ATOM     10  N17 ZIN A   1      18.581  -0.277  10.656  0.00  0.00    -0.102 NA
ATOM     11  C18 ZIN A   1      18.866  -0.292   9.353  0.00  0.00     0.353 C 
ATOM     12  O19 ZIN A   1      19.961  -0.664   8.972  0.00  0.00    -0.244 OA
ATOM     13  N20 ZIN A   1      17.942   0.106   8.456  0.00  0.00    -0.337 N 
ATOM     14  H35 ZIN A   1      17.069   0.404   8.758  0.00  0.00     0.164 HD
BRANCH  13  15
ATOM     15  C21 ZIN A   1      18.255   0.091   7.025  0.00  0.00     0.078 C 
ATOM     16  C22 ZIN A   1      16.970  -0.135   6.225  0.00  0.00     0.032 C 
ATOM     17  C23 ZIN A   1      18.876   1.430   6.624  0.00  0.00     0.032 C 
ENDBRANCH  13  15
ENDBRANCH   7  10
ENDBRANCH   6   7
BRANCH   1  18
ATOM     18  N7  ZIN A   1      19.803   2.094  12.735  0.00  0.00    -0.355 N 
ATOM     19  H31 ZIN A   1      20.759   2.137  12.578  0.00  0.00     0.166 HD
BRANCH  18  20
ATOM     20  C6  ZIN A   1      18.945   2.971  12.065  0.00  0.00     0.033 A 
ATOM     21  C5  ZIN A   1      18.975   3.051  10.678  0.00  0.00     0.029 A 
ATOM     22  C4  ZIN A   1      18.127   3.917  10.019  0.00  0.00     0.003 A 
ATOM     23  C3  ZIN A   1      17.247   4.706  10.738  0.00  0.00     0.007 A 
ATOM     24  C2  ZIN A   1      17.213   4.629  12.119  0.00  0.00    -0.060 A 
ATOM     25  C1  ZIN A   1      16.253   5.490  12.898  0.00  0.00     0.048 C 
ATOM     26  C24 ZIN A   1      18.064   3.767  12.784  0.00  0.00     0.036 A 
ENDBRANCH  18  20
ENDBRANCH   1  18
TORSDOF 5
ENDMDL
MODEL 8
REMARK VINA RESULT:      -7.7      3.111      5.607
REMARK  5 active torsions:
REMARK  status: ('A' for Active; 'I' for Inactive)
REMARK    1  A    between atoms: C6_6  and  N7_7 
REMARK    2  A    between atoms: N7_7  and  C8_8 
REMARK    3  A    between atoms: C13_13  and  S14_14 
REMARK    4  A    between atoms: S14_14  and  N17_17 
REMARK       I    between atoms: N17_17  and  C18_18 
REMARK       I    between atoms: C18_18  and  N20_20 
REMARK    5  A    between atoms: N20_20  and  C21_21 
ROOT
ATOM      1  C8  ZIN A   1      18.976   1.153   9.086  0.00  0.00     0.059 A 
ATOM      2  C9  ZIN A   1      19.230   1.381   7.734  0.00  0.00     0.050 A 
ATOM      3  C10 ZIN A   1      18.540   0.649   6.790  0.00  0.00     0.118 A 
ATOM      4  N11 ZIN A   1      17.650  -0.255   7.153  0.00  0.00    -0.271 NA
ATOM      5  C12 ZIN A   1      17.382  -0.499   8.423  0.00  0.00     0.144 A 
ATOM      6  C13 ZIN A   1      18.032   0.185   9.427  0.00  0.00     0.125 A 
ENDROOT
BRANCH   6   7
ATOM      7  S14 ZIN A   1      17.665  -0.149  11.118  0.00  0.00     0.291 S 
ATOM      8  O15 ZIN A   1      18.912  -0.154  11.899  0.00  0.00    -0.198 OA
ATOM      9  O16 ZIN A   1      16.764   0.892  11.639  0.00  0.00    -0.198 OA
BRANCH   7  10
ATOM     10  N17 ZIN A   1      17.001  -1.482  11.229  0.00  0.00    -0.102 NA
ATOM     11  C18 ZIN A   1      17.726  -2.598  11.122  0.00  0.00     0.353 C 
ATOM     12  O19 ZIN A   1      18.927  -2.529  10.934  0.00  0.00    -0.244 OA
ATOM     13  N20 ZIN A   1      17.128  -3.802  11.222  0.00  0.00    -0.337 N 
ATOM     14  H35 ZIN A   1      16.171  -3.857  11.371  0.00  0.00     0.164 HD
BRANCH  13  15
ATOM     15  C21 ZIN A   1      17.923  -5.027  11.104  0.00  0.00     0.078 C 
ATOM     16  C22 ZIN A   1      17.548  -5.989  12.233  0.00  0.00     0.032 C 
ATOM     17  C23 ZIN A   1      17.641  -5.690   9.754  0.00  0.00     0.032 C 
ENDBRANCH  13  15
ENDBRANCH   7  10
ENDBRANCH   6   7
BRANCH   1  18
ATOM     18  N7  ZIN A   1      19.651   1.870  10.070  0.00  0.00    -0.355 N 
ATOM     19  H31 ZIN A   1      20.532   1.585  10.360  0.00  0.00     0.166 HD
BRANCH  18  20
ATOM     20  C6  ZIN A   1      19.060   3.001  10.640  0.00  0.00     0.033 A 
ATOM     21  C5  ZIN A   1      18.021   3.650   9.984  0.00  0.00     0.029 A 
ATOM     22  C4  ZIN A   1      17.440   4.766  10.550  0.00  0.00     0.003 A 
ATOM     23  C3  ZIN A   1      17.891   5.241  11.768  0.00  0.00     0.007 A 
ATOM     24  C2  ZIN A   1      18.925   4.598  12.424  0.00  0.00    -0.060 A 
ATOM     25  C1  ZIN A   1      19.413   5.118  13.751  0.00  0.00     0.048 C 
ATOM     26  C24 ZIN A   1      19.514   3.483  11.861  0.00  0.00     0.036 A 
ENDBRANCH  18  20
ENDBRANCH   1  18
TORSDOF 5
ENDMDL
MODEL 9
REMARK VINA RESULT:      -7.6      2.787      5.015
REMARK  5 active torsions:
REMARK  status: ('A' for Active; 'I' for Inactive)
REMARK    1  A    between atoms: C6_6  and  N7_7 
REMARK    2  A    between atoms: N7_7  and  C8_8 
REMARK    3  A    between atoms: C13_13  and  S14_14 
REMARK    4  A    between atoms: S14_14  and  N17_17 
REMARK       I    between atoms: N17_17  and  C18_18 
REMARK       I    between atoms: C18_18  and  N20_20 
REMARK    5  A    between atoms: N20_20  and  C21_21 
ROOT
ATOM      1  C8  ZIN A   1      17.718   1.059  11.326  0.00  0.00     0.059 A 
ATOM      2  C9  ZIN A   1      17.712   2.437  11.533  0.00  0.00     0.050 A 
ATOM      3  C10 ZIN A   1      18.307   2.946  12.669  0.00  0.00     0.118 A 
ATOM      4  N11 ZIN A   1      18.877   2.146  13.550  0.00  0.00    -0.271 NA
ATOM      5  C12 ZIN A   1      18.903   0.836  13.390  0.00  0.00     0.144 A 
ATOM      6  C13 ZIN A   1      18.326   0.248  12.285  0.00  0.00     0.125 A 
ENDROOT
BRANCH   6   7
ATOM      7  S14 ZIN A   1      18.368  -1.502  12.081  0.00  0.00     0.291 S 
ATOM      8  O15 ZIN A   1      18.921  -2.125  13.294  0.00  0.00    -0.198 OA
ATOM      9  O16 ZIN A   1      17.002  -2.002  11.853  0.00  0.00    -0.198 OA
BRANCH   7  10
ATOM     10  N17 ZIN A   1      19.226  -1.845  10.908  0.00  0.00    -0.102 NA
ATOM     11  C18 ZIN A   1      18.852  -2.814  10.070  0.00  0.00     0.353 C 
ATOM     12  O19 ZIN A   1      17.813  -3.418  10.261  0.00  0.00    -0.244 OA
ATOM     13  N20 ZIN A   1      19.627  -3.125   9.012  0.00  0.00    -0.337 N 
ATOM     14  H35 ZIN A   1      20.456  -2.645   8.859  0.00  0.00     0.164 HD
BRANCH  13  15
ATOM     15  C21 ZIN A   1      19.218  -4.189   8.092  0.00  0.00     0.078 C 
ATOM     16  C22 ZIN A   1      19.540  -3.773   6.655  0.00  0.00     0.032 C 
ATOM     17  C23 ZIN A   1      19.973  -5.476   8.431  0.00  0.00     0.032 C 
ENDBRANCH  13  15
ENDBRANCH   7  10
ENDBRANCH   6   7
BRANCH   1  18
ATOM     18  N7  ZIN A   1      17.128   0.504  10.193  0.00  0.00    -0.355 N 
ATOM     19  H31 ZIN A   1      16.294   0.015  10.270  0.00  0.00     0.166 HD
BRANCH  18  20
ATOM     20  C6  ZIN A   1      17.737   0.654   8.944  0.00  0.00     0.033 A 
ATOM     21  C5  ZIN A   1      18.744   1.596   8.768  0.00  0.00     0.029 A 
ATOM     22  C4  ZIN A   1      19.343   1.740   7.533  0.00  0.00     0.003 A 
ATOM     23  C3  ZIN A   1      18.943   0.950   6.471  0.00  0.00     0.007 A 
ATOM     24  C2  ZIN A   1      17.942   0.011   6.643  0.00  0.00    -0.060 A 
ATOM     25  C1  ZIN A   1      17.510  -0.849   5.483  0.00  0.00     0.048 C 
ATOM     26  C24 ZIN A   1      17.334  -0.136   7.875  0.00  0.00     0.036 A 
ENDBRANCH  18  20
ENDBRANCH   1  18
TORSDOF 5
ENDMDL
