MODEL 1
REMARK VINA RESULT:      -5.9      0.000      0.000
REMARK  5 active torsions:
REMARK  status: ('A' for Active; 'I' for Inactive)
REMARK       I    between atoms: C2_2  and  N4_4 
REMARK    1  A    between atoms: N4_4  and  C5_5 
REMARK    2  A    between atoms: C5_5  and  C7_6 
REMARK    3  A    between atoms: C5_5  and  C15_14 
REMARK    4  A    between atoms: C7_6  and  C8_7 
REMARK    5  A    between atoms: C11_10  and  O12_11 
ROOT
ATOM      1  C5  <0> d   1      17.920   1.067   9.433  0.00  0.00     0.189 C 
ENDROOT
BRANCH   1   2
ATOM      2  N4  <0> d   1      18.251   0.157  10.532  0.00  0.00    -0.347 N 
ATOM      3  C2  <0> d   1      17.293  -0.232  11.397  0.00  0.00     0.214 C 
ATOM      4  C1  <0> d   1      17.632  -1.168  12.528  0.00  0.00     0.117 C 
ATOM      5  O3  <0> d   1      16.157   0.172  11.265  0.00  0.00    -0.274 OA
ATOM      6  H21 <0> d   1      19.159  -0.166  10.639  0.00  0.00     0.163 HD
ENDBRANCH   1   2
BRANCH   1   7
ATOM      7  C7  <0> d   1      18.934   2.213   9.397  0.00  0.00     0.074 C 
BRANCH   7   8
ATOM      8  C8  <0> d   1      18.675   3.150  10.548  0.00  0.00    -0.056 A 
ATOM      9  C14 <0> d   1      19.668   3.388  11.481  0.00  0.00     0.010 A 
ATOM     10  C13 <0> d   1      19.434   4.251  12.534  0.00  0.00     0.037 A 
ATOM     11  C11 <0> d   1      18.199   4.871  12.661  0.00  0.00     0.065 A 
ATOM     12  C10 <0> d   1      17.204   4.626  11.727  0.00  0.00     0.037 A 
ATOM     13  C9  <0> d   1      17.444   3.766  10.673  0.00  0.00     0.010 A 
BRANCH  11  14
ATOM     14  O12 <0> d   1      17.966   5.716  13.699  0.00  0.00    -0.361 OA
ATOM     15  H26 <0> d   1      17.850   6.639  13.436  0.00  0.00     0.217 HD
ENDBRANCH  11  14
ENDBRANCH   7   8
ENDBRANCH   1   7
BRANCH   1  16
ATOM     16  C15 <0> d   1      17.964   0.316   8.128  0.00  0.00     0.197 C 
ATOM     17  O16 <0> d   1      18.957   0.375   7.424  0.00  0.00    -0.646 OA
ATOM     18  O17 <0> d   1      17.006  -0.351   7.776  0.00  0.00    -0.646 OA
ENDBRANCH   1  16
TORSDOF 5
ENDMDL
MODEL 2
REMARK VINA RESULT:      -5.9      2.638      5.873
REMARK  5 active torsions:
REMARK  status: ('A' for Active; 'I' for Inactive)
REMARK       I    between atoms: C2_2  and  N4_4 
REMARK    1  A    between atoms: N4_4  and  C5_5 
REMARK    2  A    between atoms: C5_5  and  C7_6 
REMARK    3  A    between atoms: C5_5  and  C15_14 
REMARK    4  A    between atoms: C7_6  and  C8_7 
REMARK    5  A    between atoms: C11_10  and  O12_11 
ROOT
ATOM      1  C5  <0> d   1      18.391   0.583   9.955  0.00  0.00     0.189 C 
ENDROOT
BRANCH   1   2
ATOM      2  N4  <0> d   1      18.360  -0.006  11.296  0.00  0.00    -0.347 N 
ATOM      3  C2  <0> d   1      19.310  -0.888  11.667  0.00  0.00     0.214 C 
ATOM      4  C1  <0> d   1      19.278  -1.494  13.047  0.00  0.00     0.117 C 
ATOM      5  O3  <0> d   1      20.190  -1.193  10.891  0.00  0.00    -0.274 OA
ATOM      6  H21 <0> d   1      17.656   0.237  11.917  0.00  0.00     0.163 HD
ENDBRANCH   1   2
BRANCH   1   7
ATOM      7  C7  <0> d   1      17.340  -0.097   9.075  0.00  0.00     0.074 C 
BRANCH   7   8
ATOM      8  C8  <0> d   1      17.963  -0.496   7.763  0.00  0.00    -0.056 A 
ATOM      9  C14 <0> d   1      17.780   0.294   6.643  0.00  0.00     0.010 A 
ATOM     10  C13 <0> d   1      18.356  -0.068   5.440  0.00  0.00     0.037 A 
ATOM     11  C11 <0> d   1      19.109  -1.230   5.355  0.00  0.00     0.065 A 
ATOM     12  C10 <0> d   1      19.287  -2.023   6.478  0.00  0.00     0.037 A 
ATOM     13  C9  <0> d   1      18.713  -1.654   7.680  0.00  0.00     0.010 A 
BRANCH  11  14
ATOM     14  O12 <0> d   1      19.672  -1.590   4.171  0.00  0.00    -0.361 OA
ATOM     15  H26 <0> d   1      19.766  -2.546   4.056  0.00  0.00     0.217 HD
ENDBRANCH  11  14
ENDBRANCH   7   8
ENDBRANCH   1   7
BRANCH   1  16
ATOM     16  C15 <0> d   1      18.093   2.057  10.047  0.00  0.00     0.197 C 
ATOM     17  O16 <0> d   1      18.698   2.846   9.342  0.00  0.00    -0.646 OA
ATOM     18  O17 <0> d   1      17.247   2.460  10.826  0.00  0.00    -0.646 OA
ENDBRANCH   1  16
TORSDOF 5
ENDMDL
MODEL 3
REMARK VINA RESULT:      -5.7      2.063      5.578
REMARK  5 active torsions:
REMARK  status: ('A' for Active; 'I' for Inactive)
REMARK       I    between atoms: C2_2  and  N4_4 
REMARK    1  A    between atoms: N4_4  and  C5_5 
REMARK    2  A    between atoms: C5_5  and  C7_6 
REMARK    3  A    between atoms: C5_5  and  C15_14 
REMARK    4  A    between atoms: C7_6  and  C8_7 
REMARK    5  A    between atoms: C11_10  and  O12_11 
ROOT
ATOM      1  C5  <0> d   1      17.924   0.903  10.361  0.00  0.00     0.189 C 
ENDROOT
BRANCH   1   2
ATOM      2  N4  <0> d   1      18.230   1.936  11.355  0.00  0.00    -0.347 N 
ATOM      3  C2  <0> d   1      18.268   3.233  10.989  0.00  0.00     0.214 C 
ATOM      4  C1  <0> d   1      18.582   4.296  12.011  0.00  0.00     0.117 C 
ATOM      5  O3  <0> d   1      18.049   3.545   9.838  0.00  0.00    -0.274 OA
ATOM      6  H21 <0> d   1      18.405   1.687  12.275  0.00  0.00     0.163 HD
ENDBRANCH   1   2
BRANCH   1   7
ATOM      7  C7  <0> d   1      19.224   0.246   9.893  0.00  0.00     0.074 C 
BRANCH   7   8
ATOM      8  C8  <0> d   1      19.193   0.079   8.397  0.00  0.00    -0.056 A 
ATOM      9  C14 <0> d   1      19.267  -1.186   7.841  0.00  0.00     0.010 A 
ATOM     10  C13 <0> d   1      19.234  -1.341   6.469  0.00  0.00     0.037 A 
ATOM     11  C11 <0> d   1      19.136  -0.228   5.648  0.00  0.00     0.065 A 
ATOM     12  C10 <0> d   1      19.066   1.039   6.207  0.00  0.00     0.037 A 
ATOM     13  C9  <0> d   1      19.095   1.190   7.580  0.00  0.00     0.010 A 
BRANCH  11  14
ATOM     14  O12 <0> d   1      19.108  -0.378   4.297  0.00  0.00    -0.361 OA
ATOM     15  H26 <0> d   1      18.335   0.019   3.874  0.00  0.00     0.217 HD
ENDBRANCH  11  14
ENDBRANCH   7   8
ENDBRANCH   1   7
BRANCH   1  16
ATOM     16  C15 <0> d   1      17.027  -0.138  10.979  0.00  0.00     0.197 C 
ATOM     17  O16 <0> d   1      17.370  -1.308  10.990  0.00  0.00    -0.646 OA
ATOM     18  O17 <0> d   1      15.959   0.190  11.467  0.00  0.00    -0.646 OA
ENDBRANCH   1  16
TORSDOF 5
ENDMDL
MODEL 4
REMARK VINA RESULT:      -5.6      3.735      5.136
REMARK  5 active torsions:
REMARK  status: ('A' for Active; 'I' for Inactive)
REMARK       I    between atoms: C2_2  and  N4_4 
REMARK    1  A    between atoms: N4_4  and  C5_5 
REMARK    2  A    between atoms: C5_5  and  C7_6 
REMARK    3  A    between atoms: C5_5  and  C15_14 
REMARK    4  A    between atoms: C7_6  and  C8_7 
REMARK    5  A    between atoms: C11_10  and  O12_11 
ROOT
ATOM      1  C5  <0> d   1      18.942  -0.210  12.555  0.00  0.00     0.189 C 
ENDROOT
BRANCH   1   2
ATOM      2  N4  <0> d   1      18.344   0.605  11.495  0.00  0.00    -0.347 N 
ATOM      3  C2  <0> d   1      18.860   1.816  11.203  0.00  0.00     0.214 C 
ATOM      4  C1  <0> d   1      18.246   2.655  10.112  0.00  0.00     0.117 C 
ATOM      5  O3  <0> d   1      19.820   2.230  11.818  0.00  0.00    -0.274 OA
ATOM      6  H21 <0> d   1      17.576   0.275  11.003  0.00  0.00     0.163 HD
ENDBRANCH   1   2
BRANCH   1   7
ATOM      7  C7  <0> d   1      17.886  -0.519  13.618  0.00  0.00     0.074 C 
BRANCH   7   8
ATOM      8  C8  <0> d   1      18.364  -0.030  14.960  0.00  0.00    -0.056 A 
ATOM      9  C14 <0> d   1      18.669   1.307  15.139  0.00  0.00     0.010 A 
ATOM     10  C13 <0> d   1      19.104   1.758  16.370  0.00  0.00     0.037 A 
ATOM     11  C11 <0> d   1      19.242   0.868  17.425  0.00  0.00     0.065 A 
ATOM     12  C10 <0> d   1      18.940  -0.473  17.242  0.00  0.00     0.037 A 
ATOM     13  C9  <0> d   1      18.502  -0.919  16.010  0.00  0.00     0.010 A 
BRANCH  11  14
ATOM     14  O12 <0> d   1      19.674   1.309  18.636  0.00  0.00    -0.361 OA
ATOM     15  H26 <0> d   1      18.975   1.678  19.192  0.00  0.00     0.217 HD
ENDBRANCH  11  14
ENDBRANCH   7   8
ENDBRANCH   1   7
BRANCH   1  16
ATOM     16  C15 <0> d   1      19.457  -1.498  11.968  0.00  0.00     0.197 C 
ATOM     17  O16 <0> d   1      20.095  -1.483  10.930  0.00  0.00    -0.646 OA
ATOM     18  O17 <0> d   1      19.235  -2.556  12.532  0.00  0.00    -0.646 OA
ENDBRANCH   1  16
TORSDOF 5
ENDMDL
MODEL 5
REMARK VINA RESULT:      -5.6      3.145      6.926
REMARK  5 active torsions:
REMARK  status: ('A' for Active; 'I' for Inactive)
REMARK       I    between atoms: C2_2  and  N4_4 
REMARK    1  A    between atoms: N4_4  and  C5_5 
REMARK    2  A    between atoms: C5_5  and  C7_6 
REMARK    3  A    between atoms: C5_5  and  C15_14 
REMARK    4  A    between atoms: C7_6  and  C8_7 
REMARK    5  A    between atoms: C11_10  and  O12_11 
ROOT
ATOM      1  C5  <0> d   1      18.080  -0.661  13.185  0.00  0.00     0.189 C 
ENDROOT
BRANCH   1   2
ATOM      2  N4  <0> d   1      18.341   0.546  12.397  0.00  0.00    -0.347 N 
ATOM      3  C2  <0> d   1      17.449   0.954  11.473  0.00  0.00     0.214 C 
ATOM      4  C1  <0> d   1      17.717   2.196  10.662  0.00  0.00     0.117 C 
ATOM      5  O3  <0> d   1      16.429   0.323  11.295  0.00  0.00    -0.274 OA
ATOM      6  H21 <0> d   1      19.157   1.051  12.539  0.00  0.00     0.163 HD
ENDBRANCH   1   2
BRANCH   1   7
ATOM      7  C7  <0> d   1      19.286  -1.598  13.098  0.00  0.00     0.074 C 
BRANCH   7   8
ATOM      8  C8  <0> d   1      18.968  -2.744  12.174  0.00  0.00    -0.056 A 
ATOM      9  C14 <0> d   1      19.987  -3.546  11.692  0.00  0.00     0.010 A 
ATOM     10  C13 <0> d   1      19.697  -4.600  10.848  0.00  0.00     0.037 A 
ATOM     11  C11 <0> d   1      18.384  -4.848  10.475  0.00  0.00     0.065 A 
ATOM     12  C10 <0> d   1      17.365  -4.040  10.956  0.00  0.00     0.037 A 
ATOM     13  C9  <0> d   1      17.659  -2.990  11.804  0.00  0.00     0.010 A 
BRANCH  11  14
ATOM     14  O12 <0> d   1      18.096  -5.882   9.641  0.00  0.00    -0.361 OA
ATOM     15  H26 <0> d   1      18.218  -5.676   8.704  0.00  0.00     0.217 HD
ENDBRANCH  11  14
ENDBRANCH   7   8
ENDBRANCH   1   7
BRANCH   1  16
ATOM     16  C15 <0> d   1      17.841  -0.281  14.623  0.00  0.00     0.197 C 
ATOM     17  O16 <0> d   1      17.461   0.844  14.901  0.00  0.00    -0.646 OA
ATOM     18  O17 <0> d   1      18.029  -1.097  15.509  0.00  0.00    -0.646 OA
ENDBRANCH   1  16
TORSDOF 5
ENDMDL
MODEL 6
REMARK VINA RESULT:      -5.5      3.232      5.756
REMARK  5 active torsions:
REMARK  status: ('A' for Active; 'I' for Inactive)
REMARK       I    between atoms: C2_2  and  N4_4 
REMARK    1  A    between atoms: N4_4  and  C5_5 
REMARK    2  A    between atoms: C5_5  and  C7_6 
REMARK    3  A    between atoms: C5_5  and  C15_14 
REMARK    4  A    between atoms: C7_6  and  C8_7 
REMARK    5  A    between atoms: C11_10  and  O12_11 
ROOT
ATOM      1  C5  <0> d   1      18.849   2.796  15.328  0.00  0.00     0.189 C 
ENDROOT
BRANCH   1   2
ATOM      2  N4  <0> d   1      17.977   1.829  16.000  0.00  0.00    -0.347 N 
ATOM      3  C2  <0> d   1      18.194   0.507  15.850  0.00  0.00     0.214 C 
ATOM      4  C1  <0> d   1      17.298  -0.488  16.541  0.00  0.00     0.117 C 
ATOM      5  O3  <0> d   1      19.111   0.119  15.158  0.00  0.00    -0.274 OA
ATOM      6  H21 <0> d   1      17.243   2.140  16.553  0.00  0.00     0.163 HD
ENDBRANCH   1   2
BRANCH   1   7
ATOM      7  C7  <0> d   1      17.997   3.763  14.502  0.00  0.00     0.074 C 
BRANCH   7   8
ATOM      8  C8  <0> d   1      18.214   3.496  13.035  0.00  0.00    -0.056 A 
ATOM      9  C14 <0> d   1      17.361   4.054  12.099  0.00  0.00     0.010 A 
ATOM     10  C13 <0> d   1      17.561   3.815  10.754  0.00  0.00     0.037 A 
ATOM     11  C11 <0> d   1      18.611   3.007  10.342  0.00  0.00     0.065 A 
ATOM     12  C10 <0> d   1      19.461   2.445  11.283  0.00  0.00     0.037 A 
ATOM     13  C9  <0> d   1      19.260   2.691  12.627  0.00  0.00     0.010 A 
BRANCH  11  14
ATOM     14  O12 <0> d   1      18.807   2.767   9.018  0.00  0.00    -0.361 OA
ATOM     15  H26 <0> d   1      19.643   3.111   8.676  0.00  0.00     0.217 HD
ENDBRANCH  11  14
ENDBRANCH   7   8
ENDBRANCH   1   7
BRANCH   1  16
ATOM     16  C15 <0> d   1      19.630   3.569  16.358  0.00  0.00     0.197 C 
ATOM     17  O16 <0> d   1      20.077   4.670  16.085  0.00  0.00    -0.646 OA
ATOM     18  O17 <0> d   1      19.816   3.093  17.465  0.00  0.00    -0.646 OA
ENDBRANCH   1  16
TORSDOF 5
ENDMDL
MODEL 7
REMARK VINA RESULT:      -5.5      3.037      4.426
REMARK  5 active torsions:
REMARK  status: ('A' for Active; 'I' for Inactive)
REMARK       I    between atoms: C2_2  and  N4_4 
REMARK    1  A    between atoms: N4_4  and  C5_5 
REMARK    2  A    between atoms: C5_5  and  C7_6 
REMARK    3  A    between atoms: C5_5  and  C15_14 
REMARK    4  A    between atoms: C7_6  and  C8_7 
REMARK    5  A    between atoms: C11_10  and  O12_11 
ROOT
ATOM      1  C5  <0> d   1      18.713  -1.863   6.658  0.00  0.00     0.189 C 
ENDROOT
BRANCH   1   2
ATOM      2  N4  <0> d   1      19.517  -2.765   7.485  0.00  0.00    -0.347 N 
ATOM      3  C2  <0> d   1      18.916  -3.722   8.220  0.00  0.00     0.214 C 
ATOM      4  C1  <0> d   1      19.743  -4.651   9.070  0.00  0.00     0.117 C 
ATOM      5  O3  <0> d   1      17.709  -3.835   8.196  0.00  0.00    -0.274 OA
ATOM      6  H21 <0> d   1      20.483  -2.675   7.504  0.00  0.00     0.163 HD
ENDBRANCH   1   2
BRANCH   1   7
ATOM      7  C7  <0> d   1      19.286  -0.446   6.743  0.00  0.00     0.074 C 
BRANCH   7   8
ATOM      8  C8  <0> d   1      18.724   0.252   7.954  0.00  0.00    -0.056 A 
ATOM      9  C14 <0> d   1      17.652  -0.299   8.633  0.00  0.00     0.010 A 
ATOM     10  C13 <0> d   1      17.138   0.337   9.746  0.00  0.00     0.037 A 
ATOM     11  C11 <0> d   1      17.692   1.534  10.177  0.00  0.00     0.065 A 
ATOM     12  C10 <0> d   1      18.763   2.086   9.492  0.00  0.00     0.037 A 
ATOM     13  C9  <0> d   1      19.276   1.444   8.381  0.00  0.00     0.010 A 
BRANCH  11  14
ATOM     14  O12 <0> d   1      17.184   2.164  11.269  0.00  0.00    -0.361 OA
ATOM     15  H26 <0> d   1      17.531   1.833  12.110  0.00  0.00     0.217 HD
ENDBRANCH  11  14
ENDBRANCH   7   8
ENDBRANCH   1   7
BRANCH   1  16
ATOM     16  C15 <0> d   1      18.742  -2.332   5.226  0.00  0.00     0.197 C 
ATOM     17  O16 <0> d   1      19.595  -1.911   4.464  0.00  0.00    -0.646 OA
ATOM     18  O17 <0> d   1      17.913  -3.133   4.830  0.00  0.00    -0.646 OA
ENDBRANCH   1  16
TORSDOF 5
ENDMDL
MODEL 8
REMARK VINA RESULT:      -5.5      2.111      5.189
REMARK  5 active torsions:
REMARK  status: ('A' for Active; 'I' for Inactive)
REMARK       I    between atoms: C2_2  and  N4_4 
REMARK    1  A    between atoms: N4_4  and  C5_5 
REMARK    2  A    between atoms: C5_5  and  C7_6 
REMARK    3  A    between atoms: C5_5  and  C15_14 
REMARK    4  A    between atoms: C7_6  and  C8_7 
REMARK    5  A    between atoms: C11_10  and  O12_11 
ROOT
ATOM      1  C5  <0> d   1      18.700   2.983  12.807  0.00  0.00     0.189 C 
ENDROOT
BRANCH   1   2
ATOM      2  N4  <0> d   1      18.017   2.280  13.896  0.00  0.00    -0.347 N 
ATOM      3  C2  <0> d   1      18.483   1.091  14.329  0.00  0.00     0.214 C 
ATOM      4  C1  <0> d   1      17.781   0.367  15.449  0.00  0.00     0.117 C 
ATOM      5  O3  <0> d   1      19.469   0.604  13.816  0.00  0.00    -0.274 OA
ATOM      6  H21 <0> d   1      17.228   2.668  14.306  0.00  0.00     0.163 HD
ENDBRANCH   1   2
BRANCH   1   7
ATOM      7  C7  <0> d   1      17.709   3.253  11.674  0.00  0.00     0.074 C 
BRANCH   7   8
ATOM      8  C8  <0> d   1      18.026   2.357  10.504  0.00  0.00    -0.056 A 
ATOM      9  C14 <0> d   1      17.470   1.093  10.432  0.00  0.00     0.010 A 
ATOM     10  C13 <0> d   1      17.756   0.272   9.359  0.00  0.00     0.037 A 
ATOM     11  C11 <0> d   1      18.609   0.713   8.358  0.00  0.00     0.065 A 
ATOM     12  C10 <0> d   1      19.170   1.979   8.435  0.00  0.00     0.037 A 
ATOM     13  C9  <0> d   1      18.877   2.798   9.508  0.00  0.00     0.010 A 
BRANCH  11  14
ATOM     14  O12 <0> d   1      18.896  -0.095   7.303  0.00  0.00    -0.361 OA
ATOM     15  H26 <0> d   1      19.526   0.285   6.676  0.00  0.00     0.217 HD
ENDBRANCH  11  14
ENDBRANCH   7   8
ENDBRANCH   1   7
BRANCH   1  16
ATOM     16  C15 <0> d   1      19.247   4.290  13.319  0.00  0.00     0.197 C 
ATOM     17  O16 <0> d   1      18.940   4.686  14.430  0.00  0.00    -0.646 OA
ATOM     18  O17 <0> d   1      19.997   4.952  12.621  0.00  0.00    -0.646 OA
ENDBRANCH   1  16
TORSDOF 5
ENDMDL
MODEL 9
REMARK VINA RESULT:      -5.5      3.458      4.498
REMARK  5 active torsions:
REMARK  status: ('A' for Active; 'I' for Inactive)
REMARK       I    between atoms: C2_2  and  N4_4 
REMARK    1  A    between atoms: N4_4  and  C5_5 
REMARK    2  A    between atoms: C5_5  and  C7_6 
REMARK    3  A    between atoms: C5_5  and  C15_14 
REMARK    4  A    between atoms: C7_6  and  C8_7 
REMARK    5  A    between atoms: C11_10  and  O12_11 
ROOT
ATOM      1  C5  <0> d   1      19.491  -0.751  11.340  0.00  0.00     0.189 C 
ENDROOT
BRANCH   1   2
ATOM      2  N4  <0> d   1      20.037  -2.080  11.053  0.00  0.00    -0.347 N 
ATOM      3  C2  <0> d   1      19.327  -3.183  11.365  0.00  0.00     0.214 C 
ATOM      4  C1  <0> d   1      19.888  -4.550  11.069  0.00  0.00     0.117 C 
ATOM      5  O3  <0> d   1      18.236  -3.075  11.883  0.00  0.00    -0.274 OA
ATOM      6  H21 <0> d   1      20.910  -2.167  10.639  0.00  0.00     0.163 HD
ENDBRANCH   1   2
BRANCH   1   7
ATOM      7  C7  <0> d   1      20.201  -0.161  12.560  0.00  0.00     0.074 C 
BRANCH   7   8
ATOM      8  C8  <0> d   1      19.250  -0.129  13.729  0.00  0.00    -0.056 A 
ATOM      9  C14 <0> d   1      19.280  -1.142  14.671  0.00  0.00     0.010 A 
ATOM     10  C13 <0> d   1      18.412  -1.111  15.745  0.00  0.00     0.037 A 
ATOM     11  C11 <0> d   1      17.505  -0.070  15.874  0.00  0.00     0.065 A 
ATOM     12  C10 <0> d   1      17.474   0.942  14.926  0.00  0.00     0.037 A 
ATOM     13  C9  <0> d   1      18.347   0.909  13.855  0.00  0.00     0.010 A 
BRANCH  11  14
ATOM     14  O12 <0> d   1      16.647  -0.041  16.928  0.00  0.00    -0.361 OA
ATOM     15  H26 <0> d   1      15.995   0.671  16.884  0.00  0.00     0.217 HD
ENDBRANCH  11  14
ENDBRANCH   7   8
ENDBRANCH   1   7
BRANCH   1  16
ATOM     16  C15 <0> d   1      19.704   0.147  10.150  0.00  0.00     0.197 C 
ATOM     17  O16 <0> d   1      20.254  -0.284   9.151  0.00  0.00    -0.646 OA
ATOM     18  O17 <0> d   1      19.328   1.307  10.187  0.00  0.00    -0.646 OA
ENDBRANCH   1  16
TORSDOF 5
ENDMDL
