MODEL 1
REMARK VINA RESULT:      -4.2      0.000      0.000
REMARK  12 active torsions:
REMARK  status: ('A' for Active; 'I' for Inactive)
REMARK    1  A    between atoms: C2_2  and  C3_3 
REMARK    2  A    between atoms: C15_15  and  O16_16 
REMARK    3  A    between atoms: C18_18  and  C19_19 
REMARK    4  A    between atoms: C19_19  and  C20_20 
REMARK    5  A    between atoms: C20_20  and  O22_22 
REMARK    6  A    between atoms: C31_30  and  O32_31 
REMARK    7  A    between atoms: C31_30  and  C33_32 
REMARK    8  A    between atoms: C52_50  and  O53_51 
REMARK    9  A    between atoms: C52_50  and  C54_52 
REMARK   10  A    between atoms: C54_52  and  O56_54 
REMARK   11  A    between atoms: C58_56  and  O60_57 
REMARK   12  A    between atoms: O60_57  and  C61_58 
ROOT
ATOM      1  C3  ZIN A   1      15.867  -8.934   5.411  0.00  0.00     0.037 C 
ATOM      2  C4  ZIN A   1      15.024 -10.121   5.766  0.00  0.00    -0.015 C 
ATOM      3  C5  ZIN A   1      14.154 -10.097   6.730  0.00  0.00    -0.003 C 
ATOM      4  C6  ZIN A   1      13.920  -8.860   7.545  0.00  0.00     0.262 C 
ATOM      5  N7  ZIN A   1      15.147  -8.065   7.655  0.00  0.00    -0.061 N 
ATOM      6  H8  ZIN A   1      15.812  -8.526   8.259  0.00  0.00     0.280 HD
ATOM      7  C9  ZIN A   1      14.767  -6.738   8.216  0.00  0.00     0.237 C 
ATOM      8  C10 ZIN A   1      14.354  -5.909   6.976  0.00  0.00     0.046 C 
ATOM      9  C11 ZIN A   1      15.318  -6.430   5.873  0.00  0.00     0.040 C 
ATOM     10  C12 ZIN A   1      16.471  -5.470   5.771  0.00  0.00    -0.024 A 
ATOM     11  C13 ZIN A   1      16.572  -5.051   4.441  0.00  0.00     0.020 A 
ATOM     12  C14 ZIN A   1      17.555  -4.133   4.062  0.00  0.00     0.061 A 
ATOM     13  C15 ZIN A   1      18.416  -3.678   5.054  0.00  0.00     0.077 A 
ATOM     14  C18 ZIN A   1      18.312  -4.111   6.365  0.00  0.00     0.000 A 
ATOM     15  C47 ZIN A   1      17.333  -5.018   6.751  0.00  0.00     0.021 A 
ATOM     16  N48 ZIN A   1      15.626  -5.676   3.643  0.00  0.00    -0.278 NA
ATOM     17  C49 ZIN A   1      14.986  -4.716   2.735  0.00  0.00     0.117 C 
ATOM     18  C50 ZIN A   1      14.621  -6.331   4.520  0.00  0.00     0.125 C 
ATOM     19  C52 ZIN A   1      14.310  -7.698   3.917  0.00  0.00     0.190 C 
ATOM     20  C58 ZIN A   1      15.600  -8.540   3.958  0.00  0.00     0.192 C 
ATOM     21  C64 ZIN A   1      15.722  -7.792   6.347  0.00  0.00     0.218 C 
ENDROOT
BRANCH  14  22
ATOM     22  C19 ZIN A   1      19.279  -3.587   7.395  0.00  0.00     0.121 C 
ATOM     23  C39 ZIN A   1      18.891  -4.088   8.767  0.00  0.00     0.040 A 
ATOM     24  C38 ZIN A   1      19.124  -3.691  10.030  0.00  0.00    -0.020 A 
ATOM     25  N40 ZIN A   1      18.119  -5.254   8.837  0.00  0.00    -0.357 N 
ATOM     26  C37 ZIN A   1      19.946  -2.525  10.523  0.00  0.00     0.069 C 
ATOM     27  C46 ZIN A   1      18.421  -4.595  10.936  0.00  0.00    -0.001 A 
ATOM     28  C36 ZIN A   1      19.043  -1.319  10.797  0.00  0.00     0.239 C 
ATOM     29  N28 ZIN A   1      18.614  -0.734   9.589  0.00  0.00    -0.068 N 
ATOM     30  C27 ZIN A   1      17.557  -1.404   8.815  0.00  0.00     0.239 C 
ATOM     31  H29 ZIN A   1      19.431  -0.854   9.010  0.00  0.00     0.280 HD
ATOM     32  C30 ZIN A   1      18.409   0.710   9.487  0.00  0.00     0.272 C 
ATOM     33  C25 ZIN A   1      18.125  -1.298   7.409  0.00  0.00     0.016 C 
ATOM     34  C24 ZIN A   1      19.381  -2.099   7.228  0.00  0.00     0.037 C 
ATOM     35  C35 ZIN A   1      18.271   0.167   7.013  0.00  0.00     0.045 C 
ATOM     36  C31 ZIN A   1      18.893   1.071   8.069  0.00  0.00     0.082 C 
ATOM     37  C41 ZIN A   1      17.801  -5.564  10.119  0.00  0.00     0.043 A 
ATOM     38  C45 ZIN A   1      18.295  -4.624  12.327  0.00  0.00     0.014 A 
ATOM     39  C42 ZIN A   1      17.037  -6.586  10.678  0.00  0.00     0.030 A 
ATOM     40  C43 ZIN A   1      16.924  -6.596  12.059  0.00  0.00     0.002 A 
ATOM     41  C44 ZIN A   1      17.536  -5.642  12.855  0.00  0.00     0.001 A 
ATOM     42 4H10 ZIN A   1      17.843  -5.818   8.098  0.00  0.00     0.166 HD
BRANCH  36  43
ATOM     43  O32 ZIN A   1      20.319   0.966   8.012  0.00  0.00    -0.388 OA
ATOM     44  H92 ZIN A   1      20.743   0.906   8.878  0.00  0.00     0.210 HD
ENDBRANCH  36  43
BRANCH  36  45
ATOM     45  C33 ZIN A   1      18.499   2.525   7.772  0.00  0.00     0.035 C 
ATOM     46  C34 ZIN A   1      18.479   3.323   9.077  0.00  0.00     0.008 C 
ENDBRANCH  36  45
BRANCH  22  47
ATOM     47  C20 ZIN A   1      20.639  -4.171   7.070  0.00  0.00     0.278 C 
ATOM     48  O21 ZIN A   1      21.489  -3.477   6.564  0.00  0.00    -0.264 OA
BRANCH  47  49
ATOM     49  O22 ZIN A   1      20.899  -5.459   7.343  0.00  0.00    -0.325 OA
ATOM     50  C23 ZIN A   1      22.260  -5.791   7.724  0.00  0.00     0.213 C 
ENDBRANCH  47  49
ENDBRANCH  22  47
ENDBRANCH  14  22
BRANCH  13  51
ATOM     51  O16 ZIN A   1      19.386  -2.785   4.728  0.00  0.00    -0.355 OA
ATOM     52  C17 ZIN A   1      18.977  -1.607   4.028  0.00  0.00     0.210 C 
ENDBRANCH  13  51
BRANCH  19  53
ATOM     53  O53 ZIN A   1      13.293  -8.342   4.687  0.00  0.00    -0.376 OA
ATOM     54 3H11 ZIN A   1      13.493  -9.261   4.913  0.00  0.00     0.211 HD
ENDBRANCH  19  53
BRANCH  19  55
ATOM     55  C54 ZIN A   1      13.836  -7.527   2.497  0.00  0.00     0.297 C 
ATOM     56  O55 ZIN A   1      14.639  -7.357   1.609  0.00  0.00    -0.262 OA
BRANCH  55  57
ATOM     57  O56 ZIN A   1      12.524  -7.562   2.217  0.00  0.00    -0.324 OA
ATOM     58  C57 ZIN A   1      12.066  -8.618   1.332  0.00  0.00     0.213 C 
ENDBRANCH  55  57
ENDBRANCH  19  55
BRANCH   1  59
ATOM     59  C2  ZIN A   1      17.326  -9.388   5.485  0.00  0.00     0.014 C 
ATOM     60  C1  ZIN A   1      17.456 -10.521   6.505  0.00  0.00     0.006 C 
ENDBRANCH   1  59
BRANCH  20  61
ATOM     61  O60 ZIN A   1      15.434  -9.731   3.145  0.00  0.00    -0.311 OA
BRANCH  61  62
ATOM     62  C61 ZIN A   1      16.281  -9.890   2.117  0.00  0.00     0.255 C 
ATOM     63  C62 ZIN A   1      17.588  -9.139   2.094  0.00  0.00     0.126 C 
ATOM     64  O63 ZIN A   1      15.997 -10.635   1.209  0.00  0.00    -0.266 OA
ENDBRANCH  61  62
ENDBRANCH  20  61
TORSDOF 12
ENDMDL
