MODEL 1
REMARK VINA RESULT:      -8.3      0.000      0.000
REMARK  4 active torsions:
REMARK  status: ('A' for Active; 'I' for Inactive)
REMARK    1  A    between atoms: S2_2  and  C3_3 
REMARK    2  A    between atoms: N14_14  and  C15_15 
REMARK    3  A    between atoms: C15_15  and  C16_16 
REMARK    4  A    between atoms: C16_16  and  C17_17 
ROOT
ATOM      1  C3  <0> d   1      17.730   3.299  10.442  0.00  0.00     0.002 A 
ATOM      2  C4  <0> d   1      18.531   3.260   9.309  0.00  0.00     0.020 A 
ATOM      3  C5  <0> d   1      19.157   2.081   8.948  0.00  0.00     0.022 A 
ATOM      4  C6  <0> d   1      18.988   0.935   9.713  0.00  0.00     0.032 A 
ATOM      5  S7  <0> d   1      19.789  -0.553   9.222  0.00  0.00    -0.086 SA
ATOM      6  C8  <0> d   1      18.919  -1.800  10.109  0.00  0.00     0.032 A 
ATOM      7  C9  <0> d   1      19.026  -3.124   9.704  0.00  0.00     0.021 A 
ATOM      8  C10 <0> d   1      18.348  -4.116  10.387  0.00  0.00     0.002 A 
ATOM      9  C11 <0> d   1      17.561  -3.792  11.476  0.00  0.00     0.002 A 
ATOM     10  C12 <0> d   1      17.450  -2.477  11.885  0.00  0.00     0.031 A 
ATOM     11  C13 <0> d   1      18.129  -1.470  11.206  0.00  0.00     0.052 A 
ATOM     12  N14 <0> d   1      17.999  -0.156  11.650  0.00  0.00    -0.345 N 
ATOM     13  C25 <0> d   1      18.188   0.969  10.852  0.00  0.00     0.053 A 
ATOM     14  C26 <0> d   1      17.564   2.157  11.214  0.00  0.00     0.049 A 
ENDROOT
BRANCH  12  15
ATOM     15  C15 <0> d   1      17.639   0.056  13.055  0.00  0.00     0.131 C 
BRANCH  15  16
ATOM     16  C16 <0> d   1      18.908   0.298  13.875  0.00  0.00     0.056 C 
BRANCH  16  17
ATOM     17  C17 <0> d   1      18.546   0.390  15.359  0.00  0.00     0.224 C 
ATOM     18  N23 <0> d   1      19.247   1.530  15.965  0.00  0.00     0.088 N 
ATOM     19  C22 <0> d   1      18.893   1.679  17.382  0.00  0.00     0.272 C 
ATOM     20  C24 <0> d   1      18.977   2.768  15.221  0.00  0.00     0.310 C 
ATOM     21  C21 <0> d   1      19.320   0.426  18.149  0.00  0.00     0.030 C 
ATOM     22  C20 <0> d   1      18.616  -0.797  17.555  0.00  0.00     0.004 C 
ATOM     23  C19 <0> d   1      18.963  -0.901  16.067  0.00  0.00     0.036 C 
ENDBRANCH  16  17
ENDBRANCH  15  16
ENDBRANCH  12  15
BRANCH   1  24
ATOM     24  S2  <0> d   1      16.928   4.798  10.903  0.00  0.00    -0.134 SA
ATOM     25  C1  <0> d   1      17.097   4.814  12.708  0.00  0.00     0.095 C 
ENDBRANCH   1  24
TORSDOF 4
ENDMDL
MODEL 2
REMARK VINA RESULT:      -8.0      2.891      7.849
REMARK  4 active torsions:
REMARK  status: ('A' for Active; 'I' for Inactive)
REMARK    1  A    between atoms: S2_2  and  C3_3 
REMARK    2  A    between atoms: N14_14  and  C15_15 
REMARK    3  A    between atoms: C15_15  and  C16_16 
REMARK    4  A    between atoms: C16_16  and  C17_17 
ROOT
ATOM      1  C3  <0> d   1      17.787  -2.815  11.652  0.00  0.00     0.002 A 
ATOM      2  C4  <0> d   1      18.603  -2.837  12.775  0.00  0.00     0.020 A 
ATOM      3  C5  <0> d   1      19.273  -1.692  13.162  0.00  0.00     0.022 A 
ATOM      4  C6  <0> d   1      19.133  -0.518  12.434  0.00  0.00     0.032 A 
ATOM      5  S7  <0> d   1      19.991   0.927  12.958  0.00  0.00    -0.086 SA
ATOM      6  C8  <0> d   1      19.152   2.229  12.121  0.00  0.00     0.032 A 
ATOM      7  C9  <0> d   1      19.309   3.535  12.563  0.00  0.00     0.021 A 
ATOM      8  C10 <0> d   1      18.658   4.570  11.919  0.00  0.00     0.002 A 
ATOM      9  C11 <0> d   1      17.847   4.305  10.832  0.00  0.00     0.002 A 
ATOM     10  C12 <0> d   1      17.685   3.007  10.386  0.00  0.00     0.031 A 
ATOM     11  C13 <0> d   1      18.338   1.959  11.025  0.00  0.00     0.052 A 
ATOM     12  N14 <0> d   1      18.158   0.664  10.544  0.00  0.00    -0.345 N 
ATOM     13  C25 <0> d   1      18.319  -0.490  11.305  0.00  0.00     0.053 A 
ATOM     14  C26 <0> d   1      17.650  -1.646  10.917  0.00  0.00     0.049 A 
ENDROOT
BRANCH  12  15
ATOM     15  C15 <0> d   1      17.773   0.507   9.139  0.00  0.00     0.131 C 
BRANCH  15  16
ATOM     16  C16 <0> d   1      19.004   0.125   8.313  0.00  0.00     0.056 C 
BRANCH  16  17
ATOM     17  C17 <0> d   1      18.557  -0.499   6.990  0.00  0.00     0.224 C 
ATOM     18  N23 <0> d   1      19.269  -1.767   6.781  0.00  0.00     0.088 N 
ATOM     19  C22 <0> d   1      18.836  -2.421   5.540  0.00  0.00     0.272 C 
ATOM     20  C24 <0> d   1      19.098  -2.661   7.934  0.00  0.00     0.310 C 
ATOM     21  C21 <0> d   1      19.161  -1.518   4.347  0.00  0.00     0.030 C 
ATOM     22  C20 <0> d   1      18.443  -0.176   4.516  0.00  0.00     0.004 C 
ATOM     23  C19 <0> d   1      18.874   0.460   5.840  0.00  0.00     0.036 C 
ENDBRANCH  16  17
ENDBRANCH  15  16
ENDBRANCH  12  15
BRANCH   1  24
ATOM     24  S2  <0> d   1      16.928  -4.272  11.158  0.00  0.00    -0.134 SA
ATOM     25  C1  <0> d   1      18.245  -5.303  10.455  0.00  0.00     0.095 C 
ENDBRANCH   1  24
TORSDOF 4
ENDMDL
MODEL 3
REMARK VINA RESULT:      -8.0      2.457      5.384
REMARK  4 active torsions:
REMARK  status: ('A' for Active; 'I' for Inactive)
REMARK    1  A    between atoms: S2_2  and  C3_3 
REMARK    2  A    between atoms: N14_14  and  C15_15 
REMARK    3  A    between atoms: C15_15  and  C16_16 
REMARK    4  A    between atoms: C16_16  and  C17_17 
ROOT
ATOM      1  C3  <0> d   1      19.154  -1.683  12.707  0.00  0.00     0.002 A 
ATOM      2  C4  <0> d   1      19.118  -3.010  12.300  0.00  0.00     0.020 A 
ATOM      3  C5  <0> d   1      18.869  -3.318  10.975  0.00  0.00     0.022 A 
ATOM      4  C6  <0> d   1      18.657  -2.307  10.048  0.00  0.00     0.032 A 
ATOM      5  S7  <0> d   1      18.354  -2.730   8.367  0.00  0.00    -0.086 SA
ATOM      6  C8  <0> d   1      18.662  -1.228   7.503  0.00  0.00     0.032 A 
ATOM      7  C9  <0> d   1      18.878  -1.263   6.132  0.00  0.00     0.021 A 
ATOM      8  C10 <0> d   1      19.123  -0.093   5.437  0.00  0.00     0.002 A 
ATOM      9  C11 <0> d   1      19.155   1.114   6.107  0.00  0.00     0.002 A 
ATOM     10  C12 <0> d   1      18.941   1.158   7.472  0.00  0.00     0.031 A 
ATOM     11  C13 <0> d   1      18.691  -0.013   8.181  0.00  0.00     0.052 A 
ATOM     12  N14 <0> d   1      18.473   0.069   9.554  0.00  0.00    -0.345 N 
ATOM     13  C25 <0> d   1      18.689  -0.974  10.451  0.00  0.00     0.053 A 
ATOM     14  C26 <0> d   1      18.935  -0.668  11.785  0.00  0.00     0.049 A 
ENDROOT
BRANCH  12  15
ATOM     15  C15 <0> d   1      17.982   1.340  10.092  0.00  0.00     0.131 C 
BRANCH  15  16
ATOM     16  C16 <0> d   1      19.148   2.117  10.709  0.00  0.00     0.056 C 
BRANCH  16  17
ATOM     17  C17 <0> d   1      18.650   3.475  11.206  0.00  0.00     0.224 C 
ATOM     18  N23 <0> d   1      17.985   3.309  12.505  0.00  0.00     0.088 N 
ATOM     19  C22 <0> d   1      17.530   4.598  13.038  0.00  0.00     0.272 C 
ATOM     20  C24 <0> d   1      18.866   2.625  13.461  0.00  0.00     0.310 C 
ATOM     21  C21 <0> d   1      16.505   5.212  12.081  0.00  0.00     0.030 C 
ATOM     22  C20 <0> d   1      17.148   5.407  10.706  0.00  0.00     0.004 C 
ATOM     23  C19 <0> d   1      17.658   4.056  10.195  0.00  0.00     0.036 C 
ENDBRANCH  16  17
ENDBRANCH  15  16
ENDBRANCH  12  15
BRANCH   1  24
ATOM     24  S2  <0> d   1      19.474  -1.287  14.393  0.00  0.00    -0.134 SA
ATOM     25  C1  <0> d   1      17.887  -0.620  14.964  0.00  0.00     0.095 C 
ENDBRANCH   1  24
TORSDOF 4
ENDMDL
MODEL 4
REMARK VINA RESULT:      -7.9      0.682      1.519
REMARK  4 active torsions:
REMARK  status: ('A' for Active; 'I' for Inactive)
REMARK    1  A    between atoms: S2_2  and  C3_3 
REMARK    2  A    between atoms: N14_14  and  C15_15 
REMARK    3  A    between atoms: C15_15  and  C16_16 
REMARK    4  A    between atoms: C16_16  and  C17_17 
ROOT
ATOM      1  C3  <0> d   1      17.832   3.156  10.549  0.00  0.00     0.002 A 
ATOM      2  C4  <0> d   1      18.513   3.149   9.340  0.00  0.00     0.020 A 
ATOM      3  C5  <0> d   1      19.050   1.968   8.859  0.00  0.00     0.022 A 
ATOM      4  C6  <0> d   1      18.909   0.790   9.579  0.00  0.00     0.032 A 
ATOM      5  S7  <0> d   1      19.594  -0.698   8.935  0.00  0.00    -0.086 SA
ATOM      6  C8  <0> d   1      18.764  -1.958   9.843  0.00  0.00     0.032 A 
ATOM      7  C9  <0> d   1      18.774  -3.261   9.364  0.00  0.00     0.021 A 
ATOM      8  C10 <0> d   1      18.127  -4.263  10.063  0.00  0.00     0.002 A 
ATOM      9  C11 <0> d   1      17.468  -3.968  11.241  0.00  0.00     0.002 A 
ATOM     10  C12 <0> d   1      17.453  -2.674  11.724  0.00  0.00     0.031 A 
ATOM     11  C13 <0> d   1      18.103  -1.659  11.030  0.00  0.00     0.052 A 
ATOM     12  N14 <0> d   1      18.074  -0.366  11.550  0.00  0.00    -0.345 N 
ATOM     13  C25 <0> d   1      18.230   0.792  10.794  0.00  0.00     0.053 A 
ATOM     14  C26 <0> d   1      17.696   1.982  11.277  0.00  0.00     0.049 A 
ENDROOT
BRANCH  12  15
ATOM     15  C15 <0> d   1      17.866  -0.217  12.993  0.00  0.00     0.131 C 
BRANCH  15  16
ATOM     16  C16 <0> d   1      19.114  -0.692  13.740  0.00  0.00     0.056 C 
BRANCH  16  17
ATOM     17  C17 <0> d   1      19.401   0.255  14.907  0.00  0.00     0.224 C 
ATOM     18  N23 <0> d   1      18.681  -0.206  16.101  0.00  0.00     0.088 N 
ATOM     19  C22 <0> d   1      18.964   0.653  17.257  0.00  0.00     0.272 C 
ATOM     20  C24 <0> d   1      18.999  -1.609  16.397  0.00  0.00     0.310 C 
ATOM     21  C21 <0> d   1      18.488   2.078  16.964  0.00  0.00     0.030 C 
ATOM     22  C20 <0> d   1      19.210   2.607  15.722  0.00  0.00     0.004 C 
ATOM     23  C19 <0> d   1      18.938   1.668  14.544  0.00  0.00     0.036 C 
ENDBRANCH  16  17
ENDBRANCH  15  16
ENDBRANCH  12  15
BRANCH   1  24
ATOM     24  S2  <0> d   1      17.144   4.658  11.163  0.00  0.00    -0.134 SA
ATOM     25  C1  <0> d   1      17.547   4.598  12.931  0.00  0.00     0.095 C 
ENDBRANCH   1  24
TORSDOF 4
ENDMDL
MODEL 5
REMARK VINA RESULT:      -7.6      2.298      6.041
REMARK  4 active torsions:
REMARK  status: ('A' for Active; 'I' for Inactive)
REMARK    1  A    between atoms: S2_2  and  C3_3 
REMARK    2  A    between atoms: N14_14  and  C15_15 
REMARK    3  A    between atoms: C15_15  and  C16_16 
REMARK    4  A    between atoms: C16_16  and  C17_17 
ROOT
ATOM      1  C3  <0> d   1      17.844   0.384  15.237  0.00  0.00     0.002 A 
ATOM      2  C4  <0> d   1      18.556   1.571  15.337  0.00  0.00     0.020 A 
ATOM      3  C5  <0> d   1      19.156   2.112  14.214  0.00  0.00     0.022 A 
ATOM      4  C6  <0> d   1      19.048   1.473  12.986  0.00  0.00     0.032 A 
ATOM      5  S7  <0> d   1      19.814   2.191  11.573  0.00  0.00    -0.086 SA
ATOM      6  C8  <0> d   1      19.017   1.390  10.223  0.00  0.00     0.032 A 
ATOM      7  C9  <0> d   1      19.096   1.951   8.956  0.00  0.00     0.021 A 
ATOM      8  C10 <0> d   1      18.476   1.337   7.884  0.00  0.00     0.002 A 
ATOM      9  C11 <0> d   1      17.774   0.162   8.073  0.00  0.00     0.002 A 
ATOM     10  C12 <0> d   1      17.691  -0.403   9.331  0.00  0.00     0.031 A 
ATOM     11  C13 <0> d   1      18.313   0.205  10.416  0.00  0.00     0.052 A 
ATOM     12  N14 <0> d   1      18.215  -0.396  11.669  0.00  0.00    -0.345 N 
ATOM     13  C25 <0> d   1      18.339   0.280  12.880  0.00  0.00     0.053 A 
ATOM     14  C26 <0> d   1      17.741  -0.263  14.012  0.00  0.00     0.049 A 
ENDROOT
BRANCH  12  15
ATOM     15  C15 <0> d   1      17.963  -1.838  11.715  0.00  0.00     0.131 C 
BRANCH  15  16
ATOM     16  C16 <0> d   1      19.215  -2.589  11.255  0.00  0.00     0.056 C 
BRANCH  16  17
ATOM     17  C17 <0> d   1      18.865  -4.056  10.997  0.00  0.00     0.224 C 
ATOM     18  N23 <0> d   1      18.425  -4.217   9.605  0.00  0.00     0.088 N 
ATOM     19  C22 <0> d   1      18.120  -5.621   9.303  0.00  0.00     0.272 C 
ATOM     20  C24 <0> d   1      19.428  -3.684   8.672  0.00  0.00     0.310 C 
ATOM     21  C21 <0> d   1      16.972  -6.097  10.197  0.00  0.00     0.030 C 
ATOM     22  C20 <0> d   1      17.379  -5.948  11.666  0.00  0.00     0.004 C 
ATOM     23  C19 <0> d   1      17.739  -4.485  11.941  0.00  0.00     0.036 C 
ENDBRANCH  16  17
ENDBRANCH  15  16
ENDBRANCH  12  15
BRANCH   1  24
ATOM     24  S2  <0> d   1      17.076  -0.306  16.664  0.00  0.00    -0.134 SA
ATOM     25  C1  <0> d   1      18.418  -0.318  17.885  0.00  0.00     0.095 C 
ENDBRANCH   1  24
TORSDOF 4
ENDMDL
MODEL 6
REMARK VINA RESULT:      -7.4      2.366      7.440
REMARK  4 active torsions:
REMARK  status: ('A' for Active; 'I' for Inactive)
REMARK    1  A    between atoms: S2_2  and  C3_3 
REMARK    2  A    between atoms: N14_14  and  C15_15 
REMARK    3  A    between atoms: C15_15  and  C16_16 
REMARK    4  A    between atoms: C16_16  and  C17_17 
ROOT
ATOM      1  C3  <0> d   1      18.470  -1.810  12.718  0.00  0.00     0.002 A 
ATOM      2  C4  <0> d   1      18.344  -1.536  14.073  0.00  0.00     0.020 A 
ATOM      3  C5  <0> d   1      18.276  -0.224  14.507  0.00  0.00     0.022 A 
ATOM      4  C6  <0> d   1      18.331   0.820  13.594  0.00  0.00     0.032 A 
ATOM      5  S7  <0> d   1      18.231   2.478  14.177  0.00  0.00    -0.086 SA
ATOM      6  C8  <0> d   1      17.819   3.396  12.732  0.00  0.00     0.032 A 
ATOM      7  C9  <0> d   1      17.303   4.678  12.865  0.00  0.00     0.021 A 
ATOM      8  C10 <0> d   1      16.973   5.414  11.742  0.00  0.00     0.002 A 
ATOM      9  C11 <0> d   1      17.155   4.873  10.484  0.00  0.00     0.002 A 
ATOM     10  C12 <0> d   1      17.668   3.597  10.344  0.00  0.00     0.031 A 
ATOM     11  C13 <0> d   1      18.007   2.849  11.467  0.00  0.00     0.052 A 
ATOM     12  N14 <0> d   1      18.528   1.570  11.288  0.00  0.00    -0.345 N 
ATOM     13  C25 <0> d   1      18.461   0.551  12.235  0.00  0.00     0.053 A 
ATOM     14  C26 <0> d   1      18.534  -0.768  11.802  0.00  0.00     0.049 A 
ENDROOT
BRANCH  12  15
ATOM     15  C15 <0> d   1      19.193   1.277  10.016  0.00  0.00     0.131 C 
BRANCH  15  16
ATOM     16  C16 <0> d   1      18.182   0.674   9.039  0.00  0.00     0.056 C 
BRANCH  16  17
ATOM     17  C17 <0> d   1      18.878  -0.370   8.163  0.00  0.00     0.224 C 
ATOM     18  N23 <0> d   1      18.566  -0.112   6.751  0.00  0.00     0.088 N 
ATOM     19  C22 <0> d   1      19.251  -1.067   5.872  0.00  0.00     0.272 C 
ATOM     20  C24 <0> d   1      18.899   1.272   6.385  0.00  0.00     0.310 C 
ATOM     21  C21 <0> d   1      18.771  -2.486   6.189  0.00  0.00     0.030 C 
ATOM     22  C20 <0> d   1      19.072  -2.807   7.655  0.00  0.00     0.004 C 
ATOM     23  C19 <0> d   1      18.387  -1.768   8.547  0.00  0.00     0.036 C 
ENDBRANCH  16  17
ENDBRANCH  15  16
ENDBRANCH  12  15
BRANCH   1  24
ATOM     24  S2  <0> d   1      18.554  -3.479  12.161  0.00  0.00    -0.134 SA
ATOM     25  C1  <0> d   1      20.221  -3.590  11.453  0.00  0.00     0.095 C 
ENDBRANCH   1  24
TORSDOF 4
ENDMDL
MODEL 7
REMARK VINA RESULT:      -7.4      3.253      5.560
REMARK  4 active torsions:
REMARK  status: ('A' for Active; 'I' for Inactive)
REMARK    1  A    between atoms: S2_2  and  C3_3 
REMARK    2  A    between atoms: N14_14  and  C15_15 
REMARK    3  A    between atoms: C15_15  and  C16_16 
REMARK    4  A    between atoms: C16_16  and  C17_17 
ROOT
ATOM      1  C3  <0> d   1      18.782  -1.652   5.484  0.00  0.00     0.002 A 
ATOM      2  C4  <0> d   1      18.878  -2.860   4.808  0.00  0.00     0.020 A 
ATOM      3  C5  <0> d   1      18.884  -4.048   5.516  0.00  0.00     0.022 A 
ATOM      4  C6  <0> d   1      18.793  -4.038   6.902  0.00  0.00     0.032 A 
ATOM      5  S7  <0> d   1      18.793  -5.566   7.775  0.00  0.00    -0.086 SA
ATOM      6  C8  <0> d   1      18.155  -5.134   9.358  0.00  0.00     0.032 A 
ATOM      7  C9  <0> d   1      17.670  -6.133  10.192  0.00  0.00     0.021 A 
ATOM      8  C10 <0> d   1      17.164  -5.812  11.438  0.00  0.00     0.002 A 
ATOM      9  C11 <0> d   1      17.139  -4.495  11.855  0.00  0.00     0.002 A 
ATOM     10  C12 <0> d   1      17.620  -3.496  11.031  0.00  0.00     0.031 A 
ATOM     11  C13 <0> d   1      18.133  -3.807   9.776  0.00  0.00     0.052 A 
ATOM     12  N14 <0> d   1      18.616  -2.775   8.974  0.00  0.00    -0.345 N 
ATOM     13  C25 <0> d   1      18.701  -2.829   7.586  0.00  0.00     0.053 A 
ATOM     14  C26 <0> d   1      18.700  -1.636   6.870  0.00  0.00     0.049 A 
ENDROOT
BRANCH  12  15
ATOM     15  C15 <0> d   1      19.066  -1.549   9.639  0.00  0.00     0.131 C 
BRANCH  15  16
ATOM     16  C16 <0> d   1      17.854  -0.675   9.970  0.00  0.00     0.056 C 
BRANCH  16  17
ATOM     17  C17 <0> d   1      18.330   0.661  10.543  0.00  0.00     0.224 C 
ATOM     18  N23 <0> d   1      17.383   1.121  11.566  0.00  0.00     0.088 N 
ATOM     19  C22 <0> d   1      17.826   2.383  12.173  0.00  0.00     0.272 C 
ATOM     20  C24 <0> d   1      17.175   0.089  12.591  0.00  0.00     0.310 C 
ATOM     21  C21 <0> d   1      17.893   3.470  11.097  0.00  0.00     0.030 C 
ATOM     22  C20 <0> d   1      18.870   3.038  10.000  0.00  0.00     0.004 C 
ATOM     23  C19 <0> d   1      18.412   1.697   9.419  0.00  0.00     0.036 C 
ENDBRANCH  16  17
ENDBRANCH  15  16
ENDBRANCH  12  15
BRANCH   1  24
ATOM     24  S2  <0> d   1      18.771  -0.137   4.584  0.00  0.00    -0.134 SA
ATOM     25  C1  <0> d   1      18.886   1.115   5.891  0.00  0.00     0.095 C 
ENDBRANCH   1  24
TORSDOF 4
ENDMDL
MODEL 8
REMARK VINA RESULT:      -7.3      1.950      5.995
REMARK  4 active torsions:
REMARK  status: ('A' for Active; 'I' for Inactive)
REMARK    1  A    between atoms: S2_2  and  C3_3 
REMARK    2  A    between atoms: N14_14  and  C15_15 
REMARK    3  A    between atoms: C15_15  and  C16_16 
REMARK    4  A    between atoms: C16_16  and  C17_17 
ROOT
ATOM      1  C3  <0> d   1      18.540   3.137  10.067  0.00  0.00     0.002 A 
ATOM      2  C4  <0> d   1      17.620   4.171   9.966  0.00  0.00     0.020 A 
ATOM      3  C5  <0> d   1      17.067   4.715  11.111  0.00  0.00     0.022 A 
ATOM      4  C6  <0> d   1      17.429   4.234  12.362  0.00  0.00     0.032 A 
ATOM      5  S7  <0> d   1      16.716   4.954  13.801  0.00  0.00    -0.086 SA
ATOM      6  C8  <0> d   1      17.795   4.441  15.094  0.00  0.00     0.032 A 
ATOM      7  C9  <0> d   1      17.763   5.108  16.311  0.00  0.00     0.021 A 
ATOM      8  C10 <0> d   1      18.604   4.720  17.338  0.00  0.00     0.002 A 
ATOM      9  C11 <0> d   1      19.478   3.667  17.153  0.00  0.00     0.002 A 
ATOM     10  C12 <0> d   1      19.516   2.998  15.945  0.00  0.00     0.031 A 
ATOM     11  C13 <0> d   1      18.673   3.378  14.906  0.00  0.00     0.052 A 
ATOM     12  N14 <0> d   1      18.732   2.677  13.704  0.00  0.00    -0.345 N 
ATOM     13  C25 <0> d   1      18.349   3.194  12.469  0.00  0.00     0.053 A 
ATOM     14  C26 <0> d   1      18.899   2.646  11.315  0.00  0.00     0.049 A 
ENDROOT
BRANCH  12  15
ATOM     15  C15 <0> d   1      19.232   1.300  13.742  0.00  0.00     0.131 C 
BRANCH  15  16
ATOM     16  C16 <0> d   1      18.078   0.331  13.473  0.00  0.00     0.056 C 
BRANCH  16  17
ATOM     17  C17 <0> d   1      18.531  -0.737  12.476  0.00  0.00     0.224 C 
ATOM     18  N23 <0> d   1      17.367  -1.240  11.734  0.00  0.00     0.088 N 
ATOM     19  C22 <0> d   1      17.765  -2.239  10.735  0.00  0.00     0.272 C 
ATOM     20  C24 <0> d   1      16.627  -0.136  11.109  0.00  0.00     0.310 C 
ATOM     21  C21 <0> d   1      18.405  -3.438  11.439  0.00  0.00     0.030 C 
ATOM     22  C20 <0> d   1      19.627  -2.967  12.232  0.00  0.00     0.004 C 
ATOM     23  C19 <0> d   1      19.193  -1.892  13.232  0.00  0.00     0.036 C 
ENDBRANCH  16  17
ENDBRANCH  15  16
ENDBRANCH  12  15
BRANCH   1  24
ATOM     24  S2  <0> d   1      19.249   2.443   8.611  0.00  0.00    -0.134 SA
ATOM     25  C1  <0> d   1      19.564   0.722   9.090  0.00  0.00     0.095 C 
ENDBRANCH   1  24
TORSDOF 4
ENDMDL
MODEL 9
REMARK VINA RESULT:      -7.3      2.084      3.507
REMARK  4 active torsions:
REMARK  status: ('A' for Active; 'I' for Inactive)
REMARK    1  A    between atoms: S2_2  and  C3_3 
REMARK    2  A    between atoms: N14_14  and  C15_15 
REMARK    3  A    between atoms: C15_15  and  C16_16 
REMARK    4  A    between atoms: C16_16  and  C17_17 
ROOT
ATOM      1  C3  <0> d   1      18.945   0.038   7.298  0.00  0.00     0.002 A 
ATOM      2  C4  <0> d   1      19.212  -0.773   6.203  0.00  0.00     0.020 A 
ATOM      3  C5  <0> d   1      19.274  -2.146   6.362  0.00  0.00     0.022 A 
ATOM      4  C6  <0> d   1      19.068  -2.717   7.611  0.00  0.00     0.032 A 
ATOM      5  S7  <0> d   1      19.142  -4.467   7.780  0.00  0.00    -0.086 SA
ATOM      6  C8  <0> d   1      18.338  -4.766   9.317  0.00  0.00     0.032 A 
ATOM      7  C9  <0> d   1      17.884  -6.045   9.610  0.00  0.00     0.021 A 
ATOM      8  C10 <0> d   1      17.249  -6.298  10.811  0.00  0.00     0.002 A 
ATOM      9  C11 <0> d   1      17.063  -5.277  11.723  0.00  0.00     0.002 A 
ATOM     10  C12 <0> d   1      17.512  -4.001  11.438  0.00  0.00     0.031 A 
ATOM     11  C13 <0> d   1      18.155  -3.736  10.234  0.00  0.00     0.052 A 
ATOM     12  N14 <0> d   1      18.601  -2.440   9.983  0.00  0.00    -0.345 N 
ATOM     13  C25 <0> d   1      18.804  -1.907   8.713  0.00  0.00     0.053 A 
ATOM     14  C26 <0> d   1      18.748  -0.527   8.550  0.00  0.00     0.049 A 
ENDROOT
BRANCH  12  15
ATOM     15  C15 <0> d   1      18.875  -1.578  11.136  0.00  0.00     0.131 C 
BRANCH  15  16
ATOM     16  C16 <0> d   1      17.610  -0.796  11.499  0.00  0.00     0.056 C 
BRANCH  16  17
ATOM     17  C17 <0> d   1      17.672  -0.381  12.971  0.00  0.00     0.224 C 
ATOM     18  N23 <0> d   1      18.300   0.942  13.081  0.00  0.00     0.088 N 
ATOM     19  C22 <0> d   1      18.339   1.396  14.477  0.00  0.00     0.272 C 
ATOM     20  C24 <0> d   1      17.613   1.921  12.228  0.00  0.00     0.310 C 
ATOM     21  C21 <0> d   1      19.183   0.425  15.306  0.00  0.00     0.030 C 
ATOM     22  C20 <0> d   1      18.571  -0.976  15.223  0.00  0.00     0.004 C 
ATOM     23  C19 <0> d   1      18.496  -1.405  13.755  0.00  0.00     0.036 C 
ENDBRANCH  16  17
ENDBRANCH  15  16
ENDBRANCH  12  15
BRANCH   1  24
ATOM     24  S2  <0> d   1      18.863   1.787   7.098  0.00  0.00    -0.134 SA
ATOM     25  C1  <0> d   1      18.987   2.398   8.801  0.00  0.00     0.095 C 
ENDBRANCH   1  24
TORSDOF 4
ENDMDL
