MODEL 1
REMARK VINA RESULT:      -5.9      0.000      0.000
REMARK  22 active torsions:
REMARK  status: ('A' for Active; 'I' for Inactive)
REMARK    1  A    between atoms: O2_2  and  C3_3 
REMARK    2  A    between atoms: C3_3  and  C4_4 
REMARK    3  A    between atoms: C4_4  and  N5_5 
REMARK       I    between atoms: N5_5  and  C6_6 
REMARK    4  A    between atoms: C6_6  and  C8_8 
REMARK    5  A    between atoms: C8_8  and  N9_9 
REMARK    6  A    between atoms: N9_9  and  C10_10 
REMARK    7  A    between atoms: N9_9  and  C32_32 
REMARK    8  A    between atoms: C10_10  and  C11_11 
REMARK    9  A    between atoms: C11_11  and  N12_12 
REMARK   10  A    between atoms: N12_12  and  C13_13 
REMARK   11  A    between atoms: N12_12  and  C28_28 
REMARK   12  A    between atoms: C13_13  and  C14_14 
REMARK   13  A    between atoms: C14_14  and  N15_15 
REMARK   14  A    between atoms: N15_15  and  C16_16 
REMARK   15  A    between atoms: N15_15  and  C20_20 
REMARK   16  A    between atoms: C16_16  and  C17_17 
REMARK   17  A    between atoms: C20_20  and  C21_21 
REMARK       I    between atoms: C21_21  and  N23_23 
REMARK   18  A    between atoms: N23_23  and  C24_24 
REMARK   19  A    between atoms: C24_24  and  C25_25 
REMARK   20  A    between atoms: C25_25  and  O26_26 
REMARK   21  A    between atoms: C28_28  and  C29_29 
REMARK   22  A    between atoms: C32_32  and  C33_33 
ROOT
ATOM      1  N12 ZIN A   1      18.857   1.513  10.080  0.00  0.00     0.102 N 
ENDROOT
BRANCH   1   2
ATOM      2  C11 ZIN A   1      19.294   0.594   9.021  0.00  0.00     0.303 C 
BRANCH   2   3
ATOM      3  C10 ZIN A   1      18.084  -0.163   8.470  0.00  0.00     0.303 C 
BRANCH   3   4
ATOM      4  N9  ZIN A   1      18.542  -1.336   7.715  0.00  0.00     0.108 N 
BRANCH   4   5
ATOM      5  C8  ZIN A   1      19.410  -2.187   8.539  0.00  0.00     0.375 C 
BRANCH   5   6
ATOM      6  C6  ZIN A   1      18.818  -3.569   8.629  0.00  0.00     0.246 C 
ATOM      7  N5  ZIN A   1      17.487  -3.743   8.497  0.00  0.00    -0.358 N 
ATOM      8  H43 ZIN A   1      16.912  -2.977   8.343  0.00  0.00     0.162 HD
ATOM      9  O7  ZIN A   1      19.538  -4.527   8.821  0.00  0.00    -0.272 OA
BRANCH   7  10
ATOM     10  C4  ZIN A   1      16.912  -5.087   8.583  0.00  0.00     0.148 C 
BRANCH  10  11
ATOM     11  C3  ZIN A   1      16.784  -5.679   7.178  0.00  0.00     0.186 C 
BRANCH  11  12
ATOM     12  O2  ZIN A   1      15.413  -5.979   6.911  0.00  0.00    -0.394 OA
ATOM     13  C1  ZIN A   1      14.613  -6.134   8.085  0.00  0.00     0.201 C 
ENDBRANCH  11  12
ENDBRANCH  10  11
ENDBRANCH   7  10
ENDBRANCH   5   6
ENDBRANCH   4   5
BRANCH   4  14
ATOM     14  C32 ZIN A   1      19.223  -0.931   6.477  0.00  0.00     0.385 C 
BRANCH  14  15
ATOM     15  C33 ZIN A   1      18.918  -1.926   5.387  0.00  0.00     0.202 C 
ATOM     16  O34 ZIN A   1      18.001  -2.718   5.523  0.00  0.00    -0.647 OA
ATOM     17  O35 ZIN A   1      19.590  -1.940   4.369  0.00  0.00    -0.647 OA
ENDBRANCH  14  15
ENDBRANCH   4  14
ENDBRANCH   3   4
ENDBRANCH   2   3
ENDBRANCH   1   2
BRANCH   1  18
ATOM     18  C13 ZIN A   1      19.856   1.589  11.155  0.00  0.00     0.303 C 
BRANCH  18  19
ATOM     19  C14 ZIN A   1      20.189   0.178  11.643  0.00  0.00     0.303 C 
BRANCH  19  20
ATOM     20  N15 ZIN A   1      19.174  -0.259  12.612  0.00  0.00     0.108 N 
BRANCH  20  21
ATOM     21  C16 ZIN A   1      18.841  -1.677  12.423  0.00  0.00     0.385 C 
BRANCH  21  22
ATOM     22  C17 ZIN A   1      17.462  -1.793  11.824  0.00  0.00     0.202 C 
ATOM     23  O18 ZIN A   1      16.745  -0.810  11.748  0.00  0.00    -0.647 OA
ATOM     24  O19 ZIN A   1      17.064  -2.870  11.414  0.00  0.00    -0.647 OA
ENDBRANCH  21  22
ENDBRANCH  20  21
BRANCH  20  25
ATOM     25  C20 ZIN A   1      19.614   0.001  13.988  0.00  0.00     0.375 C 
BRANCH  25  26
ATOM     26  C21 ZIN A   1      18.877   1.196  14.535  0.00  0.00     0.246 C 
ATOM     27  O22 ZIN A   1      17.666   1.242  14.473  0.00  0.00    -0.272 OA
ATOM     28  N23 ZIN A   1      19.562   2.214  15.093  0.00  0.00    -0.358 N 
ATOM     29  H58 ZIN A   1      20.530   2.176  15.143  0.00  0.00     0.162 HD
BRANCH  28  30
ATOM     30  C24 ZIN A   1      18.845   3.375  15.625  0.00  0.00     0.148 C 
BRANCH  30  31
ATOM     31  C25 ZIN A   1      19.728   4.094  16.649  0.00  0.00     0.186 C 
BRANCH  31  32
ATOM     32  O26 ZIN A   1      19.785   5.486  16.335  0.00  0.00    -0.394 OA
ATOM     33  C27 ZIN A   1      20.890   5.850  15.504  0.00  0.00     0.201 C 
ENDBRANCH  31  32
ENDBRANCH  30  31
ENDBRANCH  28  30
ENDBRANCH  25  26
ENDBRANCH  20  25
ENDBRANCH  19  20
ENDBRANCH  18  19
ENDBRANCH   1  18
BRANCH   1  34
ATOM     34  C28 ZIN A   1      18.568   2.846   9.536  0.00  0.00     0.385 C 
BRANCH  34  35
ATOM     35  C29 ZIN A   1      17.687   3.602  10.498  0.00  0.00     0.202 C 
ATOM     36  O30 ZIN A   1      17.661   4.820  10.470  0.00  0.00    -0.647 OA
ATOM     37  O31 ZIN A   1      17.003   2.995  11.304  0.00  0.00    -0.647 OA
ENDBRANCH  34  35
ENDBRANCH   1  34
TORSDOF 22
ENDMDL
MODEL 2
REMARK VINA RESULT:      -5.8      1.740      5.091
REMARK  22 active torsions:
REMARK  status: ('A' for Active; 'I' for Inactive)
REMARK    1  A    between atoms: O2_2  and  C3_3 
REMARK    2  A    between atoms: C3_3  and  C4_4 
REMARK    3  A    between atoms: C4_4  and  N5_5 
REMARK       I    between atoms: N5_5  and  C6_6 
REMARK    4  A    between atoms: C6_6  and  C8_8 
REMARK    5  A    between atoms: C8_8  and  N9_9 
REMARK    6  A    between atoms: N9_9  and  C10_10 
REMARK    7  A    between atoms: N9_9  and  C32_32 
REMARK    8  A    between atoms: C10_10  and  C11_11 
REMARK    9  A    between atoms: C11_11  and  N12_12 
REMARK   10  A    between atoms: N12_12  and  C13_13 
REMARK   11  A    between atoms: N12_12  and  C28_28 
REMARK   12  A    between atoms: C13_13  and  C14_14 
REMARK   13  A    between atoms: C14_14  and  N15_15 
REMARK   14  A    between atoms: N15_15  and  C16_16 
REMARK   15  A    between atoms: N15_15  and  C20_20 
REMARK   16  A    between atoms: C16_16  and  C17_17 
REMARK   17  A    between atoms: C20_20  and  C21_21 
REMARK       I    between atoms: C21_21  and  N23_23 
REMARK   18  A    between atoms: N23_23  and  C24_24 
REMARK   19  A    between atoms: C24_24  and  C25_25 
REMARK   20  A    between atoms: C25_25  and  O26_26 
REMARK   21  A    between atoms: C28_28  and  C29_29 
REMARK   22  A    between atoms: C32_32  and  C33_33 
ROOT
ATOM      1  N12 ZIN A   1      18.248  -0.565   7.249  0.00  0.00     0.102 N 
ENDROOT
BRANCH   1   2
ATOM      2  C11 ZIN A   1      19.014  -1.666   7.847  0.00  0.00     0.303 C 
BRANCH   2   3
ATOM      3  C10 ZIN A   1      18.276  -2.987   7.616  0.00  0.00     0.303 C 
BRANCH   3   4
ATOM      4  N9  ZIN A   1      18.021  -3.637   8.908  0.00  0.00     0.108 N 
BRANCH   4   5
ATOM      5  C8  ZIN A   1      19.065  -3.299   9.883  0.00  0.00     0.375 C 
BRANCH   5   6
ATOM      6  C6  ZIN A   1      18.424  -2.892  11.184  0.00  0.00     0.246 C 
ATOM      7  N5  ZIN A   1      19.193  -2.514  12.225  0.00  0.00    -0.358 N 
ATOM      8  H43 ZIN A   1      20.159  -2.504  12.136  0.00  0.00     0.162 HD
ATOM      9  O7  ZIN A   1      17.216  -2.904  11.296  0.00  0.00    -0.272 OA
BRANCH   7  10
ATOM     10  C4  ZIN A   1      18.570  -2.117  13.490  0.00  0.00     0.148 C 
BRANCH  10  11
ATOM     11  C3  ZIN A   1      19.580  -1.336  14.333  0.00  0.00     0.186 C 
BRANCH  11  12
ATOM     12  O2  ZIN A   1      18.884  -0.547  15.300  0.00  0.00    -0.394 OA
ATOM     13  C1  ZIN A   1      18.603  -1.238  16.519  0.00  0.00     0.201 C 
ENDBRANCH  11  12
ENDBRANCH  10  11
ENDBRANCH   7  10
ENDBRANCH   5   6
ENDBRANCH   4   5
BRANCH   4  14
ATOM     14  C32 ZIN A   1      17.899  -5.093   8.749  0.00  0.00     0.385 C 
BRANCH  14  15
ATOM     15  C33 ZIN A   1      16.443  -5.467   8.641  0.00  0.00     0.202 C 
ATOM     16  O34 ZIN A   1      15.990  -5.856   7.577  0.00  0.00    -0.647 OA
ATOM     17  O35 ZIN A   1      15.717  -5.379   9.617  0.00  0.00    -0.647 OA
ENDBRANCH  14  15
ENDBRANCH   4  14
ENDBRANCH   3   4
ENDBRANCH   2   3
ENDBRANCH   1   2
BRANCH   1  18
ATOM     18  C13 ZIN A   1      17.624   0.267   8.286  0.00  0.00     0.303 C 
BRANCH  18  19
ATOM     19  C14 ZIN A   1      18.528   1.462   8.594  0.00  0.00     0.303 C 
BRANCH  19  20
ATOM     20  N15 ZIN A   1      18.401   1.821  10.013  0.00  0.00     0.108 N 
BRANCH  20  21
ATOM     21  C16 ZIN A   1      18.380   0.620  10.860  0.00  0.00     0.385 C 
BRANCH  21  22
ATOM     22  C17 ZIN A   1      17.254   0.728  11.855  0.00  0.00     0.202 C 
ATOM     23  O18 ZIN A   1      16.169   0.230  11.605  0.00  0.00    -0.647 OA
ATOM     24  O19 ZIN A   1      17.427   1.312  12.911  0.00  0.00    -0.647 OA
ENDBRANCH  21  22
ENDBRANCH  20  21
BRANCH  20  25
ATOM     25  C20 ZIN A   1      19.474   2.736  10.423  0.00  0.00     0.375 C 
BRANCH  25  26
ATOM     26  C21 ZIN A   1      18.927   3.747  11.398  0.00  0.00     0.246 C 
ATOM     27  O22 ZIN A   1      18.009   4.469  11.070  0.00  0.00    -0.272 OA
ATOM     28  N23 ZIN A   1      19.457   3.849  12.632  0.00  0.00    -0.358 N 
ATOM     29  H58 ZIN A   1      20.191   3.271  12.893  0.00  0.00     0.162 HD
BRANCH  28  30
ATOM     30  C24 ZIN A   1      18.925   4.832  13.579  0.00  0.00     0.148 C 
BRANCH  30  31
ATOM     31  C25 ZIN A   1      20.079   5.638  14.180  0.00  0.00     0.186 C 
BRANCH  31  32
ATOM     32  O26 ZIN A   1      19.569   6.835  14.768  0.00  0.00    -0.394 OA
ATOM     33  C27 ZIN A   1      18.792   6.618  15.948  0.00  0.00     0.201 C 
ENDBRANCH  31  32
ENDBRANCH  30  31
ENDBRANCH  28  30
ENDBRANCH  25  26
ENDBRANCH  20  25
ENDBRANCH  19  20
ENDBRANCH  18  19
ENDBRANCH   1  18
BRANCH   1  34
ATOM     34  C28 ZIN A   1      19.093   0.245   6.363  0.00  0.00     0.385 C 
BRANCH  34  35
ATOM     35  C29 ZIN A   1      19.098  -0.359   4.981  0.00  0.00     0.202 C 
ATOM     36  O30 ZIN A   1      18.185  -0.120   4.210  0.00  0.00    -0.647 OA
ATOM     37  O31 ZIN A   1      20.013  -1.086   4.637  0.00  0.00    -0.647 OA
ENDBRANCH  34  35
ENDBRANCH   1  34
TORSDOF 22
ENDMDL
MODEL 3
REMARK VINA RESULT:      -5.7      1.634      2.074
REMARK  22 active torsions:
REMARK  status: ('A' for Active; 'I' for Inactive)
REMARK    1  A    between atoms: O2_2  and  C3_3 
REMARK    2  A    between atoms: C3_3  and  C4_4 
REMARK    3  A    between atoms: C4_4  and  N5_5 
REMARK       I    between atoms: N5_5  and  C6_6 
REMARK    4  A    between atoms: C6_6  and  C8_8 
REMARK    5  A    between atoms: C8_8  and  N9_9 
REMARK    6  A    between atoms: N9_9  and  C10_10 
REMARK    7  A    between atoms: N9_9  and  C32_32 
REMARK    8  A    between atoms: C10_10  and  C11_11 
REMARK    9  A    between atoms: C11_11  and  N12_12 
REMARK   10  A    between atoms: N12_12  and  C13_13 
REMARK   11  A    between atoms: N12_12  and  C28_28 
REMARK   12  A    between atoms: C13_13  and  C14_14 
REMARK   13  A    between atoms: C14_14  and  N15_15 
REMARK   14  A    between atoms: N15_15  and  C16_16 
REMARK   15  A    between atoms: N15_15  and  C20_20 
REMARK   16  A    between atoms: C16_16  and  C17_17 
REMARK   17  A    between atoms: C20_20  and  C21_21 
REMARK       I    between atoms: C21_21  and  N23_23 
REMARK   18  A    between atoms: N23_23  and  C24_24 
REMARK   19  A    between atoms: C24_24  and  C25_25 
REMARK   20  A    between atoms: C25_25  and  O26_26 
REMARK   21  A    between atoms: C28_28  and  C29_29 
REMARK   22  A    between atoms: C32_32  and  C33_33 
ROOT
ATOM      1  N12 ZIN A   1      17.620   1.679   9.979  0.00  0.00     0.102 N 
ENDROOT
BRANCH   1   2
ATOM      2  C11 ZIN A   1      18.344   0.942   8.935  0.00  0.00     0.303 C 
BRANCH   2   3
ATOM      3  C10 ZIN A   1      17.370   0.032   8.183  0.00  0.00     0.303 C 
BRANCH   3   4
ATOM      4  N9  ZIN A   1      18.110  -0.775   7.204  0.00  0.00     0.108 N 
BRANCH   4   5
ATOM      5  C8  ZIN A   1      19.092  -1.640   7.870  0.00  0.00     0.375 C 
BRANCH   5   6
ATOM      6  C6  ZIN A   1      18.708  -3.083   7.667  0.00  0.00     0.246 C 
ATOM      7  N5  ZIN A   1      17.594  -3.572   8.249  0.00  0.00    -0.358 N 
ATOM      8  H43 ZIN A   1      17.041  -2.995   8.798  0.00  0.00     0.162 HD
ATOM      9  O7  ZIN A   1      19.400  -3.805   6.980  0.00  0.00    -0.272 OA
BRANCH   7  10
ATOM     10  C4  ZIN A   1      17.220  -4.974   8.051  0.00  0.00     0.148 C 
BRANCH  10  11
ATOM     11  C3  ZIN A   1      16.337  -5.435   9.213  0.00  0.00     0.186 C 
BRANCH  11  12
ATOM     12  O2  ZIN A   1      17.145  -5.644  10.372  0.00  0.00    -0.394 OA
ATOM     13  C1  ZIN A   1      16.761  -4.853  11.498  0.00  0.00     0.201 C 
ENDBRANCH  11  12
ENDBRANCH  10  11
ENDBRANCH   7  10
ENDBRANCH   5   6
ENDBRANCH   4   5
BRANCH   4  14
ATOM     14  C32 ZIN A   1      18.757   0.081   6.199  0.00  0.00     0.385 C 
BRANCH  14  15
ATOM     15  C33 ZIN A   1      18.897  -0.681   4.906  0.00  0.00     0.202 C 
ATOM     16  O34 ZIN A   1      17.907  -0.946   4.245  0.00  0.00    -0.647 OA
ATOM     17  O35 ZIN A   1      20.000  -1.032   4.522  0.00  0.00    -0.647 OA
ENDBRANCH  14  15
ENDBRANCH   4  14
ENDBRANCH   3   4
ENDBRANCH   2   3
ENDBRANCH   1   2
BRANCH   1  18
ATOM     18  C13 ZIN A   1      17.267   0.795  11.098  0.00  0.00     0.303 C 
BRANCH  18  19
ATOM     19  C14 ZIN A   1      18.534   0.139  11.650  0.00  0.00     0.303 C 
BRANCH  19  20
ATOM     20  N15 ZIN A   1      18.512   0.190  13.119  0.00  0.00     0.108 N 
BRANCH  20  21
ATOM     21  C16 ZIN A   1      18.542  -1.162  13.692  0.00  0.00     0.385 C 
BRANCH  21  22
ATOM     22  C17 ZIN A   1      18.388  -1.076  15.189  0.00  0.00     0.202 C 
ATOM     23  O18 ZIN A   1      19.269  -1.499  15.919  0.00  0.00    -0.647 OA
ATOM     24  O19 ZIN A   1      17.383  -0.582  15.671  0.00  0.00    -0.647 OA
ENDBRANCH  21  22
ENDBRANCH  20  21
BRANCH  20  25
ATOM     25  C20 ZIN A   1      19.619   1.006  13.634  0.00  0.00     0.375 C 
BRANCH  25  26
ATOM     26  C21 ZIN A   1      19.065   2.175  14.407  0.00  0.00     0.246 C 
ATOM     27  O22 ZIN A   1      18.168   2.842  13.935  0.00  0.00    -0.272 OA
ATOM     28  N23 ZIN A   1      19.564   2.479  15.621  0.00  0.00    -0.358 N 
ATOM     29  H58 ZIN A   1      20.281   1.945  15.997  0.00  0.00     0.162 HD
BRANCH  28  30
ATOM     30  C24 ZIN A   1      19.025   3.615  16.371  0.00  0.00     0.148 C 
BRANCH  30  31
ATOM     31  C25 ZIN A   1      20.039   4.762  16.359  0.00  0.00     0.186 C 
BRANCH  31  32
ATOM     32  O26 ZIN A   1      19.440   5.921  15.778  0.00  0.00    -0.394 OA
ATOM     33  C27 ZIN A   1      19.730   6.091  14.389  0.00  0.00     0.201 C 
ENDBRANCH  31  32
ENDBRANCH  30  31
ENDBRANCH  28  30
ENDBRANCH  25  26
ENDBRANCH  20  25
ENDBRANCH  19  20
ENDBRANCH  18  19
ENDBRANCH   1  18
BRANCH   1  34
ATOM     34  C28 ZIN A   1      18.399   2.833  10.446  0.00  0.00     0.385 C 
BRANCH  34  35
ATOM     35  C29 ZIN A   1      17.533   4.067  10.423  0.00  0.00     0.202 C 
ATOM     36  O30 ZIN A   1      16.626   4.188  11.228  0.00  0.00    -0.647 OA
ATOM     37  O31 ZIN A   1      17.740   4.941   9.599  0.00  0.00    -0.647 OA
ENDBRANCH  34  35
ENDBRANCH   1  34
TORSDOF 22
ENDMDL
MODEL 4
REMARK VINA RESULT:      -5.7      2.235      4.826
REMARK  22 active torsions:
REMARK  status: ('A' for Active; 'I' for Inactive)
REMARK    1  A    between atoms: O2_2  and  C3_3 
REMARK    2  A    between atoms: C3_3  and  C4_4 
REMARK    3  A    between atoms: C4_4  and  N5_5 
REMARK       I    between atoms: N5_5  and  C6_6 
REMARK    4  A    between atoms: C6_6  and  C8_8 
REMARK    5  A    between atoms: C8_8  and  N9_9 
REMARK    6  A    between atoms: N9_9  and  C10_10 
REMARK    7  A    between atoms: N9_9  and  C32_32 
REMARK    8  A    between atoms: C10_10  and  C11_11 
REMARK    9  A    between atoms: C11_11  and  N12_12 
REMARK   10  A    between atoms: N12_12  and  C13_13 
REMARK   11  A    between atoms: N12_12  and  C28_28 
REMARK   12  A    between atoms: C13_13  and  C14_14 
REMARK   13  A    between atoms: C14_14  and  N15_15 
REMARK   14  A    between atoms: N15_15  and  C16_16 
REMARK   15  A    between atoms: N15_15  and  C20_20 
REMARK   16  A    between atoms: C16_16  and  C17_17 
REMARK   17  A    between atoms: C20_20  and  C21_21 
REMARK       I    between atoms: C21_21  and  N23_23 
REMARK   18  A    between atoms: N23_23  and  C24_24 
REMARK   19  A    between atoms: C24_24  and  C25_25 
REMARK   20  A    between atoms: C25_25  and  O26_26 
REMARK   21  A    between atoms: C28_28  and  C29_29 
REMARK   22  A    between atoms: C32_32  and  C33_33 
ROOT
ATOM      1  N12 ZIN A   1      17.913   1.605   9.765  0.00  0.00     0.102 N 
ENDROOT
BRANCH   1   2
ATOM      2  C11 ZIN A   1      18.251   1.207   8.392  0.00  0.00     0.303 C 
BRANCH   2   3
ATOM      3  C10 ZIN A   1      17.421  -0.017   7.996  0.00  0.00     0.303 C 
BRANCH   3   4
ATOM      4  N9  ZIN A   1      18.176  -0.829   7.032  0.00  0.00     0.108 N 
BRANCH   4   5
ATOM      5  C8  ZIN A   1      19.130  -1.710   7.718  0.00  0.00     0.375 C 
BRANCH   5   6
ATOM      6  C6  ZIN A   1      19.142  -3.057   7.045  0.00  0.00     0.246 C 
ATOM      7  N5  ZIN A   1      17.991  -3.739   6.879  0.00  0.00    -0.358 N 
ATOM      8  H43 ZIN A   1      17.155  -3.361   7.194  0.00  0.00     0.162 HD
ATOM      9  O7  ZIN A   1      20.188  -3.530   6.651  0.00  0.00    -0.272 OA
BRANCH   7  10
ATOM     10  C4  ZIN A   1      18.002  -5.049   6.224  0.00  0.00     0.148 C 
BRANCH  10  11
ATOM     11  C3  ZIN A   1      17.816  -4.866   4.716  0.00  0.00     0.186 C 
BRANCH  11  12
ATOM     12  O2  ZIN A   1      16.459  -4.511   4.444  0.00  0.00    -0.394 OA
ATOM     13  C1  ZIN A   1      16.263  -3.904   3.165  0.00  0.00     0.201 C 
ENDBRANCH  11  12
ENDBRANCH  10  11
ENDBRANCH   7  10
ENDBRANCH   5   6
ENDBRANCH   4   5
BRANCH   4  14
ATOM     14  C32 ZIN A   1      18.858   0.022   6.048  0.00  0.00     0.385 C 
BRANCH  14  15
ATOM     15  C33 ZIN A   1      18.869  -0.668   4.708  0.00  0.00     0.202 C 
ATOM     16  O34 ZIN A   1      17.866  -0.671   4.015  0.00  0.00    -0.647 OA
ATOM     17  O35 ZIN A   1      19.882  -1.225   4.318  0.00  0.00    -0.647 OA
ENDBRANCH  14  15
ENDBRANCH   4  14
ENDBRANCH   3   4
ENDBRANCH   2   3
ENDBRANCH   1   2
BRANCH   1  18
ATOM     18  C13 ZIN A   1      18.169   0.509  10.708  0.00  0.00     0.303 C 
BRANCH  18  19
ATOM     19  C14 ZIN A   1      18.839   1.066  11.967  0.00  0.00     0.303 C 
BRANCH  19  20
ATOM     20  N15 ZIN A   1      18.559   0.179  13.104  0.00  0.00     0.108 N 
BRANCH  20  21
ATOM     21  C16 ZIN A   1      17.828   0.893  14.160  0.00  0.00     0.385 C 
BRANCH  21  22
ATOM     22  C17 ZIN A   1      18.477   0.618  15.493  0.00  0.00     0.202 C 
ATOM     23  O18 ZIN A   1      18.242  -0.423  16.082  0.00  0.00    -0.647 OA
ATOM     24  O19 ZIN A   1      19.237   1.436  15.981  0.00  0.00    -0.647 OA
ENDBRANCH  21  22
ENDBRANCH  20  21
BRANCH  20  25
ATOM     25  C20 ZIN A   1      17.825  -1.017  12.671  0.00  0.00     0.375 C 
BRANCH  25  26
ATOM     26  C21 ZIN A   1      18.771  -2.188  12.600  0.00  0.00     0.246 C 
ATOM     27  O22 ZIN A   1      19.682  -2.281  13.397  0.00  0.00    -0.272 OA
ATOM     28  N23 ZIN A   1      18.606  -3.133  11.653  0.00  0.00    -0.358 N 
ATOM     29  H58 ZIN A   1      17.877  -3.058  11.017  0.00  0.00     0.162 HD
BRANCH  28  30
ATOM     30  C24 ZIN A   1      19.525  -4.271  11.585  0.00  0.00     0.148 C 
BRANCH  30  31
ATOM     31  C25 ZIN A   1      19.440  -4.912  10.198  0.00  0.00     0.186 C 
BRANCH  31  32
ATOM     32  O26 ZIN A   1      18.080  -4.924   9.761  0.00  0.00    -0.394 OA
ATOM     33  C27 ZIN A   1      17.375  -6.124  10.088  0.00  0.00     0.201 C 
ENDBRANCH  31  32
ENDBRANCH  30  31
ENDBRANCH  28  30
ENDBRANCH  25  26
ENDBRANCH  20  25
ENDBRANCH  19  20
ENDBRANCH  18  19
ENDBRANCH   1  18
BRANCH   1  34
ATOM     34  C28 ZIN A   1      18.641   2.818  10.156  0.00  0.00     0.385 C 
BRANCH  34  35
ATOM     35  C29 ZIN A   1      17.671   3.962  10.305  0.00  0.00     0.202 C 
ATOM     36  O30 ZIN A   1      16.783   3.901  11.138  0.00  0.00    -0.647 OA
ATOM     37  O31 ZIN A   1      17.774   4.946   9.593  0.00  0.00    -0.647 OA
ENDBRANCH  34  35
ENDBRANCH   1  34
TORSDOF 22
ENDMDL
MODEL 5
REMARK VINA RESULT:      -5.7      2.357      8.341
REMARK  22 active torsions:
REMARK  status: ('A' for Active; 'I' for Inactive)
REMARK    1  A    between atoms: O2_2  and  C3_3 
REMARK    2  A    between atoms: C3_3  and  C4_4 
REMARK    3  A    between atoms: C4_4  and  N5_5 
REMARK       I    between atoms: N5_5  and  C6_6 
REMARK    4  A    between atoms: C6_6  and  C8_8 
REMARK    5  A    between atoms: C8_8  and  N9_9 
REMARK    6  A    between atoms: N9_9  and  C10_10 
REMARK    7  A    between atoms: N9_9  and  C32_32 
REMARK    8  A    between atoms: C10_10  and  C11_11 
REMARK    9  A    between atoms: C11_11  and  N12_12 
REMARK   10  A    between atoms: N12_12  and  C13_13 
REMARK   11  A    between atoms: N12_12  and  C28_28 
REMARK   12  A    between atoms: C13_13  and  C14_14 
REMARK   13  A    between atoms: C14_14  and  N15_15 
REMARK   14  A    between atoms: N15_15  and  C16_16 
REMARK   15  A    between atoms: N15_15  and  C20_20 
REMARK   16  A    between atoms: C16_16  and  C17_17 
REMARK   17  A    between atoms: C20_20  and  C21_21 
REMARK       I    between atoms: C21_21  and  N23_23 
REMARK   18  A    between atoms: N23_23  and  C24_24 
REMARK   19  A    between atoms: C24_24  and  C25_25 
REMARK   20  A    between atoms: C25_25  and  O26_26 
REMARK   21  A    between atoms: C28_28  and  C29_29 
REMARK   22  A    between atoms: C32_32  and  C33_33 
ROOT
ATOM      1  N12 ZIN A   1      19.175  -0.728   7.210  0.00  0.00     0.102 N 
ENDROOT
BRANCH   1   2
ATOM      2  C11 ZIN A   1      18.775   0.576   7.755  0.00  0.00     0.303 C 
BRANCH   2   3
ATOM      3  C10 ZIN A   1      19.619   0.893   8.991  0.00  0.00     0.303 C 
BRANCH   3   4
ATOM      4  N9  ZIN A   1      18.776   1.540  10.006  0.00  0.00     0.108 N 
BRANCH   4   5
ATOM      5  C8  ZIN A   1      17.440   0.932  10.045  0.00  0.00     0.375 C 
BRANCH   5   6
ATOM      6  C6  ZIN A   1      17.159   0.428  11.436  0.00  0.00     0.246 C 
ATOM      7  N5  ZIN A   1      18.098   0.540  12.397  0.00  0.00    -0.358 N 
ATOM      8  H43 ZIN A   1      18.954   0.946  12.192  0.00  0.00     0.162 HD
ATOM      9  O7  ZIN A   1      16.087  -0.079  11.693  0.00  0.00    -0.272 OA
BRANCH   7  10
ATOM     10  C4  ZIN A   1      17.824   0.051  13.750  0.00  0.00     0.148 C 
BRANCH  10  11
ATOM     11  C3  ZIN A   1      18.424  -1.347  13.919  0.00  0.00     0.186 C 
BRANCH  11  12
ATOM     12  O2  ZIN A   1      19.463  -1.303  14.898  0.00  0.00    -0.394 OA
ATOM     13  C1  ZIN A   1      18.998  -1.434  16.244  0.00  0.00     0.201 C 
ENDBRANCH  11  12
ENDBRANCH  10  11
ENDBRANCH   7  10
ENDBRANCH   5   6
ENDBRANCH   4   5
BRANCH   4  14
ATOM     14  C32 ZIN A   1      18.691   2.988   9.774  0.00  0.00     0.385 C 
BRANCH  14  15
ATOM     15  C33 ZIN A   1      18.827   3.716  11.086  0.00  0.00     0.202 C 
ATOM     16  O34 ZIN A   1      18.220   4.758  11.271  0.00  0.00    -0.647 OA
ATOM     17  O35 ZIN A   1      19.543   3.264  11.963  0.00  0.00    -0.647 OA
ENDBRANCH  14  15
ENDBRANCH   4  14
ENDBRANCH   3   4
ENDBRANCH   2   3
ENDBRANCH   1   2
BRANCH   1  18
ATOM     18  C13 ZIN A   1      19.210  -1.750   8.264  0.00  0.00     0.303 C 
BRANCH  18  19
ATOM     19  C14 ZIN A   1      17.972  -2.643   8.153  0.00  0.00     0.303 C 
BRANCH  19  20
ATOM     20  N15 ZIN A   1      18.130  -3.812   9.027  0.00  0.00     0.108 N 
BRANCH  20  21
ATOM     21  C16 ZIN A   1      18.337  -3.402  10.423  0.00  0.00     0.385 C 
BRANCH  21  22
ATOM     22  C17 ZIN A   1      19.660  -3.933  10.912  0.00  0.00     0.202 C 
ATOM     23  O18 ZIN A   1      20.343  -3.265  11.669  0.00  0.00    -0.647 OA
ATOM     24  O19 ZIN A   1      20.047  -5.031  10.551  0.00  0.00    -0.647 OA
ENDBRANCH  21  22
ENDBRANCH  20  21
BRANCH  20  25
ATOM     25  C20 ZIN A   1      16.980  -4.717   8.909  0.00  0.00     0.375 C 
BRANCH  25  26
ATOM     26  C21 ZIN A   1      17.133  -5.565   7.672  0.00  0.00     0.246 C 
ATOM     27  O22 ZIN A   1      17.968  -6.446   7.641  0.00  0.00    -0.272 OA
ATOM     28  N23 ZIN A   1      16.344  -5.346   6.602  0.00  0.00    -0.358 N 
ATOM     29  H58 ZIN A   1      15.677  -4.642   6.629  0.00  0.00     0.162 HD
BRANCH  28  30
ATOM     30  C24 ZIN A   1      16.493  -6.171   5.401  0.00  0.00     0.148 C 
BRANCH  30  31
ATOM     31  C25 ZIN A   1      17.483  -5.503   4.444  0.00  0.00     0.186 C 
BRANCH  31  32
ATOM     32  O26 ZIN A   1      17.266  -4.091   4.442  0.00  0.00    -0.394 OA
ATOM     33  C27 ZIN A   1      16.454  -3.629   3.360  0.00  0.00     0.201 C 
ENDBRANCH  31  32
ENDBRANCH  30  31
ENDBRANCH  28  30
ENDBRANCH  25  26
ENDBRANCH  20  25
ENDBRANCH  19  20
ENDBRANCH  18  19
ENDBRANCH   1  18
BRANCH   1  34
ATOM     34  C28 ZIN A   1      18.288  -1.135   6.112  0.00  0.00     0.385 C 
BRANCH  34  35
ATOM     35  C29 ZIN A   1      18.971  -0.882   4.793  0.00  0.00     0.202 C 
ATOM     36  O30 ZIN A   1      19.756  -1.702   4.348  0.00  0.00    -0.647 OA
ATOM     37  O31 ZIN A   1      18.740   0.141   4.173  0.00  0.00    -0.647 OA
ENDBRANCH  34  35
ENDBRANCH   1  34
TORSDOF 22
ENDMDL
MODEL 6
REMARK VINA RESULT:      -5.6      2.774      6.672
REMARK  22 active torsions:
REMARK  status: ('A' for Active; 'I' for Inactive)
REMARK    1  A    between atoms: O2_2  and  C3_3 
REMARK    2  A    between atoms: C3_3  and  C4_4 
REMARK    3  A    between atoms: C4_4  and  N5_5 
REMARK       I    between atoms: N5_5  and  C6_6 
REMARK    4  A    between atoms: C6_6  and  C8_8 
REMARK    5  A    between atoms: C8_8  and  N9_9 
REMARK    6  A    between atoms: N9_9  and  C10_10 
REMARK    7  A    between atoms: N9_9  and  C32_32 
REMARK    8  A    between atoms: C10_10  and  C11_11 
REMARK    9  A    between atoms: C11_11  and  N12_12 
REMARK   10  A    between atoms: N12_12  and  C13_13 
REMARK   11  A    between atoms: N12_12  and  C28_28 
REMARK   12  A    between atoms: C13_13  and  C14_14 
REMARK   13  A    between atoms: C14_14  and  N15_15 
REMARK   14  A    between atoms: N15_15  and  C16_16 
REMARK   15  A    between atoms: N15_15  and  C20_20 
REMARK   16  A    between atoms: C16_16  and  C17_17 
REMARK   17  A    between atoms: C20_20  and  C21_21 
REMARK       I    between atoms: C21_21  and  N23_23 
REMARK   18  A    between atoms: N23_23  and  C24_24 
REMARK   19  A    between atoms: C24_24  and  C25_25 
REMARK   20  A    between atoms: C25_25  and  O26_26 
REMARK   21  A    between atoms: C28_28  and  C29_29 
REMARK   22  A    between atoms: C32_32  and  C33_33 
ROOT
ATOM      1  N12 ZIN A   1      18.971   1.407  16.171  0.00  0.00     0.102 N 
ENDROOT
BRANCH   1   2
ATOM      2  C11 ZIN A   1      18.989   1.547  14.709  0.00  0.00     0.303 C 
BRANCH   2   3
ATOM      3  C10 ZIN A   1      19.802   0.404  14.096  0.00  0.00     0.303 C 
BRANCH   3   4
ATOM      4  N9  ZIN A   1      19.028  -0.223  13.016  0.00  0.00     0.108 N 
BRANCH   4   5
ATOM      5  C8  ZIN A   1      17.678   0.348  12.936  0.00  0.00     0.375 C 
BRANCH   5   6
ATOM      6  C6  ZIN A   1      17.211   0.336  11.504  0.00  0.00     0.246 C 
ATOM      7  N5  ZIN A   1      18.083   0.594  10.508  0.00  0.00    -0.358 N 
ATOM      8  H43 ZIN A   1      19.011   0.788  10.715  0.00  0.00     0.162 HD
ATOM      9  O7  ZIN A   1      16.051   0.092  11.245  0.00  0.00    -0.272 OA
BRANCH   7  10
ATOM     10  C4  ZIN A   1      17.630   0.581   9.116  0.00  0.00     0.148 C 
BRANCH  10  11
ATOM     11  C3  ZIN A   1      18.831   0.771   8.187  0.00  0.00     0.186 C 
BRANCH  11  12
ATOM     12  O2  ZIN A   1      19.083  -0.445   7.480  0.00  0.00    -0.394 OA
ATOM     13  C1  ZIN A   1      18.176  -1.502   7.801  0.00  0.00     0.201 C 
ENDBRANCH  11  12
ENDBRANCH  10  11
ENDBRANCH   7  10
ENDBRANCH   5   6
ENDBRANCH   4   5
BRANCH   4  14
ATOM     14  C32 ZIN A   1      18.976  -1.681  13.183  0.00  0.00     0.385 C 
BRANCH  14  15
ATOM     15  C33 ZIN A   1      19.622  -2.347  11.996  0.00  0.00     0.202 C 
ATOM     16  O34 ZIN A   1      19.747  -3.560  11.971  0.00  0.00    -0.647 OA
ATOM     17  O35 ZIN A   1      20.020  -1.673  11.061  0.00  0.00    -0.647 OA
ENDBRANCH  14  15
ENDBRANCH   4  14
ENDBRANCH   3   4
ENDBRANCH   2   3
ENDBRANCH   1   2
BRANCH   1  18
ATOM     18  C13 ZIN A   1      18.299   2.551  16.800  0.00  0.00     0.303 C 
BRANCH  18  19
ATOM     19  C14 ZIN A   1      19.333   3.626  17.141  0.00  0.00     0.303 C 
BRANCH  19  20
ATOM     20  N15 ZIN A   1      18.925   4.906  16.545  0.00  0.00     0.108 N 
BRANCH  20  21
ATOM     21  C16 ZIN A   1      18.038   5.649  17.450  0.00  0.00     0.385 C 
BRANCH  21  22
ATOM     22  C17 ZIN A   1      16.845   6.155  16.680  0.00  0.00     0.202 C 
ATOM     23  O18 ZIN A   1      16.167   7.063  17.132  0.00  0.00    -0.647 OA
ATOM     24  O19 ZIN A   1      16.557   5.658  15.605  0.00  0.00    -0.647 OA
ENDBRANCH  21  22
ENDBRANCH  20  21
BRANCH  20  25
ATOM     25  C20 ZIN A   1      20.096   5.711  16.175  0.00  0.00     0.375 C 
BRANCH  25  26
ATOM     26  C21 ZIN A   1      20.164   5.839  14.675  0.00  0.00     0.246 C 
ATOM     27  O22 ZIN A   1      20.550   6.874  14.173  0.00  0.00    -0.272 OA
ATOM     28  N23 ZIN A   1      19.797   4.806  13.892  0.00  0.00    -0.358 N 
ATOM     29  H58 ZIN A   1      19.489   3.979  14.295  0.00  0.00     0.162 HD
BRANCH  28  30
ATOM     30  C24 ZIN A   1      19.864   4.931  12.434  0.00  0.00     0.148 C 
BRANCH  30  31
ATOM     31  C25 ZIN A   1      19.946   3.538  11.806  0.00  0.00     0.186 C 
BRANCH  31  32
ATOM     32  O26 ZIN A   1      18.957   3.417  10.783  0.00  0.00    -0.394 OA
ATOM     33  C27 ZIN A   1      17.777   4.188  11.022  0.00  0.00     0.201 C 
ENDBRANCH  31  32
ENDBRANCH  30  31
ENDBRANCH  28  30
ENDBRANCH  25  26
ENDBRANCH  20  25
ENDBRANCH  19  20
ENDBRANCH  18  19
ENDBRANCH   1  18
BRANCH   1  34
ATOM     34  C28 ZIN A   1      18.343   0.142  16.572  0.00  0.00     0.385 C 
BRANCH  34  35
ATOM     35  C29 ZIN A   1      19.265  -0.607  17.499  0.00  0.00     0.202 C 
ATOM     36  O30 ZIN A   1      19.679  -0.068  18.512  0.00  0.00    -0.647 OA
ATOM     37  O31 ZIN A   1      19.599  -1.749  17.236  0.00  0.00    -0.647 OA
ENDBRANCH  34  35
ENDBRANCH   1  34
TORSDOF 22
ENDMDL
MODEL 7
REMARK VINA RESULT:      -5.6      2.404      4.702
REMARK  22 active torsions:
REMARK  status: ('A' for Active; 'I' for Inactive)
REMARK    1  A    between atoms: O2_2  and  C3_3 
REMARK    2  A    between atoms: C3_3  and  C4_4 
REMARK    3  A    between atoms: C4_4  and  N5_5 
REMARK       I    between atoms: N5_5  and  C6_6 
REMARK    4  A    between atoms: C6_6  and  C8_8 
REMARK    5  A    between atoms: C8_8  and  N9_9 
REMARK    6  A    between atoms: N9_9  and  C10_10 
REMARK    7  A    between atoms: N9_9  and  C32_32 
REMARK    8  A    between atoms: C10_10  and  C11_11 
REMARK    9  A    between atoms: C11_11  and  N12_12 
REMARK   10  A    between atoms: N12_12  and  C13_13 
REMARK   11  A    between atoms: N12_12  and  C28_28 
REMARK   12  A    between atoms: C13_13  and  C14_14 
REMARK   13  A    between atoms: C14_14  and  N15_15 
REMARK   14  A    between atoms: N15_15  and  C16_16 
REMARK   15  A    between atoms: N15_15  and  C20_20 
REMARK   16  A    between atoms: C16_16  and  C17_17 
REMARK   17  A    between atoms: C20_20  and  C21_21 
REMARK       I    between atoms: C21_21  and  N23_23 
REMARK   18  A    between atoms: N23_23  and  C24_24 
REMARK   19  A    between atoms: C24_24  and  C25_25 
REMARK   20  A    between atoms: C25_25  and  O26_26 
REMARK   21  A    between atoms: C28_28  and  C29_29 
REMARK   22  A    between atoms: C32_32  and  C33_33 
ROOT
ATOM      1  N12 ZIN A   1      17.814   2.720  11.806  0.00  0.00     0.102 N 
ENDROOT
BRANCH   1   2
ATOM      2  C11 ZIN A   1      17.857   1.380  11.206  0.00  0.00     0.303 C 
BRANCH   2   3
ATOM      3  C10 ZIN A   1      19.284   0.831  11.286  0.00  0.00     0.303 C 
BRANCH   3   4
ATOM      4  N9  ZIN A   1      19.402  -0.353  10.424  0.00  0.00     0.108 N 
BRANCH   4   5
ATOM      5  C8  ZIN A   1      20.289  -1.356  11.026  0.00  0.00     0.375 C 
BRANCH   5   6
ATOM      6  C6  ZIN A   1      19.633  -2.710  10.962  0.00  0.00     0.246 C 
ATOM      7  N5  ZIN A   1      19.372  -3.277   9.767  0.00  0.00    -0.358 N 
ATOM      8  H43 ZIN A   1      19.608  -2.813   8.949  0.00  0.00     0.162 HD
ATOM      9  O7  ZIN A   1      19.339  -3.291  11.986  0.00  0.00    -0.272 OA
BRANCH   7  10
ATOM     10  C4  ZIN A   1      18.735  -4.595   9.705  0.00  0.00     0.148 C 
BRANCH  10  11
ATOM     11  C3  ZIN A   1      19.777  -5.648   9.322  0.00  0.00     0.186 C 
BRANCH  11  12
ATOM     12  O2  ZIN A   1      19.481  -6.160   8.022  0.00  0.00    -0.394 OA
ATOM     13  C1  ZIN A   1      20.030  -5.386   6.953  0.00  0.00     0.201 C 
ENDBRANCH  11  12
ENDBRANCH  10  11
ENDBRANCH   7  10
ENDBRANCH   5   6
ENDBRANCH   4   5
BRANCH   4  14
ATOM     14  C32 ZIN A   1      19.862   0.019   9.079  0.00  0.00     0.385 C 
BRANCH  14  15
ATOM     15  C33 ZIN A   1      18.753  -0.215   8.086  0.00  0.00     0.202 C 
ATOM     16  O34 ZIN A   1      18.243  -1.319   7.989  0.00  0.00    -0.647 OA
ATOM     17  O35 ZIN A   1      18.365   0.700   7.379  0.00  0.00    -0.647 OA
ENDBRANCH  14  15
ENDBRANCH   4  14
ENDBRANCH   3   4
ENDBRANCH   2   3
ENDBRANCH   1   2
BRANCH   1  18
ATOM     18  C13 ZIN A   1      18.507   2.740  13.100  0.00  0.00     0.303 C 
BRANCH  18  19
ATOM     19  C14 ZIN A   1      19.189   4.095  13.294  0.00  0.00     0.303 C 
BRANCH  19  20
ATOM     20  N15 ZIN A   1      19.282   4.397  14.729  0.00  0.00     0.108 N 
BRANCH  20  21
ATOM     21  C16 ZIN A   1      19.248   5.847  14.965  0.00  0.00     0.385 C 
BRANCH  21  22
ATOM     22  C17 ZIN A   1      20.650   6.396  14.916  0.00  0.00     0.202 C 
ATOM     23  O18 ZIN A   1      20.916   7.326  14.172  0.00  0.00    -0.647 OA
ATOM     24  O19 ZIN A   1      21.520   5.913  15.620  0.00  0.00    -0.647 OA
ENDBRANCH  21  22
ENDBRANCH  20  21
BRANCH  20  25
ATOM     25  C20 ZIN A   1      18.220   3.716  15.480  0.00  0.00     0.375 C 
BRANCH  25  26
ATOM     26  C21 ZIN A   1      18.814   3.034  16.685  0.00  0.00     0.246 C 
ATOM     27  O22 ZIN A   1      19.921   3.345  17.073  0.00  0.00    -0.272 OA
ATOM     28  N23 ZIN A   1      18.117   2.079  17.332  0.00  0.00    -0.358 N 
ATOM     29  H58 ZIN A   1      17.232   1.831  17.022  0.00  0.00     0.162 HD
BRANCH  28  30
ATOM     30  C24 ZIN A   1      18.696   1.417  18.504  0.00  0.00     0.148 C 
BRANCH  30  31
ATOM     31  C25 ZIN A   1      19.386   0.122  18.068  0.00  0.00     0.186 C 
BRANCH  31  32
ATOM     32  O26 ZIN A   1      18.433  -0.737  17.441  0.00  0.00    -0.394 OA
ATOM     33  C27 ZIN A   1      18.873  -1.281  16.194  0.00  0.00     0.201 C 
ENDBRANCH  31  32
ENDBRANCH  30  31
ENDBRANCH  28  30
ENDBRANCH  25  26
ENDBRANCH  20  25
ENDBRANCH  19  20
ENDBRANCH  18  19
ENDBRANCH   1  18
BRANCH   1  34
ATOM     34  C28 ZIN A   1      18.374   3.725  10.893  0.00  0.00     0.385 C 
BRANCH  34  35
ATOM     35  C29 ZIN A   1      17.292   4.689  10.479  0.00  0.00     0.202 C 
ATOM     36  O30 ZIN A   1      16.211   4.668  11.043  0.00  0.00    -0.647 OA
ATOM     37  O31 ZIN A   1      17.497   5.486   9.581  0.00  0.00    -0.647 OA
ENDBRANCH  34  35
ENDBRANCH   1  34
TORSDOF 22
ENDMDL
MODEL 8
REMARK VINA RESULT:      -5.6      2.053      9.120
REMARK  22 active torsions:
REMARK  status: ('A' for Active; 'I' for Inactive)
REMARK    1  A    between atoms: O2_2  and  C3_3 
REMARK    2  A    between atoms: C3_3  and  C4_4 
REMARK    3  A    between atoms: C4_4  and  N5_5 
REMARK       I    between atoms: N5_5  and  C6_6 
REMARK    4  A    between atoms: C6_6  and  C8_8 
REMARK    5  A    between atoms: C8_8  and  N9_9 
REMARK    6  A    between atoms: N9_9  and  C10_10 
REMARK    7  A    between atoms: N9_9  and  C32_32 
REMARK    8  A    between atoms: C10_10  and  C11_11 
REMARK    9  A    between atoms: C11_11  and  N12_12 
REMARK   10  A    between atoms: N12_12  and  C13_13 
REMARK   11  A    between atoms: N12_12  and  C28_28 
REMARK   12  A    between atoms: C13_13  and  C14_14 
REMARK   13  A    between atoms: C14_14  and  N15_15 
REMARK   14  A    between atoms: N15_15  and  C16_16 
REMARK   15  A    between atoms: N15_15  and  C20_20 
REMARK   16  A    between atoms: C16_16  and  C17_17 
REMARK   17  A    between atoms: C20_20  and  C21_21 
REMARK       I    between atoms: C21_21  and  N23_23 
REMARK   18  A    between atoms: N23_23  and  C24_24 
REMARK   19  A    between atoms: C24_24  and  C25_25 
REMARK   20  A    between atoms: C25_25  and  O26_26 
REMARK   21  A    between atoms: C28_28  and  C29_29 
REMARK   22  A    between atoms: C32_32  and  C33_33 
ROOT
ATOM      1  N12 ZIN A   1      19.159  -0.326   7.510  0.00  0.00     0.102 N 
ENDROOT
BRANCH   1   2
ATOM      2  C11 ZIN A   1      18.673   0.750   8.384  0.00  0.00     0.303 C 
BRANCH   2   3
ATOM      3  C10 ZIN A   1      19.465   0.742   9.693  0.00  0.00     0.303 C 
BRANCH   3   4
ATOM      4  N9  ZIN A   1      18.599   1.192  10.791  0.00  0.00     0.108 N 
BRANCH   4   5
ATOM      5  C8  ZIN A   1      19.097   2.445  11.374  0.00  0.00     0.375 C 
BRANCH   5   6
ATOM      6  C6  ZIN A   1      17.961   3.426  11.500  0.00  0.00     0.246 C 
ATOM      7  N5  ZIN A   1      18.058   4.465  12.354  0.00  0.00    -0.358 N 
ATOM      8  H43 ZIN A   1      18.860   4.579  12.887  0.00  0.00     0.162 HD
ATOM      9  O7  ZIN A   1      16.958   3.283  10.831  0.00  0.00    -0.272 OA
BRANCH   7  10
ATOM     10  C4  ZIN A   1      16.954   5.420  12.475  0.00  0.00     0.148 C 
BRANCH  10  11
ATOM     11  C3  ZIN A   1      16.367   5.345  13.886  0.00  0.00     0.186 C 
BRANCH  11  12
ATOM     12  O2  ZIN A   1      17.319   5.848  14.825  0.00  0.00    -0.394 OA
ATOM     13  C1  ZIN A   1      16.859   5.845  16.178  0.00  0.00     0.201 C 
ENDBRANCH  11  12
ENDBRANCH  10  11
ENDBRANCH   7  10
ENDBRANCH   5   6
ENDBRANCH   4   5
BRANCH   4  14
ATOM     14  C32 ZIN A   1      18.467   0.149  11.818  0.00  0.00     0.385 C 
BRANCH  14  15
ATOM     15  C33 ZIN A   1      17.149  -0.561  11.645  0.00  0.00     0.202 C 
ATOM     16  O34 ZIN A   1      17.089  -1.773  11.761  0.00  0.00    -0.647 OA
ATOM     17  O35 ZIN A   1      16.141   0.078  11.388  0.00  0.00    -0.647 OA
ENDBRANCH  14  15
ENDBRANCH   4  14
ENDBRANCH   3   4
ENDBRANCH   2   3
ENDBRANCH   1   2
BRANCH   1  18
ATOM     18  C13 ZIN A   1      19.319  -1.580   8.260  0.00  0.00     0.303 C 
BRANCH  18  19
ATOM     19  C14 ZIN A   1      17.954  -2.249   8.431  0.00  0.00     0.303 C 
BRANCH  19  20
ATOM     20  N15 ZIN A   1      18.059  -3.673   8.085  0.00  0.00     0.108 N 
BRANCH  20  21
ATOM     21  C16 ZIN A   1      19.253  -3.930   7.269  0.00  0.00     0.385 C 
BRANCH  21  22
ATOM     22  C17 ZIN A   1      19.089  -5.237   6.537  0.00  0.00     0.202 C 
ATOM     23  O18 ZIN A   1      18.094  -5.436   5.860  0.00  0.00    -0.647 OA
ATOM     24  O19 ZIN A   1      19.951  -6.095   6.619  0.00  0.00    -0.647 OA
ENDBRANCH  21  22
ENDBRANCH  20  21
BRANCH  20  25
ATOM     25  C20 ZIN A   1      18.054  -4.510   9.291  0.00  0.00     0.375 C 
BRANCH  25  26
ATOM     26  C21 ZIN A   1      16.856  -5.423   9.265  0.00  0.00     0.246 C 
ATOM     27  O22 ZIN A   1      16.766  -6.328  10.069  0.00  0.00    -0.272 OA
ATOM     28  N23 ZIN A   1      15.884  -5.236   8.351  0.00  0.00    -0.358 N 
ATOM     29  H58 ZIN A   1      15.956  -4.512   7.709  0.00  0.00     0.162 HD
BRANCH  28  30
ATOM     30  C24 ZIN A   1      14.719  -6.123   8.327  0.00  0.00     0.148 C 
BRANCH  30  31
ATOM     31  C25 ZIN A   1      14.830  -7.077   7.135  0.00  0.00     0.186 C 
BRANCH  31  32
ATOM     32  O26 ZIN A   1      13.905  -6.681   6.121  0.00  0.00    -0.394 OA
ATOM     33  C27 ZIN A   1      14.517  -6.084   4.976  0.00  0.00     0.201 C 
ENDBRANCH  31  32
ENDBRANCH  30  31
ENDBRANCH  28  30
ENDBRANCH  25  26
ENDBRANCH  20  25
ENDBRANCH  19  20
ENDBRANCH  18  19
ENDBRANCH   1  18
BRANCH   1  34
ATOM     34  C28 ZIN A   1      18.269  -0.512   6.357  0.00  0.00     0.385 C 
BRANCH  34  35
ATOM     35  C29 ZIN A   1      19.084  -0.519   5.089  0.00  0.00     0.202 C 
ATOM     36  O30 ZIN A   1      19.784  -1.481   4.821  0.00  0.00    -0.647 OA
ATOM     37  O31 ZIN A   1      19.043   0.435   4.333  0.00  0.00    -0.647 OA
ENDBRANCH  34  35
ENDBRANCH   1  34
TORSDOF 22
ENDMDL
MODEL 9
REMARK VINA RESULT:      -5.4      2.485      9.405
REMARK  22 active torsions:
REMARK  status: ('A' for Active; 'I' for Inactive)
REMARK    1  A    between atoms: O2_2  and  C3_3 
REMARK    2  A    between atoms: C3_3  and  C4_4 
REMARK    3  A    between atoms: C4_4  and  N5_5 
REMARK       I    between atoms: N5_5  and  C6_6 
REMARK    4  A    between atoms: C6_6  and  C8_8 
REMARK    5  A    between atoms: C8_8  and  N9_9 
REMARK    6  A    between atoms: N9_9  and  C10_10 
REMARK    7  A    between atoms: N9_9  and  C32_32 
REMARK    8  A    between atoms: C10_10  and  C11_11 
REMARK    9  A    between atoms: C11_11  and  N12_12 
REMARK   10  A    between atoms: N12_12  and  C13_13 
REMARK   11  A    between atoms: N12_12  and  C28_28 
REMARK   12  A    between atoms: C13_13  and  C14_14 
REMARK   13  A    between atoms: C14_14  and  N15_15 
REMARK   14  A    between atoms: N15_15  and  C16_16 
REMARK   15  A    between atoms: N15_15  and  C20_20 
REMARK   16  A    between atoms: C16_16  and  C17_17 
REMARK   17  A    between atoms: C20_20  and  C21_21 
REMARK       I    between atoms: C21_21  and  N23_23 
REMARK   18  A    between atoms: N23_23  and  C24_24 
REMARK   19  A    between atoms: C24_24  and  C25_25 
REMARK   20  A    between atoms: C25_25  and  O26_26 
REMARK   21  A    between atoms: C28_28  and  C29_29 
REMARK   22  A    between atoms: C32_32  and  C33_33 
ROOT
ATOM      1  N12 ZIN A   1      18.249  -2.968  10.959  0.00  0.00     0.102 N 
ENDROOT
BRANCH   1   2
ATOM      2  C11 ZIN A   1      18.269  -1.869  11.933  0.00  0.00     0.303 C 
BRANCH   2   3
ATOM      3  C10 ZIN A   1      18.731  -0.584  11.243  0.00  0.00     0.303 C 
BRANCH   3   4
ATOM      4  N9  ZIN A   1      18.356   0.575  12.064  0.00  0.00     0.108 N 
BRANCH   4   5
ATOM      5  C8  ZIN A   1      17.460   0.177  13.157  0.00  0.00     0.375 C 
BRANCH   5   6
ATOM      6  C6  ZIN A   1      17.865   0.887  14.422  0.00  0.00     0.246 C 
ATOM      7  N5  ZIN A   1      17.493   0.395  15.621  0.00  0.00    -0.358 N 
ATOM      8  H43 ZIN A   1      16.963  -0.416  15.668  0.00  0.00     0.162 HD
ATOM      9  O7  ZIN A   1      18.529   1.902  14.363  0.00  0.00    -0.272 OA
BRANCH   7  10
ATOM     10  C4  ZIN A   1      17.888   1.084  16.851  0.00  0.00     0.148 C 
BRANCH  10  11
ATOM     11  C3  ZIN A   1      18.974   0.274  17.563  0.00  0.00     0.186 C 
BRANCH  11  12
ATOM     12  O2  ZIN A   1      19.798   1.154  18.330  0.00  0.00    -0.394 OA
ATOM     13  C1  ZIN A   1      19.186   2.411  18.628  0.00  0.00     0.201 C 
ENDBRANCH  11  12
ENDBRANCH  10  11
ENDBRANCH   7  10
ENDBRANCH   5   6
ENDBRANCH   4   5
BRANCH   4  14
ATOM     14  C32 ZIN A   1      17.747   1.628  11.239  0.00  0.00     0.385 C 
BRANCH  14  15
ATOM     15  C33 ZIN A   1      18.831   2.452  10.595  0.00  0.00     0.202 C 
ATOM     16  O34 ZIN A   1      19.647   3.037  11.289  0.00  0.00    -0.647 OA
ATOM     17  O35 ZIN A   1      18.893   2.535   9.380  0.00  0.00    -0.647 OA
ENDBRANCH  14  15
ENDBRANCH   4  14
ENDBRANCH   3   4
ENDBRANCH   2   3
ENDBRANCH   1   2
BRANCH   1  18
ATOM     18  C13 ZIN A   1      19.134  -2.681   9.823  0.00  0.00     0.303 C 
BRANCH  18  19
ATOM     19  C14 ZIN A   1      18.614  -3.399   8.576  0.00  0.00     0.303 C 
BRANCH  19  20
ATOM     20  N15 ZIN A   1      19.539  -3.170   7.457  0.00  0.00     0.108 N 
BRANCH  20  21
ATOM     21  C16 ZIN A   1      19.354  -4.179   6.406  0.00  0.00     0.385 C 
BRANCH  21  22
ATOM     22  C17 ZIN A   1      19.878  -5.507   6.889  0.00  0.00     0.202 C 
ATOM     23  O18 ZIN A   1      21.006  -5.588   7.347  0.00  0.00    -0.647 OA
ATOM     24  O19 ZIN A   1      19.176  -6.501   6.822  0.00  0.00    -0.647 OA
ENDBRANCH  21  22
ENDBRANCH  20  21
BRANCH  20  25
ATOM     25  C20 ZIN A   1      19.385  -1.813   6.917  0.00  0.00     0.375 C 
BRANCH  25  26
ATOM     26  C21 ZIN A   1      18.862  -1.890   5.505  0.00  0.00     0.246 C 
ATOM     27  O22 ZIN A   1      19.628  -1.784   4.570  0.00  0.00    -0.272 OA
ATOM     28  N23 ZIN A   1      17.547  -2.075   5.281  0.00  0.00    -0.358 N 
ATOM     29  H58 ZIN A   1      16.936  -2.159   6.030  0.00  0.00     0.162 HD
BRANCH  28  30
ATOM     30  C24 ZIN A   1      17.040  -2.150   3.909  0.00  0.00     0.148 C 
BRANCH  30  31
ATOM     31  C25 ZIN A   1      16.857  -3.617   3.513  0.00  0.00     0.186 C 
BRANCH  31  32
ATOM     32  O26 ZIN A   1      15.480  -3.975   3.636  0.00  0.00    -0.394 OA
ATOM     33  C27 ZIN A   1      15.088  -5.073   2.808  0.00  0.00     0.201 C 
ENDBRANCH  31  32
ENDBRANCH  30  31
ENDBRANCH  28  30
ENDBRANCH  25  26
ENDBRANCH  20  25
ENDBRANCH  19  20
ENDBRANCH  18  19
ENDBRANCH   1  18
BRANCH   1  34
ATOM     34  C28 ZIN A   1      18.605  -4.243  11.595  0.00  0.00     0.385 C 
BRANCH  34  35
ATOM     35  C29 ZIN A   1      17.357  -5.058  11.822  0.00  0.00     0.202 C 
ATOM     36  O30 ZIN A   1      17.320  -5.874  12.727  0.00  0.00    -0.647 OA
ATOM     37  O31 ZIN A   1      16.388  -4.902  11.101  0.00  0.00    -0.647 OA
ENDBRANCH  34  35
ENDBRANCH   1  34
TORSDOF 22
ENDMDL
