MODEL 1
REMARK VINA RESULT:      -5.2      0.000      0.000
REMARK  1 active torsions:
REMARK  status: ('A' for Active; 'I' for Inactive)
REMARK    1  A    between atoms: C7_7  and  C9_8 
ROOT
ATOM      1  C1  ZIN A   1      20.187  -0.283   9.877  0.00  0.00     0.270 C 
ATOM      2  N2  ZIN A   1      19.954   0.911  10.699  0.00  0.00    -0.067 N 
ATOM      3  H3  ZIN A   1      20.826   1.397  10.849  0.00  0.00     0.280 HD
ATOM      4  C4  ZIN A   1      19.377   0.514  12.001  0.00  0.00     0.235 C 
ATOM      5  C5  ZIN A   1      18.376   1.643  12.352  0.00  0.00     0.030 C 
ATOM      6  C6  ZIN A   1      17.790   1.986  10.956  0.00  0.00     0.040 C 
ATOM      7  C7  ZIN A   1      18.999   1.804  10.018  0.00  0.00     0.222 C 
ENDROOT
BRANCH   7   8
ATOM      8  C9  ZIN A   1      18.550   1.187   8.719  0.00  0.00    -0.010 A 
ATOM      9  C14 ZIN A   1      17.526   0.259   8.701  0.00  0.00     0.125 A 
ATOM     10  N13 ZIN A   1      17.125  -0.281   7.567  0.00  0.00    -0.273 NA
ATOM     11  C12 ZIN A   1      17.684   0.030   6.414  0.00  0.00     0.116 A 
ATOM     12  C11 ZIN A   1      18.717   0.947   6.355  0.00  0.00     0.020 A 
ATOM     13  C10 ZIN A   1      19.163   1.540   7.526  0.00  0.00     0.012 A 
ENDBRANCH   7   8
TORSDOF 1
ENDMDL
MODEL 2
REMARK VINA RESULT:      -5.2      1.633      4.399
REMARK  1 active torsions:
REMARK  status: ('A' for Active; 'I' for Inactive)
REMARK    1  A    between atoms: C7_7  and  C9_8 
ROOT
ATOM      1  C1  ZIN A   1      19.193  -1.807   8.056  0.00  0.00     0.270 C 
ATOM      2  N2  ZIN A   1      18.377  -1.755   6.836  0.00  0.00    -0.067 N 
ATOM      3  H3  ZIN A   1      17.719  -2.520   6.835  0.00  0.00     0.280 HD
ATOM      4  C4  ZIN A   1      19.252  -1.850   5.649  0.00  0.00     0.235 C 
ATOM      5  C5  ZIN A   1      18.593  -0.924   4.596  0.00  0.00     0.030 C 
ATOM      6  C6  ZIN A   1      18.077   0.240   5.483  0.00  0.00     0.040 C 
ATOM      7  C7  ZIN A   1      17.649  -0.474   6.779  0.00  0.00     0.222 C 
ENDROOT
BRANCH   7   8
ATOM      8  C9  ZIN A   1      18.003   0.375   7.973  0.00  0.00    -0.010 A 
ATOM      9  C14 ZIN A   1      17.377   0.170   9.188  0.00  0.00     0.125 A 
ATOM     10  N13 ZIN A   1      17.685   0.906  10.237  0.00  0.00    -0.273 NA
ATOM     11  C12 ZIN A   1      18.588   1.865  10.172  0.00  0.00     0.116 A 
ATOM     12  C11 ZIN A   1      19.252   2.130   8.989  0.00  0.00     0.020 A 
ATOM     13  C10 ZIN A   1      18.959   1.374   7.865  0.00  0.00     0.012 A 
ENDBRANCH   7   8
TORSDOF 1
ENDMDL
MODEL 3
REMARK VINA RESULT:      -5.1      1.509      1.842
REMARK  1 active torsions:
REMARK  status: ('A' for Active; 'I' for Inactive)
REMARK    1  A    between atoms: C7_7  and  C9_8 
ROOT
ATOM      1  C1  ZIN A   1      19.905   1.332  11.547  0.00  0.00     0.270 C 
ATOM      2  N2  ZIN A   1      19.602   2.764  11.661  0.00  0.00    -0.067 N 
ATOM      3  H3  ZIN A   1      20.461   3.292  11.701  0.00  0.00     0.280 HD
ATOM      4  C4  ZIN A   1      18.811   3.009  12.886  0.00  0.00     0.235 C 
ATOM      5  C5  ZIN A   1      17.820   4.136  12.500  0.00  0.00     0.030 C 
ATOM      6  C6  ZIN A   1      17.476   3.760  11.034  0.00  0.00     0.040 C 
ATOM      7  C7  ZIN A   1      18.807   3.198  10.498  0.00  0.00     0.222 C 
ENDROOT
BRANCH   7   8
ATOM      8  C9  ZIN A   1      18.539   2.027   9.589  0.00  0.00    -0.010 A 
ATOM      9  C14 ZIN A   1      17.562   1.102   9.908  0.00  0.00     0.125 A 
ATOM     10  N13 ZIN A   1      17.319   0.078   9.114  0.00  0.00    -0.273 NA
ATOM     11  C12 ZIN A   1      17.996  -0.112   7.999  0.00  0.00     0.116 A 
ATOM     12  C11 ZIN A   1      18.990   0.769   7.618  0.00  0.00     0.020 A 
ATOM     13  C10 ZIN A   1      19.272   1.861   8.423  0.00  0.00     0.012 A 
ENDBRANCH   7   8
TORSDOF 1
ENDMDL
MODEL 4
REMARK VINA RESULT:      -5.1      3.408      4.241
REMARK  1 active torsions:
REMARK  status: ('A' for Active; 'I' for Inactive)
REMARK    1  A    between atoms: C7_7  and  C9_8 
ROOT
ATOM      1  C1  ZIN A   1      20.434   0.644  12.362  0.00  0.00     0.270 C 
ATOM      2  N2  ZIN A   1      20.109   0.523  13.789  0.00  0.00    -0.067 N 
ATOM      3  H3  ZIN A   1      20.928   0.725  14.343  0.00  0.00     0.280 HD
ATOM      4  C4  ZIN A   1      19.640  -0.849  14.078  0.00  0.00     0.235 C 
ATOM      5  C5  ZIN A   1      18.538  -0.673  15.152  0.00  0.00     0.030 C 
ATOM      6  C6  ZIN A   1      17.854   0.640  14.685  0.00  0.00     0.040 C 
ATOM      7  C7  ZIN A   1      19.030   1.467  14.134  0.00  0.00     0.222 C 
ENDROOT
BRANCH   7   8
ATOM      8  C9  ZIN A   1      18.594   2.224  12.907  0.00  0.00    -0.010 A 
ATOM      9  C14 ZIN A   1      17.632   1.697  12.065  0.00  0.00     0.125 A 
ATOM     10  N13 ZIN A   1      17.241   2.356  10.992  0.00  0.00    -0.273 NA
ATOM     11  C12 ZIN A   1      17.752   3.530  10.674  0.00  0.00     0.116 A 
ATOM     12  C11 ZIN A   1      18.721   4.116  11.466  0.00  0.00     0.020 A 
ATOM     13  C10 ZIN A   1      19.154   3.456  12.605  0.00  0.00     0.012 A 
ENDBRANCH   7   8
TORSDOF 1
ENDMDL
MODEL 5
REMARK VINA RESULT:      -5.0      4.139      6.136
REMARK  1 active torsions:
REMARK  status: ('A' for Active; 'I' for Inactive)
REMARK    1  A    between atoms: C7_7  and  C9_8 
ROOT
ATOM      1  C1  ZIN A   1      19.033   1.890  15.155  0.00  0.00     0.270 C 
ATOM      2  N2  ZIN A   1      18.130   1.521  16.253  0.00  0.00    -0.067 N 
ATOM      3  H3  ZIN A   1      17.439   2.245  16.383  0.00  0.00     0.280 HD
ATOM      4  C4  ZIN A   1      18.907   1.345  17.498  0.00  0.00     0.235 C 
ATOM      5  C5  ZIN A   1      18.212   0.173  18.237  0.00  0.00     0.030 C 
ATOM      6  C6  ZIN A   1      17.819  -0.752  17.054  0.00  0.00     0.040 C 
ATOM      7  C7  ZIN A   1      17.459   0.246  15.937  0.00  0.00     0.222 C 
ENDROOT
BRANCH   7   8
ATOM      8  C9  ZIN A   1      17.941  -0.276  14.609  0.00  0.00    -0.010 A 
ATOM      9  C14 ZIN A   1      17.407   0.209  13.430  0.00  0.00     0.125 A 
ATOM     10  N13 ZIN A   1      17.827  -0.240  12.264  0.00  0.00    -0.273 NA
ATOM     11  C12 ZIN A   1      18.759  -1.168  12.173  0.00  0.00     0.116 A 
ATOM     12  C11 ZIN A   1      19.336  -1.703  13.309  0.00  0.00     0.020 A 
ATOM     13  C10 ZIN A   1      18.924  -1.253  14.553  0.00  0.00     0.012 A 
ENDBRANCH   7   8
TORSDOF 1
ENDMDL
MODEL 6
REMARK VINA RESULT:      -5.0      1.633      2.247
REMARK  1 active torsions:
REMARK  status: ('A' for Active; 'I' for Inactive)
REMARK    1  A    between atoms: C7_7  and  C9_8 
ROOT
ATOM      1  C1  ZIN A   1      17.407  -0.406   9.885  0.00  0.00     0.270 C 
ATOM      2  N2  ZIN A   1      18.385   0.638  10.218  0.00  0.00    -0.067 N 
ATOM      3  H3  ZIN A   1      18.920   0.357  11.027  0.00  0.00     0.280 HD
ATOM      4  C4  ZIN A   1      17.682   1.906  10.503  0.00  0.00     0.235 C 
ATOM      5  C5  ZIN A   1      18.609   3.010   9.936  0.00  0.00     0.030 C 
ATOM      6  C6  ZIN A   1      19.158   2.328   8.654  0.00  0.00     0.040 C 
ATOM      7  C7  ZIN A   1      19.291   0.852   9.075  0.00  0.00     0.222 C 
ENDROOT
BRANCH   7   8
ATOM      8  C9  ZIN A   1      18.899  -0.044   7.929  0.00  0.00    -0.010 A 
ATOM      9  C14 ZIN A   1      19.373  -1.341   7.861  0.00  0.00     0.125 A 
ATOM     10  N13 ZIN A   1      19.030  -2.132   6.864  0.00  0.00    -0.273 NA
ATOM     11  C12 ZIN A   1      18.235  -1.723   5.894  0.00  0.00     0.116 A 
ATOM     12  C11 ZIN A   1      17.726  -0.438   5.894  0.00  0.00     0.020 A 
ATOM     13  C10 ZIN A   1      18.060   0.422   6.928  0.00  0.00     0.012 A 
ENDBRANCH   7   8
TORSDOF 1
ENDMDL
MODEL 7
REMARK VINA RESULT:      -4.9      2.131      4.115
REMARK  1 active torsions:
REMARK  status: ('A' for Active; 'I' for Inactive)
REMARK    1  A    between atoms: C7_7  and  C9_8 
ROOT
ATOM      1  C1  ZIN A   1      19.626   1.209  11.131  0.00  0.00     0.270 C 
ATOM      2  N2  ZIN A   1      19.994   1.132   9.712  0.00  0.00    -0.067 N 
ATOM      3  H3  ZIN A   1      20.970   1.364   9.600  0.00  0.00     0.280 HD
ATOM      4  C4  ZIN A   1      19.166   2.076   8.932  0.00  0.00     0.235 C 
ATOM      5  C5  ZIN A   1      18.904   1.355   7.586  0.00  0.00     0.030 C 
ATOM      6  C6  ZIN A   1      18.741  -0.118   8.047  0.00  0.00     0.040 C 
ATOM      7  C7  ZIN A   1      19.747  -0.232   9.209  0.00  0.00     0.222 C 
ENDROOT
BRANCH   7   8
ATOM      8  C9  ZIN A   1      19.170  -1.090  10.304  0.00  0.00    -0.010 A 
ATOM      9  C14 ZIN A   1      17.806  -1.124  10.522  0.00  0.00     0.125 A 
ATOM     10  N13 ZIN A   1      17.294  -1.877  11.475  0.00  0.00    -0.273 NA
ATOM     11  C12 ZIN A   1      18.053  -2.616  12.260  0.00  0.00     0.116 A 
ATOM     12  C11 ZIN A   1      19.427  -2.630  12.103  0.00  0.00     0.020 A 
ATOM     13  C10 ZIN A   1      20.002  -1.855  11.108  0.00  0.00     0.012 A 
ENDBRANCH   7   8
TORSDOF 1
ENDMDL
MODEL 8
REMARK VINA RESULT:      -4.9      1.711      3.819
REMARK  1 active torsions:
REMARK  status: ('A' for Active; 'I' for Inactive)
REMARK    1  A    between atoms: C7_7  and  C9_8 
ROOT
ATOM      1  C1  ZIN A   1      19.955  -0.323  10.178  0.00  0.00     0.270 C 
ATOM      2  N2  ZIN A   1      19.028  -1.105   9.350  0.00  0.00    -0.067 N 
ATOM      3  H3  ZIN A   1      18.849  -1.996   9.788  0.00  0.00     0.280 HD
ATOM      4  C4  ZIN A   1      19.615  -1.318   8.010  0.00  0.00     0.235 C 
ATOM      5  C5  ZIN A   1      18.414  -1.252   7.035  0.00  0.00     0.030 C 
ATOM      6  C6  ZIN A   1      17.546  -0.140   7.683  0.00  0.00     0.040 C 
ATOM      7  C7  ZIN A   1      17.760  -0.368   9.192  0.00  0.00     0.222 C 
ENDROOT
BRANCH   7   8
ATOM      8  C9  ZIN A   1      17.841   0.958   9.903  0.00  0.00    -0.010 A 
ATOM      9  C14 ZIN A   1      17.306   1.107  11.169  0.00  0.00     0.125 A 
ATOM     10  N13 ZIN A   1      17.377   2.262  11.800  0.00  0.00    -0.273 NA
ATOM     11  C12 ZIN A   1      17.948   3.318  11.252  0.00  0.00     0.116 A 
ATOM     12  C11 ZIN A   1      18.501   3.245   9.988  0.00  0.00     0.020 A 
ATOM     13  C10 ZIN A   1      18.450   2.045   9.295  0.00  0.00     0.012 A 
ENDBRANCH   7   8
TORSDOF 1
ENDMDL
MODEL 9
REMARK VINA RESULT:      -4.9      2.696      3.609
REMARK  1 active torsions:
REMARK  status: ('A' for Active; 'I' for Inactive)
REMARK    1  A    between atoms: C7_7  and  C9_8 
ROOT
ATOM      1  C1  ZIN A   1      17.900  -0.895  10.860  0.00  0.00     0.270 C 
ATOM      2  N2  ZIN A   1      19.041  -1.184  11.739  0.00  0.00    -0.067 N 
ATOM      3  H3  ZIN A   1      19.702  -1.773  11.255  0.00  0.00     0.280 HD
ATOM      4  C4  ZIN A   1      18.567  -1.867  12.961  0.00  0.00     0.235 C 
ATOM      5  C5  ZIN A   1      19.470  -1.322  14.095  0.00  0.00     0.030 C 
ATOM      6  C6  ZIN A   1      19.646   0.161  13.670  0.00  0.00     0.040 C 
ATOM      7  C7  ZIN A   1      19.696   0.077  12.133  0.00  0.00     0.222 C 
ENDROOT
BRANCH   7   8
ATOM      8  C9  ZIN A   1      18.965   1.249  11.532  0.00  0.00    -0.010 A 
ATOM      9  C14 ZIN A   1      17.922   1.848  12.214  0.00  0.00     0.125 A 
ATOM     10  N13 ZIN A   1      17.281   2.877  11.697  0.00  0.00    -0.273 NA
ATOM     11  C12 ZIN A   1      17.597   3.370  10.515  0.00  0.00     0.116 A 
ATOM     12  C11 ZIN A   1      18.627   2.820   9.774  0.00  0.00     0.020 A 
ATOM     13  C10 ZIN A   1      19.327   1.740  10.287  0.00  0.00     0.012 A 
ENDBRANCH   7   8
TORSDOF 1
ENDMDL
