MODEL 1
REMARK VINA RESULT:     -10.1      0.000      0.000
REMARK  7 active torsions:
REMARK  status: ('A' for Active; 'I' for Inactive)
REMARK    1  A    between atoms: C2_2  and  C3_3 
REMARK       I    between atoms: N7_7  and  C8_8 
REMARK       I    between atoms: C8_8  and  N10_10 
REMARK    2  A    between atoms: N10_10  and  C11_11 
REMARK    3  A    between atoms: C11_11  and  C12_12 
REMARK    4  A    between atoms: C12_12  and  C13_13 
REMARK    5  A    between atoms: C16_16  and  S17_17 
REMARK    6  A    between atoms: S17_17  and  N20_20 
REMARK       I    between atoms: N20_20  and  C21_21 
REMARK       I    between atoms: C21_21  and  N23_23 
REMARK    7  A    between atoms: N23_23  and  C24_24 
ROOT
ATOM      1  C13 ZIN A   1      18.310   0.493   6.246  0.00  0.00    -0.057 A 
ATOM      2  C14 ZIN A   1      17.325  -0.194   6.931  0.00  0.00     0.009 A 
ATOM      3  C15 ZIN A   1      17.229  -0.076   8.306  0.00  0.00     0.026 A 
ATOM      4  C16 ZIN A   1      18.118   0.728   8.994  0.00  0.00     0.081 A 
ATOM      5  C31 ZIN A   1      19.103   1.414   8.310  0.00  0.00     0.026 A 
ATOM      6  C32 ZIN A   1      19.202   1.294   6.936  0.00  0.00     0.009 A 
ENDROOT
BRANCH   1   7
ATOM      7  C12 ZIN A   1      18.414   0.365   4.748  0.00  0.00     0.058 C 
BRANCH   7   8
ATOM      8  C11 ZIN A   1      19.340  -0.803   4.400  0.00  0.00     0.129 C 
BRANCH   8   9
ATOM      9  N10 ZIN A   1      18.579  -2.055   4.429  0.00  0.00    -0.342 N 
ATOM     10  C8  ZIN A   1      18.984  -3.070   5.217  0.00  0.00     0.325 C 
ATOM     11  N7  ZIN A   1      18.284  -4.222   5.245  0.00  0.00    -0.262 N 
ATOM     12  O9  ZIN A   1      19.980  -2.948   5.904  0.00  0.00    -0.247 OA
ATOM     13  C6  ZIN A   1      18.596  -5.411   6.047  0.00  0.00     0.171 A 
ATOM     14  C33 ZIN A   1      17.172  -4.497   4.537  0.00  0.00     0.258 A 
ATOM     15  C4  ZIN A   1      17.520  -6.421   5.725  0.00  0.00    -0.054 A 
ATOM     16  C3  ZIN A   1      16.704  -5.851   4.843  0.00  0.00     0.013 A 
ATOM     17  C5  ZIN A   1      17.394  -7.811   6.294  0.00  0.00     0.046 C 
ATOM     18  O34 ZIN A   1      16.631  -3.730   3.763  0.00  0.00    -0.267 OA
ATOM     19  H45 ZIN A   1      17.784  -2.152   3.882  0.00  0.00     0.164 HD
BRANCH  16  20
ATOM     20  C2  ZIN A   1      15.485  -6.502   4.242  0.00  0.00     0.040 C 
ATOM     21  C1  ZIN A   1      14.256  -6.164   5.089  0.00  0.00     0.010 C 
ENDBRANCH  16  20
ENDBRANCH   8   9
ENDBRANCH   7   8
ENDBRANCH   1   7
BRANCH   4  22
ATOM     22  S17 ZIN A   1      17.994   0.878  10.745  0.00  0.00     0.287 S 
ATOM     23  O18 ZIN A   1      19.324   1.155  11.310  0.00  0.00    -0.198 OA
ATOM     24  O19 ZIN A   1      17.078   1.981  11.080  0.00  0.00    -0.198 OA
BRANCH  22  25
ATOM     25  N20 ZIN A   1      17.466  -0.397  11.318  0.00  0.00    -0.102 NA
ATOM     26  C21 ZIN A   1      18.197  -1.511  11.251  0.00  0.00     0.353 C 
ATOM     27  O22 ZIN A   1      19.294  -1.489  10.722  0.00  0.00    -0.244 OA
ATOM     28  N23 ZIN A   1      17.722  -2.662  11.767  0.00  0.00    -0.336 N 
ATOM     29  H52 ZIN A   1      16.848  -2.680  12.187  0.00  0.00     0.164 HD
BRANCH  28  30
ATOM     30  C24 ZIN A   1      18.524  -3.885  11.692  0.00  0.00     0.086 C 
ATOM     31  C30 ZIN A   1      18.972  -4.114  10.247  0.00  0.00     0.026 C 
ATOM     32  C29 ZIN A   1      17.742  -4.254   9.348  0.00  0.00     0.006 C 
ATOM     33  C27 ZIN A   1      16.902  -5.444   9.814  0.00  0.00    -0.019 C 
ATOM     34  C26 ZIN A   1      16.454  -5.215  11.260  0.00  0.00     0.006 C 
ATOM     35  C28 ZIN A   1      15.672  -5.585   8.915  0.00  0.00     0.010 C 
ATOM     36  C25 ZIN A   1      17.683  -5.075  12.159  0.00  0.00     0.026 C 
ENDBRANCH  28  30
ENDBRANCH  22  25
ENDBRANCH   4  22
TORSDOF 7
ENDMDL
MODEL 2
REMARK VINA RESULT:     -10.1      3.399      8.121
REMARK  7 active torsions:
REMARK  status: ('A' for Active; 'I' for Inactive)
REMARK    1  A    between atoms: C2_2  and  C3_3 
REMARK       I    between atoms: N7_7  and  C8_8 
REMARK       I    between atoms: C8_8  and  N10_10 
REMARK    2  A    between atoms: N10_10  and  C11_11 
REMARK    3  A    between atoms: C11_11  and  C12_12 
REMARK    4  A    between atoms: C12_12  and  C13_13 
REMARK    5  A    between atoms: C16_16  and  S17_17 
REMARK    6  A    between atoms: S17_17  and  N20_20 
REMARK       I    between atoms: N20_20  and  C21_21 
REMARK       I    between atoms: C21_21  and  N23_23 
REMARK    7  A    between atoms: N23_23  and  C24_24 
ROOT
ATOM      1  C13 ZIN A   1      19.081   1.577   8.862  0.00  0.00    -0.057 A 
ATOM      2  C14 ZIN A   1      18.997   0.208   9.031  0.00  0.00     0.009 A 
ATOM      3  C15 ZIN A   1      18.868  -0.618   7.930  0.00  0.00     0.026 A 
ATOM      4  C16 ZIN A   1      18.823  -0.074   6.660  0.00  0.00     0.081 A 
ATOM      5  C31 ZIN A   1      18.905   1.295   6.490  0.00  0.00     0.026 A 
ATOM      6  C32 ZIN A   1      19.031   2.121   7.591  0.00  0.00     0.009 A 
ENDROOT
BRANCH   1   7
ATOM      7  C12 ZIN A   1      19.222   2.477  10.062  0.00  0.00     0.058 C 
BRANCH   7   8
ATOM      8  C11 ZIN A   1      17.858   2.646  10.736  0.00  0.00     0.129 C 
BRANCH   8   9
ATOM      9  N10 ZIN A   1      17.878   1.995  12.048  0.00  0.00    -0.342 N 
ATOM     10  C8  ZIN A   1      18.264   2.688  13.138  0.00  0.00     0.325 C 
ATOM     11  N7  ZIN A   1      18.282   2.089  14.346  0.00  0.00    -0.262 N 
ATOM     12  O9  ZIN A   1      18.596   3.853  13.032  0.00  0.00    -0.247 OA
ATOM     13  C6  ZIN A   1      18.676   2.708  15.617  0.00  0.00     0.171 A 
ATOM     14  C33 ZIN A   1      17.949   0.811  14.607  0.00  0.00     0.258 A 
ATOM     15  C4  ZIN A   1      18.525   1.630  16.665  0.00  0.00    -0.054 A 
ATOM     16  C3  ZIN A   1      18.095   0.538  16.039  0.00  0.00     0.013 A 
ATOM     17  C5  ZIN A   1      18.808   1.765  18.139  0.00  0.00     0.046 C 
ATOM     18  O34 ZIN A   1      17.574   0.005  13.778  0.00  0.00    -0.267 OA
ATOM     19  H45 ZIN A   1      17.613   1.066  12.133  0.00  0.00     0.164 HD
BRANCH  16  20
ATOM     20  C2  ZIN A   1      17.807  -0.784  16.702  0.00  0.00     0.040 C 
ATOM     21  C1  ZIN A   1      19.052  -1.672  16.631  0.00  0.00     0.010 C 
ENDBRANCH  16  20
ENDBRANCH   8   9
ENDBRANCH   7   8
ENDBRANCH   1   7
BRANCH   4  22
ATOM     22  S17 ZIN A   1      18.660  -1.127   5.256  0.00  0.00     0.287 S 
ATOM     23  O18 ZIN A   1      17.808  -0.475   4.249  0.00  0.00    -0.198 OA
ATOM     24  O19 ZIN A   1      19.989  -1.388   4.681  0.00  0.00    -0.198 OA
BRANCH  22  25
ATOM     25  N20 ZIN A   1      18.036  -2.419   5.674  0.00  0.00    -0.102 NA
ATOM     26  C21 ZIN A   1      18.808  -3.451   6.019  0.00  0.00     0.353 C 
ATOM     27  O22 ZIN A   1      20.020  -3.341   5.992  0.00  0.00    -0.244 OA
ATOM     28  N23 ZIN A   1      18.246  -4.617   6.396  0.00  0.00    -0.336 N 
ATOM     29  H52 ZIN A   1      17.280  -4.705   6.417  0.00  0.00     0.164 HD
BRANCH  28  30
ATOM     30  C24 ZIN A   1      19.093  -5.751   6.773  0.00  0.00     0.086 C 
ATOM     31  C30 ZIN A   1      18.214  -6.965   7.080  0.00  0.00     0.026 C 
ATOM     32  C29 ZIN A   1      17.267  -6.629   8.234  0.00  0.00     0.006 C 
ATOM     33  C27 ZIN A   1      18.083  -6.266   9.475  0.00  0.00    -0.019 C 
ATOM     34  C26 ZIN A   1      18.963  -5.051   9.168  0.00  0.00     0.006 C 
ATOM     35  C28 ZIN A   1      17.136  -5.930  10.629  0.00  0.00     0.010 C 
ATOM     36  C25 ZIN A   1      19.910  -5.386   8.015  0.00  0.00     0.026 C 
ENDBRANCH  28  30
ENDBRANCH  22  25
ENDBRANCH   4  22
TORSDOF 7
ENDMDL
MODEL 3
REMARK VINA RESULT:     -10.1      3.182      7.839
REMARK  7 active torsions:
REMARK  status: ('A' for Active; 'I' for Inactive)
REMARK    1  A    between atoms: C2_2  and  C3_3 
REMARK       I    between atoms: N7_7  and  C8_8 
REMARK       I    between atoms: C8_8  and  N10_10 
REMARK    2  A    between atoms: N10_10  and  C11_11 
REMARK    3  A    between atoms: C11_11  and  C12_12 
REMARK    4  A    between atoms: C12_12  and  C13_13 
REMARK    5  A    between atoms: C16_16  and  S17_17 
REMARK    6  A    between atoms: S17_17  and  N20_20 
REMARK       I    between atoms: N20_20  and  C21_21 
REMARK       I    between atoms: C21_21  and  N23_23 
REMARK    7  A    between atoms: N23_23  and  C24_24 
ROOT
ATOM      1  C13 ZIN A   1      18.410   1.723   8.798  0.00  0.00    -0.057 A 
ATOM      2  C14 ZIN A   1      17.746   0.511   8.845  0.00  0.00     0.009 A 
ATOM      3  C15 ZIN A   1      17.799  -0.348   7.764  0.00  0.00     0.026 A 
ATOM      4  C16 ZIN A   1      18.515   0.004   6.635  0.00  0.00     0.081 A 
ATOM      5  C31 ZIN A   1      19.177   1.215   6.587  0.00  0.00     0.026 A 
ATOM      6  C32 ZIN A   1      19.122   2.077   7.667  0.00  0.00     0.009 A 
ENDROOT
BRANCH   1   7
ATOM      7  C12 ZIN A   1      18.353   2.660   9.977  0.00  0.00     0.058 C 
BRANCH   7   8
ATOM      8  C11 ZIN A   1      19.650   2.546  10.781  0.00  0.00     0.129 C 
BRANCH   8   9
ATOM      9  N10 ZIN A   1      19.340   2.122  12.149  0.00  0.00    -0.342 N 
ATOM     10  C8  ZIN A   1      19.590   0.855  12.534  0.00  0.00     0.325 C 
ATOM     11  N7  ZIN A   1      19.306   0.465  13.793  0.00  0.00    -0.262 N 
ATOM     12  O9  ZIN A   1      20.073   0.064  11.747  0.00  0.00    -0.247 OA
ATOM     13  C6  ZIN A   1      19.519  -0.873  14.358  0.00  0.00     0.171 A 
ATOM     14  C33 ZIN A   1      18.767   1.229  14.762  0.00  0.00     0.258 A 
ATOM     15  C4  ZIN A   1      19.043  -0.797  15.790  0.00  0.00    -0.054 A 
ATOM     16  C3  ZIN A   1      18.614   0.446  15.991  0.00  0.00     0.013 A 
ATOM     17  C5  ZIN A   1      19.050  -1.916  16.799  0.00  0.00     0.046 C 
ATOM     18  O34 ZIN A   1      18.460   2.399  14.638  0.00  0.00    -0.267 OA
ATOM     19  H45 ZIN A   1      18.956   2.754  12.777  0.00  0.00     0.164 HD
BRANCH  16  20
ATOM     20  C2  ZIN A   1      18.049   0.969  17.287  0.00  0.00     0.040 C 
ATOM     21  C1  ZIN A   1      19.184   1.519  18.153  0.00  0.00     0.010 C 
ENDBRANCH  16  20
ENDBRANCH   8   9
ENDBRANCH   7   8
ENDBRANCH   1   7
BRANCH   4  22
ATOM     22  S17 ZIN A   1      18.582  -1.093   5.257  0.00  0.00     0.287 S 
ATOM     23  O18 ZIN A   1      17.810  -0.526   4.140  0.00  0.00    -0.198 OA
ATOM     24  O19 ZIN A   1      19.982  -1.276   4.844  0.00  0.00    -0.198 OA
BRANCH  22  25
ATOM     25  N20 ZIN A   1      18.001  -2.413   5.644  0.00  0.00    -0.102 NA
ATOM     26  C21 ZIN A   1      18.803  -3.410   6.022  0.00  0.00     0.353 C 
ATOM     27  O22 ZIN A   1      20.009  -3.244   6.049  0.00  0.00    -0.244 OA
ATOM     28  N23 ZIN A   1      18.279  -4.602   6.371  0.00  0.00    -0.336 N 
ATOM     29  H52 ZIN A   1      17.319  -4.735   6.349  0.00  0.00     0.164 HD
BRANCH  28  30
ATOM     30  C24 ZIN A   1      19.160  -5.697   6.784  0.00  0.00     0.086 C 
ATOM     31  C30 ZIN A   1      18.324  -6.946   7.067  0.00  0.00     0.026 C 
ATOM     32  C29 ZIN A   1      17.323  -6.647   8.185  0.00  0.00     0.006 C 
ATOM     33  C27 ZIN A   1      18.079  -6.243   9.452  0.00  0.00    -0.019 C 
ATOM     34  C26 ZIN A   1      18.916  -4.993   9.169  0.00  0.00     0.006 C 
ATOM     35  C28 ZIN A   1      17.078  -5.944  10.570  0.00  0.00     0.010 C 
ATOM     36  C25 ZIN A   1      19.916  -5.292   8.052  0.00  0.00     0.026 C 
ENDBRANCH  28  30
ENDBRANCH  22  25
ENDBRANCH   4  22
TORSDOF 7
ENDMDL
MODEL 4
REMARK VINA RESULT:     -10.0      3.250      8.090
REMARK  7 active torsions:
REMARK  status: ('A' for Active; 'I' for Inactive)
REMARK    1  A    between atoms: C2_2  and  C3_3 
REMARK       I    between atoms: N7_7  and  C8_8 
REMARK       I    between atoms: C8_8  and  N10_10 
REMARK    2  A    between atoms: N10_10  and  C11_11 
REMARK    3  A    between atoms: C11_11  and  C12_12 
REMARK    4  A    between atoms: C12_12  and  C13_13 
REMARK    5  A    between atoms: C16_16  and  S17_17 
REMARK    6  A    between atoms: S17_17  and  N20_20 
REMARK       I    between atoms: N20_20  and  C21_21 
REMARK       I    between atoms: C21_21  and  N23_23 
REMARK    7  A    between atoms: N23_23  and  C24_24 
ROOT
ATOM      1  C13 ZIN A   1      19.139   1.064   8.631  0.00  0.00    -0.057 A 
ATOM      2  C14 ZIN A   1      18.904   1.263   7.284  0.00  0.00     0.009 A 
ATOM      3  C15 ZIN A   1      18.935   0.190   6.411  0.00  0.00     0.026 A 
ATOM      4  C16 ZIN A   1      19.201  -1.080   6.886  0.00  0.00     0.081 A 
ATOM      5  C31 ZIN A   1      19.436  -1.279   8.233  0.00  0.00     0.026 A 
ATOM      6  C32 ZIN A   1      19.409  -0.207   9.106  0.00  0.00     0.009 A 
ENDROOT
BRANCH   1   7
ATOM      7  C12 ZIN A   1      19.105   2.231   9.583  0.00  0.00     0.058 C 
BRANCH   7   8
ATOM      8  C11 ZIN A   1      17.716   2.331  10.218  0.00  0.00     0.129 C 
BRANCH   8   9
ATOM      9  N10 ZIN A   1      17.751   1.748  11.562  0.00  0.00    -0.342 N 
ATOM     10  C8  ZIN A   1      18.125   2.503  12.614  0.00  0.00     0.325 C 
ATOM     11  N7  ZIN A   1      18.157   1.968  13.851  0.00  0.00    -0.262 N 
ATOM     12  O9  ZIN A   1      18.433   3.668  12.448  0.00  0.00    -0.247 OA
ATOM     13  C6  ZIN A   1      18.541   2.658  15.088  0.00  0.00     0.171 A 
ATOM     14  C33 ZIN A   1      17.851   0.698  14.178  0.00  0.00     0.258 A 
ATOM     15  C4  ZIN A   1      18.413   1.632  16.190  0.00  0.00    -0.054 A 
ATOM     16  C3  ZIN A   1      18.004   0.501  15.621  0.00  0.00     0.013 A 
ATOM     17  C5  ZIN A   1      18.696   1.848  17.654  0.00  0.00     0.046 C 
ATOM     18  O34 ZIN A   1      17.491  -0.157  13.392  0.00  0.00    -0.267 OA
ATOM     19  H45 ZIN A   1      17.506   0.819  11.694  0.00  0.00     0.164 HD
BRANCH  16  20
ATOM     20  C2  ZIN A   1      17.745  -0.791  16.352  0.00  0.00     0.040 C 
ATOM     21  C1  ZIN A   1      19.041  -1.602  16.430  0.00  0.00     0.010 C 
ENDBRANCH  16  20
ENDBRANCH   8   9
ENDBRANCH   7   8
ENDBRANCH   1   7
BRANCH   4  22
ATOM     22  S17 ZIN A   1      19.239  -2.446   5.774  0.00  0.00     0.287 S 
ATOM     23  O18 ZIN A   1      19.494  -1.960   4.408  0.00  0.00    -0.198 OA
ATOM     24  O19 ZIN A   1      20.308  -3.375   6.173  0.00  0.00    -0.198 OA
BRANCH  22  25
ATOM     25  N20 ZIN A   1      17.925  -3.155   5.812  0.00  0.00    -0.102 NA
ATOM     26  C21 ZIN A   1      17.874  -4.451   6.125  0.00  0.00     0.353 C 
ATOM     27  O22 ZIN A   1      18.900  -5.056   6.379  0.00  0.00    -0.244 OA
ATOM     28  N23 ZIN A   1      16.689  -5.091   6.160  0.00  0.00    -0.336 N 
ATOM     29  H52 ZIN A   1      15.871  -4.609   5.957  0.00  0.00     0.164 HD
BRANCH  28  30
ATOM     30  C24 ZIN A   1      16.634  -6.514   6.502  0.00  0.00     0.086 C 
ATOM     31  C30 ZIN A   1      15.517  -7.189   5.704  0.00  0.00     0.026 C 
ATOM     32  C29 ZIN A   1      14.178  -6.530   6.044  0.00  0.00     0.006 C 
ATOM     33  C27 ZIN A   1      13.899  -6.684   7.540  0.00  0.00    -0.019 C 
ATOM     34  C26 ZIN A   1      15.017  -6.009   8.338  0.00  0.00     0.006 C 
ATOM     35  C28 ZIN A   1      12.560  -6.025   7.880  0.00  0.00     0.010 C 
ATOM     36  C25 ZIN A   1      16.354  -6.667   7.999  0.00  0.00     0.026 C 
ENDBRANCH  28  30
ENDBRANCH  22  25
ENDBRANCH   4  22
TORSDOF 7
ENDMDL
MODEL 5
REMARK VINA RESULT:      -9.7      3.214      6.829
REMARK  7 active torsions:
REMARK  status: ('A' for Active; 'I' for Inactive)
REMARK    1  A    between atoms: C2_2  and  C3_3 
REMARK       I    between atoms: N7_7  and  C8_8 
REMARK       I    between atoms: C8_8  and  N10_10 
REMARK    2  A    between atoms: N10_10  and  C11_11 
REMARK    3  A    between atoms: C11_11  and  C12_12 
REMARK    4  A    between atoms: C12_12  and  C13_13 
REMARK    5  A    between atoms: C16_16  and  S17_17 
REMARK    6  A    between atoms: S17_17  and  N20_20 
REMARK       I    between atoms: N20_20  and  C21_21 
REMARK       I    between atoms: C21_21  and  N23_23 
REMARK    7  A    between atoms: N23_23  and  C24_24 
ROOT
ATOM      1  C13 ZIN A   1      18.169  -4.375  11.163  0.00  0.00    -0.057 A 
ATOM      2  C14 ZIN A   1      17.288  -3.449  11.689  0.00  0.00     0.009 A 
ATOM      3  C15 ZIN A   1      17.758  -2.233  12.150  0.00  0.00     0.026 A 
ATOM      4  C16 ZIN A   1      19.108  -1.944  12.085  0.00  0.00     0.081 A 
ATOM      5  C31 ZIN A   1      19.989  -2.870  11.561  0.00  0.00     0.026 A 
ATOM      6  C32 ZIN A   1      19.520  -4.087  11.103  0.00  0.00     0.009 A 
ENDROOT
BRANCH   1   7
ATOM      7  C12 ZIN A   1      17.658  -5.701  10.661  0.00  0.00     0.058 C 
BRANCH   7   8
ATOM      8  C11 ZIN A   1      17.567  -5.665   9.133  0.00  0.00     0.129 C 
BRANCH   8   9
ATOM      9  N10 ZIN A   1      17.760  -4.290   8.664  0.00  0.00    -0.342 N 
ATOM     10  C8  ZIN A   1      18.255  -4.063   7.432  0.00  0.00     0.325 C 
ATOM     11  N7  ZIN A   1      18.432  -2.798   7.000  0.00  0.00    -0.262 N 
ATOM     12  O9  ZIN A   1      18.542  -4.998   6.709  0.00  0.00    -0.247 OA
ATOM     13  C6  ZIN A   1      18.959  -2.391   5.691  0.00  0.00     0.171 A 
ATOM     14  C33 ZIN A   1      18.165  -1.675   7.692  0.00  0.00     0.258 A 
ATOM     15  C4  ZIN A   1      18.961  -0.881   5.699  0.00  0.00    -0.054 A 
ATOM     16  C3  ZIN A   1      18.487  -0.497   6.881  0.00  0.00     0.013 A 
ATOM     17  C5  ZIN A   1      19.413   0.021   4.580  0.00  0.00     0.046 C 
ATOM     18  O34 ZIN A   1      17.715  -1.641   8.821  0.00  0.00    -0.267 OA
ATOM     19  H45 ZIN A   1      17.531  -3.545   9.241  0.00  0.00     0.164 HD
BRANCH  16  20
ATOM     20  C2  ZIN A   1      18.314   0.933   7.323  0.00  0.00     0.040 C 
ATOM     21  C1  ZIN A   1      19.409   1.291   8.330  0.00  0.00     0.010 C 
ENDBRANCH  16  20
ENDBRANCH   8   9
ENDBRANCH   7   8
ENDBRANCH   1   7
BRANCH   4  22
ATOM     22  S17 ZIN A   1      19.705  -0.393  12.672  0.00  0.00     0.287 S 
ATOM     23  O18 ZIN A   1      19.933  -0.472  14.123  0.00  0.00    -0.198 OA
ATOM     24  O19 ZIN A   1      20.969  -0.066  11.994  0.00  0.00    -0.198 OA
BRANCH  22  25
ATOM     25  N20 ZIN A   1      18.696   0.669  12.383  0.00  0.00    -0.102 NA
ATOM     26  C21 ZIN A   1      19.097   1.894  12.037  0.00  0.00     0.353 C 
ATOM     27  O22 ZIN A   1      20.286   2.146  11.958  0.00  0.00    -0.244 OA
ATOM     28  N23 ZIN A   1      18.187   2.854  11.777  0.00  0.00    -0.336 N 
ATOM     29  H52 ZIN A   1      17.239   2.653  11.841  0.00  0.00     0.164 HD
BRANCH  28  30
ATOM     30  C24 ZIN A   1      18.627   4.198  11.398  0.00  0.00     0.086 C 
ATOM     31  C30 ZIN A   1      19.125   4.941  12.640  0.00  0.00     0.026 C 
ATOM     32  C29 ZIN A   1      17.990   5.044  13.661  0.00  0.00     0.006 C 
ATOM     33  C27 ZIN A   1      16.818   5.810  13.046  0.00  0.00    -0.019 C 
ATOM     34  C26 ZIN A   1      16.320   5.067  11.804  0.00  0.00     0.006 C 
ATOM     35  C28 ZIN A   1      15.683   5.913  14.068  0.00  0.00     0.010 C 
ATOM     36  C25 ZIN A   1      17.453   4.964  10.783  0.00  0.00     0.026 C 
ENDBRANCH  28  30
ENDBRANCH  22  25
ENDBRANCH   4  22
TORSDOF 7
ENDMDL
MODEL 6
REMARK VINA RESULT:      -9.6      3.403      5.644
REMARK  7 active torsions:
REMARK  status: ('A' for Active; 'I' for Inactive)
REMARK    1  A    between atoms: C2_2  and  C3_3 
REMARK       I    between atoms: N7_7  and  C8_8 
REMARK       I    between atoms: C8_8  and  N10_10 
REMARK    2  A    between atoms: N10_10  and  C11_11 
REMARK    3  A    between atoms: C11_11  and  C12_12 
REMARK    4  A    between atoms: C12_12  and  C13_13 
REMARK    5  A    between atoms: C16_16  and  S17_17 
REMARK    6  A    between atoms: S17_17  and  N20_20 
REMARK       I    between atoms: N20_20  and  C21_21 
REMARK       I    between atoms: C21_21  and  N23_23 
REMARK    7  A    between atoms: N23_23  and  C24_24 
ROOT
ATOM      1  C13 ZIN A   1      18.588   0.336   7.290  0.00  0.00    -0.057 A 
ATOM      2  C14 ZIN A   1      19.637   0.508   8.173  0.00  0.00     0.009 A 
ATOM      3  C15 ZIN A   1      19.471   0.197   9.511  0.00  0.00     0.026 A 
ATOM      4  C16 ZIN A   1      18.257  -0.284   9.964  0.00  0.00     0.081 A 
ATOM      5  C31 ZIN A   1      17.208  -0.454   9.081  0.00  0.00     0.026 A 
ATOM      6  C32 ZIN A   1      17.372  -0.141   7.744  0.00  0.00     0.009 A 
ENDROOT
BRANCH   1   7
ATOM      7  C12 ZIN A   1      18.768   0.673   5.832  0.00  0.00     0.058 C 
BRANCH   7   8
ATOM      8  C11 ZIN A   1      19.414  -0.512   5.111  0.00  0.00     0.129 C 
BRANCH   8   9
ATOM      9  N10 ZIN A   1      19.228  -1.728   5.907  0.00  0.00    -0.342 N 
ATOM     10  C8  ZIN A   1      18.773  -2.853   5.322  0.00  0.00     0.325 C 
ATOM     11  N7  ZIN A   1      18.603  -3.972   6.054  0.00  0.00    -0.262 N 
ATOM     12  O9  ZIN A   1      18.517  -2.860   4.133  0.00  0.00    -0.247 OA
ATOM     13  C6  ZIN A   1      18.118  -5.268   5.563  0.00  0.00     0.171 A 
ATOM     14  C33 ZIN A   1      18.839  -4.106   7.373  0.00  0.00     0.258 A 
ATOM     15  C4  ZIN A   1      18.107  -6.186   6.763  0.00  0.00    -0.054 A 
ATOM     16  C3  ZIN A   1      18.538  -5.474   7.801  0.00  0.00     0.013 A 
ATOM     17  C5  ZIN A   1      17.686  -7.633   6.781  0.00  0.00     0.046 C 
ATOM     18  O34 ZIN A   1      19.251  -3.223   8.100  0.00  0.00    -0.267 OA
ATOM     19  H45 ZIN A   1      19.433  -1.722   6.855  0.00  0.00     0.164 HD
BRANCH  16  20
ATOM     20  C2  ZIN A   1      18.686  -5.995   9.207  0.00  0.00     0.040 C 
ATOM     21  C1  ZIN A   1      17.374  -5.791   9.968  0.00  0.00     0.010 C 
ENDBRANCH  16  20
ENDBRANCH   8   9
ENDBRANCH   7   8
ENDBRANCH   1   7
BRANCH   4  22
ATOM     22  S17 ZIN A   1      18.048  -0.680  11.668  0.00  0.00     0.287 S 
ATOM     23  O18 ZIN A   1      16.627  -0.953  11.938  0.00  0.00    -0.198 OA
ATOM     24  O19 ZIN A   1      18.848  -1.870  11.997  0.00  0.00    -0.198 OA
BRANCH  22  25
ATOM     25  N20 ZIN A   1      18.501   0.471  12.505  0.00  0.00    -0.102 NA
ATOM     26  C21 ZIN A   1      17.912   1.662  12.377  0.00  0.00     0.353 C 
ATOM     27  O22 ZIN A   1      17.006   1.810  11.577  0.00  0.00    -0.244 OA
ATOM     28  N23 ZIN A   1      18.320   2.701  13.132  0.00  0.00    -0.336 N 
ATOM     29  H52 ZIN A   1      19.043   2.583  13.769  0.00  0.00     0.164 HD
BRANCH  28  30
ATOM     30  C24 ZIN A   1      17.674   4.008  12.991  0.00  0.00     0.086 C 
ATOM     31  C30 ZIN A   1      18.603   4.957  12.230  0.00  0.00     0.026 C 
ATOM     32  C29 ZIN A   1      19.914   5.116  13.004  0.00  0.00     0.006 C 
ATOM     33  C27 ZIN A   1      19.621   5.693  14.390  0.00  0.00    -0.019 C 
ATOM     34  C26 ZIN A   1      18.692   4.744  15.151  0.00  0.00     0.006 C 
ATOM     35  C28 ZIN A   1      20.932   5.852  15.164  0.00  0.00     0.010 C 
ATOM     36  C25 ZIN A   1      17.382   4.585  14.378  0.00  0.00     0.026 C 
ENDBRANCH  28  30
ENDBRANCH  22  25
ENDBRANCH   4  22
TORSDOF 7
ENDMDL
MODEL 7
REMARK VINA RESULT:      -9.5      5.438      8.242
REMARK  7 active torsions:
REMARK  status: ('A' for Active; 'I' for Inactive)
REMARK    1  A    between atoms: C2_2  and  C3_3 
REMARK       I    between atoms: N7_7  and  C8_8 
REMARK       I    between atoms: C8_8  and  N10_10 
REMARK    2  A    between atoms: N10_10  and  C11_11 
REMARK    3  A    between atoms: C11_11  and  C12_12 
REMARK    4  A    between atoms: C12_12  and  C13_13 
REMARK    5  A    between atoms: C16_16  and  S17_17 
REMARK    6  A    between atoms: S17_17  and  N20_20 
REMARK       I    between atoms: N20_20  and  C21_21 
REMARK       I    between atoms: C21_21  and  N23_23 
REMARK    7  A    between atoms: N23_23  and  C24_24 
ROOT
ATOM      1  C13 ZIN A   1      18.458  -1.137  14.197  0.00  0.00    -0.057 A 
ATOM      2  C14 ZIN A   1      17.691   0.003  14.342  0.00  0.00     0.009 A 
ATOM      3  C15 ZIN A   1      17.730   0.717  15.526  0.00  0.00     0.026 A 
ATOM      4  C16 ZIN A   1      18.536   0.288  16.565  0.00  0.00     0.081 A 
ATOM      5  C31 ZIN A   1      19.302  -0.852  16.420  0.00  0.00     0.026 A 
ATOM      6  C32 ZIN A   1      19.261  -1.568  15.238  0.00  0.00     0.009 A 
ENDROOT
BRANCH   1   7
ATOM      7  C12 ZIN A   1      18.417  -1.914  12.906  0.00  0.00     0.058 C 
BRANCH   7   8
ATOM      8  C11 ZIN A   1      17.427  -1.252  11.945  0.00  0.00     0.129 C 
BRANCH   8   9
ATOM      9  N10 ZIN A   1      17.826  -1.535  10.563  0.00  0.00    -0.342 N 
ATOM     10  C8  ZIN A   1      17.940  -0.527   9.676  0.00  0.00     0.325 C 
ATOM     11  N7  ZIN A   1      18.307  -0.787   8.405  0.00  0.00    -0.262 N 
ATOM     12  O9  ZIN A   1      17.713   0.616  10.022  0.00  0.00    -0.247 OA
ATOM     13  C6  ZIN A   1      18.474   0.198   7.329  0.00  0.00     0.171 A 
ATOM     14  C33 ZIN A   1      18.581  -1.998   7.886  0.00  0.00     0.258 A 
ATOM     15  C4  ZIN A   1      18.890  -0.590   6.109  0.00  0.00    -0.054 A 
ATOM     16  C3  ZIN A   1      18.946  -1.868   6.473  0.00  0.00     0.013 A 
ATOM     17  C5  ZIN A   1      19.184  -0.034   4.740  0.00  0.00     0.046 C 
ATOM     18  O34 ZIN A   1      18.541  -3.046   8.501  0.00  0.00    -0.267 OA
ATOM     19  H45 ZIN A   1      18.007  -2.447  10.288  0.00  0.00     0.164 HD
BRANCH  16  20
ATOM     20  C2  ZIN A   1      19.321  -3.011   5.566  0.00  0.00     0.040 C 
ATOM     21  C1  ZIN A   1      18.091  -3.457   4.771  0.00  0.00     0.010 C 
ENDBRANCH  16  20
ENDBRANCH   8   9
ENDBRANCH   7   8
ENDBRANCH   1   7
BRANCH   4  22
ATOM     22  S17 ZIN A   1      18.586   1.198  18.073  0.00  0.00     0.287 S 
ATOM     23  O18 ZIN A   1      17.774   0.510  19.089  0.00  0.00    -0.198 OA
ATOM     24  O19 ZIN A   1      19.977   1.298  18.540  0.00  0.00    -0.198 OA
BRANCH  22  25
ATOM     25  N20 ZIN A   1      18.039   2.569  17.844  0.00  0.00    -0.102 NA
ATOM     26  C21 ZIN A   1      18.803   3.508  17.283  0.00  0.00     0.353 C 
ATOM     27  O22 ZIN A   1      19.948   3.247  16.958  0.00  0.00    -0.244 OA
ATOM     28  N23 ZIN A   1      18.310   4.745  17.077  0.00  0.00    -0.336 N 
ATOM     29  H52 ZIN A   1      17.399   4.953  17.336  0.00  0.00     0.164 HD
BRANCH  28  30
ATOM     30  C24 ZIN A   1      19.150   5.776  16.462  0.00  0.00     0.086 C 
ATOM     31  C30 ZIN A   1      18.331   7.053  16.267  0.00  0.00     0.026 C 
ATOM     32  C29 ZIN A   1      17.136   6.758  15.357  0.00  0.00     0.006 C 
ATOM     33  C27 ZIN A   1      17.638   6.264  14.000  0.00  0.00    -0.019 C 
ATOM     34  C26 ZIN A   1      18.459   4.986  14.195  0.00  0.00     0.006 C 
ATOM     35  C28 ZIN A   1      16.444   5.969  13.090  0.00  0.00     0.010 C 
ATOM     36  C25 ZIN A   1      19.652   5.280  15.104  0.00  0.00     0.026 C 
ENDBRANCH  28  30
ENDBRANCH  22  25
ENDBRANCH   4  22
TORSDOF 7
ENDMDL
MODEL 8
REMARK VINA RESULT:      -9.4      1.859      5.825
REMARK  7 active torsions:
REMARK  status: ('A' for Active; 'I' for Inactive)
REMARK    1  A    between atoms: C2_2  and  C3_3 
REMARK       I    between atoms: N7_7  and  C8_8 
REMARK       I    between atoms: C8_8  and  N10_10 
REMARK    2  A    between atoms: N10_10  and  C11_11 
REMARK    3  A    between atoms: C11_11  and  C12_12 
REMARK    4  A    between atoms: C12_12  and  C13_13 
REMARK    5  A    between atoms: C16_16  and  S17_17 
REMARK    6  A    between atoms: S17_17  and  N20_20 
REMARK       I    between atoms: N20_20  and  C21_21 
REMARK       I    between atoms: C21_21  and  N23_23 
REMARK    7  A    between atoms: N23_23  and  C24_24 
ROOT
ATOM      1  C13 ZIN A   1      18.121   1.178   8.918  0.00  0.00    -0.057 A 
ATOM      2  C14 ZIN A   1      17.201   0.259   8.450  0.00  0.00     0.009 A 
ATOM      3  C15 ZIN A   1      17.364  -0.307   7.199  0.00  0.00     0.026 A 
ATOM      4  C16 ZIN A   1      18.447   0.047   6.417  0.00  0.00     0.081 A 
ATOM      5  C31 ZIN A   1      19.366   0.966   6.884  0.00  0.00     0.026 A 
ATOM      6  C32 ZIN A   1      19.202   1.535   8.133  0.00  0.00     0.009 A 
ENDROOT
BRANCH   1   7
ATOM      7  C12 ZIN A   1      17.943   1.794  10.282  0.00  0.00     0.058 C 
BRANCH   7   8
ATOM      8  C11 ZIN A   1      18.420   0.810  11.352  0.00  0.00     0.129 C 
BRANCH   8   9
ATOM      9  N10 ZIN A   1      18.495  -0.537  10.778  0.00  0.00    -0.342 N 
ATOM     10  C8  ZIN A   1      17.745  -1.531  11.293  0.00  0.00     0.325 C 
ATOM     11  N7  ZIN A   1      17.814  -2.770  10.766  0.00  0.00    -0.262 N 
ATOM     12  O9  ZIN A   1      17.007  -1.311  12.234  0.00  0.00    -0.247 OA
ATOM     13  C6  ZIN A   1      17.064  -3.949  11.215  0.00  0.00     0.171 A 
ATOM     14  C33 ZIN A   1      18.588  -3.155   9.734  0.00  0.00     0.258 A 
ATOM     15  C4  ZIN A   1      17.491  -5.079  10.308  0.00  0.00    -0.054 A 
ATOM     16  C3  ZIN A   1      18.378  -4.578   9.454  0.00  0.00     0.013 A 
ATOM     17  C5  ZIN A   1      17.005  -6.505  10.361  0.00  0.00     0.046 C 
ATOM     18  O34 ZIN A   1      19.343  -2.427   9.119  0.00  0.00    -0.267 OA
ATOM     19  H45 ZIN A   1      19.084  -0.712  10.028  0.00  0.00     0.164 HD
BRANCH  16  20
ATOM     20  C2  ZIN A   1      19.070  -5.357   8.365  0.00  0.00     0.040 C 
ATOM     21  C1  ZIN A   1      20.448  -5.807   8.857  0.00  0.00     0.010 C 
ENDBRANCH  16  20
ENDBRANCH   8   9
ENDBRANCH   7   8
ENDBRANCH   1   7
BRANCH   4  22
ATOM     22  S17 ZIN A   1      18.655  -0.676   4.823  0.00  0.00     0.287 S 
ATOM     23  O18 ZIN A   1      18.489   0.359   3.790  0.00  0.00    -0.198 OA
ATOM     24  O19 ZIN A   1      20.001  -1.260   4.721  0.00  0.00    -0.198 OA
BRANCH  22  25
ATOM     25  N20 ZIN A   1      17.632  -1.745   4.625  0.00  0.00    -0.102 NA
ATOM     26  C21 ZIN A   1      17.926  -3.013   4.920  0.00  0.00     0.353 C 
ATOM     27  O22 ZIN A   1      19.029  -3.298   5.350  0.00  0.00    -0.244 OA
ATOM     28  N23 ZIN A   1      17.003  -3.979   4.742  0.00  0.00    -0.336 N 
ATOM     29  H52 ZIN A   1      16.124  -3.753   4.399  0.00  0.00     0.164 HD
BRANCH  28  30
ATOM     30  C24 ZIN A   1      17.327  -5.371   5.065  0.00  0.00     0.086 C 
ATOM     31  C30 ZIN A   1      17.408  -6.188   3.775  0.00  0.00     0.026 C 
ATOM     32  C29 ZIN A   1      16.062  -6.133   3.050  0.00  0.00     0.006 C 
ATOM     33  C27 ZIN A   1      14.972  -6.713   3.953  0.00  0.00    -0.019 C 
ATOM     34  C26 ZIN A   1      14.891  -5.895   5.244  0.00  0.00     0.006 C 
ATOM     35  C28 ZIN A   1      13.625  -6.657   3.228  0.00  0.00     0.010 C 
ATOM     36  C25 ZIN A   1      16.236  -5.950   5.968  0.00  0.00     0.026 C 
ENDBRANCH  28  30
ENDBRANCH  22  25
ENDBRANCH   4  22
TORSDOF 7
ENDMDL
MODEL 9
REMARK VINA RESULT:      -9.4      3.306      5.321
REMARK  7 active torsions:
REMARK  status: ('A' for Active; 'I' for Inactive)
REMARK    1  A    between atoms: C2_2  and  C3_3 
REMARK       I    between atoms: N7_7  and  C8_8 
REMARK       I    between atoms: C8_8  and  N10_10 
REMARK    2  A    between atoms: N10_10  and  C11_11 
REMARK    3  A    between atoms: C11_11  and  C12_12 
REMARK    4  A    between atoms: C12_12  and  C13_13 
REMARK    5  A    between atoms: C16_16  and  S17_17 
REMARK    6  A    between atoms: S17_17  and  N20_20 
REMARK       I    between atoms: N20_20  and  C21_21 
REMARK       I    between atoms: C21_21  and  N23_23 
REMARK    7  A    between atoms: N23_23  and  C24_24 
ROOT
ATOM      1  C13 ZIN A   1      18.491   0.344   7.194  0.00  0.00    -0.057 A 
ATOM      2  C14 ZIN A   1      19.550   0.595   8.046  0.00  0.00     0.009 A 
ATOM      3  C15 ZIN A   1      19.451   0.270   9.387  0.00  0.00     0.026 A 
ATOM      4  C16 ZIN A   1      18.293  -0.306   9.875  0.00  0.00     0.081 A 
ATOM      5  C31 ZIN A   1      17.234  -0.557   9.023  0.00  0.00     0.026 A 
ATOM      6  C32 ZIN A   1      17.331  -0.229   7.684  0.00  0.00     0.009 A 
ENDROOT
BRANCH   1   7
ATOM      7  C12 ZIN A   1      18.599   0.697   5.734  0.00  0.00     0.058 C 
BRANCH   7   8
ATOM      8  C11 ZIN A   1      19.458  -0.349   5.018  0.00  0.00     0.129 C 
BRANCH   8   9
ATOM      9  N10 ZIN A   1      18.645  -1.534   4.731  0.00  0.00    -0.342 N 
ATOM     10  C8  ZIN A   1      18.945  -2.712   5.311  0.00  0.00     0.325 C 
ATOM     11  N7  ZIN A   1      18.197  -3.803   5.047  0.00  0.00    -0.262 N 
ATOM     12  O9  ZIN A   1      19.889  -2.792   6.073  0.00  0.00    -0.247 OA
ATOM     13  C6  ZIN A   1      18.397  -5.149   5.599  0.00  0.00     0.171 A 
ATOM     14  C33 ZIN A   1      17.134  -3.860   4.224  0.00  0.00     0.258 A 
ATOM     15  C4  ZIN A   1      17.308  -6.006   4.999  0.00  0.00    -0.054 A 
ATOM     16  C3  ZIN A   1      16.587  -5.219   4.204  0.00  0.00     0.013 A 
ATOM     17  C5  ZIN A   1      17.081  -7.475   5.251  0.00  0.00     0.046 C 
ATOM     18  O34 ZIN A   1      16.687  -2.920   3.596  0.00  0.00    -0.267 OA
ATOM     19  H45 ZIN A   1      17.892  -1.469   4.123  0.00  0.00     0.164 HD
BRANCH  16  20
ATOM     20  C2  ZIN A   1      15.392  -5.662   3.400  0.00  0.00     0.040 C 
ATOM     21  C1  ZIN A   1      15.854  -6.145   2.023  0.00  0.00     0.010 C 
ENDBRANCH  16  20
ENDBRANCH   8   9
ENDBRANCH   7   8
ENDBRANCH   1   7
BRANCH   4  22
ATOM     22  S17 ZIN A   1      18.169  -0.721  11.582  0.00  0.00     0.287 S 
ATOM     23  O18 ZIN A   1      16.770  -1.039  11.910  0.00  0.00    -0.198 OA
ATOM     24  O19 ZIN A   1      19.017  -1.889  11.867  0.00  0.00    -0.198 OA
BRANCH  22  25
ATOM     25  N20 ZIN A   1      18.622   0.437  12.409  0.00  0.00    -0.102 NA
ATOM     26  C21 ZIN A   1      17.975   1.602  12.339  0.00  0.00     0.353 C 
ATOM     27  O22 ZIN A   1      17.016   1.721  11.598  0.00  0.00    -0.244 OA
ATOM     28  N23 ZIN A   1      18.384   2.647  13.085  0.00  0.00    -0.336 N 
ATOM     29  H52 ZIN A   1      19.149   2.553  13.674  0.00  0.00     0.164 HD
BRANCH  28  30
ATOM     30  C24 ZIN A   1      17.675   3.926  13.005  0.00  0.00     0.086 C 
ATOM     31  C30 ZIN A   1      18.524   4.934  12.228  0.00  0.00     0.026 C 
ATOM     32  C29 ZIN A   1      19.860   5.135  12.945  0.00  0.00     0.006 C 
ATOM     33  C27 ZIN A   1      19.607   5.666  14.357  0.00  0.00    -0.019 C 
ATOM     34  C26 ZIN A   1      18.757   4.658  15.135  0.00  0.00     0.006 C 
ATOM     35  C28 ZIN A   1      20.944   5.867  15.074  0.00  0.00     0.010 C 
ATOM     36  C25 ZIN A   1      17.422   4.457  14.419  0.00  0.00     0.026 C 
ENDBRANCH  28  30
ENDBRANCH  22  25
ENDBRANCH   4  22
TORSDOF 7
ENDMDL
