MODEL 1
REMARK VINA RESULT:      -5.9      0.000      0.000
REMARK  11 active torsions:
REMARK  status: ('A' for Active; 'I' for Inactive)
REMARK    1  A    between atoms: N1_1  and  C5_5 
REMARK    2  A    between atoms: C5_5  and  C7_6 
REMARK    3  A    between atoms: C5_5  and  C23_21 
REMARK    4  A    between atoms: C7_6  and  C8_7 
REMARK    5  A    between atoms: C8_7  and  C9_8 
REMARK       I    between atoms: C9_8  and  N11_10 
REMARK    6  A    between atoms: N11_10  and  C12_11 
REMARK    7  A    between atoms: C12_11  and  C14_12 
REMARK    8  A    between atoms: C12_11  and  C16_14 
REMARK    9  A    between atoms: C14_12  and  S15_13 
REMARK       I    between atoms: C16_14  and  N18_16 
REMARK   10  A    between atoms: N18_16  and  C19_17 
REMARK   11  A    between atoms: C19_17  and  C20_18 
ROOT
ATOM      1  C9  ZIN A   1      17.267  -0.381  11.435  0.00  0.00     0.218 C 
ATOM      2  O10 ZIN A   1      16.158   0.100  11.319  0.00  0.00    -0.274 OA
ATOM      3  N11 ZIN A   1      18.154  -0.277  10.426  0.00  0.00    -0.347 N 
ATOM      4  H30 ZIN A   1      19.041  -0.661  10.519  0.00  0.00     0.163 HD
ENDROOT
BRANCH   3   5
ATOM      5  C12 ZIN A   1      17.781   0.415   9.190  0.00  0.00     0.185 C 
BRANCH   5   6
ATOM      6  C14 ZIN A   1      18.795   1.524   8.900  0.00  0.00     0.105 C 
BRANCH   6   7
ATOM      7  S15 ZIN A   1      18.481   2.932  10.000  0.00  0.00    -0.180 SA
ATOM      8  H33 ZIN A   1      19.015   3.966   9.327  0.00  0.00     0.101 HD
ENDBRANCH   6   7
ENDBRANCH   5   6
BRANCH   5   9
ATOM      9  C16 ZIN A   1      17.772  -0.569   8.047  0.00  0.00     0.241 C 
ATOM     10  O17 ZIN A   1      17.685  -1.757   8.270  0.00  0.00    -0.271 OA
ATOM     11  N18 ZIN A   1      17.862  -0.126   6.777  0.00  0.00    -0.349 N 
ATOM     12  H34 ZIN A   1      17.933   0.824   6.598  0.00  0.00     0.163 HD
BRANCH  11  13
ATOM     13  C19 ZIN A   1      17.853  -1.082   5.667  0.00  0.00     0.235 C 
BRANCH  13  14
ATOM     14  C20 ZIN A   1      19.271  -1.423   5.287  0.00  0.00     0.191 C 
ATOM     15  O21 ZIN A   1      19.934  -0.635   4.634  0.00  0.00    -0.647 OA
ATOM     16  O22 ZIN A   1      19.755  -2.488   5.631  0.00  0.00    -0.647 OA
ENDBRANCH  13  14
ENDBRANCH  11  13
ENDBRANCH   5   9
ENDBRANCH   3   5
BRANCH   1  17
ATOM     17  C8  ZIN A   1      17.650  -1.093  12.707  0.00  0.00     0.105 C 
BRANCH  17  18
ATOM     18  C7  ZIN A   1      17.865  -0.067  13.821  0.00  0.00     0.053 C 
BRANCH  18  19
ATOM     19  C5  ZIN A   1      19.066  -0.482  14.671  0.00  0.00     0.283 C 
BRANCH  19  20
ATOM     20  N1  ZIN A   1      19.872  -1.464  13.935  0.00  0.00    -0.065 N 
ATOM     21  H2  ZIN A   1      20.457  -0.986  13.265  0.00  0.00     0.275 HD
ATOM     22  H3  ZIN A   1      19.262  -2.105  13.450  0.00  0.00     0.275 HD
ATOM     23  H4  ZIN A   1      20.453  -1.977  14.582  0.00  0.00     0.275 HD
ENDBRANCH  19  20
BRANCH  19  24
ATOM     24  C23 ZIN A   1      18.582  -1.095  15.960  0.00  0.00     0.204 C 
ATOM     25  O24 ZIN A   1      17.426  -0.941  16.312  0.00  0.00    -0.646 OA
ATOM     26  O25 ZIN A   1      19.349  -1.745  16.652  0.00  0.00    -0.646 OA
ENDBRANCH  19  24
ENDBRANCH  18  19
ENDBRANCH  17  18
ENDBRANCH   1  17
TORSDOF 11
ENDMDL
MODEL 2
REMARK VINA RESULT:      -5.9      2.369      3.425
REMARK  11 active torsions:
REMARK  status: ('A' for Active; 'I' for Inactive)
REMARK    1  A    between atoms: N1_1  and  C5_5 
REMARK    2  A    between atoms: C5_5  and  C7_6 
REMARK    3  A    between atoms: C5_5  and  C23_21 
REMARK    4  A    between atoms: C7_6  and  C8_7 
REMARK    5  A    between atoms: C8_7  and  C9_8 
REMARK       I    between atoms: C9_8  and  N11_10 
REMARK    6  A    between atoms: N11_10  and  C12_11 
REMARK    7  A    between atoms: C12_11  and  C14_12 
REMARK    8  A    between atoms: C12_11  and  C16_14 
REMARK    9  A    between atoms: C14_12  and  S15_13 
REMARK       I    between atoms: C16_14  and  N18_16 
REMARK   10  A    between atoms: N18_16  and  C19_17 
REMARK   11  A    between atoms: C19_17  and  C20_18 
ROOT
ATOM      1  C9  ZIN A   1      18.034  -0.962  11.414  0.00  0.00     0.218 C 
ATOM      2  O10 ZIN A   1      16.827  -0.860  11.479  0.00  0.00    -0.274 OA
ATOM      3  N11 ZIN A   1      18.718  -0.280  10.474  0.00  0.00    -0.347 N 
ATOM      4  H30 ZIN A   1      19.683  -0.361  10.423  0.00  0.00     0.163 HD
ENDROOT
BRANCH   3   5
ATOM      5  C12 ZIN A   1      18.004   0.584   9.532  0.00  0.00     0.185 C 
BRANCH   5   6
ATOM      6  C14 ZIN A   1      18.818   1.858   9.290  0.00  0.00     0.105 C 
BRANCH   6   7
ATOM      7  S15 ZIN A   1      19.375   2.530  10.880  0.00  0.00    -0.180 SA
ATOM      8  H33 ZIN A   1      19.393   1.447  11.677  0.00  0.00     0.101 HD
ENDBRANCH   6   7
ENDBRANCH   5   6
BRANCH   5   9
ATOM      9  C16 ZIN A   1      17.813  -0.145   8.226  0.00  0.00     0.241 C 
ATOM     10  O17 ZIN A   1      16.720  -0.175   7.702  0.00  0.00    -0.271 OA
ATOM     11  N18 ZIN A   1      18.858  -0.765   7.643  0.00  0.00    -0.349 N 
ATOM     12  H34 ZIN A   1      19.732  -0.742   8.062  0.00  0.00     0.163 HD
BRANCH  11  13
ATOM     13  C19 ZIN A   1      18.673  -1.475   6.374  0.00  0.00     0.235 C 
BRANCH  13  14
ATOM     14  C20 ZIN A   1      19.334  -0.699   5.264  0.00  0.00     0.191 C 
ATOM     15  O21 ZIN A   1      19.348   0.519   5.297  0.00  0.00    -0.647 OA
ATOM     16  O22 ZIN A   1      19.852  -1.290   4.332  0.00  0.00    -0.647 OA
ENDBRANCH  13  14
ENDBRANCH  11  13
ENDBRANCH   5   9
ENDBRANCH   3   5
BRANCH   1  17
ATOM     17  C8  ZIN A   1      18.768  -1.852  12.384  0.00  0.00     0.105 C 
BRANCH  17  18
ATOM     18  C7  ZIN A   1      18.371  -3.310  12.140  0.00  0.00     0.053 C 
BRANCH  18  19
ATOM     19  C5  ZIN A   1      19.516  -4.039  11.437  0.00  0.00     0.283 C 
BRANCH  19  20
ATOM     20  N1  ZIN A   1      20.746  -3.245  11.549  0.00  0.00    -0.065 N 
ATOM     21  H2  ZIN A   1      20.799  -2.595  10.780  0.00  0.00     0.275 HD
ATOM     22  H3  ZIN A   1      21.547  -3.859  11.525  0.00  0.00     0.275 HD
ATOM     23  H4  ZIN A   1      20.740  -2.736  12.420  0.00  0.00     0.275 HD
ENDBRANCH  19  20
BRANCH  19  24
ATOM     24  C23 ZIN A   1      19.172  -4.229   9.982  0.00  0.00     0.204 C 
ATOM     25  O24 ZIN A   1      19.170  -3.273   9.226  0.00  0.00    -0.646 OA
ATOM     26  O25 ZIN A   1      18.895  -5.340   9.561  0.00  0.00    -0.646 OA
ENDBRANCH  19  24
ENDBRANCH  18  19
ENDBRANCH  17  18
ENDBRANCH   1  17
TORSDOF 11
ENDMDL
MODEL 3
REMARK VINA RESULT:      -5.8      2.809      6.516
REMARK  11 active torsions:
REMARK  status: ('A' for Active; 'I' for Inactive)
REMARK    1  A    between atoms: N1_1  and  C5_5 
REMARK    2  A    between atoms: C5_5  and  C7_6 
REMARK    3  A    between atoms: C5_5  and  C23_21 
REMARK    4  A    between atoms: C7_6  and  C8_7 
REMARK    5  A    between atoms: C8_7  and  C9_8 
REMARK       I    between atoms: C9_8  and  N11_10 
REMARK    6  A    between atoms: N11_10  and  C12_11 
REMARK    7  A    between atoms: C12_11  and  C14_12 
REMARK    8  A    between atoms: C12_11  and  C16_14 
REMARK    9  A    between atoms: C14_12  and  S15_13 
REMARK       I    between atoms: C16_14  and  N18_16 
REMARK   10  A    between atoms: N18_16  and  C19_17 
REMARK   11  A    between atoms: C19_17  and  C20_18 
ROOT
ATOM      1  C9  ZIN A   1      18.999  -0.132   9.365  0.00  0.00     0.218 C 
ATOM      2  O10 ZIN A   1      20.148  -0.392   9.074  0.00  0.00    -0.274 OA
ATOM      3  N11 ZIN A   1      18.534  -0.421  10.596  0.00  0.00    -0.347 N 
ATOM      4  H30 ZIN A   1      17.616  -0.212  10.829  0.00  0.00     0.163 HD
ENDROOT
BRANCH   3   5
ATOM      5  C12 ZIN A   1      19.416  -1.049  11.584  0.00  0.00     0.185 C 
BRANCH   5   6
ATOM      6  C14 ZIN A   1      19.056  -0.544  12.983  0.00  0.00     0.105 C 
BRANCH   6   7
ATOM      7  S15 ZIN A   1      17.701   0.656  12.863  0.00  0.00    -0.180 SA
ATOM      8  H33 ZIN A   1      16.731   0.092  13.603  0.00  0.00     0.101 HD
ENDBRANCH   6   7
ENDBRANCH   5   6
BRANCH   5   9
ATOM      9  C16 ZIN A   1      19.245  -2.545  11.530  0.00  0.00     0.241 C 
ATOM     10  O17 ZIN A   1      18.382  -3.081  12.192  0.00  0.00    -0.271 OA
ATOM     11  N18 ZIN A   1      20.052  -3.288  10.746  0.00  0.00    -0.349 N 
ATOM     12  H34 ZIN A   1      20.742  -2.860  10.217  0.00  0.00     0.163 HD
BRANCH  11  13
ATOM     13  C19 ZIN A   1      19.885  -4.742  10.694  0.00  0.00     0.235 C 
BRANCH  13  14
ATOM     14  C20 ZIN A   1      19.772  -5.183   9.257  0.00  0.00     0.191 C 
ATOM     15  O21 ZIN A   1      19.121  -4.522   8.466  0.00  0.00    -0.647 OA
ATOM     16  O22 ZIN A   1      20.329  -6.203   8.886  0.00  0.00    -0.647 OA
ENDBRANCH  13  14
ENDBRANCH  11  13
ENDBRANCH   5   9
ENDBRANCH   3   5
BRANCH   1  17
ATOM     17  C8  ZIN A   1      18.093   0.513   8.349  0.00  0.00     0.105 C 
BRANCH  17  18
ATOM     18  C7  ZIN A   1      18.895   0.855   7.092  0.00  0.00     0.053 C 
BRANCH  18  19
ATOM     19  C5  ZIN A   1      18.341   0.067   5.904  0.00  0.00     0.283 C 
BRANCH  19  20
ATOM     20  N1  ZIN A   1      17.079  -0.576   6.288  0.00  0.00    -0.065 N 
ATOM     21  H2  ZIN A   1      16.435   0.122   6.630  0.00  0.00     0.275 HD
ATOM     22  H3  ZIN A   1      17.254  -1.256   7.013  0.00  0.00     0.275 HD
ATOM     23  H4  ZIN A   1      16.678  -1.038   5.485  0.00  0.00     0.275 HD
ENDBRANCH  19  20
BRANCH  19  24
ATOM     24  C23 ZIN A   1      19.337  -0.987   5.491  0.00  0.00     0.204 C 
ATOM     25  O24 ZIN A   1      19.914  -0.894   4.422  0.00  0.00    -0.646 OA
ATOM     26  O25 ZIN A   1      19.564  -1.932   6.227  0.00  0.00    -0.646 OA
ENDBRANCH  19  24
ENDBRANCH  18  19
ENDBRANCH  17  18
ENDBRANCH   1  17
TORSDOF 11
ENDMDL
MODEL 4
REMARK VINA RESULT:      -5.7      4.665      6.684
REMARK  11 active torsions:
REMARK  status: ('A' for Active; 'I' for Inactive)
REMARK    1  A    between atoms: N1_1  and  C5_5 
REMARK    2  A    between atoms: C5_5  and  C7_6 
REMARK    3  A    between atoms: C5_5  and  C23_21 
REMARK    4  A    between atoms: C7_6  and  C8_7 
REMARK    5  A    between atoms: C8_7  and  C9_8 
REMARK       I    between atoms: C9_8  and  N11_10 
REMARK    6  A    between atoms: N11_10  and  C12_11 
REMARK    7  A    between atoms: C12_11  and  C14_12 
REMARK    8  A    between atoms: C12_11  and  C16_14 
REMARK    9  A    between atoms: C14_12  and  S15_13 
REMARK       I    between atoms: C16_14  and  N18_16 
REMARK   10  A    between atoms: N18_16  and  C19_17 
REMARK   11  A    between atoms: C19_17  and  C20_18 
ROOT
ATOM      1  C9  ZIN A   1      19.203   0.252  13.813  0.00  0.00     0.218 C 
ATOM      2  O10 ZIN A   1      20.409   0.116  13.836  0.00  0.00    -0.274 OA
ATOM      3  N11 ZIN A   1      18.652   1.250  13.095  0.00  0.00    -0.347 N 
ATOM      4  H30 ZIN A   1      17.688   1.358  13.076  0.00  0.00     0.163 HD
ENDROOT
BRANCH   3   5
ATOM      5  C12 ZIN A   1      19.507   2.171  12.343  0.00  0.00     0.185 C 
BRANCH   5   6
ATOM      6  C14 ZIN A   1      19.216   2.032  10.847  0.00  0.00     0.105 C 
BRANCH   6   7
ATOM      7  S15 ZIN A   1      17.609   1.221  10.617  0.00  0.00    -0.180 SA
ATOM      8  H33 ZIN A   1      17.133   1.132  11.871  0.00  0.00     0.101 HD
ENDBRANCH   6   7
ENDBRANCH   5   6
BRANCH   5   9
ATOM      9  C16 ZIN A   1      19.228   3.586  12.781  0.00  0.00     0.241 C 
ATOM     10  O17 ZIN A   1      19.000   4.443  11.954  0.00  0.00    -0.271 OA
ATOM     11  N18 ZIN A   1      19.231   3.899  14.092  0.00  0.00    -0.349 N 
ATOM     12  H34 ZIN A   1      19.413   3.215  14.753  0.00  0.00     0.163 HD
BRANCH  11  13
ATOM     13  C19 ZIN A   1      18.959   5.275  14.517  0.00  0.00     0.235 C 
BRANCH  13  14
ATOM     14  C20 ZIN A   1      20.235   5.910  15.006  0.00  0.00     0.191 C 
ATOM     15  O21 ZIN A   1      20.658   6.920  14.470  0.00  0.00    -0.647 OA
ATOM     16  O22 ZIN A   1      20.846   5.413  15.937  0.00  0.00    -0.647 OA
ENDBRANCH  13  14
ENDBRANCH  11  13
ENDBRANCH   5   9
ENDBRANCH   3   5
BRANCH   1  17
ATOM     17  C8  ZIN A   1      18.323  -0.696  14.587  0.00  0.00     0.105 C 
BRANCH  17  18
ATOM     18  C7  ZIN A   1      18.947  -0.968  15.957  0.00  0.00     0.053 C 
BRANCH  18  19
ATOM     19  C5  ZIN A   1      18.261  -0.099  17.011  0.00  0.00     0.283 C 
BRANCH  19  20
ATOM     20  N1  ZIN A   1      17.002   0.427  16.469  0.00  0.00    -0.065 N 
ATOM     21  H2  ZIN A   1      17.161   1.343  16.077  0.00  0.00     0.275 HD
ATOM     22  H3  ZIN A   1      16.318   0.493  17.208  0.00  0.00     0.275 HD
ATOM     23  H4  ZIN A   1      16.660  -0.192  15.749  0.00  0.00     0.275 HD
ENDBRANCH  19  20
BRANCH  19  24
ATOM     24  C23 ZIN A   1      19.166   1.047  17.384  0.00  0.00     0.204 C 
ATOM     25  O24 ZIN A   1      19.197   2.049  16.692  0.00  0.00    -0.646 OA
ATOM     26  O25 ZIN A   1      19.867   0.971  18.379  0.00  0.00    -0.646 OA
ENDBRANCH  19  24
ENDBRANCH  18  19
ENDBRANCH  17  18
ENDBRANCH   1  17
TORSDOF 11
ENDMDL
MODEL 5
REMARK VINA RESULT:      -5.7      3.668      4.897
REMARK  11 active torsions:
REMARK  status: ('A' for Active; 'I' for Inactive)
REMARK    1  A    between atoms: N1_1  and  C5_5 
REMARK    2  A    between atoms: C5_5  and  C7_6 
REMARK    3  A    between atoms: C5_5  and  C23_21 
REMARK    4  A    between atoms: C7_6  and  C8_7 
REMARK    5  A    between atoms: C8_7  and  C9_8 
REMARK       I    between atoms: C9_8  and  N11_10 
REMARK    6  A    between atoms: N11_10  and  C12_11 
REMARK    7  A    between atoms: C12_11  and  C14_12 
REMARK    8  A    between atoms: C12_11  and  C16_14 
REMARK    9  A    between atoms: C14_12  and  S15_13 
REMARK       I    between atoms: C16_14  and  N18_16 
REMARK   10  A    between atoms: N18_16  and  C19_17 
REMARK   11  A    between atoms: C19_17  and  C20_18 
ROOT
ATOM      1  C9  ZIN A   1      18.951  -0.660  14.076  0.00  0.00     0.218 C 
ATOM      2  O10 ZIN A   1      19.842   0.158  14.176  0.00  0.00    -0.274 OA
ATOM      3  N11 ZIN A   1      18.782  -1.333  12.921  0.00  0.00    -0.347 N 
ATOM      4  H30 ZIN A   1      18.070  -1.988  12.841  0.00  0.00     0.163 HD
ENDROOT
BRANCH   3   5
ATOM      5  C12 ZIN A   1      19.672  -1.077  11.786  0.00  0.00     0.185 C 
BRANCH   5   6
ATOM      6  C14 ZIN A   1      19.738  -2.321  10.898  0.00  0.00     0.105 C 
BRANCH   6   7
ATOM      7  S15 ZIN A   1      18.688  -3.623  11.602  0.00  0.00    -0.180 SA
ATOM      8  H33 ZIN A   1      18.221  -4.257  10.511  0.00  0.00     0.101 HD
ENDBRANCH   6   7
ENDBRANCH   5   6
BRANCH   5   9
ATOM      9  C16 ZIN A   1      19.144   0.085  10.985  0.00  0.00     0.241 C 
ATOM     10  O17 ZIN A   1      18.180  -0.063  10.264  0.00  0.00    -0.271 OA
ATOM     11  N18 ZIN A   1      19.743   1.290  11.071  0.00  0.00    -0.349 N 
ATOM     12  H34 ZIN A   1      20.514   1.409  11.646  0.00  0.00     0.163 HD
BRANCH  11  13
ATOM     13  C19 ZIN A   1      19.229   2.420  10.292  0.00  0.00     0.235 C 
BRANCH  13  14
ATOM     14  C20 ZIN A   1      18.329   3.260  11.161  0.00  0.00     0.191 C 
ATOM     15  O21 ZIN A   1      17.156   3.406  10.863  0.00  0.00    -0.647 OA
ATOM     16  O22 ZIN A   1      18.775   3.797  12.161  0.00  0.00    -0.647 OA
ENDBRANCH  13  14
ENDBRANCH  11  13
ENDBRANCH   5   9
ENDBRANCH   3   5
BRANCH   1  17
ATOM     17  C8  ZIN A   1      18.035  -0.923  15.243  0.00  0.00     0.105 C 
BRANCH  17  18
ATOM     18  C7  ZIN A   1      18.854  -0.973  16.534  0.00  0.00     0.053 C 
BRANCH  18  19
ATOM     19  C5  ZIN A   1      18.254  -0.006  17.556  0.00  0.00     0.283 C 
BRANCH  19  20
ATOM     20  N1  ZIN A   1      16.909   0.393  17.123  0.00  0.00    -0.065 N 
ATOM     21  H2  ZIN A   1      16.975   0.936  16.275  0.00  0.00     0.275 HD
ATOM     22  H3  ZIN A   1      16.474   0.948  17.845  0.00  0.00     0.275 HD
ATOM     23  H4  ZIN A   1      16.352  -0.431  16.952  0.00  0.00     0.275 HD
ENDBRANCH  19  20
BRANCH  19  24
ATOM     24  C23 ZIN A   1      19.130   1.216  17.665  0.00  0.00     0.204 C 
ATOM     25  O24 ZIN A   1      19.064   2.091  16.820  0.00  0.00    -0.646 OA
ATOM     26  O25 ZIN A   1      19.904   1.329  18.600  0.00  0.00    -0.646 OA
ENDBRANCH  19  24
ENDBRANCH  18  19
ENDBRANCH  17  18
ENDBRANCH   1  17
TORSDOF 11
ENDMDL
MODEL 6
REMARK VINA RESULT:      -5.7      3.127      3.725
REMARK  11 active torsions:
REMARK  status: ('A' for Active; 'I' for Inactive)
REMARK    1  A    between atoms: N1_1  and  C5_5 
REMARK    2  A    between atoms: C5_5  and  C7_6 
REMARK    3  A    between atoms: C5_5  and  C23_21 
REMARK    4  A    between atoms: C7_6  and  C8_7 
REMARK    5  A    between atoms: C8_7  and  C9_8 
REMARK       I    between atoms: C9_8  and  N11_10 
REMARK    6  A    between atoms: N11_10  and  C12_11 
REMARK    7  A    between atoms: C12_11  and  C14_12 
REMARK    8  A    between atoms: C12_11  and  C16_14 
REMARK    9  A    between atoms: C14_12  and  S15_13 
REMARK       I    between atoms: C16_14  and  N18_16 
REMARK   10  A    between atoms: N18_16  and  C19_17 
REMARK   11  A    between atoms: C19_17  and  C20_18 
ROOT
ATOM      1  C9  ZIN A   1      19.044  -2.072  12.092  0.00  0.00     0.218 C 
ATOM      2  O10 ZIN A   1      20.001  -2.819  12.108  0.00  0.00    -0.274 OA
ATOM      3  N11 ZIN A   1      18.301  -1.954  10.974  0.00  0.00    -0.347 N 
ATOM      4  H30 ZIN A   1      17.536  -1.357  10.962  0.00  0.00     0.163 HD
ENDROOT
BRANCH   3   5
ATOM      5  C12 ZIN A   1      18.647  -2.727   9.779  0.00  0.00     0.185 C 
BRANCH   5   6
ATOM      6  C14 ZIN A   1      17.566  -3.779   9.522  0.00  0.00     0.105 C 
BRANCH   6   7
ATOM      7  S15 ZIN A   1      18.276  -5.437   9.720  0.00  0.00    -0.180 SA
ATOM      8  H33 ZIN A   1      18.599  -5.780   8.460  0.00  0.00     0.101 HD
ENDBRANCH   6   7
ENDBRANCH   5   6
BRANCH   5   9
ATOM      9  C16 ZIN A   1      18.740  -1.802   8.592  0.00  0.00     0.241 C 
ATOM     10  O17 ZIN A   1      19.360  -0.764   8.680  0.00  0.00    -0.271 OA
ATOM     11  N18 ZIN A   1      18.134  -2.129   7.434  0.00  0.00    -0.349 N 
ATOM     12  H34 ZIN A   1      17.637  -2.959   7.364  0.00  0.00     0.163 HD
BRANCH  11  13
ATOM     13  C19 ZIN A   1      18.225  -1.230   6.281  0.00  0.00     0.235 C 
BRANCH  13  14
ATOM     14  C20 ZIN A   1      19.313  -1.710   5.355  0.00  0.00     0.191 C 
ATOM     15  O21 ZIN A   1      19.862  -0.925   4.601  0.00  0.00    -0.647 OA
ATOM     16  O22 ZIN A   1      19.642  -2.884   5.357  0.00  0.00    -0.647 OA
ENDBRANCH  13  14
ENDBRANCH  11  13
ENDBRANCH   5   9
ENDBRANCH   3   5
BRANCH   1  17
ATOM     17  C8  ZIN A   1      18.689  -1.277  13.322  0.00  0.00     0.105 C 
BRANCH  17  18
ATOM     18  C7  ZIN A   1      19.750  -0.199  13.556  0.00  0.00     0.053 C 
BRANCH  18  19
ATOM     19  C5  ZIN A   1      20.090   0.480  12.229  0.00  0.00     0.283 C 
BRANCH  19  20
ATOM     20  N1  ZIN A   1      21.548   0.554  12.075  0.00  0.00    -0.065 N 
ATOM     21  H2  ZIN A   1      21.988  -0.095  12.711  0.00  0.00     0.275 HD
ATOM     22  H3  ZIN A   1      21.862   1.491  12.282  0.00  0.00     0.275 HD
ATOM     23  H4  ZIN A   1      21.799   0.317  11.127  0.00  0.00     0.275 HD
ENDBRANCH  19  20
BRANCH  19  24
ATOM     24  C23 ZIN A   1      19.512   1.872  12.215  0.00  0.00     0.204 C 
ATOM     25  O24 ZIN A   1      20.150   2.792  11.734  0.00  0.00    -0.646 OA
ATOM     26  O25 ZIN A   1      18.406   2.077  12.685  0.00  0.00    -0.646 OA
ENDBRANCH  19  24
ENDBRANCH  18  19
ENDBRANCH  17  18
ENDBRANCH   1  17
TORSDOF 11
ENDMDL
MODEL 7
REMARK VINA RESULT:      -5.7      4.077      7.914
REMARK  11 active torsions:
REMARK  status: ('A' for Active; 'I' for Inactive)
REMARK    1  A    between atoms: N1_1  and  C5_5 
REMARK    2  A    between atoms: C5_5  and  C7_6 
REMARK    3  A    between atoms: C5_5  and  C23_21 
REMARK    4  A    between atoms: C7_6  and  C8_7 
REMARK    5  A    between atoms: C8_7  and  C9_8 
REMARK       I    between atoms: C9_8  and  N11_10 
REMARK    6  A    between atoms: N11_10  and  C12_11 
REMARK    7  A    between atoms: C12_11  and  C14_12 
REMARK    8  A    between atoms: C12_11  and  C16_14 
REMARK    9  A    between atoms: C14_12  and  S15_13 
REMARK       I    between atoms: C16_14  and  N18_16 
REMARK   10  A    between atoms: N18_16  and  C19_17 
REMARK   11  A    between atoms: C19_17  and  C20_18 
ROOT
ATOM      1  C9  ZIN A   1      17.362   0.936  11.503  0.00  0.00     0.218 C 
ATOM      2  O10 ZIN A   1      16.336   0.292  11.577  0.00  0.00    -0.274 OA
ATOM      3  N11 ZIN A   1      18.268   0.877  12.499  0.00  0.00    -0.347 N 
ATOM      4  H30 ZIN A   1      19.088   1.392  12.439  0.00  0.00     0.163 HD
ENDROOT
BRANCH   3   5
ATOM      5  C12 ZIN A   1      18.014   0.037  13.672  0.00  0.00     0.185 C 
BRANCH   5   6
ATOM      6  C14 ZIN A   1      19.165  -0.957  13.846  0.00  0.00     0.105 C 
BRANCH   6   7
ATOM      7  S15 ZIN A   1      19.099  -2.196  12.522  0.00  0.00    -0.180 SA
ATOM      8  H33 ZIN A   1      18.584  -3.272  13.141  0.00  0.00     0.101 HD
ENDBRANCH   6   7
ENDBRANCH   5   6
BRANCH   5   9
ATOM      9  C16 ZIN A   1      17.910   0.906  14.899  0.00  0.00     0.241 C 
ATOM     10  O17 ZIN A   1      17.744   2.101  14.784  0.00  0.00    -0.271 OA
ATOM     11  N18 ZIN A   1      18.002   0.353  16.125  0.00  0.00    -0.349 N 
ATOM     12  H34 ZIN A   1      18.136  -0.602  16.218  0.00  0.00     0.163 HD
BRANCH  11  13
ATOM     13  C19 ZIN A   1      17.902   1.198  17.318  0.00  0.00     0.235 C 
BRANCH  13  14
ATOM     14  C20 ZIN A   1      19.284   1.501  17.837  0.00  0.00     0.191 C 
ATOM     15  O21 ZIN A   1      19.759   2.614  17.691  0.00  0.00    -0.647 OA
ATOM     16  O22 ZIN A   1      19.928   0.632  18.400  0.00  0.00    -0.647 OA
ENDBRANCH  13  14
ENDBRANCH  11  13
ENDBRANCH   5   9
ENDBRANCH   3   5
BRANCH   1  17
ATOM     17  C8  ZIN A   1      17.623   1.801  10.296  0.00  0.00     0.105 C 
BRANCH  17  18
ATOM     18  C7  ZIN A   1      18.259   3.119  10.741  0.00  0.00     0.053 C 
BRANCH  18  19
ATOM     19  C5  ZIN A   1      17.183   4.202  10.823  0.00  0.00     0.283 C 
BRANCH  19  20
ATOM     20  N1  ZIN A   1      17.450   5.236   9.815  0.00  0.00    -0.065 N 
ATOM     21  H2  ZIN A   1      18.166   4.913   9.182  0.00  0.00     0.275 HD
ATOM     22  H3  ZIN A   1      17.761   6.080  10.272  0.00  0.00     0.275 HD
ATOM     23  H4  ZIN A   1      16.605   5.427   9.297  0.00  0.00     0.275 HD
ENDBRANCH  19  20
BRANCH  19  24
ATOM     24  C23 ZIN A   1      17.200   4.824  12.196  0.00  0.00     0.204 C 
ATOM     25  O24 ZIN A   1      16.194   5.351  12.639  0.00  0.00    -0.646 OA
ATOM     26  O25 ZIN A   1      18.220   4.799  12.864  0.00  0.00    -0.646 OA
ENDBRANCH  19  24
ENDBRANCH  18  19
ENDBRANCH  17  18
ENDBRANCH   1  17
TORSDOF 11
ENDMDL
MODEL 8
REMARK VINA RESULT:      -5.7      4.448      5.880
REMARK  11 active torsions:
REMARK  status: ('A' for Active; 'I' for Inactive)
REMARK    1  A    between atoms: N1_1  and  C5_5 
REMARK    2  A    between atoms: C5_5  and  C7_6 
REMARK    3  A    between atoms: C5_5  and  C23_21 
REMARK    4  A    between atoms: C7_6  and  C8_7 
REMARK    5  A    between atoms: C8_7  and  C9_8 
REMARK       I    between atoms: C9_8  and  N11_10 
REMARK    6  A    between atoms: N11_10  and  C12_11 
REMARK    7  A    between atoms: C12_11  and  C14_12 
REMARK    8  A    between atoms: C12_11  and  C16_14 
REMARK    9  A    between atoms: C14_12  and  S15_13 
REMARK       I    between atoms: C16_14  and  N18_16 
REMARK   10  A    between atoms: N18_16  and  C19_17 
REMARK   11  A    between atoms: C19_17  and  C20_18 
ROOT
ATOM      1  C9  ZIN A   1      18.511  -1.008  15.239  0.00  0.00     0.218 C 
ATOM      2  O10 ZIN A   1      19.494  -1.622  14.877  0.00  0.00    -0.274 OA
ATOM      3  N11 ZIN A   1      17.839  -0.237  14.362  0.00  0.00    -0.347 N 
ATOM      4  H30 ZIN A   1      17.053   0.253  14.651  0.00  0.00     0.163 HD
ENDROOT
BRANCH   3   5
ATOM      5  C12 ZIN A   1      18.294  -0.139  12.973  0.00  0.00     0.185 C 
BRANCH   5   6
ATOM      6  C14 ZIN A   1      17.190  -0.640  12.038  0.00  0.00     0.105 C 
BRANCH   6   7
ATOM      7  S15 ZIN A   1      17.628  -2.286  11.414  0.00  0.00    -0.180 SA
ATOM      8  H33 ZIN A   1      18.812  -2.076  10.812  0.00  0.00     0.101 HD
ENDBRANCH   6   7
ENDBRANCH   5   6
BRANCH   5   9
ATOM      9  C16 ZIN A   1      18.613   1.298  12.649  0.00  0.00     0.241 C 
ATOM     10  O17 ZIN A   1      19.465   1.560  11.827  0.00  0.00    -0.271 OA
ATOM     11  N18 ZIN A   1      17.952   2.293  13.275  0.00  0.00    -0.349 N 
ATOM     12  H34 ZIN A   1      17.272   2.084  13.933  0.00  0.00     0.163 HD
BRANCH  11  13
ATOM     13  C19 ZIN A   1      18.262   3.689  12.960  0.00  0.00     0.235 C 
BRANCH  13  14
ATOM     14  C20 ZIN A   1      17.136   4.285  12.156  0.00  0.00     0.191 C 
ATOM     15  O21 ZIN A   1      16.466   5.190  12.622  0.00  0.00    -0.647 OA
ATOM     16  O22 ZIN A   1      16.893   3.860  11.039  0.00  0.00    -0.647 OA
ENDBRANCH  13  14
ENDBRANCH  11  13
ENDBRANCH   5   9
ENDBRANCH   3   5
BRANCH   1  17
ATOM     17  C8  ZIN A   1      18.044  -1.108  16.668  0.00  0.00     0.105 C 
BRANCH  17  18
ATOM     18  C7  ZIN A   1      19.051  -0.411  17.585  0.00  0.00     0.053 C 
BRANCH  18  19
ATOM     19  C5  ZIN A   1      18.464   0.915  18.071  0.00  0.00     0.283 C 
BRANCH  19  20
ATOM     20  N1  ZIN A   1      17.025   0.951  17.781  0.00  0.00    -0.065 N 
ATOM     21  H2  ZIN A   1      16.684   0.010  17.653  0.00  0.00     0.275 HD
ATOM     22  H3  ZIN A   1      16.865   1.483  16.939  0.00  0.00     0.275 HD
ATOM     23  H4  ZIN A   1      16.537   1.384  18.551  0.00  0.00     0.275 HD
ENDBRANCH  19  20
BRANCH  19  24
ATOM     24  C23 ZIN A   1      19.148   2.057  17.363  0.00  0.00     0.204 C 
ATOM     25  O24 ZIN A   1      19.163   2.097  16.145  0.00  0.00    -0.646 OA
ATOM     26  O25 ZIN A   1      19.686   2.940  18.009  0.00  0.00    -0.646 OA
ENDBRANCH  19  24
ENDBRANCH  18  19
ENDBRANCH  17  18
ENDBRANCH   1  17
TORSDOF 11
ENDMDL
MODEL 9
REMARK VINA RESULT:      -5.6      3.984      5.525
REMARK  11 active torsions:
REMARK  status: ('A' for Active; 'I' for Inactive)
REMARK    1  A    between atoms: N1_1  and  C5_5 
REMARK    2  A    between atoms: C5_5  and  C7_6 
REMARK    3  A    between atoms: C5_5  and  C23_21 
REMARK    4  A    between atoms: C7_6  and  C8_7 
REMARK    5  A    between atoms: C8_7  and  C9_8 
REMARK       I    between atoms: C9_8  and  N11_10 
REMARK    6  A    between atoms: N11_10  and  C12_11 
REMARK    7  A    between atoms: C12_11  and  C14_12 
REMARK    8  A    between atoms: C12_11  and  C16_14 
REMARK    9  A    between atoms: C14_12  and  S15_13 
REMARK       I    between atoms: C16_14  and  N18_16 
REMARK   10  A    between atoms: N18_16  and  C19_17 
REMARK   11  A    between atoms: C19_17  and  C20_18 
ROOT
ATOM      1  C9  ZIN A   1      18.837  -0.183   8.204  0.00  0.00     0.218 C 
ATOM      2  O10 ZIN A   1      17.628  -0.073   8.192  0.00  0.00    -0.274 OA
ATOM      3  N11 ZIN A   1      19.414  -1.316   7.757  0.00  0.00    -0.347 N 
ATOM      4  H30 ZIN A   1      20.380  -1.404   7.766  0.00  0.00     0.163 HD
ENDROOT
BRANCH   3   5
ATOM      5  C12 ZIN A   1      18.582  -2.414   7.258  0.00  0.00     0.185 C 
BRANCH   5   6
ATOM      6  C14 ZIN A   1      19.182  -2.958   5.960  0.00  0.00     0.105 C 
BRANCH   6   7
ATOM      7  S15 ZIN A   1      18.109  -2.514   4.566  0.00  0.00    -0.180 SA
ATOM      8  H33 ZIN A   1      18.127  -3.622   3.805  0.00  0.00     0.101 HD
ENDBRANCH   6   7
ENDBRANCH   5   6
BRANCH   5   9
ATOM      9  C16 ZIN A   1      18.532  -3.514   8.288  0.00  0.00     0.241 C 
ATOM     10  O17 ZIN A   1      17.468  -3.999   8.607  0.00  0.00    -0.271 OA
ATOM     11  N18 ZIN A   1      19.672  -3.958   8.855  0.00  0.00    -0.349 N 
ATOM     12  H34 ZIN A   1      20.523  -3.570   8.601  0.00  0.00     0.163 HD
BRANCH  11  13
ATOM     13  C19 ZIN A   1      19.623  -5.027   9.856  0.00  0.00     0.235 C 
BRANCH  13  14
ATOM     14  C20 ZIN A   1      19.531  -4.421  11.233  0.00  0.00     0.191 C 
ATOM     15  O21 ZIN A   1      18.500  -4.523  11.876  0.00  0.00    -0.647 OA
ATOM     16  O22 ZIN A   1      20.486  -3.827  11.703  0.00  0.00    -0.647 OA
ENDBRANCH  13  14
ENDBRANCH  11  13
ENDBRANCH   5   9
ENDBRANCH   3   5
BRANCH   1  17
ATOM     17  C8  ZIN A   1      19.691   0.947   8.718  0.00  0.00     0.105 C 
BRANCH  17  18
ATOM     18  C7  ZIN A   1      18.870   2.237   8.745  0.00  0.00     0.053 C 
BRANCH  18  19
ATOM     19  C5  ZIN A   1      18.929   2.849  10.146  0.00  0.00     0.283 C 
BRANCH  19  20
ATOM     20  N1  ZIN A   1      19.930   2.137  10.950  0.00  0.00    -0.065 N 
ATOM     21  H2  ZIN A   1      19.656   2.155  11.921  0.00  0.00     0.275 HD
ATOM     22  H3  ZIN A   1      20.827   2.586  10.846  0.00  0.00     0.275 HD
ATOM     23  H4  ZIN A   1      19.994   1.180  10.637  0.00  0.00     0.275 HD
ENDBRANCH  19  20
BRANCH  19  24
ATOM     24  C23 ZIN A   1      17.578   2.729  10.804  0.00  0.00     0.204 C 
ATOM     25  O24 ZIN A   1      16.906   3.726  11.002  0.00  0.00    -0.646 OA
ATOM     26  O25 ZIN A   1      17.158   1.634  11.138  0.00  0.00    -0.646 OA
ENDBRANCH  19  24
ENDBRANCH  18  19
ENDBRANCH  17  18
ENDBRANCH   1  17
TORSDOF 11
ENDMDL
