MODEL 1
REMARK VINA RESULT:      -6.5      0.000      0.000
REMARK  1 active torsions:
REMARK  status: ('A' for Active; 'I' for Inactive)
REMARK    1  A    between atoms: C6_6  and  C8_8 
ROOT
ATOM      1  C1  <0> d   1      21.066   0.637  12.233  0.00  0.00     0.162 C 
ATOM      2  N2  <0> d   1      19.835   0.944  11.500  0.00  0.00    -0.292 N 
ATOM      3  C3  <0> d   1      19.275   2.160  11.502  0.00  0.00     0.227 A 
ATOM      4  O4  <0> d   1      19.702   3.129  12.091  0.00  0.00    -0.273 OA
ATOM      5  C5  <0> d   1      18.024   2.133  10.652  0.00  0.00     0.127 A 
ATOM      6  C6  <0> d   1      17.957   0.675  10.153  0.00  0.00     0.073 A 
ATOM      7  C7  <0> d   1      16.679  -0.006  10.647  0.00  0.00     0.031 C 
ATOM      8  C14 <0> d   1      19.181   0.033  10.769  0.00  0.00     0.239 A 
ATOM      9  O15 <0> d   1      19.512  -1.124  10.629  0.00  0.00    -0.272 OA
ENDROOT
BRANCH   6  10
ATOM     10  C8  <0> d   1      18.035   0.625   8.649  0.00  0.00    -0.040 A 
ATOM     11  C13 <0> d   1      18.971   1.390   7.978  0.00  0.00     0.008 A 
ATOM     12  C12 <0> d   1      19.044   1.341   6.600  0.00  0.00     0.001 A 
ATOM     13  C11 <0> d   1      18.176   0.533   5.889  0.00  0.00     0.000 A 
ATOM     14  C10 <0> d   1      17.237  -0.229   6.559  0.00  0.00     0.001 A 
ATOM     15  C9  <0> d   1      17.166  -0.183   7.938  0.00  0.00     0.008 A 
ENDBRANCH   6  10
TORSDOF 1
ENDMDL
MODEL 2
REMARK VINA RESULT:      -6.4      1.734      2.418
REMARK  1 active torsions:
REMARK  status: ('A' for Active; 'I' for Inactive)
REMARK    1  A    between atoms: C6_6  and  C8_8 
ROOT
ATOM      1  C1  <0> d   1      17.857  -0.856  13.473  0.00  0.00     0.162 C 
ATOM      2  N2  <0> d   1      18.261   0.139  12.476  0.00  0.00    -0.292 N 
ATOM      3  C3  <0> d   1      19.498   0.647  12.420  0.00  0.00     0.227 A 
ATOM      4  O4  <0> d   1      20.411   0.357  13.162  0.00  0.00    -0.273 OA
ATOM      5  C5  <0> d   1      19.577   1.641  11.282  0.00  0.00     0.127 A 
ATOM      6  C6  <0> d   1      18.155   1.620  10.684  0.00  0.00     0.073 A 
ATOM      7  C7  <0> d   1      17.503   2.999  10.793  0.00  0.00     0.031 C 
ATOM      8  C14 <0> d   1      17.424   0.611  11.544  0.00  0.00     0.239 A 
ATOM      9  O15 <0> d   1      16.264   0.287  11.413  0.00  0.00    -0.272 OA
ENDROOT
BRANCH   6  10
ATOM     10  C8  <0> d   1      18.190   1.164   9.249  0.00  0.00    -0.040 A 
ATOM     11  C13 <0> d   1      17.431   0.080   8.848  0.00  0.00     0.008 A 
ATOM     12  C12 <0> d   1      17.461  -0.336   7.531  0.00  0.00     0.001 A 
ATOM     13  C11 <0> d   1      18.256   0.326   6.614  0.00  0.00     0.000 A 
ATOM     14  C10 <0> d   1      19.019   1.408   7.015  0.00  0.00     0.001 A 
ATOM     15  C9  <0> d   1      18.985   1.826   8.332  0.00  0.00     0.008 A 
ENDBRANCH   6  10
TORSDOF 1
ENDMDL
MODEL 3
REMARK VINA RESULT:      -6.3      2.440      4.751
REMARK  1 active torsions:
REMARK  status: ('A' for Active; 'I' for Inactive)
REMARK    1  A    between atoms: C6_6  and  C8_8 
ROOT
ATOM      1  C1  <0> d   1      17.044  -0.260   7.876  0.00  0.00     0.162 C 
ATOM      2  N2  <0> d   1      17.881   0.646   8.666  0.00  0.00    -0.292 N 
ATOM      3  C3  <0> d   1      18.918   1.313   8.145  0.00  0.00     0.227 A 
ATOM      4  O4  <0> d   1      19.283   1.253   6.991  0.00  0.00    -0.273 OA
ATOM      5  C5  <0> d   1      19.563   2.153   9.225  0.00  0.00     0.127 A 
ATOM      6  C6  <0> d   1      18.710   1.853  10.475  0.00  0.00     0.073 A 
ATOM      7  C7  <0> d   1      19.564   1.213  11.570  0.00  0.00     0.031 C 
ATOM      8  C14 <0> d   1      17.669   0.879   9.967  0.00  0.00     0.239 A 
ATOM      9  O15 <0> d   1      16.787   0.383  10.634  0.00  0.00    -0.272 OA
ENDROOT
BRANCH   6  10
ATOM     10  C8  <0> d   1      18.053   3.110  10.983  0.00  0.00    -0.040 A 
ATOM     11  C13 <0> d   1      17.792   3.258  12.333  0.00  0.00     0.008 A 
ATOM     12  C12 <0> d   1      17.194   4.413  12.798  0.00  0.00     0.001 A 
ATOM     13  C11 <0> d   1      16.847   5.418  11.914  0.00  0.00     0.000 A 
ATOM     14  C10 <0> d   1      17.104   5.269  10.564  0.00  0.00     0.001 A 
ATOM     15  C9  <0> d   1      17.707   4.115  10.098  0.00  0.00     0.008 A 
ENDBRANCH   6  10
TORSDOF 1
ENDMDL
MODEL 4
REMARK VINA RESULT:      -6.2      1.627      1.906
REMARK  1 active torsions:
REMARK  status: ('A' for Active; 'I' for Inactive)
REMARK    1  A    between atoms: C6_6  and  C8_8 
ROOT
ATOM      1  C1  <0> d   1      19.893   1.632  11.785  0.00  0.00     0.162 C 
ATOM      2  N2  <0> d   1      19.063   0.902  10.823  0.00  0.00    -0.292 N 
ATOM      3  C3  <0> d   1      17.760   1.158  10.650  0.00  0.00     0.227 A 
ATOM      4  O4  <0> d   1      17.124   2.000  11.247  0.00  0.00    -0.273 OA
ATOM      5  C5  <0> d   1      17.207   0.231   9.590  0.00  0.00     0.127 A 
ATOM      6  C6  <0> d   1      18.429  -0.615   9.177  0.00  0.00     0.073 A 
ATOM      7  C7  <0> d   1      18.185  -2.096   9.471  0.00  0.00     0.031 C 
ATOM      8  C14 <0> d   1      19.545  -0.073  10.043  0.00  0.00     0.239 A 
ATOM      9  O15 <0> d   1      20.693  -0.463  10.036  0.00  0.00    -0.272 OA
ENDROOT
BRANCH   6  10
ATOM     10  C8  <0> d   1      18.746  -0.412   7.718  0.00  0.00    -0.040 A 
ATOM     11  C13 <0> d   1      18.763   0.864   7.184  0.00  0.00     0.008 A 
ATOM     12  C12 <0> d   1      19.057   1.050   5.848  0.00  0.00     0.001 A 
ATOM     13  C11 <0> d   1      19.326  -0.039   5.040  0.00  0.00     0.000 A 
ATOM     14  C10 <0> d   1      19.305  -1.315   5.572  0.00  0.00     0.001 A 
ATOM     15  C9  <0> d   1      19.015  -1.501   6.910  0.00  0.00     0.008 A 
ENDBRANCH   6  10
TORSDOF 1
ENDMDL
MODEL 5
REMARK VINA RESULT:      -6.2      2.022      4.174
REMARK  1 active torsions:
REMARK  status: ('A' for Active; 'I' for Inactive)
REMARK    1  A    between atoms: C6_6  and  C8_8 
ROOT
ATOM      1  C1  <0> d   1      19.405  -1.138  12.824  0.00  0.00     0.162 C 
ATOM      2  N2  <0> d   1      18.796  -0.295  11.791  0.00  0.00    -0.292 N 
ATOM      3  C3  <0> d   1      17.631  -0.598  11.205  0.00  0.00     0.227 A 
ATOM      4  O4  <0> d   1      16.955  -1.575  11.447  0.00  0.00    -0.273 OA
ATOM      5  C5  <0> d   1      17.292   0.473  10.191  0.00  0.00     0.127 A 
ATOM      6  C6  <0> d   1      18.475   1.457  10.294  0.00  0.00     0.073 A 
ATOM      7  C7  <0> d   1      19.219   1.548   8.961  0.00  0.00     0.031 C 
ATOM      8  C14 <0> d   1      19.356   0.841  11.360  0.00  0.00     0.239 A 
ATOM      9  O15 <0> d   1      20.405   1.301  11.755  0.00  0.00    -0.272 OA
ENDROOT
BRANCH   6  10
ATOM     10  C8  <0> d   1      17.996   2.818  10.727  0.00  0.00    -0.040 A 
ATOM     11  C13 <0> d   1      17.987   3.867   9.826  0.00  0.00     0.008 A 
ATOM     12  C12 <0> d   1      17.544   5.115  10.222  0.00  0.00     0.001 A 
ATOM     13  C11 <0> d   1      17.119   5.317  11.522  0.00  0.00     0.000 A 
ATOM     14  C10 <0> d   1      17.132   4.269  12.424  0.00  0.00     0.001 A 
ATOM     15  C9  <0> d   1      17.571   3.021  12.027  0.00  0.00     0.008 A 
ENDBRANCH   6  10
TORSDOF 1
ENDMDL
MODEL 6
REMARK VINA RESULT:      -6.0      2.957      4.414
REMARK  1 active torsions:
REMARK  status: ('A' for Active; 'I' for Inactive)
REMARK    1  A    between atoms: C6_6  and  C8_8 
ROOT
ATOM      1  C1  <0> d   1      19.413   1.936  10.413  0.00  0.00     0.162 C 
ATOM      2  N2  <0> d   1      18.935   0.872  11.299  0.00  0.00    -0.292 N 
ATOM      3  C3  <0> d   1      17.702   0.866  11.823  0.00  0.00     0.227 A 
ATOM      4  O4  <0> d   1      16.855   1.713  11.636  0.00  0.00    -0.273 OA
ATOM      5  C5  <0> d   1      17.535  -0.365  12.687  0.00  0.00     0.127 A 
ATOM      6  C6  <0> d   1      18.899  -1.077  12.570  0.00  0.00     0.073 A 
ATOM      7  C7  <0> d   1      19.572  -1.179  13.940  0.00  0.00     0.031 C 
ATOM      8  C14 <0> d   1      19.691  -0.176  11.648  0.00  0.00     0.239 A 
ATOM      9  O15 <0> d   1      20.832  -0.368  11.288  0.00  0.00    -0.272 OA
ENDROOT
BRANCH   6  10
ATOM     10  C8  <0> d   1      18.733  -2.443  11.959  0.00  0.00    -0.040 A 
ATOM     11  C13 <0> d   1      19.821  -3.289  11.846  0.00  0.00     0.008 A 
ATOM     12  C12 <0> d   1      19.667  -4.543  11.289  0.00  0.00     0.001 A 
ATOM     13  C11 <0> d   1      18.427  -4.952  10.834  0.00  0.00     0.000 A 
ATOM     14  C10 <0> d   1      17.339  -4.105  10.943  0.00  0.00     0.001 A 
ATOM     15  C9  <0> d   1      17.492  -2.852  11.504  0.00  0.00     0.008 A 
ENDBRANCH   6  10
TORSDOF 1
ENDMDL
MODEL 7
REMARK VINA RESULT:      -6.0      2.139      3.173
REMARK  1 active torsions:
REMARK  status: ('A' for Active; 'I' for Inactive)
REMARK    1  A    between atoms: C6_6  and  C8_8 
ROOT
ATOM      1  C1  <0> d   1      17.380  -1.452  11.383  0.00  0.00     0.162 C 
ATOM      2  N2  <0> d   1      18.320  -0.856  10.431  0.00  0.00    -0.292 N 
ATOM      3  C3  <0> d   1      19.648  -0.987  10.547  0.00  0.00     0.227 A 
ATOM      4  O4  <0> d   1      20.220  -1.595  11.425  0.00  0.00    -0.273 OA
ATOM      5  C5  <0> d   1      20.321  -0.255   9.406  0.00  0.00     0.127 A 
ATOM      6  C6  <0> d   1      19.140   0.328   8.603  0.00  0.00     0.073 A 
ATOM      7  C7  <0> d   1      19.209   1.856   8.575  0.00  0.00     0.031 C 
ATOM      8  C14 <0> d   1      17.923  -0.141   9.371  0.00  0.00     0.239 A 
ATOM      9  O15 <0> d   1      16.772   0.098   9.078  0.00  0.00    -0.272 OA
ENDROOT
BRANCH   6  10
ATOM     10  C8  <0> d   1      19.127  -0.227   7.202  0.00  0.00    -0.040 A 
ATOM     11  C13 <0> d   1      19.192  -1.593   6.998  0.00  0.00     0.008 A 
ATOM     12  C12 <0> d   1      19.176  -2.101   5.713  0.00  0.00     0.001 A 
ATOM     13  C11 <0> d   1      19.103  -1.243   4.631  0.00  0.00     0.000 A 
ATOM     14  C10 <0> d   1      19.042   0.123   4.835  0.00  0.00     0.001 A 
ATOM     15  C9  <0> d   1      19.054   0.631   6.120  0.00  0.00     0.008 A 
ENDBRANCH   6  10
TORSDOF 1
ENDMDL
MODEL 8
REMARK VINA RESULT:      -6.0      3.712      6.742
REMARK  1 active torsions:
REMARK  status: ('A' for Active; 'I' for Inactive)
REMARK    1  A    between atoms: C6_6  and  C8_8 
ROOT
ATOM      1  C1  <0> d   1      19.805  -1.524  11.025  0.00  0.00     0.162 C 
ATOM      2  N2  <0> d   1      19.024  -0.821  12.047  0.00  0.00    -0.292 N 
ATOM      3  C3  <0> d   1      17.700  -0.970  12.176  0.00  0.00     0.227 A 
ATOM      4  O4  <0> d   1      17.003  -1.683  11.488  0.00  0.00    -0.273 OA
ATOM      5  C5  <0> d   1      17.211  -0.107  13.319  0.00  0.00     0.127 A 
ATOM      6  C6  <0> d   1      18.496   0.574  13.833  0.00  0.00     0.073 A 
ATOM      7  C7  <0> d   1      18.395   2.094  13.689  0.00  0.00     0.031 C 
ATOM      8  C14 <0> d   1      19.577   0.020  12.930  0.00  0.00     0.239 A 
ATOM      9  O15 <0> d   1      20.755   0.299  12.991  0.00  0.00    -0.272 OA
ENDROOT
BRANCH   6  10
ATOM     10  C8  <0> d   1      18.761   0.195  15.267  0.00  0.00    -0.040 A 
ATOM     11  C13 <0> d   1      18.906  -1.135  15.616  0.00  0.00     0.008 A 
ATOM     12  C12 <0> d   1      19.152  -1.482  16.930  0.00  0.00     0.001 A 
ATOM     13  C11 <0> d   1      19.245  -0.500  17.899  0.00  0.00     0.000 A 
ATOM     14  C10 <0> d   1      19.096   0.830  17.551  0.00  0.00     0.001 A 
ATOM     15  C9  <0> d   1      18.854   1.177  16.236  0.00  0.00     0.008 A 
ENDBRANCH   6  10
TORSDOF 1
ENDMDL
MODEL 9
REMARK VINA RESULT:      -6.0      3.484      6.218
REMARK  1 active torsions:
REMARK  status: ('A' for Active; 'I' for Inactive)
REMARK    1  A    between atoms: C6_6  and  C8_8 
ROOT
ATOM      1  C1  <0> d   1      21.123  -0.561  10.735  0.00  0.00     0.162 C 
ATOM      2  N2  <0> d   1      19.899  -0.908  11.462  0.00  0.00    -0.292 N 
ATOM      3  C3  <0> d   1      19.355  -2.130  11.421  0.00  0.00     0.227 A 
ATOM      4  O4  <0> d   1      19.791  -3.073  10.797  0.00  0.00    -0.273 OA
ATOM      5  C5  <0> d   1      18.106  -2.148  12.276  0.00  0.00     0.127 A 
ATOM      6  C6  <0> d   1      18.023  -0.709  12.825  0.00  0.00     0.073 A 
ATOM      7  C7  <0> d   1      16.735  -0.028  12.359  0.00  0.00     0.031 C 
ATOM      8  C14 <0> d   1      19.237  -0.031  12.226  0.00  0.00     0.239 A 
ATOM      9  O15 <0> d   1      19.554   1.125  12.404  0.00  0.00    -0.272 OA
ENDROOT
BRANCH   6  10
ATOM     10  C8  <0> d   1      18.107  -0.709  14.329  0.00  0.00    -0.040 A 
ATOM     11  C13 <0> d   1      17.427   0.247  15.060  0.00  0.00     0.008 A 
ATOM     12  C12 <0> d   1      17.501   0.244  16.440  0.00  0.00     0.001 A 
ATOM     13  C11 <0> d   1      18.262  -0.710  17.090  0.00  0.00     0.000 A 
ATOM     14  C10 <0> d   1      18.946  -1.664  16.359  0.00  0.00     0.001 A 
ATOM     15  C9  <0> d   1      18.868  -1.664  14.979  0.00  0.00     0.008 A 
ENDBRANCH   6  10
TORSDOF 1
ENDMDL
