MODEL 1
REMARK VINA RESULT:      -6.0      0.000      0.000
REMARK  2 active torsions:
REMARK  status: ('A' for Active; 'I' for Inactive)
REMARK    1  A    between atoms: C3_3  and  N4_4 
REMARK    2  A    between atoms: N4_4  and  C5_5 
ROOT
ATOM      1  C1  <0> d   1      17.774   4.333  10.135  0.00  0.00     0.013 C 
ATOM      2  C2  <0> d   1      18.457   3.392  10.301  0.00  0.00    -0.087 C 
ATOM      3  C3  <0> d   1      19.312   2.212  10.508  0.00  0.00     0.362 C 
ENDROOT
BRANCH   3   4
ATOM      4  N4  <0> d   1      19.624   1.599   9.211  0.00  0.00     0.103 N 
ATOM      5  H18 <0> d   1      20.045   2.269   8.585  0.00  0.00     0.317 HD
BRANCH   4   6
ATOM      6  C5  <0> d   1      18.424   1.000   8.611  0.00  0.00     0.255 C 
ATOM      7  C14 <0> d   1      18.758   0.396   7.263  0.00  0.00    -0.019 A 
ATOM      8  C9  <0> d   1      18.882  -0.978   7.385  0.00  0.00    -0.050 A 
ATOM      9  C13 <0> d   1      18.941   0.996   6.030  0.00  0.00     0.010 A 
ATOM     10  C8  <0> d   1      18.638  -1.388   8.822  0.00  0.00     0.041 C 
ATOM     11  C10 <0> d   1      19.186  -1.744   6.273  0.00  0.00     0.007 A 
ATOM     12  C7  <0> d   1      17.928  -0.181   9.472  0.00  0.00     0.045 C 
ATOM     13  C11 <0> d   1      19.367  -1.141   5.043  0.00  0.00     0.001 A 
ATOM     14  C12 <0> d   1      19.244   0.230   4.921  0.00  0.00     0.001 A 
ENDBRANCH   4   6
ENDBRANCH   3   4
TORSDOF 2
ENDMDL
MODEL 2
REMARK VINA RESULT:      -5.9      2.979      5.694
REMARK  2 active torsions:
REMARK  status: ('A' for Active; 'I' for Inactive)
REMARK    1  A    between atoms: C3_3  and  N4_4 
REMARK    2  A    between atoms: N4_4  and  C5_5 
ROOT
ATOM      1  C1  <0> d   1      19.401   0.337  14.567  0.00  0.00     0.013 C 
ATOM      2  C2  <0> d   1      20.004   0.377  13.560  0.00  0.00    -0.087 C 
ATOM      3  C3  <0> d   1      20.759   0.427  12.298  0.00  0.00     0.362 C 
ENDROOT
BRANCH   3   4
ATOM      4  N4  <0> d   1      20.377   1.629  11.545  0.00  0.00     0.103 N 
ATOM      5  H18 <0> d   1      20.500   2.460  12.103  0.00  0.00     0.317 HD
BRANCH   4   6
ATOM      6  C5  <0> d   1      18.996   1.525  11.055  0.00  0.00     0.255 C 
ATOM      7  C14 <0> d   1      18.267   2.836  11.258  0.00  0.00    -0.019 A 
ATOM      8  C9  <0> d   1      18.205   3.525  10.058  0.00  0.00    -0.050 A 
ATOM      9  C13 <0> d   1      17.705   3.384  12.396  0.00  0.00     0.010 A 
ATOM     10  C8  <0> d   1      18.886   2.722   8.971  0.00  0.00     0.041 C 
ATOM     11  C10 <0> d   1      17.580   4.759  10.005  0.00  0.00     0.007 A 
ATOM     12  C7  <0> d   1      18.986   1.287   9.529  0.00  0.00     0.045 C 
ATOM     13  C11 <0> d   1      17.019   5.304  11.144  0.00  0.00     0.001 A 
ATOM     14  C12 <0> d   1      17.081   4.616  12.341  0.00  0.00     0.001 A 
ENDBRANCH   4   6
ENDBRANCH   3   4
TORSDOF 2
ENDMDL
MODEL 3
REMARK VINA RESULT:      -5.8      1.836      4.854
REMARK  2 active torsions:
REMARK  status: ('A' for Active; 'I' for Inactive)
REMARK    1  A    between atoms: C3_3  and  N4_4 
REMARK    2  A    between atoms: N4_4  and  C5_5 
ROOT
ATOM      1  C1  <0> d   1      17.567  -2.988  11.425  0.00  0.00     0.013 C 
ATOM      2  C2  <0> d   1      17.730  -2.987  10.262  0.00  0.00    -0.087 C 
ATOM      3  C3  <0> d   1      17.934  -2.985   8.804  0.00  0.00     0.362 C 
ENDROOT
BRANCH   3   4
ATOM      4  N4  <0> d   1      18.640  -1.760   8.411  0.00  0.00     0.103 N 
ATOM      5  H18 <0> d   1      19.274  -1.458   9.135  0.00  0.00     0.317 HD
BRANCH   4   6
ATOM      6  C5  <0> d   1      17.691  -0.693   8.064  0.00  0.00     0.255 C 
ATOM      7  C14 <0> d   1      17.873   0.492   8.988  0.00  0.00    -0.019 A 
ATOM      8  C9  <0> d   1      18.589   1.484   8.339  0.00  0.00    -0.050 A 
ATOM      9  C13 <0> d   1      17.450   0.689  10.290  0.00  0.00     0.010 A 
ATOM     10  C8  <0> d   1      18.934   1.030   6.936  0.00  0.00     0.041 C 
ATOM     11  C10 <0> d   1      18.878   2.668   8.996  0.00  0.00     0.007 A 
ATOM     12  C7  <0> d   1      17.986  -0.153   6.648  0.00  0.00     0.045 C 
ATOM     13  C11 <0> d   1      18.453   2.862  10.296  0.00  0.00     0.001 A 
ATOM     14  C12 <0> d   1      17.738   1.872  10.944  0.00  0.00     0.001 A 
ENDBRANCH   4   6
ENDBRANCH   3   4
TORSDOF 2
ENDMDL
MODEL 4
REMARK VINA RESULT:      -5.7      5.566      8.703
REMARK  2 active torsions:
REMARK  status: ('A' for Active; 'I' for Inactive)
REMARK    1  A    between atoms: C3_3  and  N4_4 
REMARK    2  A    between atoms: N4_4  and  C5_5 
ROOT
ATOM      1  C1  <0> d   1      19.928  -4.274  11.473  0.00  0.00     0.013 C 
ATOM      2  C2  <0> d   1      19.750  -3.148  11.751  0.00  0.00    -0.087 C 
ATOM      3  C3  <0> d   1      19.527  -1.735  12.100  0.00  0.00     0.362 C 
ENDROOT
BRANCH   3   4
ATOM      4  N4  <0> d   1      19.746  -1.546  13.540  0.00  0.00     0.103 N 
ATOM      5  H18 <0> d   1      20.205  -2.348  13.945  0.00  0.00     0.317 HD
BRANCH   4   6
ATOM      6  C5  <0> d   1      18.483  -1.258  14.231  0.00  0.00     0.255 C 
ATOM      7  C14 <0> d   1      18.756  -0.699  15.612  0.00  0.00    -0.019 A 
ATOM      8  C9  <0> d   1      18.587   0.676  15.600  0.00  0.00    -0.050 A 
ATOM      9  C13 <0> d   1      19.123  -1.337  16.782  0.00  0.00     0.010 A 
ATOM     10  C8  <0> d   1      18.188   1.130  14.212  0.00  0.00     0.041 C 
ATOM     11  C10 <0> d   1      18.786   1.404  16.761  0.00  0.00     0.007 A 
ATOM     12  C7  <0> d   1      17.709  -0.146  13.490  0.00  0.00     0.045 C 
ATOM     13  C11 <0> d   1      19.152   0.763  17.928  0.00  0.00     0.001 A 
ATOM     14  C12 <0> d   1      19.321  -0.609  17.940  0.00  0.00     0.001 A 
ENDBRANCH   4   6
ENDBRANCH   3   4
TORSDOF 2
ENDMDL
MODEL 5
REMARK VINA RESULT:      -5.7      2.079      3.189
REMARK  2 active torsions:
REMARK  status: ('A' for Active; 'I' for Inactive)
REMARK    1  A    between atoms: C3_3  and  N4_4 
REMARK    2  A    between atoms: N4_4  and  C5_5 
ROOT
ATOM      1  C1  <0> d   1      19.545  -1.610  13.244  0.00  0.00     0.013 C 
ATOM      2  C2  <0> d   1      19.687  -0.485  12.937  0.00  0.00    -0.087 C 
ATOM      3  C3  <0> d   1      19.864   0.925  12.553  0.00  0.00     0.362 C 
ENDROOT
BRANCH   3   4
ATOM      4  N4  <0> d   1      19.993   1.022  11.093  0.00  0.00     0.103 N 
ATOM      5  H18 <0> d   1      20.857   1.472  10.835  0.00  0.00     0.317 HD
BRANCH   4   6
ATOM      6  C5  <0> d   1      18.840   1.720  10.509  0.00  0.00     0.255 C 
ATOM      7  C14 <0> d   1      18.643   1.293   9.070  0.00  0.00    -0.019 A 
ATOM      8  C9  <0> d   1      17.605   0.379   8.993  0.00  0.00    -0.050 A 
ATOM      9  C13 <0> d   1      19.313   1.670   7.921  0.00  0.00     0.010 A 
ATOM     10  C8  <0> d   1      17.037   0.132  10.375  0.00  0.00     0.041 C 
ATOM     11  C10 <0> d   1      17.245  -0.153   7.767  0.00  0.00     0.007 A 
ATOM     12  C7  <0> d   1      17.541   1.310  11.236  0.00  0.00     0.045 C 
ATOM     13  C11 <0> d   1      17.917   0.227   6.621  0.00  0.00     0.001 A 
ATOM     14  C12 <0> d   1      18.952   1.139   6.698  0.00  0.00     0.001 A 
ENDBRANCH   4   6
ENDBRANCH   3   4
TORSDOF 2
ENDMDL
MODEL 6
REMARK VINA RESULT:      -5.7      1.512      4.587
REMARK  2 active torsions:
REMARK  status: ('A' for Active; 'I' for Inactive)
REMARK    1  A    between atoms: C3_3  and  N4_4 
REMARK    2  A    between atoms: N4_4  and  C5_5 
ROOT
ATOM      1  C1  <0> d   1      19.277  -0.006   4.790  0.00  0.00     0.013 C 
ATOM      2  C2  <0> d   1      18.917  -0.887   5.477  0.00  0.00    -0.087 C 
ATOM      3  C3  <0> d   1      18.467  -1.993   6.339  0.00  0.00     0.362 C 
ENDROOT
BRANCH   3   4
ATOM      4  N4  <0> d   1      17.770  -1.446   7.511  0.00  0.00     0.103 N 
ATOM      5  H18 <0> d   1      17.235  -0.628   7.266  0.00  0.00     0.317 HD
BRANCH   4   6
ATOM      6  C5  <0> d   1      18.717  -1.151   8.595  0.00  0.00     0.255 C 
ATOM      7  C14 <0> d   1      18.626   0.308   8.988  0.00  0.00    -0.019 A 
ATOM      8  C9  <0> d   1      17.889   0.432  10.154  0.00  0.00    -0.050 A 
ATOM      9  C13 <0> d   1      19.141   1.437   8.378  0.00  0.00     0.010 A 
ATOM     10  C8  <0> d   1      17.438  -0.935  10.622  0.00  0.00     0.041 C 
ATOM     11  C10 <0> d   1      17.673   1.684  10.703  0.00  0.00     0.007 A 
ATOM     12  C7  <0> d   1      18.337  -1.938   9.868  0.00  0.00     0.045 C 
ATOM     13  C11 <0> d   1      18.190   2.809  10.091  0.00  0.00     0.001 A 
ATOM     14  C12 <0> d   1      18.926   2.686   8.927  0.00  0.00     0.001 A 
ENDBRANCH   4   6
ENDBRANCH   3   4
TORSDOF 2
ENDMDL
MODEL 7
REMARK VINA RESULT:      -5.6      1.978      4.001
REMARK  2 active torsions:
REMARK  status: ('A' for Active; 'I' for Inactive)
REMARK    1  A    between atoms: C3_3  and  N4_4 
REMARK    2  A    between atoms: N4_4  and  C5_5 
ROOT
ATOM      1  C1  <0> d   1      20.023  -3.735  11.459  0.00  0.00     0.013 C 
ATOM      2  C2  <0> d   1      19.239  -3.571  10.600  0.00  0.00    -0.087 C 
ATOM      3  C3  <0> d   1      18.255  -3.366   9.524  0.00  0.00     0.362 C 
ENDROOT
BRANCH   3   4
ATOM      4  N4  <0> d   1      18.110  -1.929   9.261  0.00  0.00     0.103 N 
ATOM      5  H18 <0> d   1      17.338  -1.750   8.637  0.00  0.00     0.317 HD
BRANCH   4   6
ATOM      6  C5  <0> d   1      19.358  -1.362   8.731  0.00  0.00     0.255 C 
ATOM      7  C14 <0> d   1      19.215  -1.074   7.252  0.00  0.00    -0.019 A 
ATOM      8  C9  <0> d   1      19.001   0.282   7.060  0.00  0.00    -0.050 A 
ATOM      9  C13 <0> d   1      19.265  -1.922   6.161  0.00  0.00     0.010 A 
ATOM     10  C8  <0> d   1      18.988   0.992   8.397  0.00  0.00     0.041 C 
ATOM     11  C10 <0> d   1      18.840   0.779   5.778  0.00  0.00     0.007 A 
ATOM     12  C7  <0> d   1      19.646   0.006   9.385  0.00  0.00     0.045 C 
ATOM     13  C11 <0> d   1      18.891  -0.072   4.691  0.00  0.00     0.001 A 
ATOM     14  C12 <0> d   1      19.105  -1.424   4.883  0.00  0.00     0.001 A 
ENDBRANCH   4   6
ENDBRANCH   3   4
TORSDOF 2
ENDMDL
MODEL 8
REMARK VINA RESULT:      -5.6      5.047      5.958
REMARK  2 active torsions:
REMARK  status: ('A' for Active; 'I' for Inactive)
REMARK    1  A    between atoms: C3_3  and  N4_4 
REMARK    2  A    between atoms: N4_4  and  C5_5 
ROOT
ATOM      1  C1  <0> d   1      17.932  -1.413  16.528  0.00  0.00     0.013 C 
ATOM      2  C2  <0> d   1      18.501  -0.847  15.671  0.00  0.00    -0.087 C 
ATOM      3  C3  <0> d   1      19.214  -0.136  14.596  0.00  0.00     0.362 C 
ENDROOT
BRANCH   3   4
ATOM      4  N4  <0> d   1      20.006  -1.097  13.817  0.00  0.00     0.103 N 
ATOM      5  H18 <0> d   1      20.994  -0.947  13.955  0.00  0.00     0.317 HD
BRANCH   4   6
ATOM      6  C5  <0> d   1      19.657  -1.033  12.392  0.00  0.00     0.255 C 
ATOM      7  C14 <0> d   1      19.279  -2.408  11.883  0.00  0.00    -0.019 A 
ATOM      8  C9  <0> d   1      17.900  -2.509  11.793  0.00  0.00    -0.050 A 
ATOM      9  C13 <0> d   1      20.071  -3.484  11.528  0.00  0.00     0.010 A 
ATOM     10  C8  <0> d   1      17.262  -1.209  12.235  0.00  0.00     0.041 C 
ATOM     11  C10 <0> d   1      17.323  -3.686  11.349  0.00  0.00     0.007 A 
ATOM     12  C7  <0> d   1      18.397  -0.164  12.188  0.00  0.00     0.045 C 
ATOM     13  C11 <0> d   1      18.118  -4.758  10.994  0.00  0.00     0.001 A 
ATOM     14  C12 <0> d   1      19.494  -4.658  11.083  0.00  0.00     0.001 A 
ENDBRANCH   4   6
ENDBRANCH   3   4
TORSDOF 2
ENDMDL
MODEL 9
REMARK VINA RESULT:      -5.5      3.534      5.107
REMARK  2 active torsions:
REMARK  status: ('A' for Active; 'I' for Inactive)
REMARK    1  A    between atoms: C3_3  and  N4_4 
REMARK    2  A    between atoms: N4_4  and  C5_5 
ROOT
ATOM      1  C1  <0> d   1      17.701  -1.190  16.564  0.00  0.00     0.013 C 
ATOM      2  C2  <0> d   1      17.643  -0.308  15.792  0.00  0.00    -0.087 C 
ATOM      3  C3  <0> d   1      17.571   0.798  14.823  0.00  0.00     0.362 C 
ENDROOT
BRANCH   3   4
ATOM      4  N4  <0> d   1      18.187   0.380  13.557  0.00  0.00     0.103 N 
ATOM      5  H18 <0> d   1      19.001   0.938  13.349  0.00  0.00     0.317 HD
BRANCH   4   6
ATOM      6  C5  <0> d   1      17.215   0.436  12.456  0.00  0.00     0.255 C 
ATOM      7  C14 <0> d   1      17.715   1.354  11.361  0.00  0.00    -0.019 A 
ATOM      8  C9  <0> d   1      18.232   0.601  10.320  0.00  0.00    -0.050 A 
ATOM      9  C13 <0> d   1      17.721   2.734  11.279  0.00  0.00     0.010 A 
ATOM     10  C8  <0> d   1      18.112  -0.873  10.647  0.00  0.00     0.041 C 
ATOM     11  C10 <0> d   1      18.750   1.233   9.203  0.00  0.00     0.007 A 
ATOM     12  C7  <0> d   1      17.079  -0.951  11.791  0.00  0.00     0.045 C 
ATOM     13  C11 <0> d   1      18.754   2.612   9.125  0.00  0.00     0.001 A 
ATOM     14  C12 <0> d   1      18.238   3.364  10.164  0.00  0.00     0.001 A 
ENDBRANCH   4   6
ENDBRANCH   3   4
TORSDOF 2
ENDMDL
