MODEL 1
REMARK VINA RESULT:      -8.5      0.000      0.000
REMARK  15 active torsions:
REMARK  status: ('A' for Active; 'I' for Inactive)
REMARK    1  A    between atoms: C2_2  and  C3_3 
REMARK    2  A    between atoms: C3_3  and  O5_5 
REMARK    3  A    between atoms: O5_5  and  C6_6 
REMARK    4  A    between atoms: C6_6  and  O8_7 
REMARK    5  A    between atoms: C6_6  and  C40_37 
REMARK    6  A    between atoms: O8_7  and  P9_8 
REMARK    7  A    between atoms: P9_8  and  C11_10 
REMARK    8  A    between atoms: P9_8  and  C21_20 
REMARK    9  A    between atoms: C11_10  and  C12_11 
REMARK   10  A    between atoms: C12_11  and  C13_12 
REMARK   11  A    between atoms: C13_12  and  C14_13 
REMARK   12  A    between atoms: C14_13  and  C15_14 
REMARK   13  A    between atoms: C21_20  and  C22_21 
REMARK       I    between atoms: C22_21  and  N24_23 
REMARK   14  A    between atoms: C26_25  and  C28_26 
REMARK   15  A    between atoms: C35_33  and  C37_34 
ROOT
ATOM      1  P9  ZIN A   1      18.715   0.842  14.199  0.00  0.00     0.208 P 
ATOM      2  O10 ZIN A   1      17.682   0.153  15.004  0.00  0.00    -0.291 OA
ENDROOT
BRANCH   1   3
ATOM      3  O8  ZIN A   1      19.561   1.832  15.146  0.00  0.00    -0.301 OA
BRANCH   3   4
ATOM      4  C6  ZIN A   1      18.952   2.794  16.009  0.00  0.00     0.280 C 
BRANCH   4   5
ATOM      5  O5  ZIN A   1      19.604   2.764  17.306  0.00  0.00    -0.289 OA
BRANCH   5   6
ATOM      6  C3  ZIN A   1      19.098   1.925  18.223  0.00  0.00     0.260 C 
ATOM      7  O4  ZIN A   1      19.754   0.986  18.609  0.00  0.00    -0.265 OA
BRANCH   6   8
ATOM      8  C2  ZIN A   1      17.714   2.153  18.772  0.00  0.00     0.107 C 
ATOM      9  C1  ZIN A   1      17.568   3.616  19.198  0.00  0.00     0.015 C 
ENDBRANCH   6   8
ENDBRANCH   5   6
ENDBRANCH   4   5
BRANCH   4  10
ATOM     10  C40 ZIN A   1      19.095   4.190  15.398  0.00  0.00     0.034 C 
ATOM     11  C41 ZIN A   1      17.728   4.876  15.365  0.00  0.00     0.014 C 
ATOM     12  C42 ZIN A   1      20.061   5.020  16.246  0.00  0.00     0.014 C 
ENDBRANCH   4  10
ENDBRANCH   3   4
ENDBRANCH   1   3
BRANCH   1  13
ATOM     13  C11 ZIN A   1      19.833  -0.393  13.459  0.00  0.00     0.102 C 
BRANCH  13  14
ATOM     14  C12 ZIN A   1      19.186  -1.778  13.535  0.00  0.00     0.010 C 
BRANCH  14  15
ATOM     15  C13 ZIN A   1      19.326  -2.480  12.182  0.00  0.00     0.005 C 
BRANCH  15  16
ATOM     16  C14 ZIN A   1      18.016  -3.192  11.840  0.00  0.00     0.038 C 
BRANCH  16  17
ATOM     17  C15 ZIN A   1      18.283  -4.280  10.832  0.00  0.00    -0.058 A 
ATOM     18  C20 ZIN A   1      19.575  -4.519  10.401  0.00  0.00     0.007 A 
ATOM     19  C19 ZIN A   1      19.822  -5.520   9.480  0.00  0.00     0.001 A 
ATOM     20  C18 ZIN A   1      18.775  -6.276   8.984  0.00  0.00     0.000 A 
ATOM     21  C17 ZIN A   1      17.484  -6.033   9.411  0.00  0.00     0.001 A 
ATOM     22  C16 ZIN A   1      17.237  -5.035  10.336  0.00  0.00     0.007 A 
ENDBRANCH  16  17
ENDBRANCH  15  16
ENDBRANCH  14  15
ENDBRANCH  13  14
ENDBRANCH   1  13
BRANCH   1  23
ATOM     23  C21 ZIN A   1      17.912   1.805  12.877  0.00  0.00     0.204 C 
BRANCH  23  24
ATOM     24  C22 ZIN A   1      17.268   0.866  11.891  0.00  0.00     0.229 C 
ATOM     25  O23 ZIN A   1      16.219   0.322  12.166  0.00  0.00    -0.273 OA
ATOM     26  N24 ZIN A   1      17.858   0.629  10.702  0.00  0.00    -0.337 N 
ATOM     27  C35 ZIN A   1      19.123   1.218  10.242  0.00  0.00     0.188 C 
ATOM     28  C25 ZIN A   1      17.337  -0.259   9.647  0.00  0.00     0.132 C 
ATOM     29  C34 ZIN A   1      19.389   0.678   8.820  0.00  0.00     0.043 C 
ATOM     30  C26 ZIN A   1      17.972   0.267   8.336  0.00  0.00     0.010 C 
BRANCH  27  31
ATOM     31  C37 ZIN A   1      19.018   2.720  10.208  0.00  0.00     0.197 C 
ATOM     32  O38 ZIN A   1      19.667   3.395  10.989  0.00  0.00    -0.646 OA
ATOM     33  O39 ZIN A   1      18.283   3.262   9.399  0.00  0.00    -0.646 OA
ENDBRANCH  27  31
BRANCH  30  34
ATOM     34  C28 ZIN A   1      18.052  -0.838   7.282  0.00  0.00    -0.009 C 
ATOM     35  C33 ZIN A   1      18.392  -2.167   7.959  0.00  0.00     0.005 C 
ATOM     36  C32 ZIN A   1      18.473  -3.272   6.905  0.00  0.00     0.000 C 
ATOM     37  C31 ZIN A   1      19.561  -2.926   5.886  0.00  0.00     0.000 C 
ATOM     38  C30 ZIN A   1      19.222  -1.597   5.208  0.00  0.00     0.000 C 
ATOM     39  C29 ZIN A   1      19.142  -0.493   6.263  0.00  0.00     0.005 C 
ENDBRANCH  30  34
ENDBRANCH  23  24
ENDBRANCH   1  23
TORSDOF 15
ENDMDL
MODEL 2
REMARK VINA RESULT:      -8.4      5.307      9.889
REMARK  15 active torsions:
REMARK  status: ('A' for Active; 'I' for Inactive)
REMARK    1  A    between atoms: C2_2  and  C3_3 
REMARK    2  A    between atoms: C3_3  and  O5_5 
REMARK    3  A    between atoms: O5_5  and  C6_6 
REMARK    4  A    between atoms: C6_6  and  O8_7 
REMARK    5  A    between atoms: C6_6  and  C40_37 
REMARK    6  A    between atoms: O8_7  and  P9_8 
REMARK    7  A    between atoms: P9_8  and  C11_10 
REMARK    8  A    between atoms: P9_8  and  C21_20 
REMARK    9  A    between atoms: C11_10  and  C12_11 
REMARK   10  A    between atoms: C12_11  and  C13_12 
REMARK   11  A    between atoms: C13_12  and  C14_13 
REMARK   12  A    between atoms: C14_13  and  C15_14 
REMARK   13  A    between atoms: C21_20  and  C22_21 
REMARK       I    between atoms: C22_21  and  N24_23 
REMARK   14  A    between atoms: C26_25  and  C28_26 
REMARK   15  A    between atoms: C35_33  and  C37_34 
ROOT
ATOM      1  P9  ZIN A   1      17.676  -5.784   6.008  0.00  0.00     0.208 P 
ATOM      2  O10 ZIN A   1      18.573  -6.943   6.212  0.00  0.00    -0.291 OA
ENDROOT
BRANCH   1   3
ATOM      3  O8  ZIN A   1      16.672  -6.091   4.787  0.00  0.00    -0.301 OA
BRANCH   3   4
ATOM      4  C6  ZIN A   1      15.298  -5.697   4.791  0.00  0.00     0.280 C 
BRANCH   4   5
ATOM      5  O5  ZIN A   1      14.940  -5.175   3.485  0.00  0.00    -0.289 OA
BRANCH   5   6
ATOM      6  C3  ZIN A   1      15.709  -4.193   2.989  0.00  0.00     0.260 C 
ATOM      7  O4  ZIN A   1      15.940  -3.212   3.656  0.00  0.00    -0.265 OA
BRANCH   6   8
ATOM      8  C2  ZIN A   1      16.284  -4.313   1.602  0.00  0.00     0.107 C 
ATOM      9  C1  ZIN A   1      17.600  -5.092   1.660  0.00  0.00     0.015 C 
ENDBRANCH   6   8
ENDBRANCH   5   6
ENDBRANCH   4   5
BRANCH   4  10
ATOM     10  C40 ZIN A   1      14.422  -6.909   5.113  0.00  0.00     0.034 C 
ATOM     11  C41 ZIN A   1      13.457  -6.556   6.247  0.00  0.00     0.014 C 
ATOM     12  C42 ZIN A   1      13.623  -7.305   3.869  0.00  0.00     0.014 C 
ENDBRANCH   4  10
ENDBRANCH   3   4
ENDBRANCH   1   3
BRANCH   1  13
ATOM     13  C11 ZIN A   1      16.713  -5.484   7.526  0.00  0.00     0.102 C 
BRANCH  13  14
ATOM     14  C12 ZIN A   1      16.809  -6.707   8.441  0.00  0.00     0.010 C 
BRANCH  14  15
ATOM     15  C13 ZIN A   1      17.759  -6.402   9.602  0.00  0.00     0.005 C 
BRANCH  15  16
ATOM     16  C14 ZIN A   1      17.021  -5.582  10.661  0.00  0.00     0.038 C 
BRANCH  16  17
ATOM     17  C15 ZIN A   1      17.916  -4.475  11.153  0.00  0.00    -0.058 A 
ATOM     18  C20 ZIN A   1      17.364  -3.301  11.630  0.00  0.00     0.007 A 
ATOM     19  C19 ZIN A   1      18.186  -2.286  12.086  0.00  0.00     0.001 A 
ATOM     20  C18 ZIN A   1      19.559  -2.443  12.057  0.00  0.00     0.000 A 
ATOM     21  C17 ZIN A   1      20.111  -3.615  11.576  0.00  0.00     0.001 A 
ATOM     22  C16 ZIN A   1      19.290  -4.632  11.125  0.00  0.00     0.007 A 
ENDBRANCH  16  17
ENDBRANCH  15  16
ENDBRANCH  14  15
ENDBRANCH  13  14
ENDBRANCH   1  13
BRANCH   1  23
ATOM     23  C21 ZIN A   1      18.672  -4.308   5.618  0.00  0.00     0.204 C 
BRANCH  23  24
ATOM     24  C22 ZIN A   1      19.180  -3.693   6.895  0.00  0.00     0.229 C 
ATOM     25  O23 ZIN A   1      19.879  -4.341   7.645  0.00  0.00    -0.273 OA
ATOM     26  N24 ZIN A   1      18.858  -2.421   7.206  0.00  0.00    -0.337 N 
ATOM     27  C35 ZIN A   1      18.023  -1.526   6.391  0.00  0.00     0.188 C 
ATOM     28  C25 ZIN A   1      19.289  -1.696   8.414  0.00  0.00     0.132 C 
ATOM     29  C34 ZIN A   1      17.950  -0.172   7.128  0.00  0.00     0.043 C 
ATOM     30  C26 ZIN A   1      19.215  -0.198   8.027  0.00  0.00     0.010 C 
BRANCH  27  31
ATOM     31  C37 ZIN A   1      18.638  -1.335   5.029  0.00  0.00     0.197 C 
ATOM     32  O38 ZIN A   1      19.851  -1.313   4.904  0.00  0.00    -0.646 OA
ATOM     33  O39 ZIN A   1      17.922  -1.201   4.050  0.00  0.00    -0.646 OA
ENDBRANCH  27  31
BRANCH  30  34
ATOM     34  C28 ZIN A   1      19.027   0.681   9.264  0.00  0.00    -0.009 C 
ATOM     35  C33 ZIN A   1      17.637   0.440   9.856  0.00  0.00     0.005 C 
ATOM     36  C32 ZIN A   1      17.448   1.320  11.092  0.00  0.00     0.000 C 
ATOM     37  C31 ZIN A   1      17.586   2.791  10.698  0.00  0.00     0.000 C 
ATOM     38  C30 ZIN A   1      18.976   3.034  10.106  0.00  0.00     0.000 C 
ATOM     39  C29 ZIN A   1      19.163   2.153   8.869  0.00  0.00     0.005 C 
ENDBRANCH  30  34
ENDBRANCH  23  24
ENDBRANCH   1  23
TORSDOF 15
ENDMDL
MODEL 3
REMARK VINA RESULT:      -8.4      3.049      9.311
REMARK  15 active torsions:
REMARK  status: ('A' for Active; 'I' for Inactive)
REMARK    1  A    between atoms: C2_2  and  C3_3 
REMARK    2  A    between atoms: C3_3  and  O5_5 
REMARK    3  A    between atoms: O5_5  and  C6_6 
REMARK    4  A    between atoms: C6_6  and  O8_7 
REMARK    5  A    between atoms: C6_6  and  C40_37 
REMARK    6  A    between atoms: O8_7  and  P9_8 
REMARK    7  A    between atoms: P9_8  and  C11_10 
REMARK    8  A    between atoms: P9_8  and  C21_20 
REMARK    9  A    between atoms: C11_10  and  C12_11 
REMARK   10  A    between atoms: C12_11  and  C13_12 
REMARK   11  A    between atoms: C13_12  and  C14_13 
REMARK   12  A    between atoms: C14_13  and  C15_14 
REMARK   13  A    between atoms: C21_20  and  C22_21 
REMARK       I    between atoms: C22_21  and  N24_23 
REMARK   14  A    between atoms: C26_25  and  C28_26 
REMARK   15  A    between atoms: C35_33  and  C37_34 
ROOT
ATOM      1  P9  ZIN A   1      18.088  -0.973   8.229  0.00  0.00     0.208 P 
ATOM      2  O10 ZIN A   1      16.994  -0.016   7.951  0.00  0.00    -0.291 OA
ENDROOT
BRANCH   1   3
ATOM      3  O8  ZIN A   1      18.313  -1.918   6.945  0.00  0.00    -0.301 OA
BRANCH   3   4
ATOM      4  C6  ZIN A   1      19.467  -1.832   6.107  0.00  0.00     0.280 C 
BRANCH   4   5
ATOM      5  O5  ZIN A   1      20.030  -3.157   5.921  0.00  0.00    -0.289 OA
BRANCH   5   6
ATOM      6  C3  ZIN A   1      19.331  -4.192   6.411  0.00  0.00     0.260 C 
ATOM      7  O4  ZIN A   1      18.456  -4.697   5.748  0.00  0.00    -0.265 OA
BRANCH   6   8
ATOM      8  C2  ZIN A   1      19.635  -4.724   7.787  0.00  0.00     0.107 C 
ATOM      9  C1  ZIN A   1      18.394  -5.415   8.355  0.00  0.00     0.015 C 
ENDBRANCH   6   8
ENDBRANCH   5   6
ENDBRANCH   4   5
BRANCH   4  10
ATOM     10  C40 ZIN A   1      19.067  -1.253   4.748  0.00  0.00     0.034 C 
ATOM     11  C41 ZIN A   1      17.591  -1.555   4.478  0.00  0.00     0.014 C 
ATOM     12  C42 ZIN A   1      19.283   0.262   4.757  0.00  0.00     0.014 C 
ENDBRANCH   4  10
ENDBRANCH   3   4
ENDBRANCH   1   3
BRANCH   1  13
ATOM     13  C11 ZIN A   1      19.623  -0.055   8.583  0.00  0.00     0.102 C 
BRANCH  13  14
ATOM     14  C12 ZIN A   1      19.351   1.448   8.495  0.00  0.00     0.010 C 
BRANCH  14  15
ATOM     15  C13 ZIN A   1      19.241   2.029   9.907  0.00  0.00     0.005 C 
BRANCH  15  16
ATOM     16  C14 ZIN A   1      17.902   2.754  10.056  0.00  0.00     0.038 C 
BRANCH  16  17
ATOM     17  C15 ZIN A   1      17.946   3.644  11.271  0.00  0.00    -0.058 A 
ATOM     18  C20 ZIN A   1      18.953   3.489  12.205  0.00  0.00     0.007 A 
ATOM     19  C19 ZIN A   1      18.996   4.307  13.319  0.00  0.00     0.001 A 
ATOM     20  C18 ZIN A   1      18.026   5.275  13.502  0.00  0.00     0.000 A 
ATOM     21  C17 ZIN A   1      17.016   5.427  12.571  0.00  0.00     0.001 A 
ATOM     22  C16 ZIN A   1      16.975   4.612  11.455  0.00  0.00     0.007 A 
ENDBRANCH  16  17
ENDBRANCH  15  16
ENDBRANCH  14  15
ENDBRANCH  13  14
ENDBRANCH   1  13
BRANCH   1  23
ATOM     23  C21 ZIN A   1      17.647  -1.999   9.669  0.00  0.00     0.204 C 
BRANCH  23  24
ATOM     24  C22 ZIN A   1      17.356  -1.110  10.849  0.00  0.00     0.229 C 
ATOM     25  O23 ZIN A   1      16.425  -0.333  10.810  0.00  0.00    -0.273 OA
ATOM     26  N24 ZIN A   1      18.132  -1.176  11.950  0.00  0.00    -0.337 N 
ATOM     27  C35 ZIN A   1      19.286  -2.067  12.131  0.00  0.00     0.188 C 
ATOM     28  C25 ZIN A   1      17.958  -0.372  13.173  0.00  0.00     0.132 C 
ATOM     29  C34 ZIN A   1      19.844  -1.811  13.548  0.00  0.00     0.043 C 
ATOM     30  C26 ZIN A   1      18.626  -1.205  14.295  0.00  0.00     0.010 C 
BRANCH  27  31
ATOM     31  C37 ZIN A   1      18.861  -3.506  12.001  0.00  0.00     0.197 C 
ATOM     32  O38 ZIN A   1      19.613  -4.321  11.491  0.00  0.00    -0.646 OA
ATOM     33  O39 ZIN A   1      17.765  -3.857  12.404  0.00  0.00    -0.646 OA
ENDBRANCH  27  31
BRANCH  30  34
ATOM     34  C28 ZIN A   1      19.081  -0.309  15.448  0.00  0.00    -0.009 C 
ATOM     35  C33 ZIN A   1      18.757  -0.987  16.780  0.00  0.00     0.005 C 
ATOM     36  C32 ZIN A   1      19.211  -0.090  17.934  0.00  0.00     0.000 C 
ATOM     37  C31 ZIN A   1      18.481   1.251  17.854  0.00  0.00     0.000 C 
ATOM     38  C30 ZIN A   1      18.803   1.931  16.522  0.00  0.00     0.000 C 
ATOM     39  C29 ZIN A   1      18.349   1.034  15.370  0.00  0.00     0.005 C 
ENDBRANCH  30  34
ENDBRANCH  23  24
ENDBRANCH   1  23
TORSDOF 15
ENDMDL
MODEL 4
REMARK VINA RESULT:      -8.3      1.089      2.080
REMARK  15 active torsions:
REMARK  status: ('A' for Active; 'I' for Inactive)
REMARK    1  A    between atoms: C2_2  and  C3_3 
REMARK    2  A    between atoms: C3_3  and  O5_5 
REMARK    3  A    between atoms: O5_5  and  C6_6 
REMARK    4  A    between atoms: C6_6  and  O8_7 
REMARK    5  A    between atoms: C6_6  and  C40_37 
REMARK    6  A    between atoms: O8_7  and  P9_8 
REMARK    7  A    between atoms: P9_8  and  C11_10 
REMARK    8  A    between atoms: P9_8  and  C21_20 
REMARK    9  A    between atoms: C11_10  and  C12_11 
REMARK   10  A    between atoms: C12_11  and  C13_12 
REMARK   11  A    between atoms: C13_12  and  C14_13 
REMARK   12  A    between atoms: C14_13  and  C15_14 
REMARK   13  A    between atoms: C21_20  and  C22_21 
REMARK       I    between atoms: C22_21  and  N24_23 
REMARK   14  A    between atoms: C26_25  and  C28_26 
REMARK   15  A    between atoms: C35_33  and  C37_34 
ROOT
ATOM      1  P9  ZIN A   1      18.138   0.868  14.359  0.00  0.00     0.208 P 
ATOM      2  O10 ZIN A   1      17.150  -0.146  14.790  0.00  0.00    -0.291 OA
ENDROOT
BRANCH   1   3
ATOM      3  O8  ZIN A   1      18.459   1.860  15.586  0.00  0.00    -0.301 OA
BRANCH   3   4
ATOM      4  C6  ZIN A   1      19.213   1.462  16.733  0.00  0.00     0.280 C 
BRANCH   4   5
ATOM      5  O5  ZIN A   1      19.401   2.603  17.609  0.00  0.00    -0.289 OA
BRANCH   5   6
ATOM      6  C3  ZIN A   1      19.572   3.800  17.025  0.00  0.00     0.260 C 
ATOM      7  O4  ZIN A   1      20.608   4.051  16.456  0.00  0.00    -0.265 OA
BRANCH   6   8
ATOM      8  C2  ZIN A   1      18.474   4.829  17.079  0.00  0.00     0.107 C 
ATOM      9  C1  ZIN A   1      17.554   4.533  18.266  0.00  0.00     0.015 C 
ENDBRANCH   6   8
ENDBRANCH   5   6
ENDBRANCH   4   5
BRANCH   4  10
ATOM     10  C40 ZIN A   1      18.458   0.362  17.482  0.00  0.00     0.034 C 
ATOM     11  C41 ZIN A   1      19.390  -0.829  17.716  0.00  0.00     0.014 C 
ATOM     12  C42 ZIN A   1      17.974   0.903  18.829  0.00  0.00     0.014 C 
ENDBRANCH   4  10
ENDBRANCH   3   4
ENDBRANCH   1   3
BRANCH   1  13
ATOM     13  C11 ZIN A   1      19.672   0.038  13.832  0.00  0.00     0.102 C 
BRANCH  13  14
ATOM     14  C12 ZIN A   1      19.450  -1.476  13.805  0.00  0.00     0.010 C 
BRANCH  14  15
ATOM     15  C13 ZIN A   1      19.401  -1.958  12.353  0.00  0.00     0.005 C 
BRANCH  15  16
ATOM     16  C14 ZIN A   1      18.217  -2.909  12.172  0.00  0.00     0.038 C 
BRANCH  16  17
ATOM     17  C15 ZIN A   1      18.454  -3.784  10.969  0.00  0.00    -0.058 A 
ATOM     18  C20 ZIN A   1      19.686  -4.384  10.784  0.00  0.00     0.007 A 
ATOM     19  C19 ZIN A   1      19.904  -5.190   9.682  0.00  0.00     0.001 A 
ATOM     20  C18 ZIN A   1      18.892  -5.389   8.761  0.00  0.00     0.000 A 
ATOM     21  C17 ZIN A   1      17.663  -4.785   8.943  0.00  0.00     0.001 A 
ATOM     22  C16 ZIN A   1      17.443  -3.983  10.047  0.00  0.00     0.007 A 
ENDBRANCH  16  17
ENDBRANCH  15  16
ENDBRANCH  14  15
ENDBRANCH  13  14
ENDBRANCH   1  13
BRANCH   1  23
ATOM     23  C21 ZIN A   1      17.455   1.826  12.967  0.00  0.00     0.204 C 
BRANCH  23  24
ATOM     24  C22 ZIN A   1      17.208   0.908  11.799  0.00  0.00     0.229 C 
ATOM     25  O23 ZIN A   1      16.290   0.115  11.833  0.00  0.00    -0.273 OA
ATOM     26  N24 ZIN A   1      18.006   0.967  10.714  0.00  0.00    -0.337 N 
ATOM     27  C35 ZIN A   1      19.148   1.876  10.540  0.00  0.00     0.188 C 
ATOM     28  C25 ZIN A   1      17.875   0.135   9.504  0.00  0.00     0.132 C 
ATOM     29  C34 ZIN A   1      19.743   1.603   9.142  0.00  0.00     0.043 C 
ATOM     30  C26 ZIN A   1      18.553   0.958   8.381  0.00  0.00     0.010 C 
BRANCH  27  31
ATOM     31  C37 ZIN A   1      18.693   3.310  10.632  0.00  0.00     0.197 C 
ATOM     32  O38 ZIN A   1      19.226   4.069  11.424  0.00  0.00    -0.646 OA
ATOM     33  O39 ZIN A   1      17.792   3.710   9.914  0.00  0.00    -0.646 OA
ENDBRANCH  27  31
BRANCH  30  34
ATOM     34  C28 ZIN A   1      19.051   0.048   7.257  0.00  0.00    -0.009 C 
ATOM     35  C33 ZIN A   1      18.362   0.432   5.946  0.00  0.00     0.005 C 
ATOM     36  C32 ZIN A   1      18.859  -0.478   4.822  0.00  0.00     0.000 C 
ATOM     37  C31 ZIN A   1      18.531  -1.933   5.162  0.00  0.00     0.000 C 
ATOM     38  C30 ZIN A   1      19.219  -2.319   6.473  0.00  0.00     0.000 C 
ATOM     39  C29 ZIN A   1      18.722  -1.408   7.597  0.00  0.00     0.005 C 
ENDBRANCH  30  34
ENDBRANCH  23  24
ENDBRANCH   1  23
TORSDOF 15
ENDMDL
MODEL 5
REMARK VINA RESULT:      -8.3      2.840      9.599
REMARK  15 active torsions:
REMARK  status: ('A' for Active; 'I' for Inactive)
REMARK    1  A    between atoms: C2_2  and  C3_3 
REMARK    2  A    between atoms: C3_3  and  O5_5 
REMARK    3  A    between atoms: O5_5  and  C6_6 
REMARK    4  A    between atoms: C6_6  and  O8_7 
REMARK    5  A    between atoms: C6_6  and  C40_37 
REMARK    6  A    between atoms: O8_7  and  P9_8 
REMARK    7  A    between atoms: P9_8  and  C11_10 
REMARK    8  A    between atoms: P9_8  and  C21_20 
REMARK    9  A    between atoms: C11_10  and  C12_11 
REMARK   10  A    between atoms: C12_11  and  C13_12 
REMARK   11  A    between atoms: C13_12  and  C14_13 
REMARK   12  A    between atoms: C14_13  and  C15_14 
REMARK   13  A    between atoms: C21_20  and  C22_21 
REMARK       I    between atoms: C22_21  and  N24_23 
REMARK   14  A    between atoms: C26_25  and  C28_26 
REMARK   15  A    between atoms: C35_33  and  C37_34 
ROOT
ATOM      1  P9  ZIN A   1      18.536  -0.640   8.440  0.00  0.00     0.208 P 
ATOM      2  O10 ZIN A   1      17.430  -0.134   7.597  0.00  0.00    -0.291 OA
ENDROOT
BRANCH   1   3
ATOM      3  O8  ZIN A   1      19.488  -1.595   7.559  0.00  0.00    -0.301 OA
BRANCH   3   4
ATOM      4  C6  ZIN A   1      19.029  -2.802   6.948  0.00  0.00     0.280 C 
BRANCH   4   5
ATOM      5  O5  ZIN A   1      19.552  -2.891   5.597  0.00  0.00    -0.289 OA
BRANCH   5   6
ATOM      6  C3  ZIN A   1      19.026  -2.060   4.684  0.00  0.00     0.260 C 
ATOM      7  O4  ZIN A   1      19.709  -1.193   4.193  0.00  0.00    -0.265 OA
BRANCH   6   8
ATOM      8  C2  ZIN A   1      17.585  -2.209   4.271  0.00  0.00     0.107 C 
ATOM      9  C1  ZIN A   1      17.355  -3.615   3.712  0.00  0.00     0.015 C 
ENDBRANCH   6   8
ENDBRANCH   5   6
ENDBRANCH   4   5
BRANCH   4  10
ATOM     10  C40 ZIN A   1      19.516  -4.002   7.764  0.00  0.00     0.034 C 
ATOM     11  C41 ZIN A   1      18.312  -4.803   8.263  0.00  0.00     0.014 C 
ATOM     12  C42 ZIN A   1      20.391  -4.896   6.882  0.00  0.00     0.014 C 
ENDBRANCH   4  10
ENDBRANCH   3   4
ENDBRANCH   1   3
BRANCH   1  13
ATOM     13  C11 ZIN A   1      19.507   0.765   9.077  0.00  0.00     0.102 C 
BRANCH  13  14
ATOM     14  C12 ZIN A   1      18.981   2.066   8.469  0.00  0.00     0.010 C 
BRANCH  14  15
ATOM     15  C13 ZIN A   1      18.541   3.011   9.590  0.00  0.00     0.005 C 
BRANCH  15  16
ATOM     16  C14 ZIN A   1      19.336   2.702  10.859  0.00  0.00     0.038 C 
BRANCH  16  17
ATOM     17  C15 ZIN A   1      18.918   3.645  11.957  0.00  0.00    -0.058 A 
ATOM     18  C20 ZIN A   1      19.869   4.400  12.617  0.00  0.00     0.007 A 
ATOM     19  C19 ZIN A   1      19.486   5.270  13.623  0.00  0.00     0.001 A 
ATOM     20  C18 ZIN A   1      18.153   5.377  13.971  0.00  0.00     0.000 A 
ATOM     21  C17 ZIN A   1      17.203   4.618  13.314  0.00  0.00     0.001 A 
ATOM     22  C16 ZIN A   1      17.585   3.753  12.306  0.00  0.00     0.007 A 
ENDBRANCH  16  17
ENDBRANCH  15  16
ENDBRANCH  14  15
ENDBRANCH  13  14
ENDBRANCH   1  13
BRANCH   1  23
ATOM     23  C21 ZIN A   1      17.849  -1.589   9.836  0.00  0.00     0.204 C 
BRANCH  23  24
ATOM     24  C22 ZIN A   1      17.221  -0.642  10.826  0.00  0.00     0.229 C 
ATOM     25  O23 ZIN A   1      16.196  -0.060  10.542  0.00  0.00    -0.273 OA
ATOM     26  N24 ZIN A   1      17.799  -0.443  12.027  0.00  0.00    -0.337 N 
ATOM     27  C35 ZIN A   1      19.036  -1.081  12.499  0.00  0.00     0.188 C 
ATOM     28  C25 ZIN A   1      17.291   0.446  13.088  0.00  0.00     0.132 C 
ATOM     29  C34 ZIN A   1      19.297  -0.572  13.932  0.00  0.00     0.043 C 
ATOM     30  C26 ZIN A   1      17.887  -0.121  14.400  0.00  0.00     0.010 C 
BRANCH  27  31
ATOM     31  C37 ZIN A   1      18.881  -2.580  12.508  0.00  0.00     0.197 C 
ATOM     32  O38 ZIN A   1      17.837  -3.083  12.889  0.00  0.00    -0.646 OA
ATOM     33  O39 ZIN A   1      19.799  -3.291  12.135  0.00  0.00    -0.646 OA
ENDBRANCH  27  31
BRANCH  30  34
ATOM     34  C28 ZIN A   1      17.987   0.966  15.472  0.00  0.00    -0.009 C 
ATOM     35  C33 ZIN A   1      19.264   1.780  15.258  0.00  0.00     0.005 C 
ATOM     36  C32 ZIN A   1      19.365   2.865  16.330  0.00  0.00     0.000 C 
ATOM     37  C31 ZIN A   1      19.402   2.214  17.714  0.00  0.00     0.000 C 
ATOM     38  C30 ZIN A   1      18.126   1.399  17.930  0.00  0.00     0.000 C 
ATOM     39  C29 ZIN A   1      18.026   0.313  16.857  0.00  0.00     0.005 C 
ENDBRANCH  30  34
ENDBRANCH  23  24
ENDBRANCH   1  23
TORSDOF 15
ENDMDL
MODEL 6
REMARK VINA RESULT:      -8.2      5.329      9.606
REMARK  15 active torsions:
REMARK  status: ('A' for Active; 'I' for Inactive)
REMARK    1  A    between atoms: C2_2  and  C3_3 
REMARK    2  A    between atoms: C3_3  and  O5_5 
REMARK    3  A    between atoms: O5_5  and  C6_6 
REMARK    4  A    between atoms: C6_6  and  O8_7 
REMARK    5  A    between atoms: C6_6  and  C40_37 
REMARK    6  A    between atoms: O8_7  and  P9_8 
REMARK    7  A    between atoms: P9_8  and  C11_10 
REMARK    8  A    between atoms: P9_8  and  C21_20 
REMARK    9  A    between atoms: C11_10  and  C12_11 
REMARK   10  A    between atoms: C12_11  and  C13_12 
REMARK   11  A    between atoms: C13_12  and  C14_13 
REMARK   12  A    between atoms: C14_13  and  C15_14 
REMARK   13  A    between atoms: C21_20  and  C22_21 
REMARK       I    between atoms: C22_21  and  N24_23 
REMARK   14  A    between atoms: C26_25  and  C28_26 
REMARK   15  A    between atoms: C35_33  and  C37_34 
ROOT
ATOM      1  P9  ZIN A   1      17.690  -5.180   5.528  0.00  0.00     0.208 P 
ATOM      2  O10 ZIN A   1      18.208  -6.505   5.119  0.00  0.00    -0.291 OA
ENDROOT
BRANCH   1   3
ATOM      3  O8  ZIN A   1      16.370  -4.833   4.673  0.00  0.00    -0.301 OA
BRANCH   3   4
ATOM      4  C6  ZIN A   1      15.544  -5.834   4.075  0.00  0.00     0.280 C 
BRANCH   4   5
ATOM      5  O5  ZIN A   1      14.253  -5.856   4.736  0.00  0.00    -0.289 OA
BRANCH   5   6
ATOM      6  C3  ZIN A   1      14.125  -6.664   5.800  0.00  0.00     0.260 C 
ATOM      7  O4  ZIN A   1      14.836  -7.636   5.908  0.00  0.00    -0.265 OA
BRANCH   6   8
ATOM      8  C2  ZIN A   1      13.098  -6.361   6.859  0.00  0.00     0.107 C 
ATOM      9  C1  ZIN A   1      13.790  -6.217   8.217  0.00  0.00     0.015 C 
ENDBRANCH   6   8
ENDBRANCH   5   6
ENDBRANCH   4   5
BRANCH   4  10
ATOM     10  C40 ZIN A   1      15.353  -5.516   2.591  0.00  0.00     0.034 C 
ATOM     11  C41 ZIN A   1      15.912  -4.124   2.291  0.00  0.00     0.014 C 
ATOM     12  C42 ZIN A   1      16.095  -6.555   1.747  0.00  0.00     0.014 C 
ENDBRANCH   4  10
ENDBRANCH   3   4
ENDBRANCH   1   3
BRANCH   1  13
ATOM     13  C11 ZIN A   1      17.275  -5.211   7.302  0.00  0.00     0.102 C 
BRANCH  13  14
ATOM     14  C12 ZIN A   1      17.617  -6.585   7.883  0.00  0.00     0.010 C 
BRANCH  14  15
ATOM     15  C13 ZIN A   1      18.367  -6.408   9.205  0.00  0.00     0.005 C 
BRANCH  15  16
ATOM     16  C14 ZIN A   1      17.438  -5.762  10.234  0.00  0.00     0.038 C 
BRANCH  16  17
ATOM     17  C15 ZIN A   1      18.148  -4.612  10.901  0.00  0.00    -0.058 A 
ATOM     18  C20 ZIN A   1      17.418  -3.593  11.482  0.00  0.00     0.007 A 
ATOM     19  C19 ZIN A   1      18.069  -2.539  12.097  0.00  0.00     0.001 A 
ATOM     20  C18 ZIN A   1      19.451  -2.502  12.123  0.00  0.00     0.000 A 
ATOM     21  C17 ZIN A   1      20.181  -3.519  11.538  0.00  0.00     0.001 A 
ATOM     22  C16 ZIN A   1      19.530  -4.575  10.927  0.00  0.00     0.007 A 
ENDBRANCH  16  17
ENDBRANCH  15  16
ENDBRANCH  14  15
ENDBRANCH  13  14
ENDBRANCH   1  13
BRANCH   1  23
ATOM     23  C21 ZIN A   1      18.962  -3.911   5.223  0.00  0.00     0.204 C 
BRANCH  23  24
ATOM     24  C22 ZIN A   1      19.452  -3.365   6.538  0.00  0.00     0.229 C 
ATOM     25  O23 ZIN A   1      20.211  -4.020   7.222  0.00  0.00    -0.273 OA
ATOM     26  N24 ZIN A   1      19.049  -2.148   6.956  0.00  0.00    -0.337 N 
ATOM     27  C35 ZIN A   1      18.137  -1.253   6.230  0.00  0.00     0.188 C 
ATOM     28  C25 ZIN A   1      19.454  -1.494   8.213  0.00  0.00     0.132 C 
ATOM     29  C34 ZIN A   1      17.985   0.029   7.075  0.00  0.00     0.043 C 
ATOM     30  C26 ZIN A   1      19.268   0.021   7.950  0.00  0.00     0.010 C 
BRANCH  27  31
ATOM     31  C37 ZIN A   1      18.708  -0.910   4.878  0.00  0.00     0.197 C 
ATOM     32  O38 ZIN A   1      19.909  -0.749   4.746  0.00  0.00    -0.646 OA
ATOM     33  O39 ZIN A   1      17.967  -0.793   3.916  0.00  0.00    -0.646 OA
ENDBRANCH  27  31
BRANCH  30  34
ATOM     34  C28 ZIN A   1      19.045   0.783   9.257  0.00  0.00    -0.009 C 
ATOM     35  C33 ZIN A   1      17.683   0.404   9.843  0.00  0.00     0.005 C 
ATOM     36  C32 ZIN A   1      17.460   1.167  11.150  0.00  0.00     0.000 C 
ATOM     37  C31 ZIN A   1      17.496   2.671  10.876  0.00  0.00     0.000 C 
ATOM     38  C30 ZIN A   1      18.857   3.051  10.290  0.00  0.00     0.000 C 
ATOM     39  C29 ZIN A   1      19.079   2.288   8.982  0.00  0.00     0.005 C 
ENDBRANCH  30  34
ENDBRANCH  23  24
ENDBRANCH   1  23
TORSDOF 15
ENDMDL
MODEL 7
REMARK VINA RESULT:      -8.1      1.720      4.578
REMARK  15 active torsions:
REMARK  status: ('A' for Active; 'I' for Inactive)
REMARK    1  A    between atoms: C2_2  and  C3_3 
REMARK    2  A    between atoms: C3_3  and  O5_5 
REMARK    3  A    between atoms: O5_5  and  C6_6 
REMARK    4  A    between atoms: C6_6  and  O8_7 
REMARK    5  A    between atoms: C6_6  and  C40_37 
REMARK    6  A    between atoms: O8_7  and  P9_8 
REMARK    7  A    between atoms: P9_8  and  C11_10 
REMARK    8  A    between atoms: P9_8  and  C21_20 
REMARK    9  A    between atoms: C11_10  and  C12_11 
REMARK   10  A    between atoms: C12_11  and  C13_12 
REMARK   11  A    between atoms: C13_12  and  C14_13 
REMARK   12  A    between atoms: C14_13  and  C15_14 
REMARK   13  A    between atoms: C21_20  and  C22_21 
REMARK       I    between atoms: C22_21  and  N24_23 
REMARK   14  A    between atoms: C26_25  and  C28_26 
REMARK   15  A    between atoms: C35_33  and  C37_34 
ROOT
ATOM      1  P9  ZIN A   1      19.284   3.266  12.204  0.00  0.00     0.208 P 
ATOM      2  O10 ZIN A   1      20.545   3.647  11.529  0.00  0.00    -0.291 OA
ENDROOT
BRANCH   1   3
ATOM      3  O8  ZIN A   1      18.730   4.519  13.051  0.00  0.00    -0.301 OA
BRANCH   3   4
ATOM      4  C6  ZIN A   1      17.992   4.372  14.266  0.00  0.00     0.280 C 
BRANCH   4   5
ATOM      5  O5  ZIN A   1      18.860   4.643  15.396  0.00  0.00    -0.289 OA
BRANCH   5   6
ATOM      6  C3  ZIN A   1      18.640   3.939  16.517  0.00  0.00     0.260 C 
ATOM      7  O4  ZIN A   1      17.904   4.376  17.370  0.00  0.00    -0.265 OA
BRANCH   6   8
ATOM      8  C2  ZIN A   1      19.311   2.605  16.713  0.00  0.00     0.107 C 
ATOM      9  C1  ZIN A   1      18.834   1.981  18.027  0.00  0.00     0.015 C 
ENDBRANCH   6   8
ENDBRANCH   5   6
ENDBRANCH   4   5
BRANCH   4  10
ATOM     10  C40 ZIN A   1      16.821   5.358  14.272  0.00  0.00     0.034 C 
ATOM     11  C41 ZIN A   1      17.326   6.747  14.666  0.00  0.00     0.014 C 
ATOM     12  C42 ZIN A   1      16.199   5.419  12.875  0.00  0.00     0.014 C 
ENDBRANCH   4  10
ENDBRANCH   3   4
ENDBRANCH   1   3
BRANCH   1  13
ATOM     13  C11 ZIN A   1      18.048   2.781  10.956  0.00  0.00     0.102 C 
BRANCH  13  14
ATOM     14  C12 ZIN A   1      18.625   2.997   9.555  0.00  0.00     0.010 C 
BRANCH  14  15
ATOM     15  C13 ZIN A   1      19.301   1.709   9.079  0.00  0.00     0.005 C 
BRANCH  15  16
ATOM     16  C14 ZIN A   1      18.232   0.697   8.661  0.00  0.00     0.038 C 
BRANCH  16  17
ATOM     17  C15 ZIN A   1      18.627   0.060   7.354  0.00  0.00    -0.058 A 
ATOM     18  C20 ZIN A   1      18.875  -1.299   7.296  0.00  0.00     0.007 A 
ATOM     19  C19 ZIN A   1      19.234  -1.885   6.095  0.00  0.00     0.001 A 
ATOM     20  C18 ZIN A   1      19.352  -1.110   4.957  0.00  0.00     0.000 A 
ATOM     21  C17 ZIN A   1      19.110   0.249   5.016  0.00  0.00     0.001 A 
ATOM     22  C16 ZIN A   1      18.746   0.835   6.215  0.00  0.00     0.007 A 
ENDBRANCH  16  17
ENDBRANCH  15  16
ENDBRANCH  14  15
ENDBRANCH  13  14
ENDBRANCH   1  13
BRANCH   1  23
ATOM     23  C21 ZIN A   1      19.597   1.865  13.327  0.00  0.00     0.204 C 
BRANCH  23  24
ATOM     24  C22 ZIN A   1      20.089   0.684  12.532  0.00  0.00     0.229 C 
ATOM     25  O23 ZIN A   1      21.211   0.689  12.068  0.00  0.00    -0.273 OA
ATOM     26  N24 ZIN A   1      19.284  -0.379  12.335  0.00  0.00    -0.337 N 
ATOM     27  C35 ZIN A   1      17.909  -0.516  12.838  0.00  0.00     0.188 C 
ATOM     28  C25 ZIN A   1      19.637  -1.598  11.585  0.00  0.00     0.132 C 
ATOM     29  C34 ZIN A   1      17.394  -1.900  12.389  0.00  0.00     0.043 C 
ATOM     30  C26 ZIN A   1      18.704  -2.697  12.151  0.00  0.00     0.010 C 
BRANCH  27  31
ATOM     31  C37 ZIN A   1      17.892  -0.426  14.342  0.00  0.00     0.197 C 
ATOM     32  O38 ZIN A   1      18.574  -1.187  15.007  0.00  0.00    -0.646 OA
ATOM     33  O39 ZIN A   1      17.194   0.408  14.894  0.00  0.00    -0.646 OA
ENDBRANCH  27  31
BRANCH  30  34
ATOM     34  C28 ZIN A   1      18.489  -3.814  11.129  0.00  0.00    -0.009 C 
ATOM     35  C33 ZIN A   1      19.843  -4.310  10.621  0.00  0.00     0.005 C 
ATOM     36  C32 ZIN A   1      19.628  -5.427   9.598  0.00  0.00     0.000 C 
ATOM     37  C31 ZIN A   1      18.807  -4.891   8.423  0.00  0.00     0.000 C 
ATOM     38  C30 ZIN A   1      17.452  -4.395   8.930  0.00  0.00     0.000 C 
ATOM     39  C29 ZIN A   1      17.669  -3.278   9.953  0.00  0.00     0.005 C 
ENDBRANCH  30  34
ENDBRANCH  23  24
ENDBRANCH   1  23
TORSDOF 15
ENDMDL
MODEL 8
REMARK VINA RESULT:      -8.0      2.020      4.984
REMARK  15 active torsions:
REMARK  status: ('A' for Active; 'I' for Inactive)
REMARK    1  A    between atoms: C2_2  and  C3_3 
REMARK    2  A    between atoms: C3_3  and  O5_5 
REMARK    3  A    between atoms: O5_5  and  C6_6 
REMARK    4  A    between atoms: C6_6  and  O8_7 
REMARK    5  A    between atoms: C6_6  and  C40_37 
REMARK    6  A    between atoms: O8_7  and  P9_8 
REMARK    7  A    between atoms: P9_8  and  C11_10 
REMARK    8  A    between atoms: P9_8  and  C21_20 
REMARK    9  A    between atoms: C11_10  and  C12_11 
REMARK   10  A    between atoms: C12_11  and  C13_12 
REMARK   11  A    between atoms: C13_12  and  C14_13 
REMARK   12  A    between atoms: C14_13  and  C15_14 
REMARK   13  A    between atoms: C21_20  and  C22_21 
REMARK       I    between atoms: C22_21  and  N24_23 
REMARK   14  A    between atoms: C26_25  and  C28_26 
REMARK   15  A    between atoms: C35_33  and  C37_34 
ROOT
ATOM      1  P9  ZIN A   1      18.988   3.277  12.843  0.00  0.00     0.208 P 
ATOM      2  O10 ZIN A   1      20.101   3.952  12.138  0.00  0.00    -0.291 OA
ENDROOT
BRANCH   1   3
ATOM      3  O8  ZIN A   1      18.393   4.259  13.972  0.00  0.00    -0.301 OA
BRANCH   3   4
ATOM      4  C6  ZIN A   1      18.851   5.600  14.157  0.00  0.00     0.280 C 
BRANCH   4   5
ATOM      5  O5  ZIN A   1      17.715   6.504  14.159  0.00  0.00    -0.289 OA
BRANCH   5   6
ATOM      6  C3  ZIN A   1      16.630   6.122  13.468  0.00  0.00     0.260 C 
ATOM      7  O4  ZIN A   1      16.666   6.085  12.261  0.00  0.00    -0.265 OA
BRANCH   6   8
ATOM      8  C2  ZIN A   1      15.368   5.740  14.196  0.00  0.00     0.107 C 
ATOM      9  C1  ZIN A   1      15.462   6.194  15.655  0.00  0.00     0.015 C 
ENDBRANCH   6   8
ENDBRANCH   5   6
ENDBRANCH   4   5
BRANCH   4  10
ATOM     10  C40 ZIN A   1      19.591   5.706  15.492  0.00  0.00     0.034 C 
ATOM     11  C41 ZIN A   1      19.362   4.430  16.305  0.00  0.00     0.014 C 
ATOM     12  C42 ZIN A   1      21.089   5.881  15.232  0.00  0.00     0.014 C 
ENDBRANCH   4  10
ENDBRANCH   3   4
ENDBRANCH   1   3
BRANCH   1  13
ATOM     13  C11 ZIN A   1      17.677   2.860  11.648  0.00  0.00     0.102 C 
BRANCH  13  14
ATOM     14  C12 ZIN A   1      18.026   3.449  10.279  0.00  0.00     0.010 C 
BRANCH  14  15
ATOM     15  C13 ZIN A   1      18.771   2.401   9.449  0.00  0.00     0.005 C 
BRANCH  15  16
ATOM     16  C14 ZIN A   1      17.907   1.145   9.319  0.00  0.00     0.038 C 
BRANCH  16  17
ATOM     17  C15 ZIN A   1      18.263   0.419   8.048  0.00  0.00    -0.058 A 
ATOM     18  C20 ZIN A   1      18.081  -0.948   7.960  0.00  0.00     0.007 A 
ATOM     19  C19 ZIN A   1      18.405  -1.615   6.793  0.00  0.00     0.001 A 
ATOM     20  C18 ZIN A   1      18.918  -0.915   5.717  0.00  0.00     0.000 A 
ATOM     21  C17 ZIN A   1      19.104   0.452   5.806  0.00  0.00     0.001 A 
ATOM     22  C16 ZIN A   1      18.777   1.119   6.972  0.00  0.00     0.007 A 
ENDBRANCH  16  17
ENDBRANCH  15  16
ENDBRANCH  14  15
ENDBRANCH  13  14
ENDBRANCH   1  13
BRANCH   1  23
ATOM     23  C21 ZIN A   1      19.604   1.752  13.628  0.00  0.00     0.204 C 
BRANCH  23  24
ATOM     24  C22 ZIN A   1      20.128   0.818  12.569  0.00  0.00     0.229 C 
ATOM     25  O23 ZIN A   1      21.182   1.057  12.016  0.00  0.00    -0.273 OA
ATOM     26  N24 ZIN A   1      19.428  -0.284  12.235  0.00  0.00    -0.337 N 
ATOM     27  C35 ZIN A   1      18.144  -0.693  12.822  0.00  0.00     0.188 C 
ATOM     28  C25 ZIN A   1      19.826  -1.282  11.225  0.00  0.00     0.132 C 
ATOM     29  C34 ZIN A   1      17.736  -2.022  12.151  0.00  0.00     0.043 C 
ATOM     30  C26 ZIN A   1      19.091  -2.580  11.638  0.00  0.00     0.010 C 
BRANCH  27  31
ATOM     31  C37 ZIN A   1      18.289  -0.893  14.308  0.00  0.00     0.197 C 
ATOM     32  O38 ZIN A   1      19.234  -1.525  14.749  0.00  0.00    -0.646 OA
ATOM     33  O39 ZIN A   1      17.460  -0.423  15.070  0.00  0.00    -0.646 OA
ENDBRANCH  27  31
BRANCH  30  34
ATOM     34  C28 ZIN A   1      18.884  -3.502  10.435  0.00  0.00    -0.009 C 
ATOM     35  C33 ZIN A   1      17.417  -3.929  10.365  0.00  0.00     0.005 C 
ATOM     36  C32 ZIN A   1      17.210  -4.851   9.162  0.00  0.00     0.000 C 
ATOM     37  C31 ZIN A   1      18.094  -6.090   9.312  0.00  0.00     0.000 C 
ATOM     38  C30 ZIN A   1      19.562  -5.665   9.383  0.00  0.00     0.000 C 
ATOM     39  C29 ZIN A   1      19.768  -4.743  10.586  0.00  0.00     0.005 C 
ENDBRANCH  30  34
ENDBRANCH  23  24
ENDBRANCH   1  23
TORSDOF 15
ENDMDL
MODEL 9
REMARK VINA RESULT:      -7.7      2.690      8.451
REMARK  15 active torsions:
REMARK  status: ('A' for Active; 'I' for Inactive)
REMARK    1  A    between atoms: C2_2  and  C3_3 
REMARK    2  A    between atoms: C3_3  and  O5_5 
REMARK    3  A    between atoms: O5_5  and  C6_6 
REMARK    4  A    between atoms: C6_6  and  O8_7 
REMARK    5  A    between atoms: C6_6  and  C40_37 
REMARK    6  A    between atoms: O8_7  and  P9_8 
REMARK    7  A    between atoms: P9_8  and  C11_10 
REMARK    8  A    between atoms: P9_8  and  C21_20 
REMARK    9  A    between atoms: C11_10  and  C12_11 
REMARK   10  A    between atoms: C12_11  and  C13_12 
REMARK   11  A    between atoms: C13_12  and  C14_13 
REMARK   12  A    between atoms: C14_13  and  C15_14 
REMARK   13  A    between atoms: C21_20  and  C22_21 
REMARK       I    between atoms: C22_21  and  N24_23 
REMARK   14  A    between atoms: C26_25  and  C28_26 
REMARK   15  A    between atoms: C35_33  and  C37_34 
ROOT
ATOM      1  P9  ZIN A   1      18.420  -1.614   9.799  0.00  0.00     0.208 P 
ATOM      2  O10 ZIN A   1      19.188  -1.680   8.535  0.00  0.00    -0.291 OA
ENDROOT
BRANCH   1   3
ATOM      3  O8  ZIN A   1      17.618  -2.994  10.012  0.00  0.00    -0.301 OA
BRANCH   3   4
ATOM      4  C6  ZIN A   1      17.889  -4.177   9.257  0.00  0.00     0.280 C 
BRANCH   4   5
ATOM      5  O5  ZIN A   1      19.299  -4.505   9.360  0.00  0.00    -0.289 OA
BRANCH   5   6
ATOM      6  C3  ZIN A   1      19.787  -5.382   8.469  0.00  0.00     0.260 C 
ATOM      7  O4  ZIN A   1      20.268  -6.423   8.849  0.00  0.00    -0.265 OA
BRANCH   6   8
ATOM      8  C2  ZIN A   1      19.737  -5.068   6.996  0.00  0.00     0.107 C 
ATOM      9  C1  ZIN A   1      18.791  -6.047   6.297  0.00  0.00     0.015 C 
ENDBRANCH   6   8
ENDBRANCH   5   6
ENDBRANCH   4   5
BRANCH   4  10
ATOM     10  C40 ZIN A   1      17.053  -5.334   9.809  0.00  0.00     0.034 C 
ATOM     11  C41 ZIN A   1      16.616  -5.013  11.239  0.00  0.00     0.014 C 
ATOM     12  C42 ZIN A   1      15.816  -5.533   8.930  0.00  0.00     0.014 C 
ENDBRANCH   4  10
ENDBRANCH   3   4
ENDBRANCH   1   3
BRANCH   1  13
ATOM     13  C11 ZIN A   1      19.566  -1.355  11.193  0.00  0.00     0.102 C 
BRANCH  13  14
ATOM     14  C12 ZIN A   1      19.375  -2.470  12.224  0.00  0.00     0.010 C 
BRANCH  14  15
ATOM     15  C13 ZIN A   1      19.851  -1.984  13.595  0.00  0.00     0.005 C 
BRANCH  15  16
ATOM     16  C14 ZIN A   1      19.583  -0.484  13.724  0.00  0.00     0.038 C 
BRANCH  16  17
ATOM     17  C15 ZIN A   1      18.881  -0.209  15.028  0.00  0.00    -0.058 A 
ATOM     18  C20 ZIN A   1      19.041   1.012  15.655  0.00  0.00     0.007 A 
ATOM     19  C19 ZIN A   1      18.394   1.267  16.851  0.00  0.00     0.001 A 
ATOM     20  C18 ZIN A   1      17.593   0.296  17.422  0.00  0.00     0.000 A 
ATOM     21  C17 ZIN A   1      17.436  -0.927  16.798  0.00  0.00     0.001 A 
ATOM     22  C16 ZIN A   1      18.079  -1.180  15.600  0.00  0.00     0.007 A 
ENDBRANCH  16  17
ENDBRANCH  15  16
ENDBRANCH  14  15
ENDBRANCH  13  14
ENDBRANCH   1  13
BRANCH   1  23
ATOM     23  C21 ZIN A   1      17.237  -0.230   9.719  0.00  0.00     0.204 C 
BRANCH  23  24
ATOM     24  C22 ZIN A   1      17.113   0.404  11.079  0.00  0.00     0.229 C 
ATOM     25  O23 ZIN A   1      16.701  -0.246  12.017  0.00  0.00    -0.273 OA
ATOM     26  N24 ZIN A   1      17.460   1.695  11.255  0.00  0.00    -0.337 N 
ATOM     27  C35 ZIN A   1      17.972   2.594  10.211  0.00  0.00     0.188 C 
ATOM     28  C25 ZIN A   1      17.394   2.436  12.528  0.00  0.00     0.132 C 
ATOM     29  C34 ZIN A   1      18.253   3.957  10.879  0.00  0.00     0.043 C 
ATOM     30  C26 ZIN A   1      18.426   3.580  12.375  0.00  0.00     0.010 C 
BRANCH  27  31
ATOM     31  C37 ZIN A   1      19.243   2.040   9.623  0.00  0.00     0.197 C 
ATOM     32  O38 ZIN A   1      20.143   1.666  10.356  0.00  0.00    -0.646 OA
ATOM     33  O39 ZIN A   1      19.373   1.967   8.412  0.00  0.00    -0.646 OA
ENDBRANCH  27  31
BRANCH  30  34
ATOM     34  C28 ZIN A   1      18.075   4.761  13.281  0.00  0.00    -0.009 C 
ATOM     35  C33 ZIN A   1      18.067   4.301  14.740  0.00  0.00     0.005 C 
ATOM     36  C32 ZIN A   1      17.716   5.482  15.646  0.00  0.00     0.000 C 
ATOM     37  C31 ZIN A   1      16.332   6.017  15.273  0.00  0.00     0.000 C 
ATOM     38  C30 ZIN A   1      16.338   6.478  13.815  0.00  0.00     0.000 C 
ATOM     39  C29 ZIN A   1      16.690   5.296  12.909  0.00  0.00     0.005 C 
ENDBRANCH  30  34
ENDBRANCH  23  24
ENDBRANCH   1  23
TORSDOF 15
ENDMDL
