MODEL 1
REMARK VINA RESULT:      -2.8      0.000      0.000
REMARK  2 active torsions:
REMARK  status: ('A' for Active; 'I' for Inactive)
REMARK    1  A    between atoms: C2_2  and  C4_4 
REMARK    2  A    between atoms: C4_4  and  O5_5 
ROOT
ATOM      1  O1  <0> d   1      19.947   0.421  18.312  0.00  0.00    -0.646 OA
ATOM      2  C2  <0> d   1      19.153   1.334  18.462  0.00  0.00     0.197 C 
ATOM      3  O3  <0> d   1      19.554   2.446  18.765  0.00  0.00    -0.646 OA
ENDROOT
BRANCH   2   4
ATOM      4  C4  <0> d   1      17.679   1.092  18.267  0.00  0.00     0.277 C 
BRANCH   4   5
ATOM      5  O5  <0> d   1      16.944   2.220  18.746  0.00  0.00    -0.390 OA
ATOM      6  H8  <0> d   1      16.457   2.693  18.057  0.00  0.00     0.210 HD
ENDBRANCH   4   5
ENDBRANCH   2   4
TORSDOF 2
ENDMDL
MODEL 2
REMARK VINA RESULT:      -2.8     13.708     14.007
REMARK  2 active torsions:
REMARK  status: ('A' for Active; 'I' for Inactive)
REMARK    1  A    between atoms: C2_2  and  C4_4 
REMARK    2  A    between atoms: C4_4  and  O5_5 
ROOT
ATOM      1  O1  <0> d   1      19.922  -0.769   4.574  0.00  0.00    -0.646 OA
ATOM      2  C2  <0> d   1      19.156  -1.700   4.752  0.00  0.00     0.197 C 
ATOM      3  O3  <0> d   1      19.574  -2.756   5.196  0.00  0.00    -0.646 OA
ENDROOT
BRANCH   2   4
ATOM      4  C4  <0> d   1      17.691  -1.544   4.432  0.00  0.00     0.277 C 
BRANCH   4   5
ATOM      5  O5  <0> d   1      17.013  -0.998   5.566  0.00  0.00    -0.390 OA
ATOM      6  H8  <0> d   1      17.199  -0.061   5.721  0.00  0.00     0.210 HD
ENDBRANCH   4   5
ENDBRANCH   2   4
TORSDOF 2
ENDMDL
MODEL 3
REMARK VINA RESULT:      -2.7      6.679      7.259
REMARK  2 active torsions:
REMARK  status: ('A' for Active; 'I' for Inactive)
REMARK    1  A    between atoms: C2_2  and  C4_4 
REMARK    2  A    between atoms: C4_4  and  O5_5 
ROOT
ATOM      1  O1  <0> d   1      20.365   0.373  13.444  0.00  0.00    -0.646 OA
ATOM      2  C2  <0> d   1      20.294   0.681  12.267  0.00  0.00     0.197 C 
ATOM      3  O3  <0> d   1      20.147   1.850  11.951  0.00  0.00    -0.646 OA
ENDROOT
BRANCH   2   4
ATOM      4  C4  <0> d   1      20.396  -0.380  11.202  0.00  0.00     0.277 C 
BRANCH   4   5
ATOM      5  O5  <0> d   1      21.772  -0.625  10.905  0.00  0.00    -0.390 OA
ATOM      6  H8  <0> d   1      22.387  -0.066  11.400  0.00  0.00     0.210 HD
ENDBRANCH   4   5
ENDBRANCH   2   4
TORSDOF 2
ENDMDL
MODEL 4
REMARK VINA RESULT:      -2.7      1.569      2.046
REMARK  2 active torsions:
REMARK  status: ('A' for Active; 'I' for Inactive)
REMARK    1  A    between atoms: C2_2  and  C4_4 
REMARK    2  A    between atoms: C4_4  and  O5_5 
ROOT
ATOM      1  O1  <0> d   1      19.783   1.671  18.691  0.00  0.00    -0.646 OA
ATOM      2  C2  <0> d   1      19.349   0.782  17.978  0.00  0.00     0.197 C 
ATOM      3  O3  <0> d   1      19.365  -0.374  18.368  0.00  0.00    -0.646 OA
ENDROOT
BRANCH   2   4
ATOM      4  C4  <0> d   1      18.788   1.111  16.619  0.00  0.00     0.277 C 
BRANCH   4   5
ATOM      5  O5  <0> d   1      17.378   0.877  16.618  0.00  0.00    -0.390 OA
ATOM      6  H8  <0> d   1      16.932   1.157  17.429  0.00  0.00     0.210 HD
ENDBRANCH   4   5
ENDBRANCH   2   4
TORSDOF 2
ENDMDL
MODEL 5
REMARK VINA RESULT:      -2.7      7.555      8.201
REMARK  2 active torsions:
REMARK  status: ('A' for Active; 'I' for Inactive)
REMARK    1  A    between atoms: C2_2  and  C4_4 
REMARK    2  A    between atoms: C4_4  and  O5_5 
ROOT
ATOM      1  O1  <0> d   1      20.283  -0.378   9.601  0.00  0.00    -0.646 OA
ATOM      2  C2  <0> d   1      20.228  -0.674  10.782  0.00  0.00     0.197 C 
ATOM      3  O3  <0> d   1      20.080  -1.839  11.112  0.00  0.00    -0.646 OA
ENDROOT
BRANCH   2   4
ATOM      4  C4  <0> d   1      20.352   0.398  11.835  0.00  0.00     0.277 C 
BRANCH   4   5
ATOM      5  O5  <0> d   1      21.733   0.617  12.131  0.00  0.00    -0.390 OA
ATOM      6  H8  <0> d   1      22.027   0.211  12.958  0.00  0.00     0.210 HD
ENDBRANCH   4   5
ENDBRANCH   2   4
TORSDOF 2
ENDMDL
MODEL 6
REMARK VINA RESULT:      -2.7     14.036     14.356
REMARK  2 active torsions:
REMARK  status: ('A' for Active; 'I' for Inactive)
REMARK    1  A    between atoms: C2_2  and  C4_4 
REMARK    2  A    between atoms: C4_4  and  O5_5 
ROOT
ATOM      1  O1  <0> d   1      19.818  -2.975   5.700  0.00  0.00    -0.646 OA
ATOM      2  C2  <0> d   1      19.256  -2.206   4.940  0.00  0.00     0.197 C 
ATOM      3  O3  <0> d   1      19.854  -1.239   4.499  0.00  0.00    -0.646 OA
ENDROOT
BRANCH   2   4
ATOM      4  C4  <0> d   1      17.824  -2.452   4.539  0.00  0.00     0.277 C 
BRANCH   4   5
ATOM      5  O5  <0> d   1      17.449  -1.524   3.518  0.00  0.00    -0.390 OA
ATOM      6  H8  <0> d   1      17.736  -1.779   2.630  0.00  0.00     0.210 HD
ENDBRANCH   4   5
ENDBRANCH   2   4
TORSDOF 2
ENDMDL
MODEL 7
REMARK VINA RESULT:      -2.7      8.879      9.470
REMARK  2 active torsions:
REMARK  status: ('A' for Active; 'I' for Inactive)
REMARK    1  A    between atoms: C2_2  and  C4_4 
REMARK    2  A    between atoms: C4_4  and  O5_5 
ROOT
ATOM      1  O1  <0> d   1      19.779   0.950   8.850  0.00  0.00    -0.646 OA
ATOM      2  C2  <0> d   1      19.900  -0.162   9.335  0.00  0.00     0.197 C 
ATOM      3  O3  <0> d   1      19.718  -1.151   8.645  0.00  0.00    -0.646 OA
ENDROOT
BRANCH   2   4
ATOM      4  C4  <0> d   1      20.283  -0.315  10.785  0.00  0.00     0.277 C 
BRANCH   4   5
ATOM      5  O5  <0> d   1      21.675  -0.623  10.879  0.00  0.00    -0.390 OA
ATOM      6  H8  <0> d   1      21.941  -1.399  10.366  0.00  0.00     0.210 HD
ENDBRANCH   4   5
ENDBRANCH   2   4
TORSDOF 2
ENDMDL
MODEL 8
REMARK VINA RESULT:      -2.7     12.870     13.220
REMARK  2 active torsions:
REMARK  status: ('A' for Active; 'I' for Inactive)
REMARK    1  A    between atoms: C2_2  and  C4_4 
REMARK    2  A    between atoms: C4_4  and  O5_5 
ROOT
ATOM      1  O1  <0> d   1      17.435  -0.106   6.435  0.00  0.00    -0.646 OA
ATOM      2  C2  <0> d   1      18.381   0.395   5.852  0.00  0.00     0.197 C 
ATOM      3  O3  <0> d   1      18.995   1.315   6.365  0.00  0.00    -0.646 OA
ENDROOT
BRANCH   2   4
ATOM      4  C4  <0> d   1      18.795  -0.126   4.499  0.00  0.00     0.277 C 
BRANCH   4   5
ATOM      5  O5  <0> d   1      19.957  -0.945   4.641  0.00  0.00    -0.390 OA
ATOM      6  H8  <0> d   1      20.766  -0.542   4.295  0.00  0.00     0.210 HD
ENDBRANCH   4   5
ENDBRANCH   2   4
TORSDOF 2
ENDMDL
MODEL 9
REMARK VINA RESULT:      -2.7      1.995      2.648
REMARK  2 active torsions:
REMARK  status: ('A' for Active; 'I' for Inactive)
REMARK    1  A    between atoms: C2_2  and  C4_4 
REMARK    2  A    between atoms: C4_4  and  O5_5 
ROOT
ATOM      1  O1  <0> d   1      18.934   1.091  16.639  0.00  0.00    -0.646 OA
ATOM      2  C2  <0> d   1      19.318   1.883  17.483  0.00  0.00     0.197 C 
ATOM      3  O3  <0> d   1      19.746   1.475  18.550  0.00  0.00    -0.646 OA
ENDROOT
BRANCH   2   4
ATOM      4  C4  <0> d   1      19.269   3.363  17.207  0.00  0.00     0.277 C 
BRANCH   4   5
ATOM      5  O5  <0> d   1      20.454   3.756  16.511  0.00  0.00    -0.390 OA
ATOM      6  H8  <0> d   1      20.700   4.682  16.646  0.00  0.00     0.210 HD
ENDBRANCH   4   5
ENDBRANCH   2   4
TORSDOF 2
ENDMDL
