MODEL 1
REMARK VINA RESULT:      -8.3      0.000      0.000
REMARK  3 active torsions:
REMARK  status: ('A' for Active; 'I' for Inactive)
REMARK    1  A    between atoms: C2_2  and  C4_4 
REMARK    2  A    between atoms: N6_6  and  C7_7 
REMARK    3  A    between atoms: C12_12  and  N13_13 
ROOT
ATOM      1  C4  ZIN A   1      19.005  -0.853   6.805  0.00  0.00     0.107 A 
ATOM      2  C5  ZIN A   1      19.082  -1.741   7.861  0.00  0.00     0.114 A 
ATOM      3  N6  ZIN A   1      19.096  -1.333   9.135  0.00  0.00    -0.350 N 
ATOM      4  C10 ZIN A   1      19.035  -0.002   9.494  0.00  0.00     0.050 A 
ATOM      5  C11 ZIN A   1      19.052   0.369  10.833  0.00  0.00     0.057 A 
ATOM      6  C12 ZIN A   1      18.991   1.709  11.178  0.00  0.00     0.051 A 
ATOM      7  C19 ZIN A   1      18.910   2.694  10.189  0.00  0.00     0.138 A 
ATOM      8  F20 ZIN A   1      18.852   3.997  10.541  0.00  0.00    -0.204 F 
ATOM      9  C21 ZIN A   1      18.892   2.344   8.869  0.00  0.00     0.062 A 
ATOM     10  C22 ZIN A   1      18.954   0.997   8.506  0.00  0.00     0.045 A 
ATOM     11  C23 ZIN A   1      18.941   0.591   7.091  0.00  0.00     0.202 A 
ATOM     12  O24 ZIN A   1      18.877   1.413   6.194  0.00  0.00    -0.286 OA
ENDROOT
BRANCH   6  13
ATOM     13  N13 ZIN A   1      19.008   2.079  12.521  0.00  0.00    -0.278 NA
ATOM     14  C18 ZIN A   1      19.157   0.902  13.389  0.00  0.00     0.125 C 
ATOM     15  C17 ZIN A   1      19.252   1.356  14.847  0.00  0.00     0.284 C 
ATOM     16  N16 ZIN A   1      18.045   2.117  15.200  0.00  0.00     0.085 N 
ATOM     17  C15 ZIN A   1      17.898   3.294  14.332  0.00  0.00     0.284 C 
ATOM     18  H36 ZIN A   1      18.059   2.385  16.173  0.00  0.00     0.315 HD
ATOM     19  C14 ZIN A   1      17.803   2.841  12.873  0.00  0.00     0.125 C 
ENDBRANCH   6  13
BRANCH   3  20
ATOM     20  C7  ZIN A   1      19.180  -2.340  10.194  0.00  0.00     0.090 A 
ATOM     21  C9  ZIN A   1      19.002  -3.806   9.791  0.00  0.00     0.028 A 
ATOM     22  C8  ZIN A   1      17.895  -3.086  10.563  0.00  0.00     0.028 A 
ENDBRANCH   3  20
BRANCH   1  23
ATOM     23  C2  ZIN A   1      18.993  -1.340   5.421  0.00  0.00     0.214 C 
ATOM     24  O1  ZIN A   1      20.002  -1.252   4.733  0.00  0.00    -0.644 OA
ATOM     25  O3  ZIN A   1      17.978  -1.840   4.957  0.00  0.00    -0.644 OA
ENDBRANCH   1  23
TORSDOF 3
ENDMDL
MODEL 2
REMARK VINA RESULT:      -8.1      4.770      8.065
REMARK  3 active torsions:
REMARK  status: ('A' for Active; 'I' for Inactive)
REMARK    1  A    between atoms: C2_2  and  C4_4 
REMARK    2  A    between atoms: N6_6  and  C7_7 
REMARK    3  A    between atoms: C12_12  and  N13_13 
ROOT
ATOM      1  C4  ZIN A   1      18.802   1.243  16.580  0.00  0.00     0.107 A 
ATOM      2  C5  ZIN A   1      18.852   2.278  15.665  0.00  0.00     0.114 A 
ATOM      3  N6  ZIN A   1      18.777   2.067  14.346  0.00  0.00    -0.350 N 
ATOM      4  C10 ZIN A   1      18.645   0.808  13.796  0.00  0.00     0.050 A 
ATOM      5  C11 ZIN A   1      18.571   0.644  12.419  0.00  0.00     0.057 A 
ATOM      6  C12 ZIN A   1      18.439  -0.626  11.881  0.00  0.00     0.051 A 
ATOM      7  C19 ZIN A   1      18.379  -1.746  12.715  0.00  0.00     0.138 A 
ATOM      8  F20 ZIN A   1      18.251  -2.978  12.176  0.00  0.00    -0.204 F 
ATOM      9  C21 ZIN A   1      18.450  -1.600  14.072  0.00  0.00     0.062 A 
ATOM     10  C22 ZIN A   1      18.583  -0.326  14.627  0.00  0.00     0.045 A 
ATOM     11  C23 ZIN A   1      18.668  -0.139  16.085  0.00  0.00     0.202 A 
ATOM     12  O24 ZIN A   1      18.624  -1.085  16.851  0.00  0.00    -0.286 OA
ENDROOT
BRANCH   6  13
ATOM     13  N13 ZIN A   1      18.365  -0.788  10.500  0.00  0.00    -0.278 NA
ATOM     14  C18 ZIN A   1      19.690  -0.639   9.881  0.00  0.00     0.125 C 
ATOM     15  C17 ZIN A   1      19.580  -0.903   8.378  0.00  0.00     0.284 C 
ATOM     16  N16 ZIN A   1      18.618   0.039   7.787  0.00  0.00     0.085 N 
ATOM     17  C15 ZIN A   1      17.293  -0.111   8.406  0.00  0.00     0.284 C 
ATOM     18  H36 ZIN A   1      18.565  -0.079   6.786  0.00  0.00     0.315 HD
ATOM     19  C14 ZIN A   1      17.403   0.152   9.910  0.00  0.00     0.125 C 
ENDBRANCH   6  13
BRANCH   3  20
ATOM     20  C7  ZIN A   1      18.837   3.221  13.446  0.00  0.00     0.090 A 
ATOM     21  C9  ZIN A   1      18.849   4.613  14.082  0.00  0.00     0.028 A 
ATOM     22  C8  ZIN A   1      17.597   4.114  13.359  0.00  0.00     0.028 A 
ENDBRANCH   3  20
BRANCH   1  23
ATOM     23  C2  ZIN A   1      18.889   1.514  18.018  0.00  0.00     0.214 C 
ATOM     24  O1  ZIN A   1      19.960   1.398  18.599  0.00  0.00    -0.644 OA
ATOM     25  O3  ZIN A   1      17.892   1.863  18.636  0.00  0.00    -0.644 OA
ENDBRANCH   1  23
TORSDOF 3
ENDMDL
MODEL 3
REMARK VINA RESULT:      -8.0      3.884      6.798
REMARK  3 active torsions:
REMARK  status: ('A' for Active; 'I' for Inactive)
REMARK    1  A    between atoms: C2_2  and  C4_4 
REMARK    2  A    between atoms: N6_6  and  C7_7 
REMARK    3  A    between atoms: C12_12  and  N13_13 
ROOT
ATOM      1  C4  ZIN A   1      17.944   1.813  10.460  0.00  0.00     0.107 A 
ATOM      2  C5  ZIN A   1      18.257   1.462   9.161  0.00  0.00     0.114 A 
ATOM      3  N6  ZIN A   1      18.308   0.185   8.761  0.00  0.00    -0.350 N 
ATOM      4  C10 ZIN A   1      18.055  -0.874   9.608  0.00  0.00     0.050 A 
ATOM      5  C11 ZIN A   1      18.121  -2.181   9.142  0.00  0.00     0.057 A 
ATOM      6  C12 ZIN A   1      17.865  -3.235  10.004  0.00  0.00     0.051 A 
ATOM      7  C19 ZIN A   1      17.539  -2.994  11.342  0.00  0.00     0.138 A 
ATOM      8  F20 ZIN A   1      17.293  -4.031  12.171  0.00  0.00    -0.204 F 
ATOM      9  C21 ZIN A   1      17.470  -1.713  11.814  0.00  0.00     0.062 A 
ATOM     10  C22 ZIN A   1      17.725  -0.641  10.956  0.00  0.00     0.045 A 
ATOM     11  C23 ZIN A   1      17.663   0.748  11.439  0.00  0.00     0.202 A 
ATOM     12  O24 ZIN A   1      17.388   1.007  12.596  0.00  0.00    -0.286 OA
ENDROOT
BRANCH   6  13
ATOM     13  N13 ZIN A   1      17.933  -4.544   9.535  0.00  0.00    -0.278 NA
ATOM     14  C18 ZIN A   1      18.924  -4.666   8.456  0.00  0.00     0.125 C 
ATOM     15  C17 ZIN A   1      19.025  -6.130   8.023  0.00  0.00     0.284 C 
ATOM     16  N16 ZIN A   1      17.705  -6.599   7.577  0.00  0.00     0.085 N 
ATOM     17  C15 ZIN A   1      16.715  -6.477   8.657  0.00  0.00     0.284 C 
ATOM     18  H36 ZIN A   1      17.754  -7.548   7.237  0.00  0.00     0.315 HD
ATOM     19  C14 ZIN A   1      16.613  -5.013   9.090  0.00  0.00     0.125 C 
ENDBRANCH   6  13
BRANCH   3  20
ATOM     20  C7  ZIN A   1      18.647  -0.099   7.365  0.00  0.00     0.090 A 
ATOM     21  C9  ZIN A   1      18.723   1.086   6.400  0.00  0.00     0.028 A 
ATOM     22  C8  ZIN A   1      17.551   0.105   6.316  0.00  0.00     0.028 A 
ENDBRANCH   3  20
BRANCH   1  23
ATOM     23  C2  ZIN A   1      17.899   3.224  10.860  0.00  0.00     0.214 C 
ATOM     24  O1  ZIN A   1      16.829   3.819  10.884  0.00  0.00    -0.644 OA
ATOM     25  O3  ZIN A   1      18.929   3.804  11.175  0.00  0.00    -0.644 OA
ENDBRANCH   1  23
TORSDOF 3
ENDMDL
MODEL 4
REMARK VINA RESULT:      -8.0      3.878      7.033
REMARK  3 active torsions:
REMARK  status: ('A' for Active; 'I' for Inactive)
REMARK    1  A    between atoms: C2_2  and  C4_4 
REMARK    2  A    between atoms: N6_6  and  C7_7 
REMARK    3  A    between atoms: C12_12  and  N13_13 
ROOT
ATOM      1  C4  ZIN A   1      18.926   2.943  15.019  0.00  0.00     0.107 A 
ATOM      2  C5  ZIN A   1      18.698   1.580  15.068  0.00  0.00     0.114 A 
ATOM      3  N6  ZIN A   1      18.627   0.830  13.963  0.00  0.00    -0.350 N 
ATOM      4  C10 ZIN A   1      18.776   1.351  12.694  0.00  0.00     0.050 A 
ATOM      5  C11 ZIN A   1      18.694   0.527  11.578  0.00  0.00     0.057 A 
ATOM      6  C12 ZIN A   1      18.844   1.066  10.311  0.00  0.00     0.051 A 
ATOM      7  C19 ZIN A   1      19.078   2.433  10.144  0.00  0.00     0.138 A 
ATOM      8  F20 ZIN A   1      19.221   2.944   8.902  0.00  0.00    -0.204 F 
ATOM      9  C21 ZIN A   1      19.161   3.256  11.232  0.00  0.00     0.062 A 
ATOM     10  C22 ZIN A   1      19.012   2.727  12.516  0.00  0.00     0.045 A 
ATOM     11  C23 ZIN A   1      19.091   3.590  13.706  0.00  0.00     0.202 A 
ATOM     12  O24 ZIN A   1      19.289   4.788  13.610  0.00  0.00    -0.286 OA
ENDROOT
BRANCH   6  13
ATOM     13  N13 ZIN A   1      18.761   0.238   9.194  0.00  0.00    -0.278 NA
ATOM     14  C18 ZIN A   1      17.407   0.260   8.621  0.00  0.00     0.125 C 
ATOM     15  C17 ZIN A   1      17.379  -0.597   7.354  0.00  0.00     0.284 C 
ATOM     16  N16 ZIN A   1      17.785  -1.970   7.685  0.00  0.00     0.085 N 
ATOM     17  C15 ZIN A   1      19.139  -1.992   8.257  0.00  0.00     0.284 C 
ATOM     18  H36 ZIN A   1      17.725  -2.570   6.875  0.00  0.00     0.315 HD
ATOM     19  C14 ZIN A   1      19.168  -1.135   9.525  0.00  0.00     0.125 C 
ENDBRANCH   6  13
BRANCH   3  20
ATOM     20  C7  ZIN A   1      18.383  -0.607  14.105  0.00  0.00     0.090 A 
ATOM     21  C9  ZIN A   1      18.436  -1.197  15.516  0.00  0.00     0.028 A 
ATOM     22  C8  ZIN A   1      19.564  -1.486  14.524  0.00  0.00     0.028 A 
ENDBRANCH   3  20
BRANCH   1  23
ATOM     23  C2  ZIN A   1      18.995   3.732  16.253  0.00  0.00     0.214 C 
ATOM     24  O1  ZIN A   1      18.040   4.416  16.597  0.00  0.00    -0.644 OA
ATOM     25  O3  ZIN A   1      20.006   3.702  16.942  0.00  0.00    -0.644 OA
ENDBRANCH   1  23
TORSDOF 3
ENDMDL
MODEL 5
REMARK VINA RESULT:      -8.0      3.169      6.564
REMARK  3 active torsions:
REMARK  status: ('A' for Active; 'I' for Inactive)
REMARK    1  A    between atoms: C2_2  and  C4_4 
REMARK    2  A    between atoms: N6_6  and  C7_7 
REMARK    3  A    between atoms: C12_12  and  N13_13 
ROOT
ATOM      1  C4  ZIN A   1      17.908   2.448  11.130  0.00  0.00     0.107 A 
ATOM      2  C5  ZIN A   1      17.814   1.133  11.544  0.00  0.00     0.114 A 
ATOM      3  N6  ZIN A   1      18.063   0.107  10.722  0.00  0.00    -0.350 N 
ATOM      4  C10 ZIN A   1      18.431   0.279   9.404  0.00  0.00     0.050 A 
ATOM      5  C11 ZIN A   1      18.679  -0.821   8.592  0.00  0.00     0.057 A 
ATOM      6  C12 ZIN A   1      19.048  -0.633   7.269  0.00  0.00     0.051 A 
ATOM      7  C19 ZIN A   1      19.174   0.656   6.744  0.00  0.00     0.138 A 
ATOM      8  F20 ZIN A   1      19.533   0.823   5.453  0.00  0.00    -0.204 F 
ATOM      9  C21 ZIN A   1      18.933   1.747   7.531  0.00  0.00     0.062 A 
ATOM     10  C22 ZIN A   1      18.561   1.573   8.865  0.00  0.00     0.045 A 
ATOM     11  C23 ZIN A   1      18.290   2.729   9.735  0.00  0.00     0.202 A 
ATOM     12  O24 ZIN A   1      18.382   3.871   9.321  0.00  0.00    -0.286 OA
ENDROOT
BRANCH   6  13
ATOM     13  N13 ZIN A   1      19.296  -1.737   6.457  0.00  0.00    -0.278 NA
ATOM     14  C18 ZIN A   1      18.238  -1.897   5.449  0.00  0.00     0.125 C 
ATOM     15  C17 ZIN A   1      18.587  -3.069   4.529  0.00  0.00     0.284 C 
ATOM     16  N16 ZIN A   1      18.734  -4.292   5.332  0.00  0.00     0.085 N 
ATOM     17  C15 ZIN A   1      19.792  -4.131   6.339  0.00  0.00     0.284 C 
ATOM     18  H36 ZIN A   1      18.914  -5.091   4.743  0.00  0.00     0.315 HD
ATOM     19  C14 ZIN A   1      19.444  -2.959   7.260  0.00  0.00     0.125 C 
ENDBRANCH   6  13
BRANCH   3  20
ATOM     20  C7  ZIN A   1      17.940  -1.256  11.243  0.00  0.00     0.090 A 
ATOM     21  C9  ZIN A   1      17.777  -1.422  12.755  0.00  0.00     0.028 A 
ATOM     22  C8  ZIN A   1      19.098  -1.799  12.083  0.00  0.00     0.028 A 
ENDBRANCH   3  20
BRANCH   1  23
ATOM     23  C2  ZIN A   1      17.626   3.545  12.061  0.00  0.00     0.214 C 
ATOM     24  O1  ZIN A   1      16.650   4.262  11.884  0.00  0.00    -0.644 OA
ATOM     25  O3  ZIN A   1      18.362   3.739  13.019  0.00  0.00    -0.644 OA
ENDBRANCH   1  23
TORSDOF 3
ENDMDL
MODEL 6
REMARK VINA RESULT:      -7.9      3.671      6.578
REMARK  3 active torsions:
REMARK  status: ('A' for Active; 'I' for Inactive)
REMARK    1  A    between atoms: C2_2  and  C4_4 
REMARK    2  A    between atoms: N6_6  and  C7_7 
REMARK    3  A    between atoms: C12_12  and  N13_13 
ROOT
ATOM      1  C4  ZIN A   1      18.651  -1.140  13.241  0.00  0.00     0.107 A 
ATOM      2  C5  ZIN A   1      18.362  -2.325  12.590  0.00  0.00     0.114 A 
ATOM      3  N6  ZIN A   1      18.412  -2.436  11.257  0.00  0.00    -0.350 N 
ATOM      4  C10 ZIN A   1      18.754  -1.385  10.432  0.00  0.00     0.050 A 
ATOM      5  C11 ZIN A   1      18.792  -1.554   9.053  0.00  0.00     0.057 A 
ATOM      6  C12 ZIN A   1      19.136  -0.489   8.237  0.00  0.00     0.051 A 
ATOM      7  C19 ZIN A   1      19.447   0.757   8.789  0.00  0.00     0.138 A 
ATOM      8  F20 ZIN A   1      19.780   1.786   7.980  0.00  0.00    -0.204 F 
ATOM      9  C21 ZIN A   1      19.415   0.938  10.143  0.00  0.00     0.062 A 
ATOM     10  C22 ZIN A   1      19.069  -0.127  10.978  0.00  0.00     0.045 A 
ATOM     11  C23 ZIN A   1      19.021   0.040  12.440  0.00  0.00     0.202 A 
ATOM     12  O24 ZIN A   1      19.279   1.108  12.967  0.00  0.00    -0.286 OA
ENDROOT
BRANCH   6  13
ATOM     13  N13 ZIN A   1      19.173  -0.660   6.855  0.00  0.00    -0.278 NA
ATOM     14  C18 ZIN A   1      18.028   0.000   6.212  0.00  0.00     0.125 C 
ATOM     15  C17 ZIN A   1      18.148  -0.143   4.693  0.00  0.00     0.284 C 
ATOM     16  N16 ZIN A   1      18.195  -1.569   4.340  0.00  0.00     0.085 N 
ATOM     17  C15 ZIN A   1      19.340  -2.229   4.983  0.00  0.00     0.284 C 
ATOM     18  H36 ZIN A   1      18.222  -1.693   3.339  0.00  0.00     0.315 HD
ATOM     19  C14 ZIN A   1      19.221  -2.086   6.503  0.00  0.00     0.125 C 
ENDBRANCH   6  13
BRANCH   3  20
ATOM     20  C7  ZIN A   1      18.092  -3.729  10.649  0.00  0.00     0.090 A 
ATOM     21  C9  ZIN A   1      17.920  -4.927  11.584  0.00  0.00     0.028 A 
ATOM     22  C8  ZIN A   1      19.164  -4.819  10.700  0.00  0.00     0.028 A 
ENDBRANCH   3  20
BRANCH   1  23
ATOM     23  C2  ZIN A   1      18.583  -1.058  14.703  0.00  0.00     0.214 C 
ATOM     24  O1  ZIN A   1      19.516  -1.467  15.382  0.00  0.00    -0.644 OA
ATOM     25  O3  ZIN A   1      17.598  -0.575  15.244  0.00  0.00    -0.644 OA
ENDBRANCH   1  23
TORSDOF 3
ENDMDL
MODEL 7
REMARK VINA RESULT:      -7.7      1.970      2.709
REMARK  3 active torsions:
REMARK  status: ('A' for Active; 'I' for Inactive)
REMARK    1  A    between atoms: C2_2  and  C4_4 
REMARK    2  A    between atoms: N6_6  and  C7_7 
REMARK    3  A    between atoms: C12_12  and  N13_13 
ROOT
ATOM      1  C4  ZIN A   1      19.087  -3.267   7.446  0.00  0.00     0.107 A 
ATOM      2  C5  ZIN A   1      19.211  -3.287   8.822  0.00  0.00     0.114 A 
ATOM      3  N6  ZIN A   1      19.241  -2.164   9.551  0.00  0.00    -0.350 N 
ATOM      4  C10 ZIN A   1      19.149  -0.907   8.990  0.00  0.00     0.050 A 
ATOM      5  C11 ZIN A   1      19.185   0.227   9.792  0.00  0.00     0.057 A 
ATOM      6  C12 ZIN A   1      19.093   1.483   9.215  0.00  0.00     0.051 A 
ATOM      7  C19 ZIN A   1      18.964   1.620   7.830  0.00  0.00     0.138 A 
ATOM      8  F20 ZIN A   1      18.877   2.851   7.281  0.00  0.00    -0.204 F 
ATOM      9  C21 ZIN A   1      18.928   0.514   7.028  0.00  0.00     0.062 A 
ATOM     10  C22 ZIN A   1      19.019  -0.759   7.597  0.00  0.00     0.045 A 
ATOM     11  C23 ZIN A   1      18.988  -1.968   6.758  0.00  0.00     0.202 A 
ATOM     12  O24 ZIN A   1      18.882  -1.899   5.546  0.00  0.00    -0.286 OA
ENDROOT
BRANCH   6  13
ATOM     13  N13 ZIN A   1      19.129   2.618  10.021  0.00  0.00    -0.278 NA
ATOM     14  C18 ZIN A   1      19.895   2.367  11.250  0.00  0.00     0.125 C 
ATOM     15  C17 ZIN A   1      19.978   3.658  12.068  0.00  0.00     0.284 C 
ATOM     16  N16 ZIN A   1      18.620   4.124  12.383  0.00  0.00     0.085 N 
ATOM     17  C15 ZIN A   1      17.855   4.375  11.154  0.00  0.00     0.284 C 
ATOM     18  H36 ZIN A   1      18.647   4.946  12.967  0.00  0.00     0.315 HD
ATOM     19  C14 ZIN A   1      17.771   3.084  10.335  0.00  0.00     0.125 C 
ENDBRANCH   6  13
BRANCH   3  20
ATOM     20  C7  ZIN A   1      19.375  -2.275  11.004  0.00  0.00     0.090 A 
ATOM     21  C9  ZIN A   1      19.598  -3.671  11.590  0.00  0.00     0.028 A 
ATOM     22  C8  ZIN A   1      18.247  -2.974  11.767  0.00  0.00     0.028 A 
ENDBRANCH   3  20
BRANCH   1  23
ATOM     23  C2  ZIN A   1      19.059  -4.520   6.683  0.00  0.00     0.214 C 
ATOM     24  O1  ZIN A   1      18.059  -4.827   6.048  0.00  0.00    -0.644 OA
ATOM     25  O3  ZIN A   1      20.038  -5.253   6.676  0.00  0.00    -0.644 OA
ENDBRANCH   1  23
TORSDOF 3
ENDMDL
MODEL 8
REMARK VINA RESULT:      -7.6      3.004      6.295
REMARK  3 active torsions:
REMARK  status: ('A' for Active; 'I' for Inactive)
REMARK    1  A    between atoms: C2_2  and  C4_4 
REMARK    2  A    between atoms: N6_6  and  C7_7 
REMARK    3  A    between atoms: C12_12  and  N13_13 
ROOT
ATOM      1  C4  ZIN A   1      17.957   2.515  11.367  0.00  0.00     0.107 A 
ATOM      2  C5  ZIN A   1      17.783   1.491  12.279  0.00  0.00     0.114 A 
ATOM      3  N6  ZIN A   1      17.957   0.206  11.949  0.00  0.00    -0.350 N 
ATOM      4  C10 ZIN A   1      18.321  -0.197  10.680  0.00  0.00     0.050 A 
ATOM      5  C11 ZIN A   1      18.489  -1.545  10.390  0.00  0.00     0.057 A 
ATOM      6  C12 ZIN A   1      18.854  -1.935   9.111  0.00  0.00     0.051 A 
ATOM      7  C19 ZIN A   1      19.057  -0.982   8.110  0.00  0.00     0.138 A 
ATOM      8  F20 ZIN A   1      19.412  -1.377   6.868  0.00  0.00    -0.204 F 
ATOM      9  C21 ZIN A   1      18.896   0.348   8.381  0.00  0.00     0.062 A 
ATOM     10  C22 ZIN A   1      18.528   0.756   9.665  0.00  0.00     0.045 A 
ATOM     11  C23 ZIN A   1      18.342   2.181   9.985  0.00  0.00     0.202 A 
ATOM     12  O24 ZIN A   1      18.502   3.047   9.144  0.00  0.00    -0.286 OA
ENDROOT
BRANCH   6  13
ATOM     13  N13 ZIN A   1      19.021  -3.287   8.822  0.00  0.00    -0.278 NA
ATOM     14  C18 ZIN A   1      17.766  -3.881   8.339  0.00  0.00     0.125 C 
ATOM     15  C17 ZIN A   1      18.011  -5.342   7.958  0.00  0.00     0.284 C 
ATOM     16  N16 ZIN A   1      18.520  -6.073   9.128  0.00  0.00     0.085 N 
ATOM     17  C15 ZIN A   1      19.775  -5.479   9.610  0.00  0.00     0.284 C 
ATOM     18  H36 ZIN A   1      18.641  -7.052   8.918  0.00  0.00     0.315 HD
ATOM     19  C14 ZIN A   1      19.531  -4.016   9.992  0.00  0.00     0.125 C 
ENDBRANCH   6  13
BRANCH   3  20
ATOM     20  C7  ZIN A   1      17.752  -0.816  12.977  0.00  0.00     0.090 A 
ATOM     21  C9  ZIN A   1      17.752  -0.360  14.437  0.00  0.00     0.028 A 
ATOM     22  C8  ZIN A   1      18.937  -1.154  13.884  0.00  0.00     0.028 A 
ENDBRANCH   3  20
BRANCH   1  23
ATOM     23  C2  ZIN A   1      17.757   3.912  11.768  0.00  0.00     0.214 C 
ATOM     24  O1  ZIN A   1      18.691   4.557  12.227  0.00  0.00    -0.644 OA
ATOM     25  O3  ZIN A   1      16.658   4.434  11.638  0.00  0.00    -0.644 OA
ENDBRANCH   1  23
TORSDOF 3
ENDMDL
MODEL 9
REMARK VINA RESULT:      -7.6      3.038      4.566
REMARK  3 active torsions:
REMARK  status: ('A' for Active; 'I' for Inactive)
REMARK    1  A    between atoms: C2_2  and  C4_4 
REMARK    2  A    between atoms: N6_6  and  C7_7 
REMARK    3  A    between atoms: C12_12  and  N13_13 
ROOT
ATOM      1  C4  ZIN A   1      18.051  -1.332  11.762  0.00  0.00     0.107 A 
ATOM      2  C5  ZIN A   1      18.309  -1.096  13.099  0.00  0.00     0.114 A 
ATOM      3  N6  ZIN A   1      18.379   0.142  13.603  0.00  0.00    -0.350 N 
ATOM      4  C10 ZIN A   1      18.201   1.273  12.834  0.00  0.00     0.050 A 
ATOM      5  C11 ZIN A   1      18.283   2.536  13.407  0.00  0.00     0.057 A 
ATOM      6  C12 ZIN A   1      18.103   3.663  12.622  0.00  0.00     0.051 A 
ATOM      7  C19 ZIN A   1      17.836   3.541  11.255  0.00  0.00     0.138 A 
ATOM      8  F20 ZIN A   1      17.663   4.649  10.502  0.00  0.00    -0.204 F 
ATOM      9  C21 ZIN A   1      17.752   2.305  10.678  0.00  0.00     0.062 A 
ATOM     10  C22 ZIN A   1      17.932   1.160  11.457  0.00  0.00     0.045 A 
ATOM     11  C23 ZIN A   1      17.852  -0.184  10.861  0.00  0.00     0.202 A 
ATOM     12  O24 ZIN A   1      17.627  -0.340   9.674  0.00  0.00    -0.286 OA
ENDROOT
BRANCH   6  13
ATOM     13  N13 ZIN A   1      18.186   4.928  13.199  0.00  0.00    -0.278 NA
ATOM     14  C18 ZIN A   1      19.227   4.966  14.236  0.00  0.00     0.125 C 
ATOM     15  C17 ZIN A   1      19.341   6.389  14.788  0.00  0.00     0.284 C 
ATOM     16  N16 ZIN A   1      18.042   6.806  15.334  0.00  0.00     0.085 N 
ATOM     17  C15 ZIN A   1      17.002   6.768  14.296  0.00  0.00     0.284 C 
ATOM     18  H36 ZIN A   1      18.103   7.722  15.752  0.00  0.00     0.315 HD
ATOM     19  C14 ZIN A   1      16.887   5.345  13.744  0.00  0.00     0.125 C 
ENDBRANCH   6  13
BRANCH   3  20
ATOM     20  C7  ZIN A   1      18.657   0.303  15.032  0.00  0.00     0.090 A 
ATOM     21  C9  ZIN A   1      18.768  -0.967  15.878  0.00  0.00     0.028 A 
ATOM     22  C8  ZIN A   1      17.542  -0.063  16.014  0.00  0.00     0.028 A 
ENDBRANCH   3  20
BRANCH   1  23
ATOM     23  C2  ZIN A   1      17.983  -2.704  11.248  0.00  0.00     0.214 C 
ATOM     24  O1  ZIN A   1      17.002  -3.397  11.482  0.00  0.00    -0.644 OA
ATOM     25  O3  ZIN A   1      18.905  -3.153  10.580  0.00  0.00    -0.644 OA
ENDBRANCH   1  23
TORSDOF 3
ENDMDL
