MODEL 1
REMARK VINA RESULT:      -8.2      0.000      0.000
REMARK  6 active torsions:
REMARK  status: ('A' for Active; 'I' for Inactive)
REMARK    1  A    between atoms: O1_1  and  C2_2 
REMARK    2  A    between atoms: C2_2  and  C3_3 
REMARK    3  A    between atoms: C2_2  and  C12_12 
REMARK    4  A    between atoms: C2_2  and  C18_18 
REMARK    5  A    between atoms: C3_3  and  C4_4 
REMARK    6  A    between atoms: C4_4  and  N5_5 
ROOT
ATOM      1  C2  <0> d   1      18.929   1.009  10.088  0.00  0.00     0.090 C 
ENDROOT
BRANCH   1   2
ATOM      2  O1  <0> d   1      20.213   0.432  10.335  0.00  0.00    -0.385 OA
ATOM      3  H24 <0> d   1      20.937   1.073  10.342  0.00  0.00     0.211 HD
ENDBRANCH   1   2
BRANCH   1   4
ATOM      4  C3  <0> d   1      17.882   0.320  10.966  0.00  0.00     0.071 C 
BRANCH   4   5
ATOM      5  C4  <0> d   1      18.541  -0.818  11.749  0.00  0.00     0.238 C 
BRANCH   5   6
ATOM      6  N5  <0> d   1      18.681  -0.426  13.158  0.00  0.00    -0.071 N 
ATOM      7  H6  <0> d   1      19.527   0.111  13.274  0.00  0.00     0.279 HD
ATOM      8  C11 <0> d   1      17.527   0.390  13.553  0.00  0.00     0.235 C 
ATOM      9  C10 <0> d   1      17.707   0.870  14.996  0.00  0.00     0.028 C 
ATOM     10  C9  <0> d   1      17.815  -0.345  15.921  0.00  0.00     0.003 C 
ATOM     11  C8  <0> d   1      18.975  -1.229  15.454  0.00  0.00     0.028 C 
ATOM     12  C7  <0> d   1      18.748  -1.630  13.994  0.00  0.00     0.235 C 
ENDBRANCH   5   6
ENDBRANCH   4   5
ENDBRANCH   1   4
BRANCH   1  13
ATOM     13  C12 <0> d   1      18.566   0.824   8.636  0.00  0.00    -0.024 A 
ATOM     14  C17 <0> d   1      19.303   1.458   7.654  0.00  0.00     0.010 A 
ATOM     15  C16 <0> d   1      18.973   1.285   6.323  0.00  0.00     0.001 A 
ATOM     16  C15 <0> d   1      17.900   0.486   5.974  0.00  0.00     0.000 A 
ATOM     17  C14 <0> d   1      17.160  -0.143   6.958  0.00  0.00     0.001 A 
ATOM     18  C13 <0> d   1      17.492   0.027   8.289  0.00  0.00     0.010 A 
ENDBRANCH   1  13
BRANCH   1  19
ATOM     19  C18 <0> d   1      18.968   2.502  10.418  0.00  0.00     0.025 C 
ATOM     20  C23 <0> d   1      19.744   2.718  11.718  0.00  0.00     0.008 C 
ATOM     21  C22 <0> d   1      19.782   4.211  12.048  0.00  0.00     0.000 C 
ATOM     22  C21 <0> d   1      18.353   4.733  12.214  0.00  0.00     0.000 C 
ATOM     23  C20 <0> d   1      17.577   4.518  10.914  0.00  0.00     0.000 C 
ATOM     24  C19 <0> d   1      17.538   3.025  10.584  0.00  0.00     0.008 C 
ENDBRANCH   1  19
TORSDOF 6
ENDMDL
MODEL 2
REMARK VINA RESULT:      -8.1      1.576      2.773
REMARK  6 active torsions:
REMARK  status: ('A' for Active; 'I' for Inactive)
REMARK    1  A    between atoms: O1_1  and  C2_2 
REMARK    2  A    between atoms: C2_2  and  C3_3 
REMARK    3  A    between atoms: C2_2  and  C12_12 
REMARK    4  A    between atoms: C2_2  and  C18_18 
REMARK    5  A    between atoms: C3_3  and  C4_4 
REMARK    6  A    between atoms: C4_4  and  N5_5 
ROOT
ATOM      1  C2  <0> d   1      18.976   1.134  10.321  0.00  0.00     0.090 C 
ENDROOT
BRANCH   1   2
ATOM      2  O1  <0> d   1      20.285   0.615  10.564  0.00  0.00    -0.385 OA
ATOM      3  H24 <0> d   1      20.389  -0.316  10.325  0.00  0.00     0.211 HD
ENDBRANCH   1   2
BRANCH   1   4
ATOM      4  C3  <0> d   1      17.971   0.439  11.244  0.00  0.00     0.071 C 
BRANCH   4   5
ATOM      5  C4  <0> d   1      18.706  -0.564  12.135  0.00  0.00     0.238 C 
BRANCH   5   6
ATOM      6  N5  <0> d   1      18.780  -1.863  11.452  0.00  0.00    -0.071 N 
ATOM      7  H6  <0> d   1      19.108  -1.727  10.508  0.00  0.00     0.279 HD
ATOM      8  C11 <0> d   1      19.712  -2.739  12.172  0.00  0.00     0.235 C 
ATOM      9  C10 <0> d   1      19.856  -4.064  11.419  0.00  0.00     0.028 C 
ATOM     10  C9  <0> d   1      18.486  -4.742  11.326  0.00  0.00     0.003 C 
ATOM     11  C8  <0> d   1      17.502  -3.789  10.641  0.00  0.00     0.028 C 
ATOM     12  C7  <0> d   1      17.446  -2.474  11.423  0.00  0.00     0.235 C 
ENDBRANCH   5   6
ENDBRANCH   4   5
ENDBRANCH   1   4
BRANCH   1  13
ATOM     13  C12 <0> d   1      18.594   0.883   8.884  0.00  0.00    -0.024 A 
ATOM     14  C17 <0> d   1      17.542   0.038   8.587  0.00  0.00     0.010 A 
ATOM     15  C16 <0> d   1      17.190  -0.189   7.269  0.00  0.00     0.001 A 
ATOM     16  C15 <0> d   1      17.896   0.421   6.249  0.00  0.00     0.000 A 
ATOM     17  C14 <0> d   1      18.953   1.260   6.548  0.00  0.00     0.001 A 
ATOM     18  C13 <0> d   1      19.303   1.491   7.865  0.00  0.00     0.010 A 
ENDBRANCH   1  13
BRANCH   1  19
ATOM     19  C18 <0> d   1      18.964   2.639  10.596  0.00  0.00     0.025 C 
ATOM     20  C23 <0> d   1      19.687   2.923  11.913  0.00  0.00     0.008 C 
ATOM     21  C22 <0> d   1      19.675   4.428  12.188  0.00  0.00     0.000 C 
ATOM     22  C21 <0> d   1      18.228   4.917  12.285  0.00  0.00     0.000 C 
ATOM     23  C20 <0> d   1      17.504   4.632  10.968  0.00  0.00     0.000 C 
ATOM     24  C19 <0> d   1      17.517   3.128  10.693  0.00  0.00     0.008 C 
ENDBRANCH   1  19
TORSDOF 6
ENDMDL
MODEL 3
REMARK VINA RESULT:      -7.9      1.998      7.031
REMARK  6 active torsions:
REMARK  status: ('A' for Active; 'I' for Inactive)
REMARK    1  A    between atoms: O1_1  and  C2_2 
REMARK    2  A    between atoms: C2_2  and  C3_3 
REMARK    3  A    between atoms: C2_2  and  C12_12 
REMARK    4  A    between atoms: C2_2  and  C18_18 
REMARK    5  A    between atoms: C3_3  and  C4_4 
REMARK    6  A    between atoms: C4_4  and  N5_5 
ROOT
ATOM      1  C2  <0> d   1      18.885  -1.007  12.841  0.00  0.00     0.090 C 
ENDROOT
BRANCH   1   2
ATOM      2  O1  <0> d   1      20.174  -0.461  12.552  0.00  0.00    -0.385 OA
ATOM      3  H24 <0> d   1      20.898  -1.097  12.635  0.00  0.00     0.211 HD
ENDBRANCH   1   2
BRANCH   1   4
ATOM      4  C3  <0> d   1      17.822  -0.262  12.031  0.00  0.00     0.071 C 
BRANCH   4   5
ATOM      5  C4  <0> d   1      18.473   0.904  11.284  0.00  0.00     0.238 C 
BRANCH   5   6
ATOM      6  N5  <0> d   1      18.707   0.520   9.885  0.00  0.00    -0.071 N 
ATOM      7  H6  <0> d   1      19.541  -0.045   9.828  0.00  0.00     0.279 HD
ATOM      8  C11 <0> d   1      17.559  -0.250   9.394  0.00  0.00     0.235 C 
ATOM      9  C10 <0> d   1      17.834  -0.723   7.964  0.00  0.00     0.028 C 
ATOM     10  C9  <0> d   1      18.055   0.496   7.064  0.00  0.00     0.003 C 
ATOM     11  C8  <0> d   1      19.205   1.334   7.629  0.00  0.00     0.028 C 
ATOM     12  C7  <0> d   1      18.880   1.729   9.072  0.00  0.00     0.235 C 
ENDBRANCH   5   6
ENDBRANCH   4   5
ENDBRANCH   1   4
BRANCH   1  13
ATOM     13  C12 <0> d   1      18.593  -0.855  14.312  0.00  0.00    -0.024 A 
ATOM     14  C17 <0> d   1      17.611   0.021  14.735  0.00  0.00     0.010 A 
ATOM     15  C16 <0> d   1      17.341   0.156  16.084  0.00  0.00     0.001 A 
ATOM     16  C15 <0> d   1      18.058  -0.576  17.011  0.00  0.00     0.000 A 
ATOM     17  C14 <0> d   1      19.044  -1.448  16.587  0.00  0.00     0.001 A 
ATOM     18  C13 <0> d   1      19.312  -1.587  15.238  0.00  0.00     0.010 A 
ENDBRANCH   1  13
BRANCH   1  19
ATOM     19  C18 <0> d   1      18.864  -2.491  12.468  0.00  0.00     0.025 C 
ATOM     20  C23 <0> d   1      19.968  -2.776  11.447  0.00  0.00     0.008 C 
ATOM     21  C22 <0> d   1      19.946  -4.259  11.074  0.00  0.00     0.000 C 
ATOM     22  C21 <0> d   1      18.587  -4.612  10.466  0.00  0.00     0.000 C 
ATOM     23  C20 <0> d   1      17.483  -4.327  11.485  0.00  0.00     0.000 C 
ATOM     24  C19 <0> d   1      17.504  -2.844  11.859  0.00  0.00     0.008 C 
ENDBRANCH   1  19
TORSDOF 6
ENDMDL
MODEL 4
REMARK VINA RESULT:      -7.8      2.068      7.013
REMARK  6 active torsions:
REMARK  status: ('A' for Active; 'I' for Inactive)
REMARK    1  A    between atoms: O1_1  and  C2_2 
REMARK    2  A    between atoms: C2_2  and  C3_3 
REMARK    3  A    between atoms: C2_2  and  C12_12 
REMARK    4  A    between atoms: C2_2  and  C18_18 
REMARK    5  A    between atoms: C3_3  and  C4_4 
REMARK    6  A    between atoms: C4_4  and  N5_5 
ROOT
ATOM      1  C2  <0> d   1      19.029  -1.118  12.647  0.00  0.00     0.090 C 
ENDROOT
BRANCH   1   2
ATOM      2  O1  <0> d   1      20.375  -0.696  12.416  0.00  0.00    -0.385 OA
ATOM      3  H24 <0> d   1      20.933  -1.369  12.003  0.00  0.00     0.211 HD
ENDBRANCH   1   2
BRANCH   1   4
ATOM      4  C3  <0> d   1      18.084  -0.334  11.734  0.00  0.00     0.071 C 
BRANCH   4   5
ATOM      5  C4  <0> d   1      18.862   0.777  11.026  0.00  0.00     0.238 C 
BRANCH   5   6
ATOM      6  N5  <0> d   1      18.371   0.919   9.649  0.00  0.00    -0.071 N 
ATOM      7  H6  <0> d   1      17.657   1.632   9.619  0.00  0.00     0.279 HD
ATOM      8  C11 <0> d   1      19.483   1.303   8.772  0.00  0.00     0.235 C 
ATOM      9  C10 <0> d   1      18.961   1.533   7.352  0.00  0.00     0.028 C 
ATOM     10  C9  <0> d   1      18.325   0.240   6.833  0.00  0.00     0.003 C 
ATOM     11  C8  <0> d   1      17.216  -0.194   7.797  0.00  0.00     0.028 C 
ATOM     12  C7  <0> d   1      17.803  -0.358   9.201  0.00  0.00     0.235 C 
ENDBRANCH   5   6
ENDBRANCH   4   5
ENDBRANCH   1   4
BRANCH   1  13
ATOM     13  C12 <0> d   1      18.663  -0.861  14.087  0.00  0.00    -0.024 A 
ATOM     14  C17 <0> d   1      19.276  -1.582  15.094  0.00  0.00     0.010 A 
ATOM     15  C16 <0> d   1      18.942  -1.344  16.415  0.00  0.00     0.001 A 
ATOM     16  C15 <0> d   1      17.990  -0.393  16.727  0.00  0.00     0.000 A 
ATOM     17  C14 <0> d   1      17.373   0.324  15.719  0.00  0.00     0.001 A 
ATOM     18  C13 <0> d   1      17.708   0.089  14.399  0.00  0.00     0.010 A 
ENDBRANCH   1  13
BRANCH   1  19
ATOM     19  C18 <0> d   1      18.904  -2.613  12.348  0.00  0.00     0.025 C 
ATOM     20  C23 <0> d   1      19.992  -3.027  11.355  0.00  0.00     0.008 C 
ATOM     21  C22 <0> d   1      19.867  -4.522  11.056  0.00  0.00     0.000 C 
ATOM     22  C21 <0> d   1      18.491  -4.807  10.451  0.00  0.00     0.000 C 
ATOM     23  C20 <0> d   1      17.402  -4.393  11.443  0.00  0.00     0.000 C 
ATOM     24  C19 <0> d   1      17.527  -2.898  11.743  0.00  0.00     0.008 C 
ENDBRANCH   1  19
TORSDOF 6
ENDMDL
MODEL 5
REMARK VINA RESULT:      -7.7      2.234      6.504
REMARK  6 active torsions:
REMARK  status: ('A' for Active; 'I' for Inactive)
REMARK    1  A    between atoms: O1_1  and  C2_2 
REMARK    2  A    between atoms: C2_2  and  C3_3 
REMARK    3  A    between atoms: C2_2  and  C12_12 
REMARK    4  A    between atoms: C2_2  and  C18_18 
REMARK    5  A    between atoms: C3_3  and  C4_4 
REMARK    6  A    between atoms: C4_4  and  N5_5 
ROOT
ATOM      1  C2  <0> d   1      19.078  -1.105  12.540  0.00  0.00     0.090 C 
ENDROOT
BRANCH   1   2
ATOM      2  O1  <0> d   1      20.480  -0.854  12.418  0.00  0.00    -0.385 OA
ATOM      3  H24 <0> d   1      21.030  -1.419  12.977  0.00  0.00     0.211 HD
ENDBRANCH   1   2
BRANCH   1   4
ATOM      4  C3  <0> d   1      18.315  -0.238  11.536  0.00  0.00     0.071 C 
BRANCH   4   5
ATOM      5  C4  <0> d   1      19.309   0.469  10.613  0.00  0.00     0.238 C 
BRANCH   5   6
ATOM      6  N5  <0> d   1      19.105   1.922  10.695  0.00  0.00    -0.071 N 
ATOM      7  H6  <0> d   1      19.497   2.362   9.875  0.00  0.00     0.279 HD
ATOM      8  C11 <0> d   1      17.668   2.209  10.765  0.00  0.00     0.235 C 
ATOM      9  C10 <0> d   1      17.447   3.724  10.767  0.00  0.00     0.028 C 
ATOM     10  C9  <0> d   1      18.150   4.334  11.983  0.00  0.00     0.003 C 
ATOM     11  C8  <0> d   1      19.635   3.964  11.941  0.00  0.00     0.028 C 
ATOM     12  C7  <0> d   1      19.775   2.440  11.894  0.00  0.00     0.235 C 
ENDBRANCH   5   6
ENDBRANCH   4   5
ENDBRANCH   1   4
BRANCH   1  13
ATOM     13  C12 <0> d   1      18.627  -0.767  13.939  0.00  0.00    -0.024 A 
ATOM     14  C17 <0> d   1      17.754   0.283  14.148  0.00  0.00     0.010 A 
ATOM     15  C16 <0> d   1      17.337   0.589  15.430  0.00  0.00     0.001 A 
ATOM     16  C15 <0> d   1      17.802  -0.148  16.503  0.00  0.00     0.000 A 
ATOM     17  C14 <0> d   1      18.680  -1.194  16.293  0.00  0.00     0.001 A 
ATOM     18  C13 <0> d   1      19.094  -1.504  15.011  0.00  0.00     0.010 A 
ENDBRANCH   1  13
BRANCH   1  19
ATOM     19  C18 <0> d   1      18.797  -2.582  12.257  0.00  0.00     0.025 C 
ATOM     20  C23 <0> d   1      19.944  -3.170  11.432  0.00  0.00     0.008 C 
ATOM     21  C22 <0> d   1      19.663  -4.647  11.149  0.00  0.00     0.000 C 
ATOM     22  C21 <0> d   1      18.353  -4.775  10.366  0.00  0.00     0.000 C 
ATOM     23  C20 <0> d   1      17.207  -4.187  11.190  0.00  0.00     0.000 C 
ATOM     24  C19 <0> d   1      17.488  -2.710  11.474  0.00  0.00     0.008 C 
ENDBRANCH   1  19
TORSDOF 6
ENDMDL
MODEL 6
REMARK VINA RESULT:      -7.7      1.934      4.037
REMARK  6 active torsions:
REMARK  status: ('A' for Active; 'I' for Inactive)
REMARK    1  A    between atoms: O1_1  and  C2_2 
REMARK    2  A    between atoms: C2_2  and  C3_3 
REMARK    3  A    between atoms: C2_2  and  C12_12 
REMARK    4  A    between atoms: C2_2  and  C18_18 
REMARK    5  A    between atoms: C3_3  and  C4_4 
REMARK    6  A    between atoms: C4_4  and  N5_5 
ROOT
ATOM      1  C2  <0> d   1      19.469  -0.634  11.474  0.00  0.00     0.090 C 
ENDROOT
BRANCH   1   2
ATOM      2  O1  <0> d   1      20.897  -0.561  11.480  0.00  0.00    -0.385 OA
ATOM      3  H24 <0> d   1      21.253   0.114  12.073  0.00  0.00     0.211 HD
ENDBRANCH   1   2
BRANCH   1   4
ATOM      4  C3  <0> d   1      18.918   0.052  12.726  0.00  0.00     0.071 C 
BRANCH   4   5
ATOM      5  C4  <0> d   1      20.005   0.104  13.800  0.00  0.00     0.238 C 
BRANCH   5   6
ATOM      6  N5  <0> d   1      19.398  -0.098  15.123  0.00  0.00    -0.071 N 
ATOM      7  H6  <0> d   1      20.122  -0.297  15.797  0.00  0.00     0.279 HD
ATOM      8  C11 <0> d   1      18.681   1.120  15.520  0.00  0.00     0.235 C 
ATOM      9  C10 <0> d   1      18.116   0.945  16.932  0.00  0.00     0.028 C 
ATOM     10  C9  <0> d   1      17.151  -0.244  16.945  0.00  0.00     0.003 C 
ATOM     11  C8  <0> d   1      17.889  -1.493  16.456  0.00  0.00     0.028 C 
ATOM     12  C7  <0> d   1      18.463  -1.227  15.062  0.00  0.00     0.235 C 
ENDBRANCH   5   6
ENDBRANCH   4   5
ENDBRANCH   1   4
BRANCH   1  13
ATOM     13  C12 <0> d   1      19.040  -2.080  11.464  0.00  0.00    -0.024 A 
ATOM     14  C17 <0> d   1      19.992  -3.083  11.455  0.00  0.00     0.010 A 
ATOM     15  C16 <0> d   1      19.598  -4.408  11.450  0.00  0.00     0.001 A 
ATOM     16  C15 <0> d   1      18.254  -4.730  11.444  0.00  0.00     0.000 A 
ATOM     17  C14 <0> d   1      17.304  -3.727  11.447  0.00  0.00     0.001 A 
ATOM     18  C13 <0> d   1      17.696  -2.402  11.456  0.00  0.00     0.010 A 
ENDBRANCH   1  13
BRANCH   1  19
ATOM     19  C18 <0> d   1      18.927   0.067  10.227  0.00  0.00     0.025 C 
ATOM     20  C23 <0> d   1      19.623  -0.492   8.985  0.00  0.00     0.008 C 
ATOM     21  C22 <0> d   1      19.081   0.209   7.738  0.00  0.00     0.000 C 
ATOM     22  C21 <0> d   1      19.350   1.712   7.840  0.00  0.00     0.000 C 
ATOM     23  C20 <0> d   1      18.655   2.271   9.083  0.00  0.00     0.000 C 
ATOM     24  C19 <0> d   1      19.197   1.570  10.330  0.00  0.00     0.008 C 
ENDBRANCH   1  19
TORSDOF 6
ENDMDL
MODEL 7
REMARK VINA RESULT:      -7.5      2.684      6.558
REMARK  6 active torsions:
REMARK  status: ('A' for Active; 'I' for Inactive)
REMARK    1  A    between atoms: O1_1  and  C2_2 
REMARK    2  A    between atoms: C2_2  and  C3_3 
REMARK    3  A    between atoms: C2_2  and  C12_12 
REMARK    4  A    between atoms: C2_2  and  C18_18 
REMARK    5  A    between atoms: C3_3  and  C4_4 
REMARK    6  A    between atoms: C4_4  and  N5_5 
ROOT
ATOM      1  C2  <0> d   1      19.157  -2.346  11.507  0.00  0.00     0.090 C 
ENDROOT
BRANCH   1   2
ATOM      2  O1  <0> d   1      20.382  -3.024  11.796  0.00  0.00    -0.385 OA
ATOM      3  H24 <0> d   1      20.600  -3.726  11.168  0.00  0.00     0.211 HD
ENDBRANCH   1   2
BRANCH   1   4
ATOM      4  C3  <0> d   1      19.371  -1.376  10.343  0.00  0.00     0.071 C 
BRANCH   4   5
ATOM      5  C4  <0> d   1      20.582  -0.488  10.636  0.00  0.00     0.238 C 
BRANCH   5   6
ATOM      6  N5  <0> d   1      20.224   0.919  10.410  0.00  0.00    -0.071 N 
ATOM      7  H6  <0> d   1      20.967   1.377   9.903  0.00  0.00     0.279 HD
ATOM      8  C11 <0> d   1      18.984   0.986   9.628  0.00  0.00     0.235 C 
ATOM      9  C10 <0> d   1      18.651   2.448   9.320  0.00  0.00     0.028 C 
ATOM     10  C9  <0> d   1      18.468   3.211  10.635  0.00  0.00     0.003 C 
ATOM     11  C8  <0> d   1      19.740   3.071  11.477  0.00  0.00     0.028 C 
ATOM     12  C7  <0> d   1      20.033   1.585  11.704  0.00  0.00     0.235 C 
ENDBRANCH   5   6
ENDBRANCH   4   5
ENDBRANCH   1   4
BRANCH   1  13
ATOM     13  C12 <0> d   1      18.709  -1.577  12.725  0.00  0.00    -0.024 A 
ATOM     14  C17 <0> d   1      19.396  -1.711  13.917  0.00  0.00     0.010 A 
ATOM     15  C16 <0> d   1      18.988  -1.002  15.031  0.00  0.00     0.001 A 
ATOM     16  C15 <0> d   1      17.887  -0.169  14.957  0.00  0.00     0.000 A 
ATOM     17  C14 <0> d   1      17.198  -0.041  13.767  0.00  0.00     0.001 A 
ATOM     18  C13 <0> d   1      17.608  -0.746  12.650  0.00  0.00     0.010 A 
ENDBRANCH   1  13
BRANCH   1  19
ATOM     19  C18 <0> d   1      18.084  -3.369  11.128  0.00  0.00     0.025 C 
ATOM     20  C23 <0> d   1      18.363  -4.690  11.847  0.00  0.00     0.008 C 
ATOM     21  C22 <0> d   1      17.290  -5.713  11.468  0.00  0.00     0.000 C 
ATOM     22  C21 <0> d   1      17.316  -5.941   9.954  0.00  0.00     0.000 C 
ATOM     23  C20 <0> d   1      17.038  -4.620   9.235  0.00  0.00     0.000 C 
ATOM     24  C19 <0> d   1      18.110  -3.597   9.615  0.00  0.00     0.008 C 
ENDBRANCH   1  19
TORSDOF 6
ENDMDL
MODEL 8
REMARK VINA RESULT:      -7.5      2.575      5.810
REMARK  6 active torsions:
REMARK  status: ('A' for Active; 'I' for Inactive)
REMARK    1  A    between atoms: O1_1  and  C2_2 
REMARK    2  A    between atoms: C2_2  and  C3_3 
REMARK    3  A    between atoms: C2_2  and  C12_12 
REMARK    4  A    between atoms: C2_2  and  C18_18 
REMARK    5  A    between atoms: C3_3  and  C4_4 
REMARK    6  A    between atoms: C4_4  and  N5_5 
ROOT
ATOM      1  C2  <0> d   1      17.957  -0.495  12.592  0.00  0.00     0.090 C 
ENDROOT
BRANCH   1   2
ATOM      2  O1  <0> d   1      16.653  -0.901  12.172  0.00  0.00    -0.385 OA
ATOM      3  H24 <0> d   1      16.590  -1.835  11.931  0.00  0.00     0.211 HD
ENDBRANCH   1   2
BRANCH   1   4
ATOM      4  C3  <0> d   1      19.007  -1.403  11.947  0.00  0.00     0.071 C 
BRANCH   4   5
ATOM      5  C4  <0> d   1      18.472  -1.935  10.616  0.00  0.00     0.238 C 
BRANCH   5   6
ATOM      6  N5  <0> d   1      17.694  -3.158  10.854  0.00  0.00    -0.071 N 
ATOM      7  H6  <0> d   1      16.810  -2.916  11.276  0.00  0.00     0.279 HD
ATOM      8  C11 <0> d   1      17.455  -3.840   9.577  0.00  0.00     0.235 C 
ATOM      9  C10 <0> d   1      16.575  -5.071   9.809  0.00  0.00     0.028 C 
ATOM     10  C9  <0> d   1      17.285  -6.025  10.773  0.00  0.00     0.003 C 
ATOM     11  C8  <0> d   1      17.598  -5.281  12.074  0.00  0.00     0.028 C 
ATOM     12  C7  <0> d   1      18.440  -4.042  11.758  0.00  0.00     0.235 C 
ENDBRANCH   5   6
ENDBRANCH   4   5
ENDBRANCH   1   4
BRANCH   1  13
ATOM     13  C12 <0> d   1      18.057  -0.600  14.093  0.00  0.00    -0.024 A 
ATOM     14  C17 <0> d   1      17.311   0.242  14.896  0.00  0.00     0.010 A 
ATOM     15  C16 <0> d   1      17.400   0.143  16.271  0.00  0.00     0.001 A 
ATOM     16  C15 <0> d   1      18.242  -0.792  16.845  0.00  0.00     0.000 A 
ATOM     17  C14 <0> d   1      18.993  -1.629  16.042  0.00  0.00     0.001 A 
ATOM     18  C13 <0> d   1      18.901  -1.533  14.666  0.00  0.00     0.010 A 
ENDBRANCH   1  13
BRANCH   1  19
ATOM     19  C18 <0> d   1      18.204   0.953  12.165  0.00  0.00     0.025 C 
ATOM     20  C23 <0> d   1      17.444   1.239  10.869  0.00  0.00     0.008 C 
ATOM     21  C22 <0> d   1      17.690   2.687  10.442  0.00  0.00     0.000 C 
ATOM     22  C21 <0> d   1      19.188   2.902  10.212  0.00  0.00     0.000 C 
ATOM     23  C20 <0> d   1      19.949   2.616  11.508  0.00  0.00     0.000 C 
ATOM     24  C19 <0> d   1      19.702   1.168  11.935  0.00  0.00     0.008 C 
ENDBRANCH   1  19
TORSDOF 6
ENDMDL
MODEL 9
REMARK VINA RESULT:      -7.3      1.932      6.025
REMARK  6 active torsions:
REMARK  status: ('A' for Active; 'I' for Inactive)
REMARK    1  A    between atoms: O1_1  and  C2_2 
REMARK    2  A    between atoms: C2_2  and  C3_3 
REMARK    3  A    between atoms: C2_2  and  C12_12 
REMARK    4  A    between atoms: C2_2  and  C18_18 
REMARK    5  A    between atoms: C3_3  and  C4_4 
REMARK    6  A    between atoms: C4_4  and  N5_5 
ROOT
ATOM      1  C2  <0> d   1      18.125  -0.386  12.737  0.00  0.00     0.090 C 
ENDROOT
BRANCH   1   2
ATOM      2  O1  <0> d   1      16.909  -0.948  12.240  0.00  0.00    -0.385 OA
ATOM      3  H24 <0> d   1      16.985  -1.331  11.355  0.00  0.00     0.211 HD
ENDBRANCH   1   2
BRANCH   1   4
ATOM      4  C3  <0> d   1      19.317  -1.112  12.109  0.00  0.00     0.071 C 
BRANCH   4   5
ATOM      5  C4  <0> d   1      18.823  -2.350  11.358  0.00  0.00     0.238 C 
BRANCH   5   6
ATOM      6  N5  <0> d   1      18.559  -2.000   9.956  0.00  0.00    -0.071 N 
ATOM      7  H6  <0> d   1      17.642  -1.587   9.880  0.00  0.00     0.279 HD
ATOM      8  C11 <0> d   1      19.568  -1.038   9.496  0.00  0.00     0.235 C 
ATOM      9  C10 <0> d   1      19.250  -0.607   8.062  0.00  0.00     0.028 C 
ATOM     10  C9  <0> d   1      19.264  -1.838   7.151  0.00  0.00     0.003 C 
ATOM     11  C8  <0> d   1      18.263  -2.867   7.684  0.00  0.00     0.028 C 
ATOM     12  C7  <0> d   1      18.617  -3.213   9.132  0.00  0.00     0.235 C 
ENDBRANCH   5   6
ENDBRANCH   4   5
ENDBRANCH   1   4
BRANCH   1  13
ATOM     13  C12 <0> d   1      18.176  -0.543  14.236  0.00  0.00    -0.024 A 
ATOM     14  C17 <0> d   1      17.362   0.233  15.039  0.00  0.00     0.010 A 
ATOM     15  C16 <0> d   1      17.405   0.085  16.413  0.00  0.00     0.001 A 
ATOM     16  C15 <0> d   1      18.269  -0.831  16.984  0.00  0.00     0.000 A 
ATOM     17  C14 <0> d   1      19.086  -1.603  16.180  0.00  0.00     0.001 A 
ATOM     18  C13 <0> d   1      19.040  -1.459  14.806  0.00  0.00     0.010 A 
ENDBRANCH   1  13
BRANCH   1  19
ATOM     19  C18 <0> d   1      18.186   1.100  12.378  0.00  0.00     0.025 C 
ATOM     20  C23 <0> d   1      17.381   1.350  11.102  0.00  0.00     0.008 C 
ATOM     21  C22 <0> d   1      17.442   2.835  10.743  0.00  0.00     0.000 C 
ATOM     22  C21 <0> d   1      18.899   3.245  10.515  0.00  0.00     0.000 C 
ATOM     23  C20 <0> d   1      19.705   2.995  11.791  0.00  0.00     0.000 C 
ATOM     24  C19 <0> d   1      19.643   1.510  12.150  0.00  0.00     0.008 C 
ENDBRANCH   1  19
TORSDOF 6
ENDMDL
