MODEL 1
REMARK VINA RESULT:     -10.1      0.000      0.000
REMARK  2 active torsions:
REMARK  status: ('A' for Active; 'I' for Inactive)
REMARK    1  A    between atoms: C13_11  and  O15_12 
REMARK    2  A    between atoms: C24_20  and  C25_21 
ROOT
ATOM      1  C1  <0> d   1      20.192   0.892  12.691  0.00  0.00     0.021 C 
ATOM      2  C2  <0> d   1      18.736   1.250  12.998  0.00  0.00    -0.012 C 
ATOM      3  C3  <0> d   1      17.853   0.071  12.664  0.00  0.00     0.015 C 
ATOM      4  C4  <0> d   1      18.187  -0.338  11.219  0.00  0.00     0.007 C 
ATOM      5  C5  <0> d   1      18.011   0.818  10.240  0.00  0.00     0.003 C 
ATOM      6  C7  <0> d   1      18.783   2.072  10.674  0.00  0.00    -0.001 C 
ATOM      7  C9  <0> d   1      18.443   3.203   9.697  0.00  0.00     0.033 C 
ATOM      8  C10 <0> d   1      18.763   2.760   8.299  0.00  0.00    -0.023 C 
ATOM      9  C11 <0> d   1      18.767   1.511   7.935  0.00  0.00    -0.072 C 
ATOM     10  C12 <0> d   1      19.099   1.185   6.489  0.00  0.00     0.066 C 
ATOM     11  C13 <0> d   1      18.000   0.273   5.934  0.00  0.00     0.122 C 
ATOM     12  C16 <0> d   1      17.859  -0.958   6.831  0.00  0.00     0.033 C 
ATOM     13  C17 <0> d   1      17.397  -0.528   8.226  0.00  0.00     0.016 C 
ATOM     14  C18 <0> d   1      18.458   0.390   8.853  0.00  0.00    -0.017 C 
ATOM     15  C19 <0> d   1      19.745  -0.420   9.025  0.00  0.00     0.020 C 
ATOM     16  C20 <0> d   1      18.294   2.427  12.079  0.00  0.00     0.006 C 
ATOM     17  C22 <0> d   1      19.033   3.567  12.794  0.00  0.00     0.033 C 
ATOM     18  C23 <0> d   1      18.848   3.185  14.263  0.00  0.00    -0.018 C 
ATOM     19  C24 <0> d   1      18.654   1.841  14.366  0.00  0.00    -0.042 C 
ENDROOT
BRANCH  19  20
ATOM     20  C25 <0> d   1      18.413   1.098  15.621  0.00  0.00    -0.012 A 
ATOM     21  C30 <0> d   1      19.209   1.326  16.744  0.00  0.00     0.128 A 
ATOM     22  N29 <0> d   1      18.991   0.669  17.863  0.00  0.00    -0.272 NA
ATOM     23  C28 <0> d   1      18.032  -0.230  17.968  0.00  0.00     0.116 A 
ATOM     24  C27 <0> d   1      17.202  -0.517  16.899  0.00  0.00     0.020 A 
ATOM     25  C26 <0> d   1      17.385   0.152  15.701  0.00  0.00     0.015 A 
ENDBRANCH  19  20
BRANCH  11  26
ATOM     26  O15 <0> d   1      18.347  -0.140   4.611  0.00  0.00    -0.395 OA
ATOM     27  H43 <0> d   1      17.642  -0.010   3.961  0.00  0.00     0.210 HD
ENDBRANCH  11  26
TORSDOF 2
ENDMDL
MODEL 2
REMARK VINA RESULT:     -10.0      3.954      7.798
REMARK  2 active torsions:
REMARK  status: ('A' for Active; 'I' for Inactive)
REMARK    1  A    between atoms: C13_11  and  O15_12 
REMARK    2  A    between atoms: C24_20  and  C25_21 
ROOT
ATOM      1  C1  <0> d   1      17.184   0.053   9.417  0.00  0.00     0.021 C 
ATOM      2  C2  <0> d   1      18.684  -0.029   9.126  0.00  0.00    -0.012 C 
ATOM      3  C3  <0> d   1      19.236  -1.306   9.713  0.00  0.00     0.015 C 
ATOM      4  C4  <0> d   1      18.802  -1.340  11.189  0.00  0.00     0.007 C 
ATOM      5  C5  <0> d   1      19.264  -0.101  11.951  0.00  0.00     0.003 C 
ATOM      6  C7  <0> d   1      18.839   1.201  11.257  0.00  0.00    -0.001 C 
ATOM      7  C9  <0> d   1      19.452   2.374  12.030  0.00  0.00     0.033 C 
ATOM      8  C10 <0> d   1      19.023   2.296  13.466  0.00  0.00    -0.023 C 
ATOM      9  C11 <0> d   1      18.699   1.179  14.049  0.00  0.00    -0.072 C 
ATOM     10  C12 <0> d   1      18.289   1.224  15.511  0.00  0.00     0.066 C 
ATOM     11  C13 <0> d   1      19.117   0.188  16.279  0.00  0.00     0.122 C 
ATOM     12  C16 <0> d   1      18.943  -1.186  15.627  0.00  0.00     0.033 C 
ATOM     13  C17 <0> d   1      19.506  -1.155  14.204  0.00  0.00     0.016 C 
ATOM     14  C18 <0> d   1      18.716  -0.136  13.367  0.00  0.00    -0.017 C 
ATOM     15  C19 <0> d   1      17.266  -0.616  13.277  0.00  0.00     0.020 C 
ATOM     16  C20 <0> d   1      19.407   1.151   9.838  0.00  0.00     0.006 C 
ATOM     17  C22 <0> d   1      18.987   2.285   8.892  0.00  0.00     0.033 C 
ATOM     18  C23 <0> d   1      19.075   1.600   7.527  0.00  0.00    -0.018 C 
ATOM     19  C24 <0> d   1      18.920   0.254   7.680  0.00  0.00    -0.042 C 
ENDROOT
BRANCH  19  20
ATOM     20  C25 <0> d   1      18.969  -0.747   6.594  0.00  0.00    -0.012 A 
ATOM     21  C30 <0> d   1      19.540  -0.429   5.361  0.00  0.00     0.128 A 
ATOM     22  N29 <0> d   1      19.590  -1.323   4.396  0.00  0.00    -0.272 NA
ATOM     23  C28 <0> d   1      19.097  -2.537   4.545  0.00  0.00     0.116 A 
ATOM     24  C27 <0> d   1      18.511  -2.929   5.735  0.00  0.00     0.020 A 
ATOM     25  C26 <0> d   1      18.440  -2.028   6.784  0.00  0.00     0.015 A 
ENDBRANCH  19  20
BRANCH  11  26
ATOM     26  O15 <0> d   1      18.671   0.131  17.634  0.00  0.00    -0.395 OA
ATOM     27  H43 <0> d   1      18.213  -0.690  17.863  0.00  0.00     0.210 HD
ENDBRANCH  11  26
TORSDOF 2
ENDMDL
MODEL 3
REMARK VINA RESULT:      -9.9      3.211      5.102
REMARK  2 active torsions:
REMARK  status: ('A' for Active; 'I' for Inactive)
REMARK    1  A    between atoms: C13_11  and  O15_12 
REMARK    2  A    between atoms: C24_20  and  C25_21 
ROOT
ATOM      1  C1  <0> d   1      19.796   0.433  10.638  0.00  0.00     0.021 C 
ATOM      2  C2  <0> d   1      18.468   0.882  10.025  0.00  0.00    -0.012 C 
ATOM      3  C3  <0> d   1      17.335   0.140  10.695  0.00  0.00     0.015 C 
ATOM      4  C4  <0> d   1      17.678  -1.358  10.614  0.00  0.00     0.007 C 
ATOM      5  C5  <0> d   1      17.906  -1.818   9.177  0.00  0.00     0.003 C 
ATOM      6  C7  <0> d   1      18.944  -0.951   8.447  0.00  0.00    -0.001 C 
ATOM      7  C9  <0> d   1      19.008  -1.416   6.987  0.00  0.00     0.033 C 
ATOM      8  C10 <0> d   1      19.324  -2.882   6.950  0.00  0.00    -0.023 C 
ATOM      9  C11 <0> d   1      19.026  -3.696   7.920  0.00  0.00    -0.072 C 
ATOM     10  C12 <0> d   1      19.388  -5.163   7.765  0.00  0.00     0.066 C 
ATOM     11  C13 <0> d   1      18.140  -6.003   8.055  0.00  0.00     0.122 C 
ATOM     12  C16 <0> d   1      17.594  -5.642   9.438  0.00  0.00     0.033 C 
ATOM     13  C17 <0> d   1      17.139  -4.181   9.446  0.00  0.00     0.016 C 
ATOM     14  C18 <0> d   1      18.347  -3.271   9.167  0.00  0.00    -0.017 C 
ATOM     15  C19 <0> d   1      19.349  -3.447  10.310  0.00  0.00     0.020 C 
ATOM     16  C20 <0> d   1      18.442   0.491   8.519  0.00  0.00     0.006 C 
ATOM     17  C22 <0> d   1      19.391   1.573   7.983  0.00  0.00     0.033 C 
ATOM     18  C23 <0> d   1      18.979   2.788   8.816  0.00  0.00    -0.018 C 
ATOM     19  C24 <0> d   1      18.423   2.373   9.988  0.00  0.00    -0.042 C 
ENDROOT
BRANCH  19  20
ATOM     20  C25 <0> d   1      17.879   3.253  11.044  0.00  0.00    -0.012 A 
ATOM     21  C30 <0> d   1      18.150   2.998  12.389  0.00  0.00     0.128 A 
ATOM     22  N29 <0> d   1      17.670   3.784  13.329  0.00  0.00    -0.272 NA
ATOM     23  C28 <0> d   1      16.914   4.827  13.046  0.00  0.00     0.116 A 
ATOM     24  C27 <0> d   1      16.597   5.145  11.738  0.00  0.00     0.020 A 
ATOM     25  C26 <0> d   1      17.081   4.353  10.711  0.00  0.00     0.015 A 
ENDBRANCH  19  20
BRANCH  11  26
ATOM     26  O15 <0> d   1      18.482  -7.390   8.027  0.00  0.00    -0.395 OA
ATOM     27  H43 <0> d   1      19.334  -7.594   8.437  0.00  0.00     0.210 HD
ENDBRANCH  11  26
TORSDOF 2
ENDMDL
MODEL 4
REMARK VINA RESULT:      -9.5      1.427      3.008
REMARK  2 active torsions:
REMARK  status: ('A' for Active; 'I' for Inactive)
REMARK    1  A    between atoms: C13_11  and  O15_12 
REMARK    2  A    between atoms: C24_20  and  C25_21 
ROOT
ATOM      1  C1  <0> d   1      17.265   0.308  13.501  0.00  0.00     0.021 C 
ATOM      2  C2  <0> d   1      18.768   0.406  13.767  0.00  0.00    -0.012 C 
ATOM      3  C3  <0> d   1      19.299   1.685  13.162  0.00  0.00     0.015 C 
ATOM      4  C4  <0> d   1      18.840   1.704  11.693  0.00  0.00     0.007 C 
ATOM      5  C5  <0> d   1      19.302   0.464  10.933  0.00  0.00     0.003 C 
ATOM      6  C7  <0> d   1      18.901  -0.837  11.643  0.00  0.00    -0.001 C 
ATOM      7  C9  <0> d   1      19.514  -2.010  10.868  0.00  0.00     0.033 C 
ATOM      8  C10 <0> d   1      19.061  -1.947   9.438  0.00  0.00    -0.023 C 
ATOM      9  C11 <0> d   1      18.717  -0.837   8.853  0.00  0.00    -0.072 C 
ATOM     10  C12 <0> d   1      18.284  -0.897   7.398  0.00  0.00     0.066 C 
ATOM     11  C13 <0> d   1      19.088   0.142   6.610  0.00  0.00     0.122 C 
ATOM     12  C16 <0> d   1      18.911   1.519   7.255  0.00  0.00     0.033 C 
ATOM     13  C17 <0> d   1      19.497   1.504   8.668  0.00  0.00     0.016 C 
ATOM     14  C18 <0> d   1      18.731   0.483   9.525  0.00  0.00    -0.017 C 
ATOM     15  C19 <0> d   1      17.278   0.949   9.635  0.00  0.00     0.020 C 
ATOM     16  C20 <0> d   1      19.492  -0.772  13.051  0.00  0.00     0.006 C 
ATOM     17  C22 <0> d   1      19.099  -1.903  14.013  0.00  0.00     0.033 C 
ATOM     18  C23 <0> d   1      19.201  -1.207  15.371  0.00  0.00    -0.018 C 
ATOM     19  C24 <0> d   1      19.031   0.136  15.211  0.00  0.00    -0.042 C 
ENDROOT
BRANCH  19  20
ATOM     20  C25 <0> d   1      19.087   1.146  16.289  0.00  0.00    -0.012 A 
ATOM     21  C30 <0> d   1      19.308   0.759  17.611  0.00  0.00     0.128 A 
ATOM     22  N29 <0> d   1      19.365   1.659  18.571  0.00  0.00    -0.272 NA
ATOM     23  C28 <0> d   1      19.205   2.946  18.329  0.00  0.00     0.116 A 
ATOM     24  C27 <0> d   1      18.977   3.409  17.046  0.00  0.00     0.020 A 
ATOM     25  C26 <0> d   1      18.916   2.504  16.000  0.00  0.00     0.015 A 
ENDBRANCH  19  20
BRANCH  11  26
ATOM     26  O15 <0> d   1      18.620   0.185   5.261  0.00  0.00    -0.395 OA
ATOM     27  H43 <0> d   1      19.299  -0.019   4.603  0.00  0.00     0.210 HD
ENDBRANCH  11  26
TORSDOF 2
ENDMDL
MODEL 5
REMARK VINA RESULT:      -9.4      3.006      4.510
REMARK  2 active torsions:
REMARK  status: ('A' for Active; 'I' for Inactive)
REMARK    1  A    between atoms: C13_11  and  O15_12 
REMARK    2  A    between atoms: C24_20  and  C25_21 
ROOT
ATOM      1  C1  <0> d   1      19.804   1.887  11.543  0.00  0.00     0.021 C 
ATOM      2  C2  <0> d   1      18.305   2.185  11.475  0.00  0.00    -0.012 C 
ATOM      3  C3  <0> d   1      17.588   1.374  12.529  0.00  0.00     0.015 C 
ATOM      4  C4  <0> d   1      18.025  -0.089  12.337  0.00  0.00     0.007 C 
ATOM      5  C5  <0> d   1      17.742  -0.591  10.924  0.00  0.00     0.003 C 
ATOM      6  C7  <0> d   1      18.336   0.331   9.850  0.00  0.00    -0.001 C 
ATOM      7  C9  <0> d   1      17.895  -0.192   8.477  0.00  0.00     0.033 C 
ATOM      8  C10 <0> d   1      18.320  -1.624   8.336  0.00  0.00    -0.023 C 
ATOM      9  C11 <0> d   1      18.493  -2.416   9.353  0.00  0.00    -0.072 C 
ATOM     10  C12 <0> d   1      18.917  -3.849   9.084  0.00  0.00     0.066 C 
ATOM     11  C13 <0> d   1      17.962  -4.785   9.832  0.00  0.00     0.122 C 
ATOM     12  C16 <0> d   1      17.942  -4.412  11.316  0.00  0.00     0.033 C 
ATOM     13  C17 <0> d   1      17.377  -2.999  11.483  0.00  0.00     0.016 C 
ATOM     14  C18 <0> d   1      18.292  -1.997  10.760  0.00  0.00    -0.017 C 
ATOM     15  C19 <0> d   1      19.662  -2.028  11.441  0.00  0.00     0.020 C 
ATOM     16  C20 <0> d   1      17.755   1.725  10.093  0.00  0.00     0.006 C 
ATOM     17  C22 <0> d   1      18.318   2.863   9.230  0.00  0.00     0.033 C 
ATOM     18  C23 <0> d   1      18.127   4.072  10.147  0.00  0.00    -0.018 C 
ATOM     19  C24 <0> d   1      18.098   3.662  11.446  0.00  0.00    -0.042 C 
ENDROOT
BRANCH  19  20
ATOM     20  C25 <0> d   1      17.904   4.537  12.621  0.00  0.00    -0.012 A 
ATOM     21  C30 <0> d   1      18.953   4.773  13.510  0.00  0.00     0.128 A 
ATOM     22  N29 <0> d   1      18.783   5.556  14.554  0.00  0.00    -0.272 NA
ATOM     23  C28 <0> d   1      17.625   6.135  14.809  0.00  0.00     0.116 A 
ATOM     24  C27 <0> d   1      16.535   5.948  13.979  0.00  0.00     0.020 A 
ATOM     25  C26 <0> d   1      16.664   5.138  12.864  0.00  0.00     0.015 A 
ENDBRANCH  19  20
BRANCH  11  26
ATOM     26  O15 <0> d   1      18.407  -6.135   9.688  0.00  0.00    -0.395 OA
ATOM     27  H43 <0> d   1      19.281  -6.303  10.065  0.00  0.00     0.210 HD
ENDBRANCH  11  26
TORSDOF 2
ENDMDL
MODEL 6
REMARK VINA RESULT:      -9.4      4.046      7.956
REMARK  2 active torsions:
REMARK  status: ('A' for Active; 'I' for Inactive)
REMARK    1  A    between atoms: C13_11  and  O15_12 
REMARK    2  A    between atoms: C24_20  and  C25_21 
ROOT
ATOM      1  C1  <0> d   1      20.052   2.320  11.037  0.00  0.00     0.021 C 
ATOM      2  C2  <0> d   1      18.584   1.908  10.907  0.00  0.00    -0.012 C 
ATOM      3  C3  <0> d   1      17.762   3.113  10.516  0.00  0.00     0.015 C 
ATOM      4  C4  <0> d   1      18.095   4.224  11.527  0.00  0.00     0.007 C 
ATOM      5  C5  <0> d   1      17.838   3.786  12.966  0.00  0.00     0.003 C 
ATOM      6  C7  <0> d   1      18.547   2.467  13.308  0.00  0.00    -0.001 C 
ATOM      7  C9  <0> d   1      18.129   2.056  14.725  0.00  0.00     0.033 C 
ATOM      8  C10 <0> d   1      18.450   3.170  15.677  0.00  0.00    -0.023 C 
ATOM      9  C11 <0> d   1      18.517   4.417  15.312  0.00  0.00    -0.072 C 
ATOM     10  C12 <0> d   1      18.842   5.459  16.368  0.00  0.00     0.066 C 
ATOM     11  C13 <0> d   1      17.787   6.567  16.297  0.00  0.00     0.122 C 
ATOM     12  C16 <0> d   1      17.729   7.124  14.874  0.00  0.00     0.033 C 
ATOM     13  C17 <0> d   1      17.266   6.028  13.911  0.00  0.00     0.016 C 
ATOM     14  C18 <0> d   1      18.286   4.877  13.923  0.00  0.00    -0.017 C 
ATOM     15  C19 <0> d   1      19.618   5.417  13.398  0.00  0.00     0.020 C 
ATOM     16  C20 <0> d   1      18.063   1.430  12.294  0.00  0.00     0.006 C 
ATOM     17  C22 <0> d   1      18.749   0.057  12.338  0.00  0.00     0.033 C 
ATOM     18  C23 <0> d   1      18.610  -0.407  10.888  0.00  0.00    -0.018 C 
ATOM     19  C24 <0> d   1      18.492   0.676  10.070  0.00  0.00    -0.042 C 
ENDROOT
BRANCH  19  20
ATOM     20  C25 <0> d   1      18.313   0.633   8.603  0.00  0.00    -0.012 A 
ATOM     21  C30 <0> d   1      17.297  -0.136   8.035  0.00  0.00     0.128 A 
ATOM     22  N29 <0> d   1      17.133  -0.170   6.729  0.00  0.00    -0.272 NA
ATOM     23  C28 <0> d   1      17.919   0.503   5.911  0.00  0.00     0.116 A 
ATOM     24  C27 <0> d   1      18.951   1.285   6.395  0.00  0.00     0.020 A 
ATOM     25  C26 <0> d   1      19.162   1.360   7.761  0.00  0.00     0.015 A 
ENDBRANCH  19  20
BRANCH  11  26
ATOM     26  O15 <0> d   1      18.133   7.615  17.204  0.00  0.00    -0.395 OA
ATOM     27  H43 <0> d   1      18.701   8.296  16.818  0.00  0.00     0.210 HD
ENDBRANCH  11  26
TORSDOF 2
ENDMDL
MODEL 7
REMARK VINA RESULT:      -9.4      3.925      7.758
REMARK  2 active torsions:
REMARK  status: ('A' for Active; 'I' for Inactive)
REMARK    1  A    between atoms: C13_11  and  O15_12 
REMARK    2  A    between atoms: C24_20  and  C25_21 
ROOT
ATOM      1  C1  <0> d   1      19.975  -0.211   9.772  0.00  0.00     0.021 C 
ATOM      2  C2  <0> d   1      18.523  -0.338   9.308  0.00  0.00    -0.012 C 
ATOM      3  C3  <0> d   1      18.066   0.983   8.734  0.00  0.00     0.015 C 
ATOM      4  C4  <0> d   1      18.376   2.056   9.793  0.00  0.00     0.007 C 
ATOM      5  C5  <0> d   1      17.720   1.745  11.135  0.00  0.00     0.003 C 
ATOM      6  C7  <0> d   1      18.057   0.332  11.634  0.00  0.00    -0.001 C 
ATOM      7  C9  <0> d   1      17.257   0.077  12.917  0.00  0.00     0.033 C 
ATOM      8  C10 <0> d   1      17.570   1.153  13.915  0.00  0.00    -0.023 C 
ATOM      9  C11 <0> d   1      17.964   2.345  13.572  0.00  0.00    -0.072 C 
ATOM     10  C12 <0> d   1      18.243   3.354  14.673  0.00  0.00     0.066 C 
ATOM     11  C13 <0> d   1      17.472   4.640  14.358  0.00  0.00     0.122 C 
ATOM     12  C16 <0> d   1      17.848   5.129  12.958  0.00  0.00     0.033 C 
ATOM     13  C17 <0> d   1      17.407   4.097  11.917  0.00  0.00     0.016 C 
ATOM     14  C18 <0> d   1      18.148   2.774  12.166  0.00  0.00    -0.017 C 
ATOM     15  C19 <0> d   1      19.644   3.021  11.962  0.00  0.00     0.020 C 
ATOM     16  C20 <0> d   1      17.618  -0.640  10.538  0.00  0.00     0.006 C 
ATOM     17  C22 <0> d   1      17.990  -2.116  10.742  0.00  0.00     0.033 C 
ATOM     18  C23 <0> d   1      18.092  -2.613   9.299  0.00  0.00    -0.018 C 
ATOM     19  C24 <0> d   1      18.379  -1.568   8.474  0.00  0.00    -0.042 C 
ENDROOT
BRANCH  19  20
ATOM     20  C25 <0> d   1      18.531  -1.645   7.006  0.00  0.00    -0.012 A 
ATOM     21  C30 <0> d   1      19.440  -2.535   6.433  0.00  0.00     0.128 A 
ATOM     22  N29 <0> d   1      19.571  -2.609   5.125  0.00  0.00    -0.272 NA
ATOM     23  C28 <0> d   1      18.868  -1.847   4.310  0.00  0.00     0.116 A 
ATOM     24  C27 <0> d   1      17.949  -0.936   4.800  0.00  0.00     0.020 A 
ATOM     25  C26 <0> d   1      17.768  -0.824   6.168  0.00  0.00     0.015 A 
ENDBRANCH  19  20
BRANCH  11  26
ATOM     26  O15 <0> d   1      17.806   5.643  15.318  0.00  0.00    -0.395 OA
ATOM     27  H43 <0> d   1      18.615   6.131  15.111  0.00  0.00     0.210 HD
ENDBRANCH  11  26
TORSDOF 2
ENDMDL
MODEL 8
REMARK VINA RESULT:      -9.2      2.246      3.793
REMARK  2 active torsions:
REMARK  status: ('A' for Active; 'I' for Inactive)
REMARK    1  A    between atoms: C13_11  and  O15_12 
REMARK    2  A    between atoms: C24_20  and  C25_21 
ROOT
ATOM      1  C1  <0> d   1      17.224   1.513  11.434  0.00  0.00     0.021 C 
ATOM      2  C2  <0> d   1      18.644   2.070  11.561  0.00  0.00    -0.012 C 
ATOM      3  C3  <0> d   1      18.894   3.058  10.446  0.00  0.00     0.015 C 
ATOM      4  C4  <0> d   1      18.533   2.343   9.132  0.00  0.00     0.007 C 
ATOM      5  C5  <0> d   1      19.318   1.047   8.950  0.00  0.00     0.003 C 
ATOM      6  C7  <0> d   1      19.192   0.115  10.164  0.00  0.00    -0.001 C 
ATOM      7  C9  <0> d   1      20.109  -1.093   9.933  0.00  0.00     0.033 C 
ATOM      8  C10 <0> d   1      19.740  -1.750   8.635  0.00  0.00    -0.023 C 
ATOM      9  C11 <0> d   1      19.181  -1.111   7.650  0.00  0.00    -0.072 C 
ATOM     10  C12 <0> d   1      18.862  -1.882   6.381  0.00  0.00     0.066 C 
ATOM     11  C13 <0> d   1      19.446  -1.116   5.190  0.00  0.00     0.122 C 
ATOM     12  C16 <0> d   1      18.911   0.317   5.195  0.00  0.00     0.033 C 
ATOM     13  C17 <0> d   1      19.398   1.043   6.452  0.00  0.00     0.016 C 
ATOM     14  C18 <0> d   1      18.844   0.331   7.696  0.00  0.00    -0.017 C 
ATOM     15  C19 <0> d   1      17.318   0.440   7.666  0.00  0.00     0.020 C 
ATOM     16  C20 <0> d   1      19.666   0.910  11.381  0.00  0.00     0.006 C 
ATOM     17  C22 <0> d   1      19.492   0.235  12.749  0.00  0.00     0.033 C 
ATOM     18  C23 <0> d   1      19.347   1.443  13.676  0.00  0.00    -0.018 C 
ATOM     19  C24 <0> d   1      18.875   2.508  12.969  0.00  0.00    -0.042 C 
ENDROOT
BRANCH  19  20
ATOM     20  C25 <0> d   1      18.628   3.860  13.511  0.00  0.00    -0.012 A 
ATOM     21  C30 <0> d   1      17.344   4.245  13.900  0.00  0.00     0.128 A 
ATOM     22  N29 <0> d   1      17.124   5.447  14.387  0.00  0.00    -0.272 NA
ATOM     23  C28 <0> d   1      18.092   6.334  14.517  0.00  0.00     0.116 A 
ATOM     24  C27 <0> d   1      19.391   6.032  14.151  0.00  0.00     0.020 A 
ATOM     25  C26 <0> d   1      19.676   4.778  13.638  0.00  0.00     0.015 A 
ENDBRANCH  19  20
BRANCH  11  26
ATOM     26  O15 <0> d   1      19.062  -1.762   3.974  0.00  0.00    -0.395 OA
ATOM     27  H43 <0> d   1      18.641  -1.173   3.333  0.00  0.00     0.210 HD
ENDBRANCH  11  26
TORSDOF 2
ENDMDL
MODEL 9
REMARK VINA RESULT:      -9.2      4.936      7.852
REMARK  2 active torsions:
REMARK  status: ('A' for Active; 'I' for Inactive)
REMARK    1  A    between atoms: C13_11  and  O15_12 
REMARK    2  A    between atoms: C24_20  and  C25_21 
ROOT
ATOM      1  C1  <0> d   1      19.616  -4.365  10.043  0.00  0.00     0.021 C 
ATOM      2  C2  <0> d   1      18.094  -4.277   9.919  0.00  0.00    -0.012 C 
ATOM      3  C3  <0> d   1      17.739  -3.299   8.822  0.00  0.00     0.015 C 
ATOM      4  C4  <0> d   1      18.499  -1.996   9.128  0.00  0.00     0.007 C 
ATOM      5  C5  <0> d   1      18.174  -1.456  10.518  0.00  0.00     0.003 C 
ATOM      6  C7  <0> d   1      18.379  -2.511  11.615  0.00  0.00    -0.001 C 
ATOM      7  C9  <0> d   1      17.913  -1.910  12.946  0.00  0.00     0.033 C 
ATOM      8  C10 <0> d   1      18.659  -0.633  13.199  0.00  0.00    -0.023 C 
ATOM      9  C11 <0> d   1      19.150   0.102  12.245  0.00  0.00    -0.072 C 
ATOM     10  C12 <0> d   1      19.880   1.379  12.624  0.00  0.00     0.066 C 
ATOM     11  C13 <0> d   1      19.290   2.535  11.808  0.00  0.00     0.122 C 
ATOM     12  C16 <0> d   1      19.364   2.196  10.318  0.00  0.00     0.033 C 
ATOM     13  C17 <0> d   1      18.492   0.973  10.024  0.00  0.00     0.016 C 
ATOM     14  C18 <0> d   1      19.030  -0.235  10.807  0.00  0.00    -0.017 C 
ATOM     15  C19 <0> d   1      20.440  -0.543  10.296  0.00  0.00     0.020 C 
ATOM     16  C20 <0> d   1      17.506  -3.709  11.244  0.00  0.00     0.006 C 
ATOM     17  C22 <0> d   1      17.655  -4.963  12.118  0.00  0.00     0.033 C 
ATOM     18  C23 <0> d   1      17.287  -6.074  11.134  0.00  0.00    -0.018 C 
ATOM     19  C24 <0> d   1      17.524  -5.655   9.860  0.00  0.00    -0.042 C 
ENDROOT
BRANCH  19  20
ATOM     20  C25 <0> d   1      17.269  -6.438   8.633  0.00  0.00    -0.012 A 
ATOM     21  C30 <0> d   1      18.326  -6.837   7.814  0.00  0.00     0.128 A 
ATOM     22  N29 <0> d   1      18.099  -7.540   6.724  0.00  0.00    -0.272 NA
ATOM     23  C28 <0> d   1      16.880  -7.883   6.357  0.00  0.00     0.116 A 
ATOM     24  C27 <0> d   1      15.779  -7.522   7.112  0.00  0.00     0.020 A 
ATOM     25  C26 <0> d   1      15.963  -6.788   8.271  0.00  0.00     0.015 A 
ENDBRANCH  19  20
BRANCH  11  26
ATOM     26  O15 <0> d   1      20.034   3.727  12.063  0.00  0.00    -0.395 OA
ATOM     27  H43 <0> d   1      20.148   3.926  13.003  0.00  0.00     0.210 HD
ENDBRANCH  11  26
TORSDOF 2
ENDMDL
