MODEL 1
REMARK VINA RESULT:     -10.0      0.000      0.000
REMARK  5 active torsions:
REMARK  status: ('A' for Active; 'I' for Inactive)
REMARK    1  A    between atoms: C23_19  and  O25_20 
REMARK    2  A    between atoms: C29_24  and  O30_25 
REMARK    3  A    between atoms: C29_24  and  C31_26 
REMARK    4  A    between atoms: C31_26  and  C33_28 
REMARK    5  A    between atoms: C33_28  and  O34_29 
ROOT
ATOM      1  C1  ZIN A   1      18.436  -1.535  15.175  0.00  0.00     0.013 C 
ATOM      2  C2  ZIN A   1      19.452  -1.333  14.049  0.00  0.00     0.025 C 
ATOM      3  C4  ZIN A   1      19.002  -2.109  12.780  0.00  0.00     0.013 C 
ATOM      4  C5  ZIN A   1      19.421  -1.175  11.640  0.00  0.00     0.005 C 
ATOM      5  C7  ZIN A   1      18.692  -1.372  10.323  0.00  0.00     0.037 C 
ATOM      6  C9  ZIN A   1      18.986  -2.768   9.771  0.00  0.00     0.050 C 
ATOM      7  C10 ZIN A   1      18.218  -2.977   8.462  0.00  0.00     0.201 C 
ATOM      8  F12 ZIN A   1      18.575  -4.205   7.896  0.00  0.00    -0.245 F 
ATOM      9  C13 ZIN A   1      18.582  -1.850   7.515  0.00  0.00    -0.027 A 
ATOM     10  C14 ZIN A   1      18.989  -2.147   6.289  0.00  0.00     0.061 A 
ATOM     11  C15 ZIN A   1      19.370  -1.082   5.349  0.00  0.00     0.172 A 
ATOM     12  O16 ZIN A   1      19.707  -1.347   4.209  0.00  0.00    -0.289 OA
ATOM     13  C17 ZIN A   1      19.335   0.315   5.817  0.00  0.00     0.052 A 
ATOM     14  C18 ZIN A   1      18.919   0.588   7.043  0.00  0.00    -0.006 A 
ATOM     15  C19 ZIN A   1      18.460  -0.441   8.018  0.00  0.00     0.039 A 
ATOM     16  C20 ZIN A   1      16.983  -0.178   8.316  0.00  0.00     0.028 C 
ATOM     17  C21 ZIN A   1      19.199  -0.294   9.351  0.00  0.00     0.147 C 
ATOM     18  F22 ZIN A   1      20.567  -0.493   9.143  0.00  0.00    -0.238 F 
ATOM     19  C23 ZIN A   1      18.992   1.118   9.889  0.00  0.00     0.160 C 
ATOM     20  C26 ZIN A   1      19.604   1.286  11.289  0.00  0.00     0.048 C 
ATOM     21  C27 ZIN A   1      19.016   0.212  12.206  0.00  0.00     0.001 C 
ATOM     22  C28 ZIN A   1      17.488   0.283  12.172  0.00  0.00     0.019 C 
ATOM     23  C29 ZIN A   1      19.512   0.161  13.648  0.00  0.00     0.131 C 
ENDROOT
BRANCH  23  24
ATOM     24  O30 ZIN A   1      20.841   0.681  13.734  0.00  0.00    -0.381 OA
ATOM     25  H54 ZIN A   1      21.106   1.211  12.970  0.00  0.00     0.211 HD
ENDBRANCH  23  24
BRANCH  23  26
ATOM     26  C31 ZIN A   1      18.588   0.943  14.546  0.00  0.00     0.185 C 
ATOM     27  O32 ZIN A   1      17.400   0.722  14.529  0.00  0.00    -0.292 OA
BRANCH  26  28
ATOM     28  C33 ZIN A   1      19.143   1.998  15.466  0.00  0.00     0.245 C 
BRANCH  28  29
ATOM     29  O34 ZIN A   1      19.557   3.131  14.699  0.00  0.00    -0.393 OA
ATOM     30  H57 ZIN A   1      19.288   3.096  13.771  0.00  0.00     0.209 HD
ENDBRANCH  28  29
ENDBRANCH  26  28
ENDBRANCH  23  26
BRANCH  19  31
ATOM     31  O25 ZIN A   1      17.591   1.391   9.959  0.00  0.00    -0.392 OA
ATOM     32  H48 ZIN A   1      17.356   2.088  10.587  0.00  0.00     0.210 HD
ENDBRANCH  19  31
TORSDOF 5
ENDMDL
MODEL 2
REMARK VINA RESULT:      -9.4      2.792      6.408
REMARK  5 active torsions:
REMARK  status: ('A' for Active; 'I' for Inactive)
REMARK    1  A    between atoms: C23_19  and  O25_20 
REMARK    2  A    between atoms: C29_24  and  O30_25 
REMARK    3  A    between atoms: C29_24  and  C31_26 
REMARK    4  A    between atoms: C31_26  and  C33_28 
REMARK    5  A    between atoms: C33_28  and  O34_29 
ROOT
ATOM      1  C1  ZIN A   1      17.828  -5.585  10.578  0.00  0.00     0.013 C 
ATOM      2  C2  ZIN A   1      17.363  -4.172  10.218  0.00  0.00     0.025 C 
ATOM      3  C4  ZIN A   1      17.370  -3.270  11.483  0.00  0.00     0.013 C 
ATOM      4  C5  ZIN A   1      17.828  -1.915  10.935  0.00  0.00     0.005 C 
ATOM      5  C7  ZIN A   1      18.429  -0.961  11.952  0.00  0.00     0.037 C 
ATOM      6  C9  ZIN A   1      17.377  -0.588  12.998  0.00  0.00     0.050 C 
ATOM      7  C10 ZIN A   1      17.997   0.344  14.044  0.00  0.00     0.201 C 
ATOM      8  F12 ZIN A   1      17.010   0.778  14.934  0.00  0.00    -0.245 F 
ATOM      9  C13 ZIN A   1      18.595   1.535  13.319  0.00  0.00    -0.027 A 
ATOM     10  C14 ZIN A   1      18.272   2.757  13.717  0.00  0.00     0.061 A 
ATOM     11  C15 ZIN A   1      18.815   3.937  13.026  0.00  0.00     0.172 A 
ATOM     12  O16 ZIN A   1      18.552   5.061  13.412  0.00  0.00    -0.289 OA
ATOM     13  C17 ZIN A   1      19.687   3.727  11.857  0.00  0.00     0.052 A 
ATOM     14  C18 ZIN A   1      20.002   2.497  11.483  0.00  0.00    -0.006 A 
ATOM     15  C19 ZIN A   1      19.534   1.266  12.180  0.00  0.00     0.039 A 
ATOM     16  C20 ZIN A   1      20.764   0.554  12.746  0.00  0.00     0.028 C 
ATOM     17  C21 ZIN A   1      18.892   0.292  11.190  0.00  0.00     0.147 C 
ATOM     18  F22 ZIN A   1      17.773   0.897  10.609  0.00  0.00    -0.238 F 
ATOM     19  C23 ZIN A   1      19.891  -0.036  10.085  0.00  0.00     0.160 C 
ATOM     20  C26 ZIN A   1      19.348  -1.111   9.130  0.00  0.00     0.048 C 
ATOM     21  C27 ZIN A   1      18.956  -2.337   9.955  0.00  0.00     0.001 C 
ATOM     22  C28 ZIN A   1      20.144  -2.791  10.806  0.00  0.00     0.019 C 
ATOM     23  C29 ZIN A   1      18.350  -3.527   9.215  0.00  0.00     0.131 C 
ENDROOT
BRANCH  23  24
ATOM     24  O30 ZIN A   1      17.687  -3.086   8.028  0.00  0.00    -0.381 OA
ATOM     25  H54 ZIN A   1      17.826  -3.660   7.263  0.00  0.00     0.211 HD
ENDBRANCH  23  24
BRANCH  23  26
ATOM     26  C31 ZIN A   1      19.421  -4.530   8.872  0.00  0.00     0.185 C 
ATOM     27  O32 ZIN A   1      20.002  -5.117   9.755  0.00  0.00    -0.292 OA
BRANCH  26  28
ATOM     28  C33 ZIN A   1      19.768  -4.801   7.432  0.00  0.00     0.245 C 
BRANCH  28  29
ATOM     29  O34 ZIN A   1      20.377  -3.642   6.861  0.00  0.00    -0.393 OA
ATOM     30  H57 ZIN A   1      19.751  -3.031   6.449  0.00  0.00     0.209 HD
ENDBRANCH  28  29
ENDBRANCH  26  28
ENDBRANCH  23  26
BRANCH  19  31
ATOM     31  O25 ZIN A   1      21.103  -0.510  10.676  0.00  0.00    -0.392 OA
ATOM     32  H48 ZIN A   1      20.979  -1.245  11.292  0.00  0.00     0.210 HD
ENDBRANCH  19  31
TORSDOF 5
ENDMDL
MODEL 3
REMARK VINA RESULT:      -9.4      2.583      7.486
REMARK  5 active torsions:
REMARK  status: ('A' for Active; 'I' for Inactive)
REMARK    1  A    between atoms: C23_19  and  O25_20 
REMARK    2  A    between atoms: C29_24  and  O30_25 
REMARK    3  A    between atoms: C29_24  and  C31_26 
REMARK    4  A    between atoms: C31_26  and  C33_28 
REMARK    5  A    between atoms: C33_28  and  O34_29 
ROOT
ATOM      1  C1  ZIN A   1      18.674   1.794   7.764  0.00  0.00     0.013 C 
ATOM      2  C2  ZIN A   1      19.650   1.539   8.915  0.00  0.00     0.025 C 
ATOM      3  C4  ZIN A   1      19.200   2.324  10.178  0.00  0.00     0.013 C 
ATOM      4  C5  ZIN A   1      19.548   1.363  11.320  0.00  0.00     0.005 C 
ATOM      5  C7  ZIN A   1      18.792   1.581  12.618  0.00  0.00     0.037 C 
ATOM      6  C9  ZIN A   1      19.132   2.958  13.192  0.00  0.00     0.050 C 
ATOM      7  C10 ZIN A   1      18.338   3.190  14.481  0.00  0.00     0.201 C 
ATOM      8  F12 ZIN A   1      18.733   4.397  15.068  0.00  0.00    -0.245 F 
ATOM      9  C13 ZIN A   1      18.628   2.040  15.427  0.00  0.00    -0.027 A 
ATOM     10  C14 ZIN A   1      19.014   2.309  16.666  0.00  0.00     0.061 A 
ATOM     11  C15 ZIN A   1      19.324   1.221  17.607  0.00  0.00     0.172 A 
ATOM     12  O16 ZIN A   1      19.641   1.463  18.757  0.00  0.00    -0.289 OA
ATOM     13  C17 ZIN A   1      19.241  -0.168  17.125  0.00  0.00     0.052 A 
ATOM     14  C18 ZIN A   1      18.846  -0.414  15.885  0.00  0.00    -0.006 A 
ATOM     15  C19 ZIN A   1      18.459   0.642  14.908  0.00  0.00     0.039 A 
ATOM     16  C20 ZIN A   1      16.980   0.446  14.569  0.00  0.00     0.028 C 
ATOM     17  C21 ZIN A   1      19.225   0.474  13.594  0.00  0.00     0.147 C 
ATOM     18  F22 ZIN A   1      20.595   0.612  13.840  0.00  0.00    -0.238 F 
ATOM     19  C23 ZIN A   1      18.973  -0.923  13.037  0.00  0.00     0.160 C 
ATOM     20  C26 ZIN A   1      19.614  -1.107  11.653  0.00  0.00     0.048 C 
ATOM     21  C27 ZIN A   1      19.098  -0.001  10.731  0.00  0.00     0.001 C 
ATOM     22  C28 ZIN A   1      17.568  -0.005  10.723  0.00  0.00     0.019 C 
ATOM     23  C29 ZIN A   1      19.634   0.040   9.302  0.00  0.00     0.131 C 
ENDROOT
BRANCH  23  24
ATOM     24  O30 ZIN A   1      20.941  -0.536   9.247  0.00  0.00    -0.381 OA
ATOM     25  H54 ZIN A   1      21.012  -1.394   9.688  0.00  0.00     0.211 HD
ENDBRANCH  23  24
BRANCH  23  26
ATOM     26  C31 ZIN A   1      18.701  -0.694   8.373  0.00  0.00     0.185 C 
ATOM     27  O32 ZIN A   1      17.533  -0.388   8.325  0.00  0.00    -0.292 OA
BRANCH  26  28
ATOM     28  C33 ZIN A   1      19.224  -1.807   7.504  0.00  0.00     0.245 C 
BRANCH  28  29
ATOM     29  O34 ZIN A   1      19.599  -2.916   8.323  0.00  0.00    -0.393 OA
ATOM     30  H57 ZIN A   1      19.918  -2.667   9.201  0.00  0.00     0.209 HD
ENDBRANCH  28  29
ENDBRANCH  26  28
ENDBRANCH  23  26
BRANCH  19  31
ATOM     31  O25 ZIN A   1      17.564  -1.135  12.929  0.00  0.00    -0.392 OA
ATOM     32  H48 ZIN A   1      17.114  -0.501  12.353  0.00  0.00     0.210 HD
ENDBRANCH  19  31
TORSDOF 5
ENDMDL
MODEL 4
REMARK VINA RESULT:      -8.8      2.575      4.394
REMARK  5 active torsions:
REMARK  status: ('A' for Active; 'I' for Inactive)
REMARK    1  A    between atoms: C23_19  and  O25_20 
REMARK    2  A    between atoms: C29_24  and  O30_25 
REMARK    3  A    between atoms: C29_24  and  C31_26 
REMARK    4  A    between atoms: C31_26  and  C33_28 
REMARK    5  A    between atoms: C33_28  and  O34_29 
ROOT
ATOM      1  C1  ZIN A   1      17.772   5.590  12.466  0.00  0.00     0.013 C 
ATOM      2  C2  ZIN A   1      17.301   4.185  12.847  0.00  0.00     0.025 C 
ATOM      3  C4  ZIN A   1      17.333   3.256  11.602  0.00  0.00     0.013 C 
ATOM      4  C5  ZIN A   1      17.782   1.913  12.188  0.00  0.00     0.005 C 
ATOM      5  C7  ZIN A   1      18.402   0.938  11.204  0.00  0.00     0.037 C 
ATOM      6  C9  ZIN A   1      17.371   0.541  10.146  0.00  0.00     0.050 C 
ATOM      7  C10 ZIN A   1      18.012  -0.412   9.133  0.00  0.00     0.201 C 
ATOM      8  F12 ZIN A   1      17.042  -0.866   8.233  0.00  0.00    -0.245 F 
ATOM      9  C13 ZIN A   1      18.596  -1.586   9.894  0.00  0.00    -0.027 A 
ATOM     10  C14 ZIN A   1      18.281  -2.818   9.517  0.00  0.00     0.061 A 
ATOM     11  C15 ZIN A   1      18.812  -3.982  10.244  0.00  0.00     0.172 A 
ATOM     12  O16 ZIN A   1      18.557  -5.114   9.877  0.00  0.00    -0.289 OA
ATOM     13  C17 ZIN A   1      19.660  -3.746  11.425  0.00  0.00     0.052 A 
ATOM     14  C18 ZIN A   1      19.967  -2.508  11.778  0.00  0.00    -0.006 A 
ATOM     15  C19 ZIN A   1      19.513  -1.293  11.046  0.00  0.00     0.039 A 
ATOM     16  C20 ZIN A   1      20.753  -0.591  10.489  0.00  0.00     0.028 C 
ATOM     17  C21 ZIN A   1      18.851  -0.297  12.002  0.00  0.00     0.147 C 
ATOM     18  F22 ZIN A   1      17.721  -0.891  12.574  0.00  0.00    -0.238 F 
ATOM     19  C23 ZIN A   1      19.828   0.055  13.119  0.00  0.00     0.160 C 
ATOM     20  C26 ZIN A   1      19.266   1.150  14.040  0.00  0.00     0.048 C 
ATOM     21  C27 ZIN A   1      18.889   2.358  13.180  0.00  0.00     0.001 C 
ATOM     22  C28 ZIN A   1      20.094   2.794  12.344  0.00  0.00     0.019 C 
ATOM     23  C29 ZIN A   1      18.268   3.562  13.883  0.00  0.00     0.131 C 
ENDROOT
BRANCH  23  24
ATOM     24  O30 ZIN A   1      17.583   3.146  15.066  0.00  0.00    -0.381 OA
ATOM     25  H54 ZIN A   1      17.923   2.328  15.451  0.00  0.00     0.211 HD
ENDBRANCH  23  24
BRANCH  23  26
ATOM     26  C31 ZIN A   1      19.333   4.573  14.224  0.00  0.00     0.185 C 
ATOM     27  O32 ZIN A   1      19.942   5.130  13.341  0.00  0.00    -0.292 OA
BRANCH  26  28
ATOM     28  C33 ZIN A   1      19.637   4.892  15.665  0.00  0.00     0.245 C 
BRANCH  28  29
ATOM     29  O34 ZIN A   1      20.403   3.829  16.237  0.00  0.00    -0.393 OA
ATOM     30  H57 ZIN A   1      19.943   2.979  16.257  0.00  0.00     0.209 HD
ENDBRANCH  28  29
ENDBRANCH  26  28
ENDBRANCH  23  26
BRANCH  19  31
ATOM     31  O25 ZIN A   1      21.051   0.517  12.541  0.00  0.00    -0.392 OA
ATOM     32  H48 ZIN A   1      21.561  -0.173  12.095  0.00  0.00     0.210 HD
ENDBRANCH  19  31
TORSDOF 5
ENDMDL
MODEL 5
REMARK VINA RESULT:      -8.7      2.054      3.792
REMARK  5 active torsions:
REMARK  status: ('A' for Active; 'I' for Inactive)
REMARK    1  A    between atoms: C23_19  and  O25_20 
REMARK    2  A    between atoms: C29_24  and  O30_25 
REMARK    3  A    between atoms: C29_24  and  C31_26 
REMARK    4  A    between atoms: C31_26  and  C33_28 
REMARK    5  A    between atoms: C33_28  and  O34_29 
ROOT
ATOM      1  C1  ZIN A   1      18.987   3.405  15.957  0.00  0.00     0.013 C 
ATOM      2  C2  ZIN A   1      17.991   2.728  15.014  0.00  0.00     0.025 C 
ATOM      3  C4  ZIN A   1      18.411   2.964  13.537  0.00  0.00     0.013 C 
ATOM      4  C5  ZIN A   1      18.048   1.638  12.860  0.00  0.00     0.005 C 
ATOM      5  C7  ZIN A   1      18.776   1.337  11.563  0.00  0.00     0.037 C 
ATOM      6  C9  ZIN A   1      18.418   2.387  10.510  0.00  0.00     0.050 C 
ATOM      7  C10 ZIN A   1      19.185   2.103   9.215  0.00  0.00     0.201 C 
ATOM      8  F12 ZIN A   1      18.772   2.991   8.217  0.00  0.00    -0.245 F 
ATOM      9  C13 ZIN A   1      18.884   0.677   8.792  0.00  0.00    -0.027 A 
ATOM     10  C14 ZIN A   1      18.473   0.449   7.553  0.00  0.00     0.061 A 
ATOM     11  C15 ZIN A   1      18.151  -0.917   7.111  0.00  0.00     0.172 A 
ATOM     12  O16 ZIN A   1      17.810  -1.137   5.964  0.00  0.00    -0.289 OA
ATOM     13  C17 ZIN A   1      18.252  -2.014   8.090  0.00  0.00     0.052 A 
ATOM     14  C18 ZIN A   1      18.672  -1.763   9.320  0.00  0.00    -0.006 A 
ATOM     15  C19 ZIN A   1      19.071  -0.412   9.806  0.00  0.00     0.039 A 
ATOM     16  C20 ZIN A   1      20.558  -0.466  10.165  0.00  0.00     0.028 C 
ATOM     17  C21 ZIN A   1      18.331  -0.059  11.099  0.00  0.00     0.147 C 
ATOM     18  F22 ZIN A   1      16.956  -0.025  10.846  0.00  0.00    -0.238 F 
ATOM     19  C23 ZIN A   1      18.602  -1.135  12.146  0.00  0.00     0.160 C 
ATOM     20  C26 ZIN A   1      17.990  -0.769  13.507  0.00  0.00     0.048 C 
ATOM     21  C27 ZIN A   1      18.517   0.606  13.921  0.00  0.00     0.001 C 
ATOM     22  C28 ZIN A   1      20.047   0.602  13.899  0.00  0.00     0.019 C 
ATOM     23  C29 ZIN A   1      18.008   1.195  15.233  0.00  0.00     0.131 C 
ENDROOT
BRANCH  23  24
ATOM     24  O30 ZIN A   1      16.706   0.688  15.532  0.00  0.00    -0.381 OA
ATOM     25  H54 ZIN A   1      16.301   1.079  16.318  0.00  0.00     0.211 HD
ENDBRANCH  23  24
BRANCH  23  26
ATOM     26  C31 ZIN A   1      18.963   0.875  16.355  0.00  0.00     0.185 C 
ATOM     27  O32 ZIN A   1      19.810   1.675  16.673  0.00  0.00    -0.292 OA
BRANCH  26  28
ATOM     28  C33 ZIN A   1      18.861  -0.442  17.080  0.00  0.00     0.245 C 
BRANCH  28  29
ATOM     29  O34 ZIN A   1      19.700  -0.416  18.236  0.00  0.00    -0.393 OA
ATOM     30  H57 ZIN A   1      19.224  -0.262  19.064  0.00  0.00     0.209 HD
ENDBRANCH  28  29
ENDBRANCH  26  28
ENDBRANCH  23  26
BRANCH  19  31
ATOM     31  O25 ZIN A   1      20.015  -1.291  12.299  0.00  0.00    -0.392 OA
ATOM     32  H48 ZIN A   1      20.526  -1.044  11.516  0.00  0.00     0.210 HD
ENDBRANCH  19  31
TORSDOF 5
ENDMDL
MODEL 6
REMARK VINA RESULT:      -8.3      2.787      4.536
REMARK  5 active torsions:
REMARK  status: ('A' for Active; 'I' for Inactive)
REMARK    1  A    between atoms: C23_19  and  O25_20 
REMARK    2  A    between atoms: C29_24  and  O30_25 
REMARK    3  A    between atoms: C29_24  and  C31_26 
REMARK    4  A    between atoms: C31_26  and  C33_28 
REMARK    5  A    between atoms: C33_28  and  O34_29 
ROOT
ATOM      1  C1  ZIN A   1      19.510   1.275  11.491  0.00  0.00     0.013 C 
ATOM      2  C2  ZIN A   1      18.413   0.415  10.860  0.00  0.00     0.025 C 
ATOM      3  C4  ZIN A   1      18.980  -0.358   9.637  0.00  0.00     0.013 C 
ATOM      4  C5  ZIN A   1      18.260  -1.709   9.721  0.00  0.00     0.005 C 
ATOM      5  C7  ZIN A   1      18.937  -2.863   9.006  0.00  0.00     0.037 C 
ATOM      6  C9  ZIN A   1      18.998  -2.581   7.504  0.00  0.00     0.050 C 
ATOM      7  C10 ZIN A   1      19.716  -3.731   6.791  0.00  0.00     0.201 C 
ATOM      8  F12 ZIN A   1      19.670  -3.531   5.408  0.00  0.00    -0.245 F 
ATOM      9  C13 ZIN A   1      19.008  -5.024   7.148  0.00  0.00    -0.027 A 
ATOM     10  C14 ZIN A   1      18.625  -5.836   6.173  0.00  0.00     0.061 A 
ATOM     11  C15 ZIN A   1      17.917  -7.090   6.478  0.00  0.00     0.172 A 
ATOM     12  O16 ZIN A   1      17.598  -7.858   5.589  0.00  0.00    -0.289 OA
ATOM     13  C17 ZIN A   1      17.603  -7.394   7.884  0.00  0.00     0.052 A 
ATOM     14  C18 ZIN A   1      18.001  -6.572   8.842  0.00  0.00    -0.006 A 
ATOM     15  C19 ZIN A   1      18.776  -5.322   8.600  0.00  0.00     0.039 A 
ATOM     16  C20 ZIN A   1      20.143  -5.482   9.268  0.00  0.00     0.028 C 
ATOM     17  C21 ZIN A   1      18.104  -4.126   9.280  0.00  0.00     0.147 C 
ATOM     18  F22 ZIN A   1      16.829  -3.943   8.734  0.00  0.00    -0.238 F 
ATOM     19  C23 ZIN A   1      17.954  -4.412  10.771  0.00  0.00     0.160 C 
ATOM     20  C26 ZIN A   1      17.402  -3.195  11.529  0.00  0.00     0.048 C 
ATOM     21  C27 ZIN A   1      18.310  -1.997  11.246  0.00  0.00     0.001 C 
ATOM     22  C28 ZIN A   1      19.758  -2.351  11.589  0.00  0.00     0.019 C 
ATOM     23  C29 ZIN A   1      17.931  -0.656  11.869  0.00  0.00     0.131 C 
ENDROOT
BRANCH  23  24
ATOM     24  O30 ZIN A   1      16.518  -0.589  12.078  0.00  0.00    -0.381 OA
ATOM     25  H54 ZIN A   1      16.172   0.311  12.145  0.00  0.00     0.211 HD
ENDBRANCH  23  24
BRANCH  23  26
ATOM     26  C31 ZIN A   1      18.661  -0.461  13.172  0.00  0.00     0.185 C 
ATOM     27  O32 ZIN A   1      19.866  -0.358  13.180  0.00  0.00    -0.292 OA
BRANCH  26  28
ATOM     28  C33 ZIN A   1      17.892  -0.392  14.466  0.00  0.00     0.245 C 
BRANCH  28  29
ATOM     29  O34 ZIN A   1      17.296   0.900  14.599  0.00  0.00    -0.393 OA
ATOM     30  H57 ZIN A   1      17.933   1.627  14.618  0.00  0.00     0.209 HD
ENDBRANCH  28  29
ENDBRANCH  26  28
ENDBRANCH  23  26
BRANCH  19  31
ATOM     31  O25 ZIN A   1      19.231  -4.756  11.311  0.00  0.00    -0.392 OA
ATOM     32  H48 ZIN A   1      19.406  -4.376  12.183  0.00  0.00     0.210 HD
ENDBRANCH  19  31
TORSDOF 5
ENDMDL
MODEL 7
REMARK VINA RESULT:      -8.3      2.107      3.865
REMARK  5 active torsions:
REMARK  status: ('A' for Active; 'I' for Inactive)
REMARK    1  A    between atoms: C23_19  and  O25_20 
REMARK    2  A    between atoms: C29_24  and  O30_25 
REMARK    3  A    between atoms: C29_24  and  C31_26 
REMARK    4  A    between atoms: C31_26  and  C33_28 
REMARK    5  A    between atoms: C33_28  and  O34_29 
ROOT
ATOM      1  C1  ZIN A   1      19.747   3.306  11.190  0.00  0.00     0.013 C 
ATOM      2  C2  ZIN A   1      18.582   2.604  10.488  0.00  0.00     0.025 C 
ATOM      3  C4  ZIN A   1      18.982   2.233   9.033  0.00  0.00     0.013 C 
ATOM      4  C5  ZIN A   1      18.294   0.880   8.823  0.00  0.00     0.005 C 
ATOM      5  C7  ZIN A   1      18.878   0.007   7.727  0.00  0.00     0.037 C 
ATOM      6  C9  ZIN A   1      18.726   0.701   6.373  0.00  0.00     0.050 C 
ATOM      7  C10 ZIN A   1      19.350  -0.165   5.275  0.00  0.00     0.201 C 
ATOM      8  F12 ZIN A   1      19.110   0.411   4.024  0.00  0.00    -0.245 F 
ATOM      9  C13 ZIN A   1      18.712  -1.540   5.338  0.00  0.00    -0.027 A 
ATOM     10  C14 ZIN A   1      18.206  -2.064   4.231  0.00  0.00     0.061 A 
ATOM     11  C15 ZIN A   1      17.560  -3.386   4.256  0.00  0.00     0.172 A 
ATOM     12  O16 ZIN A   1      17.129  -3.889   3.235  0.00  0.00    -0.289 OA
ATOM     13  C17 ZIN A   1      17.447  -4.088   5.547  0.00  0.00     0.052 A 
ATOM     14  C18 ZIN A   1      17.966  -3.548   6.638  0.00  0.00    -0.006 A 
ATOM     15  C19 ZIN A   1      18.686  -2.244   6.663  0.00  0.00     0.039 A 
ATOM     16  C20 ZIN A   1      20.134  -2.517   7.074  0.00  0.00     0.028 C 
ATOM     17  C21 ZIN A   1      18.103  -1.321   7.737  0.00  0.00     0.147 C 
ATOM     18  F22 ZIN A   1      16.763  -1.056   7.436  0.00  0.00    -0.238 F 
ATOM     19  C23 ZIN A   1      18.165  -2.021   9.091  0.00  0.00     0.160 C 
ATOM     20  C26 ZIN A   1      17.711  -1.094  10.229  0.00  0.00     0.048 C 
ATOM     21  C27 ZIN A   1      18.558   0.179  10.182  0.00  0.00     0.001 C 
ATOM     22  C28 ZIN A   1      20.044  -0.186  10.219  0.00  0.00     0.019 C 
ATOM     23  C29 ZIN A   1      18.255   1.271  11.205  0.00  0.00     0.131 C 
ENDROOT
BRANCH  23  24
ATOM     24  O30 ZIN A   1      16.886   1.207  11.607  0.00  0.00    -0.381 OA
ATOM     25  H54 ZIN A   1      16.666   0.428  12.136  0.00  0.00     0.211 HD
ENDBRANCH  23  24
BRANCH  23  26
ATOM     26  C31 ZIN A   1      19.158   1.129  12.403  0.00  0.00     0.185 C 
ATOM     27  O32 ZIN A   1      20.326   0.860  12.251  0.00  0.00    -0.292 OA
BRANCH  26  28
ATOM     28  C33 ZIN A   1      18.606   1.322  13.791  0.00  0.00     0.245 C 
BRANCH  28  29
ATOM     29  O34 ZIN A   1      19.682   1.534  14.708  0.00  0.00    -0.393 OA
ATOM     30  H57 ZIN A   1      19.776   2.451  14.999  0.00  0.00     0.209 HD
ENDBRANCH  28  29
ENDBRANCH  26  28
ENDBRANCH  23  26
BRANCH  19  31
ATOM     31  O25 ZIN A   1      19.508  -2.439   9.339  0.00  0.00    -0.392 OA
ATOM     32  H48 ZIN A   1      19.831  -2.223  10.226  0.00  0.00     0.210 HD
ENDBRANCH  19  31
TORSDOF 5
ENDMDL
MODEL 8
REMARK VINA RESULT:      -8.0      1.764      7.330
REMARK  5 active torsions:
REMARK  status: ('A' for Active; 'I' for Inactive)
REMARK    1  A    between atoms: C23_19  and  O25_20 
REMARK    2  A    between atoms: C29_24  and  O30_25 
REMARK    3  A    between atoms: C29_24  and  C31_26 
REMARK    4  A    between atoms: C31_26  and  C33_28 
REMARK    5  A    between atoms: C33_28  and  O34_29 
ROOT
ATOM      1  C1  ZIN A   1      18.373   0.379   4.154  0.00  0.00     0.013 C 
ATOM      2  C2  ZIN A   1      19.308   0.062   5.323  0.00  0.00     0.025 C 
ATOM      3  C4  ZIN A   1      19.088   1.084   6.472  0.00  0.00     0.013 C 
ATOM      4  C5  ZIN A   1      19.254   0.226   7.731  0.00  0.00     0.005 C 
ATOM      5  C7  ZIN A   1      18.612   0.774   8.993  0.00  0.00     0.037 C 
ATOM      6  C9  ZIN A   1      19.268   2.101   9.375  0.00  0.00     0.050 C 
ATOM      7  C10 ZIN A   1      18.592   2.670  10.626  0.00  0.00     0.201 C 
ATOM      8  F12 ZIN A   1      19.265   3.823  11.044  0.00  0.00    -0.245 F 
ATOM      9  C13 ZIN A   1      18.652   1.617  11.715  0.00  0.00    -0.027 A 
ATOM     10  C14 ZIN A   1      19.131   1.950  12.906  0.00  0.00     0.061 A 
ATOM     11  C15 ZIN A   1      19.224   0.951  13.981  0.00  0.00     0.172 A 
ATOM     12  O16 ZIN A   1      19.627   1.261  15.087  0.00  0.00    -0.289 OA
ATOM     13  C17 ZIN A   1      18.818  -0.435  13.690  0.00  0.00     0.052 A 
ATOM     14  C18 ZIN A   1      18.336  -0.743  12.496  0.00  0.00    -0.006 A 
ATOM     15  C19 ZIN A   1      18.158   0.238  11.389  0.00  0.00     0.039 A 
ATOM     16  C20 ZIN A   1      16.662   0.337  11.087  0.00  0.00     0.028 C 
ATOM     17  C21 ZIN A   1      18.822  -0.267  10.105  0.00  0.00     0.147 C 
ATOM     18  F22 ZIN A   1      20.196  -0.410  10.324  0.00  0.00    -0.238 F 
ATOM     19  C23 ZIN A   1      18.247  -1.631   9.742  0.00  0.00     0.160 C 
ATOM     20  C26 ZIN A   1      18.782  -2.132   8.391  0.00  0.00     0.048 C 
ATOM     21  C27 ZIN A   1      18.492  -1.066   7.332  0.00  0.00     0.001 C 
ATOM     22  C28 ZIN A   1      17.000  -0.728   7.333  0.00  0.00     0.019 C 
ATOM     23  C29 ZIN A   1      18.973  -1.332   5.908  0.00  0.00     0.131 C 
ENDROOT
BRANCH  23  24
ATOM     24  O30 ZIN A   1      20.117  -2.189   5.924  0.00  0.00    -0.381 OA
ATOM     25  H54 ZIN A   1      20.901  -1.792   6.326  0.00  0.00     0.211 HD
ENDBRANCH  23  24
BRANCH  23  26
ATOM     26  C31 ZIN A   1      17.869  -1.951   5.090  0.00  0.00     0.185 C 
ATOM     27  O32 ZIN A   1      16.935  -1.275   4.728  0.00  0.00    -0.292 OA
BRANCH  26  28
ATOM     28  C33 ZIN A   1      17.930  -3.410   4.722  0.00  0.00     0.245 C 
BRANCH  28  29
ATOM     29  O34 ZIN A   1      18.755  -3.577   3.568  0.00  0.00    -0.393 OA
ATOM     30  H57 ZIN A   1      19.696  -3.674   3.768  0.00  0.00     0.209 HD
ENDBRANCH  28  29
ENDBRANCH  26  28
ENDBRANCH  23  26
BRANCH  19  31
ATOM     31  O25 ZIN A   1      16.823  -1.533   9.669  0.00  0.00    -0.392 OA
ATOM     32  H48 ZIN A   1      16.405  -2.234   9.151  0.00  0.00     0.210 HD
ENDBRANCH  19  31
TORSDOF 5
ENDMDL
MODEL 9
REMARK VINA RESULT:      -8.0      3.123      7.078
REMARK  5 active torsions:
REMARK  status: ('A' for Active; 'I' for Inactive)
REMARK    1  A    between atoms: C23_19  and  O25_20 
REMARK    2  A    between atoms: C29_24  and  O30_25 
REMARK    3  A    between atoms: C29_24  and  C31_26 
REMARK    4  A    between atoms: C31_26  and  C33_28 
REMARK    5  A    between atoms: C33_28  and  O34_29 
ROOT
ATOM      1  C1  ZIN A   1      18.010  -0.887   7.902  0.00  0.00     0.013 C 
ATOM      2  C2  ZIN A   1      19.007   0.103   8.506  0.00  0.00     0.025 C 
ATOM      3  C4  ZIN A   1      18.260   1.364   9.021  0.00  0.00     0.013 C 
ATOM      4  C5  ZIN A   1      19.035   1.726  10.293  0.00  0.00     0.005 C 
ATOM      5  C7  ZIN A   1      18.285   2.574  11.304  0.00  0.00     0.037 C 
ATOM      6  C9  ZIN A   1      17.946   3.934  10.692  0.00  0.00     0.050 C 
ATOM      7  C10 ZIN A   1      17.156   4.772  11.701  0.00  0.00     0.201 C 
ATOM      8  F12 ZIN A   1      16.946   6.056  11.187  0.00  0.00    -0.245 F 
ATOM      9  C13 ZIN A   1      17.966   4.857  12.981  0.00  0.00    -0.027 A 
ATOM     10  C14 ZIN A   1      18.198   6.047  13.516  0.00  0.00     0.061 A 
ATOM     11  C15 ZIN A   1      18.997   6.172  14.745  0.00  0.00     0.172 A 
ATOM     12  O16 ZIN A   1      19.180   7.259  15.262  0.00  0.00    -0.289 OA
ATOM     13  C17 ZIN A   1      19.569   4.951  15.338  0.00  0.00     0.052 A 
ATOM     14  C18 ZIN A   1      19.318   3.772  14.790  0.00  0.00    -0.006 A 
ATOM     15  C19 ZIN A   1      18.465   3.577  13.584  0.00  0.00     0.039 A 
ATOM     16  C20 ZIN A   1      17.248   2.750  14.000  0.00  0.00     0.028 C 
ATOM     17  C21 ZIN A   1      19.202   2.751  12.526  0.00  0.00     0.147 C 
ATOM     18  F22 ZIN A   1      20.350   3.440  12.122  0.00  0.00    -0.238 F 
ATOM     19  C23 ZIN A   1      19.628   1.418  13.132  0.00  0.00     0.160 C 
ATOM     20  C26 ZIN A   1      20.259   0.492  12.081  0.00  0.00     0.048 C 
ATOM     21  C27 ZIN A   1      19.271   0.328  10.925  0.00  0.00     0.001 C 
ATOM     22  C28 ZIN A   1      17.922  -0.156  11.463  0.00  0.00     0.019 C 
ATOM     23  C29 ZIN A   1      19.704  -0.527   9.737  0.00  0.00     0.131 C 
ENDROOT
BRANCH  23  24
ATOM     24  O30 ZIN A   1      21.127  -0.510   9.608  0.00  0.00    -0.381 OA
ATOM     25  H54 ZIN A   1      21.459  -1.002   8.845  0.00  0.00     0.211 HD
ENDBRANCH  23  24
BRANCH  23  26
ATOM     26  C31 ZIN A   1      19.211  -1.941   9.904  0.00  0.00     0.185 C 
ATOM     27  O32 ZIN A   1      18.611  -2.481   9.004  0.00  0.00    -0.292 OA
BRANCH  26  28
ATOM     28  C33 ZIN A   1      19.468  -2.683  11.189  0.00  0.00     0.245 C 
BRANCH  28  29
ATOM     29  O34 ZIN A   1      20.863  -2.968  11.306  0.00  0.00    -0.393 OA
ATOM     30  H57 ZIN A   1      21.068  -3.910  11.368  0.00  0.00     0.209 HD
ENDBRANCH  28  29
ENDBRANCH  26  28
ENDBRANCH  23  26
BRANCH  19  31
ATOM     31  O25 ZIN A   1      18.482   0.772  13.691  0.00  0.00    -0.392 OA
ATOM     32  H48 ZIN A   1      17.983   0.238  13.058  0.00  0.00     0.210 HD
ENDBRANCH  19  31
TORSDOF 5
ENDMDL
