MODEL 1
REMARK VINA RESULT:      -5.2      0.000      0.000
REMARK  2 active torsions:
REMARK  status: ('A' for Active; 'I' for Inactive)
REMARK    1  A    between atoms: N1_1  and  C5_5 
REMARK    2  A    between atoms: C8_7  and  C10_8 
ROOT
ATOM      1  C5  <0> d   1      19.646   3.573  11.721  0.00  0.00     0.192 A 
ATOM      2  C7  <0> d   1      18.228   3.293  12.223  0.00  0.00     0.045 A 
ATOM      3  C8  <0> d   1      18.480   3.525  10.732  0.00  0.00     0.051 A 
ENDROOT
BRANCH   3   4
ATOM      4  C10 <0> d   1      18.392   2.331   9.816  0.00  0.00    -0.052 A 
ATOM      5  C15 <0> d   1      19.095   2.318   8.626  0.00  0.00     0.007 A 
ATOM      6  C14 <0> d   1      19.017   1.222   7.790  0.00  0.00     0.001 A 
ATOM      7  C13 <0> d   1      18.229   0.141   8.138  0.00  0.00     0.000 A 
ATOM      8  C12 <0> d   1      17.522   0.155   9.325  0.00  0.00     0.001 A 
ATOM      9  C11 <0> d   1      17.603   1.250  10.164  0.00  0.00     0.007 A 
ENDBRANCH   3   4
BRANCH   1  10
ATOM     10  N1  <0> d   1      20.594   2.452  11.706  0.00  0.00    -0.074 N 
ATOM     11  H2  <0> d   1      21.325   2.637  11.035  0.00  0.00     0.274 HD
ATOM     12  H3  <0> d   1      20.110   1.604  11.450  0.00  0.00     0.274 HD
ATOM     13  H4  <0> d   1      21.001   2.342  12.624  0.00  0.00     0.274 HD
ENDBRANCH   1  10
TORSDOF 2
ENDMDL
MODEL 2
REMARK VINA RESULT:      -5.1      2.917      5.281
REMARK  2 active torsions:
REMARK  status: ('A' for Active; 'I' for Inactive)
REMARK    1  A    between atoms: N1_1  and  C5_5 
REMARK    2  A    between atoms: C8_7  and  C10_8 
ROOT
ATOM      1  C5  <0> d   1      18.627  -1.530   5.268  0.00  0.00     0.192 A 
ATOM      2  C7  <0> d   1      19.160  -0.229   4.664  0.00  0.00     0.045 A 
ATOM      3  C8  <0> d   1      17.934  -0.202   5.580  0.00  0.00     0.051 A 
ENDROOT
BRANCH   3   4
ATOM      4  C10 <0> d   1      18.113   0.368   6.965  0.00  0.00    -0.052 A 
ATOM      5  C15 <0> d   1      17.378  -0.139   8.021  0.00  0.00     0.007 A 
ATOM      6  C14 <0> d   1      17.545   0.380   9.290  0.00  0.00     0.001 A 
ATOM      7  C13 <0> d   1      18.440   1.412   9.503  0.00  0.00     0.000 A 
ATOM      8  C12 <0> d   1      19.171   1.922   8.447  0.00  0.00     0.001 A 
ATOM      9  C11 <0> d   1      19.007   1.400   7.177  0.00  0.00     0.007 A 
ENDBRANCH   3   4
BRANCH   1  10
ATOM     10  N1  <0> d   1      19.414  -2.153   6.339  0.00  0.00    -0.074 N 
ATOM     11  H2  <0> d   1      18.922  -2.961   6.693  0.00  0.00     0.274 HD
ATOM     12  H3  <0> d   1      19.550  -1.489   7.087  0.00  0.00     0.274 HD
ATOM     13  H4  <0> d   1      20.311  -2.439   5.976  0.00  0.00     0.274 HD
ENDBRANCH   1  10
TORSDOF 2
ENDMDL
MODEL 3
REMARK VINA RESULT:      -5.1      2.011      2.432
REMARK  2 active torsions:
REMARK  status: ('A' for Active; 'I' for Inactive)
REMARK    1  A    between atoms: N1_1  and  C5_5 
REMARK    2  A    between atoms: C8_7  and  C10_8 
ROOT
ATOM      1  C5  <0> d   1      19.958   0.421  10.943  0.00  0.00     0.192 A 
ATOM      2  C7  <0> d   1      18.553  -0.079  11.281  0.00  0.00     0.045 A 
ATOM      3  C8  <0> d   1      18.735   1.107  10.331  0.00  0.00     0.051 A 
ENDROOT
BRANCH   3   4
ATOM      4  C10 <0> d   1      18.465   0.873   8.866  0.00  0.00    -0.052 A 
ATOM      5  C15 <0> d   1      19.213   1.536   7.911  0.00  0.00     0.007 A 
ATOM      6  C14 <0> d   1      18.968   1.319   6.569  0.00  0.00     0.001 A 
ATOM      7  C13 <0> d   1      17.970   0.445   6.181  0.00  0.00     0.000 A 
ATOM      8  C12 <0> d   1      17.220  -0.215   7.136  0.00  0.00     0.001 A 
ATOM      9  C11 <0> d   1      17.466   0.000   8.478  0.00  0.00     0.007 A 
ENDBRANCH   3   4
BRANCH   1  10
ATOM     10  N1  <0> d   1      20.781  -0.414  10.058  0.00  0.00    -0.074 N 
ATOM     11  H2  <0> d   1      20.327  -1.304   9.917  0.00  0.00     0.274 HD
ATOM     12  H3  <0> d   1      21.686  -0.561  10.480  0.00  0.00     0.274 HD
ATOM     13  H4  <0> d   1      20.896   0.050   9.169  0.00  0.00     0.274 HD
ENDBRANCH   1  10
TORSDOF 2
ENDMDL
MODEL 4
REMARK VINA RESULT:      -5.0      2.084      2.592
REMARK  2 active torsions:
REMARK  status: ('A' for Active; 'I' for Inactive)
REMARK    1  A    between atoms: N1_1  and  C5_5 
REMARK    2  A    between atoms: C8_7  and  C10_8 
ROOT
ATOM      1  C5  <0> d   1      20.273   0.373  12.853  0.00  0.00     0.192 A 
ATOM      2  C7  <0> d   1      19.504  -0.903  12.506  0.00  0.00     0.045 A 
ATOM      3  C8  <0> d   1      18.962   0.460  12.069  0.00  0.00     0.051 A 
ENDROOT
BRANCH   3   4
ATOM      4  C10 <0> d   1      19.048   0.806  10.604  0.00  0.00    -0.052 A 
ATOM      5  C15 <0> d   1      18.966   2.126  10.200  0.00  0.00     0.007 A 
ATOM      6  C14 <0> d   1      19.049   2.443   8.858  0.00  0.00     0.001 A 
ATOM      7  C13 <0> d   1      19.204   1.441   7.918  0.00  0.00     0.000 A 
ATOM      8  C12 <0> d   1      19.281   0.121   8.322  0.00  0.00     0.001 A 
ATOM      9  C11 <0> d   1      19.202  -0.196   9.665  0.00  0.00     0.007 A 
ENDBRANCH   3   4
BRANCH   1  10
ATOM     10  N1  <0> d   1      21.519   0.635  12.121  0.00  0.00    -0.074 N 
ATOM     11  H2  <0> d   1      21.714   1.625  12.130  0.00  0.00     0.274 HD
ATOM     12  H3  <0> d   1      21.422   0.320  11.167  0.00  0.00     0.274 HD
ATOM     13  H4  <0> d   1      22.280   0.140  12.563  0.00  0.00     0.274 HD
ENDBRANCH   1  10
TORSDOF 2
ENDMDL
MODEL 5
REMARK VINA RESULT:      -4.9      3.847      5.234
REMARK  2 active torsions:
REMARK  status: ('A' for Active; 'I' for Inactive)
REMARK    1  A    between atoms: N1_1  and  C5_5 
REMARK    2  A    between atoms: C8_7  and  C10_8 
ROOT
ATOM      1  C5  <0> d   1      20.711  -0.251  11.164  0.00  0.00     0.192 A 
ATOM      2  C7  <0> d   1      19.398   0.339  10.648  0.00  0.00     0.045 A 
ATOM      3  C8  <0> d   1      19.377  -0.870  11.586  0.00  0.00     0.051 A 
ENDROOT
BRANCH   3   4
ATOM      4  C10 <0> d   1      18.921  -0.642  13.005  0.00  0.00    -0.052 A 
ATOM      5  C15 <0> d   1      19.423  -1.428  14.026  0.00  0.00     0.007 A 
ATOM      6  C14 <0> d   1      19.008  -1.216  15.327  0.00  0.00     0.001 A 
ATOM      7  C13 <0> d   1      18.086  -0.225  15.607  0.00  0.00     0.000 A 
ATOM      8  C12 <0> d   1      17.582   0.557  14.585  0.00  0.00     0.001 A 
ATOM      9  C11 <0> d   1      17.998   0.348  13.284  0.00  0.00     0.007 A 
ENDBRANCH   3   4
BRANCH   1  10
ATOM     10  N1  <0> d   1      21.451   0.518  12.172  0.00  0.00    -0.074 N 
ATOM     11  H2  <0> d   1      22.376   0.128  12.282  0.00  0.00     0.274 HD
ATOM     12  H3  <0> d   1      20.962   0.476  13.054  0.00  0.00     0.274 HD
ATOM     13  H4  <0> d   1      21.526   1.479  11.875  0.00  0.00     0.274 HD
ENDBRANCH   1  10
TORSDOF 2
ENDMDL
MODEL 6
REMARK VINA RESULT:      -4.9      5.565      7.413
REMARK  2 active torsions:
REMARK  status: ('A' for Active; 'I' for Inactive)
REMARK    1  A    between atoms: N1_1  and  C5_5 
REMARK    2  A    between atoms: C8_7  and  C10_8 
ROOT
ATOM      1  C5  <0> d   1      19.421  -0.635  13.626  0.00  0.00     0.192 A 
ATOM      2  C7  <0> d   1      17.897  -0.678  13.494  0.00  0.00     0.045 A 
ATOM      3  C8  <0> d   1      18.585  -1.391  14.660  0.00  0.00     0.051 A 
ENDROOT
BRANCH   3   4
ATOM      4  C10 <0> d   1      18.450  -0.776  16.030  0.00  0.00    -0.052 A 
ATOM      5  C15 <0> d   1      17.341  -0.010  16.337  0.00  0.00     0.007 A 
ATOM      6  C14 <0> d   1      17.215   0.550  17.594  0.00  0.00     0.001 A 
ATOM      7  C13 <0> d   1      18.202   0.352  18.541  0.00  0.00     0.000 A 
ATOM      8  C12 <0> d   1      19.313  -0.410  18.233  0.00  0.00     0.001 A 
ATOM      9  C11 <0> d   1      19.437  -0.974  16.977  0.00  0.00     0.007 A 
ENDBRANCH   3   4
BRANCH   1  10
ATOM     10  N1  <0> d   1      20.030   0.634  14.043  0.00  0.00    -0.074 N 
ATOM     11  H2  <0> d   1      19.322   1.235  14.438  0.00  0.00     0.274 HD
ATOM     12  H3  <0> d   1      20.446   1.087  13.242  0.00  0.00     0.274 HD
ATOM     13  H4  <0> d   1      20.743   0.455  14.735  0.00  0.00     0.274 HD
ENDBRANCH   1  10
TORSDOF 2
ENDMDL
MODEL 7
REMARK VINA RESULT:      -4.8      2.043      4.286
REMARK  2 active torsions:
REMARK  status: ('A' for Active; 'I' for Inactive)
REMARK    1  A    between atoms: N1_1  and  C5_5 
REMARK    2  A    between atoms: C8_7  and  C10_8 
ROOT
ATOM      1  C5  <0> d   1      18.615  -2.039   7.725  0.00  0.00     0.192 A 
ATOM      2  C7  <0> d   1      18.859  -1.140   6.511  0.00  0.00     0.045 A 
ATOM      3  C8  <0> d   1      17.771  -0.779   7.524  0.00  0.00     0.051 A 
ENDROOT
BRANCH   3   4
ATOM      4  C10 <0> d   1      18.033   0.389   8.441  0.00  0.00    -0.052 A 
ATOM      5  C15 <0> d   1      18.889   1.399   8.046  0.00  0.00     0.007 A 
ATOM      6  C14 <0> d   1      19.127   2.471   8.885  0.00  0.00     0.001 A 
ATOM      7  C13 <0> d   1      18.515   2.529  10.123  0.00  0.00     0.000 A 
ATOM      8  C12 <0> d   1      17.662   1.516  10.520  0.00  0.00     0.001 A 
ATOM      9  C11 <0> d   1      17.422   0.446   9.679  0.00  0.00     0.007 A 
ENDBRANCH   3   4
BRANCH   1  10
ATOM     10  N1  <0> d   1      19.618  -2.019   8.796  0.00  0.00    -0.074 N 
ATOM     11  H2  <0> d   1      19.542  -1.156   9.314  0.00  0.00     0.274 HD
ATOM     12  H3  <0> d   1      20.542  -2.089   8.395  0.00  0.00     0.274 HD
ATOM     13  H4  <0> d   1      19.463  -2.799   9.418  0.00  0.00     0.274 HD
ENDBRANCH   1  10
TORSDOF 2
ENDMDL
MODEL 8
REMARK VINA RESULT:      -4.7      1.366      3.636
REMARK  2 active torsions:
REMARK  status: ('A' for Active; 'I' for Inactive)
REMARK    1  A    between atoms: N1_1  and  C5_5 
REMARK    2  A    between atoms: C8_7  and  C10_8 
ROOT
ATOM      1  C5  <0> d   1      19.375  -0.130   8.561  0.00  0.00     0.192 A 
ATOM      2  C7  <0> d   1      19.251   1.085   7.639  0.00  0.00     0.045 A 
ATOM      3  C8  <0> d   1      18.182   0.817   8.701  0.00  0.00     0.051 A 
ENDROOT
BRANCH   3   4
ATOM      4  C10 <0> d   1      18.152   1.726   9.904  0.00  0.00    -0.052 A 
ATOM      5  C15 <0> d   1      18.502   3.056   9.774  0.00  0.00     0.007 A 
ATOM      6  C14 <0> d   1      18.471   3.890  10.875  0.00  0.00     0.001 A 
ATOM      7  C13 <0> d   1      18.098   3.391  12.109  0.00  0.00     0.000 A 
ATOM      8  C12 <0> d   1      17.752   2.059  12.240  0.00  0.00     0.001 A 
ATOM      9  C11 <0> d   1      17.780   1.226  11.138  0.00  0.00     0.007 A 
ENDBRANCH   3   4
BRANCH   1  10
ATOM     10  N1  <0> d   1      20.403  -0.086   9.608  0.00  0.00    -0.074 N 
ATOM     11  H2  <0> d   1      20.231  -0.818  10.281  0.00  0.00     0.274 HD
ATOM     12  H3  <0> d   1      20.373   0.810  10.072  0.00  0.00     0.274 HD
ATOM     13  H4  <0> d   1      21.313  -0.219   9.192  0.00  0.00     0.274 HD
ENDBRANCH   1  10
TORSDOF 2
ENDMDL
MODEL 9
REMARK VINA RESULT:      -4.7      2.707      4.652
REMARK  2 active torsions:
REMARK  status: ('A' for Active; 'I' for Inactive)
REMARK    1  A    between atoms: N1_1  and  C5_5 
REMARK    2  A    between atoms: C8_7  and  C10_8 
ROOT
ATOM      1  C5  <0> d   1      17.950   0.242   5.642  0.00  0.00     0.192 A 
ATOM      2  C7  <0> d   1      19.252  -0.555   5.728  0.00  0.00     0.045 A 
ATOM      3  C8  <0> d   1      19.199   0.882   6.252  0.00  0.00     0.051 A 
ENDROOT
BRANCH   3   4
ATOM      4  C10 <0> d   1      19.221   1.079   7.747  0.00  0.00    -0.052 A 
ATOM      5  C15 <0> d   1      18.875   2.303   8.288  0.00  0.00     0.007 A 
ATOM      6  C14 <0> d   1      18.892   2.482   9.658  0.00  0.00     0.001 A 
ATOM      7  C13 <0> d   1      19.263   1.440  10.487  0.00  0.00     0.000 A 
ATOM      8  C12 <0> d   1      19.613   0.217   9.946  0.00  0.00     0.001 A 
ATOM      9  C11 <0> d   1      19.593   0.037   8.576  0.00  0.00     0.007 A 
ENDBRANCH   3   4
BRANCH   1  10
ATOM     10  N1  <0> d   1      16.864  -0.132   6.557  0.00  0.00    -0.074 N 
ATOM     11  H2  <0> d   1      16.916  -1.120   6.756  0.00  0.00     0.274 HD
ATOM     12  H3  <0> d   1      15.974   0.078   6.128  0.00  0.00     0.274 HD
ATOM     13  H4  <0> d   1      16.953   0.389   7.417  0.00  0.00     0.274 HD
ENDBRANCH   1  10
TORSDOF 2
ENDMDL
