MODEL 1
REMARK VINA RESULT:      -7.8      0.000      0.000
REMARK  3 active torsions:
REMARK  status: ('A' for Active; 'I' for Inactive)
REMARK    1  A    between atoms: N5_5  and  C6_6 
REMARK    2  A    between atoms: C6_6  and  C8_7 
REMARK    3  A    between atoms: C6_6  and  C14_13 
ROOT
ATOM      1  C6  <0> d   1      19.322  -0.767  12.891  0.00  0.00     0.289 C 
ENDROOT
BRANCH   1   2
ATOM      2  N5  <0> d   1      18.715   0.362  12.172  0.00  0.00     0.105 N 
ATOM      3  C4  <0> d   1      18.989   0.277  10.731  0.00  0.00     0.304 C 
ATOM      4  C3  <0> d   1      18.276   1.423  10.010  0.00  0.00     0.302 C 
ATOM      5  N2  <0> d   1      18.740   2.706  10.557  0.00  0.00     0.087 N 
ATOM      6  C1  <0> d   1      18.133   3.835   9.838  0.00  0.00     0.310 C 
ATOM      7  C22 <0> d   1      18.465   2.791  11.998  0.00  0.00     0.302 C 
ATOM      8  C21 <0> d   1      19.178   1.645  12.719  0.00  0.00     0.304 C 
ENDBRANCH   1   2
BRANCH   1   9
ATOM      9  C8  <0> d   1      18.823  -0.783  14.313  0.00  0.00    -0.021 A 
ATOM     10  C13 <0> d   1      19.505  -1.504  15.276  0.00  0.00     0.010 A 
ATOM     11  C12 <0> d   1      19.049  -1.515  16.582  0.00  0.00     0.001 A 
ATOM     12  C11 <0> d   1      17.909  -0.813  16.922  0.00  0.00     0.000 A 
ATOM     13  C10 <0> d   1      17.223  -0.096  15.957  0.00  0.00     0.001 A 
ATOM     14  C9  <0> d   1      17.681  -0.082  14.654  0.00  0.00     0.010 A 
ENDBRANCH   1   9
BRANCH   1  15
ATOM     15  C14 <0> d   1      18.944  -2.058  12.211  0.00  0.00    -0.021 A 
ATOM     16  C20 <0> d   1      17.618  -2.330  11.933  0.00  0.00     0.011 A 
ATOM     17  C19 <0> d   1      17.272  -3.510  11.304  0.00  0.00     0.024 A 
ATOM     18  C17 <0> d   1      18.252  -4.426  10.963  0.00  0.00     0.034 A 
ATOM     19  C16 <0> d   1      19.578  -4.155  11.247  0.00  0.00     0.024 A 
ATOM     20 Cl18 <0> d   1      17.817  -5.913  10.179  0.00  0.00    -0.084 Cl
ATOM     21  C15 <0> d   1      19.924  -2.971  11.871  0.00  0.00     0.011 A 
ENDBRANCH   1  15
TORSDOF 3
ENDMDL
MODEL 2
REMARK VINA RESULT:      -7.4      3.977      7.558
REMARK  3 active torsions:
REMARK  status: ('A' for Active; 'I' for Inactive)
REMARK    1  A    between atoms: N5_5  and  C6_6 
REMARK    2  A    between atoms: C6_6  and  C8_7 
REMARK    3  A    between atoms: C6_6  and  C14_13 
ROOT
ATOM      1  C6  <0> d   1      19.059  -0.869   8.646  0.00  0.00     0.289 C 
ENDROOT
BRANCH   1   2
ATOM      2  N5  <0> d   1      18.380  -1.939   9.390  0.00  0.00     0.105 N 
ATOM      3  C4  <0> d   1      19.163  -2.342  10.566  0.00  0.00     0.304 C 
ATOM      4  C3  <0> d   1      18.387  -3.399  11.355  0.00  0.00     0.302 C 
ATOM      5  N2  <0> d   1      18.115  -4.553  10.487  0.00  0.00     0.087 N 
ATOM      6  C1  <0> d   1      17.436  -5.622  11.231  0.00  0.00     0.310 C 
ATOM      7  C22 <0> d   1      17.332  -4.150   9.311  0.00  0.00     0.302 C 
ATOM      8  C21 <0> d   1      18.108  -3.093   8.522  0.00  0.00     0.304 C 
ENDBRANCH   1   2
BRANCH   1   9
ATOM      9  C8  <0> d   1      18.636  -0.916   7.200  0.00  0.00    -0.021 A 
ATOM     10  C13 <0> d   1      19.451  -1.522   6.262  0.00  0.00     0.010 A 
ATOM     11  C12 <0> d   1      19.061  -1.569   4.936  0.00  0.00     0.001 A 
ATOM     12  C11 <0> d   1      17.862  -1.003   4.548  0.00  0.00     0.000 A 
ATOM     13  C10 <0> d   1      17.049  -0.392   5.486  0.00  0.00     0.001 A 
ATOM     14  C9  <0> d   1      17.437  -0.349   6.811  0.00  0.00     0.010 A 
ENDBRANCH   1   9
BRANCH   1  15
ATOM     15  C14 <0> d   1      18.686   0.467   9.236  0.00  0.00    -0.021 A 
ATOM     16  C20 <0> d   1      17.751   0.539  10.250  0.00  0.00     0.011 A 
ATOM     17  C19 <0> d   1      17.414   1.763  10.794  0.00  0.00     0.024 A 
ATOM     18  C17 <0> d   1      18.006   2.919  10.316  0.00  0.00     0.034 A 
ATOM     19  C16 <0> d   1      18.938   2.847   9.297  0.00  0.00     0.024 A 
ATOM     20 Cl18 <0> d   1      17.577   4.459  10.995  0.00  0.00    -0.084 Cl
ATOM     21  C15 <0> d   1      19.278   1.621   8.757  0.00  0.00     0.011 A 
ENDBRANCH   1  15
TORSDOF 3
ENDMDL
MODEL 3
REMARK VINA RESULT:      -7.3      1.670      4.743
REMARK  3 active torsions:
REMARK  status: ('A' for Active; 'I' for Inactive)
REMARK    1  A    between atoms: N5_5  and  C6_6 
REMARK    2  A    between atoms: C6_6  and  C8_7 
REMARK    3  A    between atoms: C6_6  and  C14_13 
ROOT
ATOM      1  C6  <0> d   1      17.855  -0.199  12.917  0.00  0.00     0.289 C 
ENDROOT
BRANCH   1   2
ATOM      2  N5  <0> d   1      18.502  -0.133  14.235  0.00  0.00     0.105 N 
ATOM      3  C4  <0> d   1      18.255  -1.360  15.005  0.00  0.00     0.304 C 
ATOM      4  C3  <0> d   1      19.009  -1.285  16.334  0.00  0.00     0.302 C 
ATOM      5  N2  <0> d   1      18.564  -0.101  17.081  0.00  0.00     0.087 N 
ATOM      6  C1  <0> d   1      19.211  -0.035  18.398  0.00  0.00     0.310 C 
ATOM      7  C22 <0> d   1      18.811   1.127  16.311  0.00  0.00     0.302 C 
ATOM      8  C21 <0> d   1      18.057   1.052  14.981  0.00  0.00     0.304 C 
ENDBRANCH   1   2
BRANCH   1   9
ATOM      9  C8  <0> d   1      18.258   1.001  12.099  0.00  0.00    -0.021 A 
ATOM     10  C13 <0> d   1      17.394   1.511  11.149  0.00  0.00     0.010 A 
ATOM     11  C12 <0> d   1      17.762   2.614  10.401  0.00  0.00     0.001 A 
ATOM     12  C11 <0> d   1      18.997   3.202  10.599  0.00  0.00     0.000 A 
ATOM     13  C10 <0> d   1      19.864   2.689  11.546  0.00  0.00     0.001 A 
ATOM     14  C9  <0> d   1      19.494   1.589  12.296  0.00  0.00     0.010 A 
ENDBRANCH   1   9
BRANCH   1  15
ATOM     15  C14 <0> d   1      18.285  -1.458  12.209  0.00  0.00    -0.021 A 
ATOM     16  C20 <0> d   1      19.617  -1.826  12.201  0.00  0.00     0.011 A 
ATOM     17  C19 <0> d   1      20.009  -2.984  11.556  0.00  0.00     0.024 A 
ATOM     18  C17 <0> d   1      19.071  -3.767  10.908  0.00  0.00     0.034 A 
ATOM     19  C16 <0> d   1      17.739  -3.395  10.912  0.00  0.00     0.024 A 
ATOM     20 Cl18 <0> d   1      19.565  -5.218  10.092  0.00  0.00    -0.084 Cl
ATOM     21  C15 <0> d   1      17.346  -2.240  11.562  0.00  0.00     0.011 A 
ENDBRANCH   1  15
TORSDOF 3
ENDMDL
MODEL 4
REMARK VINA RESULT:      -7.3      2.768      3.862
REMARK  3 active torsions:
REMARK  status: ('A' for Active; 'I' for Inactive)
REMARK    1  A    between atoms: N5_5  and  C6_6 
REMARK    2  A    between atoms: C6_6  and  C8_7 
REMARK    3  A    between atoms: C6_6  and  C14_13 
ROOT
ATOM      1  C6  <0> d   1      18.884   1.814  12.952  0.00  0.00     0.289 C 
ENDROOT
BRANCH   1   2
ATOM      2  N5  <0> d   1      18.033   2.944  13.350  0.00  0.00     0.105 N 
ATOM      3  C4  <0> d   1      17.773   3.835  12.210  0.00  0.00     0.304 C 
ATOM      4  C3  <0> d   1      16.822   4.951  12.646  0.00  0.00     0.302 C 
ATOM      5  N2  <0> d   1      17.420   5.693  13.764  0.00  0.00     0.087 N 
ATOM      6  C1  <0> d   1      16.569   6.823  14.162  0.00  0.00     0.310 C 
ATOM      7  C22 <0> d   1      17.680   4.802  14.903  0.00  0.00     0.302 C 
ATOM      8  C21 <0> d   1      18.632   3.686  14.468  0.00  0.00     0.304 C 
ENDBRANCH   1   2
BRANCH   1   9
ATOM      9  C8  <0> d   1      18.728   0.693  13.946  0.00  0.00    -0.021 A 
ATOM     10  C13 <0> d   1      19.638  -0.347  13.962  0.00  0.00     0.010 A 
ATOM     11  C12 <0> d   1      19.496  -1.374  14.878  0.00  0.00     0.001 A 
ATOM     12  C11 <0> d   1      18.441  -1.365  15.769  0.00  0.00     0.000 A 
ATOM     13  C10 <0> d   1      17.527  -0.327  15.749  0.00  0.00     0.001 A 
ATOM     14  C9  <0> d   1      17.671   0.701  14.837  0.00  0.00     0.010 A 
ENDBRANCH   1   9
BRANCH   1  15
ATOM     15  C14 <0> d   1      18.475   1.334  11.583  0.00  0.00    -0.021 A 
ATOM     16  C20 <0> d   1      19.258   1.630  10.484  0.00  0.00     0.011 A 
ATOM     17  C19 <0> d   1      18.885   1.185   9.230  0.00  0.00     0.024 A 
ATOM     18  C17 <0> d   1      17.722   0.452   9.074  0.00  0.00     0.034 A 
ATOM     19  C16 <0> d   1      16.936   0.161  10.174  0.00  0.00     0.024 A 
ATOM     20 Cl18 <0> d   1      17.249  -0.101   7.497  0.00  0.00    -0.084 Cl
ATOM     21  C15 <0> d   1      17.313   0.602  11.428  0.00  0.00     0.011 A 
ENDBRANCH   1  15
TORSDOF 3
ENDMDL
MODEL 5
REMARK VINA RESULT:      -7.2      2.611      5.652
REMARK  3 active torsions:
REMARK  status: ('A' for Active; 'I' for Inactive)
REMARK    1  A    between atoms: N5_5  and  C6_6 
REMARK    2  A    between atoms: C6_6  and  C8_7 
REMARK    3  A    between atoms: C6_6  and  C14_13 
ROOT
ATOM      1  C6  <0> d   1      19.214  -0.458  12.050  0.00  0.00     0.289 C 
ENDROOT
BRANCH   1   2
ATOM      2  N5  <0> d   1      18.379  -1.408  11.303  0.00  0.00     0.105 N 
ATOM      3  C4  <0> d   1      18.183  -2.650  12.065  0.00  0.00     0.304 C 
ATOM      4  C3  <0> d   1      17.246  -3.579  11.290  0.00  0.00     0.302 C 
ATOM      5  N2  <0> d   1      17.822  -3.861   9.968  0.00  0.00     0.087 N 
ATOM      6  C1  <0> d   1      16.987  -4.811   9.221  0.00  0.00     0.310 C 
ATOM      7  C22 <0> d   1      18.018  -2.619   9.207  0.00  0.00     0.302 C 
ATOM      8  C21 <0> d   1      18.955  -1.691   9.982  0.00  0.00     0.304 C 
ENDBRANCH   1   2
BRANCH   1   9
ATOM      9  C8  <0> d   1      19.014   0.929  11.497  0.00  0.00    -0.021 A 
ATOM     10  C13 <0> d   1      17.900   1.212  10.729  0.00  0.00     0.010 A 
ATOM     11  C12 <0> d   1      17.714   2.487  10.225  0.00  0.00     0.001 A 
ATOM     12  C11 <0> d   1      18.646   3.474  10.482  0.00  0.00     0.000 A 
ATOM     13  C10 <0> d   1      19.763   3.189  11.245  0.00  0.00     0.001 A 
ATOM     14  C9  <0> d   1      19.946   1.917  11.752  0.00  0.00     0.010 A 
ENDBRANCH   1   9
BRANCH   1  15
ATOM     15  C14 <0> d   1      18.822  -0.481  13.506  0.00  0.00    -0.021 A 
ATOM     16  C20 <0> d   1      19.542  -1.246  14.403  0.00  0.00     0.011 A 
ATOM     17  C19 <0> d   1      19.187  -1.262  15.738  0.00  0.00     0.024 A 
ATOM     18  C17 <0> d   1      18.102  -0.521  16.174  0.00  0.00     0.034 A 
ATOM     19  C16 <0> d   1      17.379   0.240  15.274  0.00  0.00     0.024 A 
ATOM     20 Cl18 <0> d   1      17.651  -0.547  17.851  0.00  0.00    -0.084 Cl
ATOM     21  C15 <0> d   1      17.739   0.260  13.940  0.00  0.00     0.011 A 
ENDBRANCH   1  15
TORSDOF 3
ENDMDL
MODEL 6
REMARK VINA RESULT:      -7.1      2.370      4.711
REMARK  3 active torsions:
REMARK  status: ('A' for Active; 'I' for Inactive)
REMARK    1  A    between atoms: N5_5  and  C6_6 
REMARK    2  A    between atoms: C6_6  and  C8_7 
REMARK    3  A    between atoms: C6_6  and  C14_13 
ROOT
ATOM      1  C6  <0> d   1      17.660  -1.058  12.694  0.00  0.00     0.289 C 
ENDROOT
BRANCH   1   2
ATOM      2  N5  <0> d   1      18.102   0.083  11.881  0.00  0.00     0.105 N 
ATOM      3  C4  <0> d   1      17.873   1.353  12.586  0.00  0.00     0.304 C 
ATOM      4  C3  <0> d   1      18.418   2.507  11.743  0.00  0.00     0.302 C 
ATOM      5  N2  <0> d   1      17.752   2.510  10.433  0.00  0.00     0.087 N 
ATOM      6  C1  <0> d   1      18.194   3.651   9.620  0.00  0.00     0.310 C 
ATOM      7  C22 <0> d   1      17.981   1.240   9.727  0.00  0.00     0.302 C 
ATOM      8  C21 <0> d   1      17.437   0.086  10.571  0.00  0.00     0.304 C 
ENDBRANCH   1   2
BRANCH   1   9
ATOM      9  C8  <0> d   1      18.305  -2.320  12.181  0.00  0.00    -0.021 A 
ATOM     10  C13 <0> d   1      19.667  -2.353  11.949  0.00  0.00     0.010 A 
ATOM     11  C12 <0> d   1      20.260  -3.512  11.482  0.00  0.00     0.001 A 
ATOM     12  C11 <0> d   1      19.489  -4.633  11.240  0.00  0.00     0.000 A 
ATOM     13  C10 <0> d   1      18.125  -4.597  11.466  0.00  0.00     0.001 A 
ATOM     14  C9  <0> d   1      17.535  -3.440  11.937  0.00  0.00     0.010 A 
ENDBRANCH   1   9
BRANCH   1  15
ATOM     15  C14 <0> d   1      18.060  -0.837  14.130  0.00  0.00    -0.021 A 
ATOM     16  C20 <0> d   1      19.178  -1.468  14.642  0.00  0.00     0.011 A 
ATOM     17  C19 <0> d   1      19.548  -1.260  15.957  0.00  0.00     0.024 A 
ATOM     18  C17 <0> d   1      18.792  -0.429  16.765  0.00  0.00     0.034 A 
ATOM     19  C16 <0> d   1      17.670   0.198  16.254  0.00  0.00     0.024 A 
ATOM     20 Cl18 <0> d   1      19.252  -0.174  18.420  0.00  0.00    -0.084 Cl
ATOM     21  C15 <0> d   1      17.304  -0.006  14.937  0.00  0.00     0.011 A 
ENDBRANCH   1  15
TORSDOF 3
ENDMDL
MODEL 7
REMARK VINA RESULT:      -7.1      2.747      5.028
REMARK  3 active torsions:
REMARK  status: ('A' for Active; 'I' for Inactive)
REMARK    1  A    between atoms: N5_5  and  C6_6 
REMARK    2  A    between atoms: C6_6  and  C8_7 
REMARK    3  A    between atoms: C6_6  and  C14_13 
ROOT
ATOM      1  C6  <0> d   1      19.258   1.909  11.415  0.00  0.00     0.289 C 
ENDROOT
BRANCH   1   2
ATOM      2  N5  <0> d   1      18.830   1.240  10.179  0.00  0.00     0.105 N 
ATOM      3  C4  <0> d   1      19.106  -0.202  10.237  0.00  0.00     0.304 C 
ATOM      4  C3  <0> d   1      18.574  -0.872   8.969  0.00  0.00     0.302 C 
ATOM      5  N2  <0> d   1      19.213  -0.265   7.793  0.00  0.00     0.087 N 
ATOM      6  C1  <0> d   1      18.784  -0.934   6.557  0.00  0.00     0.310 C 
ATOM      7  C22 <0> d   1      18.937   1.178   7.735  0.00  0.00     0.302 C 
ATOM      8  C21 <0> d   1      19.468   1.847   9.003  0.00  0.00     0.304 C 
ENDBRANCH   1   2
BRANCH   1   9
ATOM      9  C8  <0> d   1      18.482   3.189  11.589  0.00  0.00    -0.021 A 
ATOM     10  C13 <0> d   1      18.735   4.007  12.673  0.00  0.00     0.010 A 
ATOM     11  C12 <0> d   1      18.025   5.184  12.830  0.00  0.00     0.001 A 
ATOM     12  C11 <0> d   1      17.059   5.537  11.907  0.00  0.00     0.000 A 
ATOM     13  C10 <0> d   1      16.803   4.715  10.825  0.00  0.00     0.001 A 
ATOM     14  C9  <0> d   1      17.515   3.541  10.667  0.00  0.00     0.010 A 
ENDBRANCH   1   9
BRANCH   1  15
ATOM     15  C14 <0> d   1      19.002   1.002  12.592  0.00  0.00    -0.021 A 
ATOM     16  C20 <0> d   1      17.707   0.740  12.993  0.00  0.00     0.011 A 
ATOM     17  C19 <0> d   1      17.472  -0.096  14.068  0.00  0.00     0.024 A 
ATOM     18  C17 <0> d   1      18.535  -0.661  14.750  0.00  0.00     0.034 A 
ATOM     19  C16 <0> d   1      19.832  -0.394  14.351  0.00  0.00     0.024 A 
ATOM     20 Cl18 <0> d   1      18.241  -1.706  16.105  0.00  0.00    -0.084 Cl
ATOM     21  C15 <0> d   1      20.065   0.438  13.272  0.00  0.00     0.011 A 
ENDBRANCH   1  15
TORSDOF 3
ENDMDL
MODEL 8
REMARK VINA RESULT:      -7.1      3.051      4.501
REMARK  3 active torsions:
REMARK  status: ('A' for Active; 'I' for Inactive)
REMARK    1  A    between atoms: N5_5  and  C6_6 
REMARK    2  A    between atoms: C6_6  and  C8_7 
REMARK    3  A    between atoms: C6_6  and  C14_13 
ROOT
ATOM      1  C6  <0> d   1      19.255  -0.340   9.582  0.00  0.00     0.289 C 
ENDROOT
BRANCH   1   2
ATOM      2  N5  <0> d   1      18.552   0.837  10.111  0.00  0.00     0.105 N 
ATOM      3  C4  <0> d   1      19.120   2.079   9.567  0.00  0.00     0.304 C 
ATOM      4  C3  <0> d   1      18.312   3.273  10.079  0.00  0.00     0.302 C 
ATOM      5  N2  <0> d   1      18.338   3.286  11.548  0.00  0.00     0.087 N 
ATOM      6  C1  <0> d   1      17.635   4.463  12.076  0.00  0.00     0.310 C 
ATOM      7  C22 <0> d   1      17.770   2.044  12.092  0.00  0.00     0.302 C 
ATOM      8  C21 <0> d   1      18.578   0.850  11.580  0.00  0.00     0.304 C 
ENDBRANCH   1   2
BRANCH   1   9
ATOM      9  C8  <0> d   1      18.964  -1.533  10.455  0.00  0.00    -0.021 A 
ATOM     10  C13 <0> d   1      20.003  -2.219  11.055  0.00  0.00     0.010 A 
ATOM     11  C12 <0> d   1      19.735  -3.312  11.860  0.00  0.00     0.001 A 
ATOM     12  C11 <0> d   1      18.430  -3.722  12.056  0.00  0.00     0.000 A 
ATOM     13  C10 <0> d   1      17.391  -3.039  11.451  0.00  0.00     0.001 A 
ATOM     14  C9  <0> d   1      17.659  -1.945  10.650  0.00  0.00     0.010 A 
ENDBRANCH   1   9
BRANCH   1  15
ATOM     15  C14 <0> d   1      18.785  -0.617   8.177  0.00  0.00    -0.021 A 
ATOM     16  C20 <0> d   1      19.396  -1.602   7.426  0.00  0.00     0.011 A 
ATOM     17  C19 <0> d   1      18.960  -1.860   6.140  0.00  0.00     0.024 A 
ATOM     18  C17 <0> d   1      17.920  -1.124   5.601  0.00  0.00     0.034 A 
ATOM     19  C16 <0> d   1      17.312  -0.135   6.352  0.00  0.00     0.024 A 
ATOM     20 Cl18 <0> d   1      17.377  -1.443   3.983  0.00  0.00    -0.084 Cl
ATOM     21  C15 <0> d   1      17.745   0.119   7.641  0.00  0.00     0.011 A 
ENDBRANCH   1  15
TORSDOF 3
ENDMDL
MODEL 9
REMARK VINA RESULT:      -7.0      2.619      5.193
REMARK  3 active torsions:
REMARK  status: ('A' for Active; 'I' for Inactive)
REMARK    1  A    between atoms: N5_5  and  C6_6 
REMARK    2  A    between atoms: C6_6  and  C8_7 
REMARK    3  A    between atoms: C6_6  and  C14_13 
ROOT
ATOM      1  C6  <0> d   1      17.666   0.374   9.975  0.00  0.00     0.289 C 
ENDROOT
BRANCH   1   2
ATOM      2  N5  <0> d   1      18.376   1.467  10.653  0.00  0.00     0.105 N 
ATOM      3  C4  <0> d   1      18.439   1.234  12.103  0.00  0.00     0.304 C 
ATOM      4  C3  <0> d   1      19.252   2.351  12.761  0.00  0.00     0.302 C 
ATOM      5  N2  <0> d   1      18.628   3.647  12.466  0.00  0.00     0.087 N 
ATOM      6  C1  <0> d   1      19.338   4.740  13.145  0.00  0.00     0.310 C 
ATOM      7  C22 <0> d   1      18.565   3.880  11.016  0.00  0.00     0.302 C 
ATOM      8  C21 <0> d   1      17.752   2.764  10.358  0.00  0.00     0.304 C 
ENDBRANCH   1   2
BRANCH   1   9
ATOM      9  C8  <0> d   1      17.863   0.496   8.485  0.00  0.00    -0.021 A 
ATOM     10  C13 <0> d   1      17.007  -0.161   7.620  0.00  0.00     0.010 A 
ATOM     11  C12 <0> d   1      17.186  -0.045   6.254  0.00  0.00     0.001 A 
ATOM     12  C11 <0> d   1      18.223   0.718   5.754  0.00  0.00     0.000 A 
ATOM     13  C10 <0> d   1      19.082   1.370   6.620  0.00  0.00     0.001 A 
ATOM     14  C9  <0> d   1      18.901   1.258   7.985  0.00  0.00     0.010 A 
ENDBRANCH   1   9
BRANCH   1  15
ATOM     15  C14 <0> d   1      18.211  -0.950  10.448  0.00  0.00    -0.021 A 
ATOM     16  C20 <0> d   1      17.377  -1.857  11.072  0.00  0.00     0.011 A 
ATOM     17  C19 <0> d   1      17.876  -3.073  11.500  0.00  0.00     0.024 A 
ATOM     18  C17 <0> d   1      19.213  -3.376  11.314  0.00  0.00     0.034 A 
ATOM     19  C16 <0> d   1      20.048  -2.465  10.693  0.00  0.00     0.024 A 
ATOM     20 Cl18 <0> d   1      19.841  -4.901  11.858  0.00  0.00    -0.084 Cl
ATOM     21  C15 <0> d   1      19.547  -1.252  10.260  0.00  0.00     0.011 A 
ENDBRANCH   1  15
TORSDOF 3
ENDMDL
