MODEL 1
REMARK VINA RESULT:      -7.7      0.000      0.000
REMARK  7 active torsions:
REMARK  status: ('A' for Active; 'I' for Inactive)
REMARK    1  A    between atoms: C2_2  and  C3_3 
REMARK    2  A    between atoms: C6_6  and  C7_7 
REMARK    3  A    between atoms: C7_7  and  C8_8 
REMARK    4  A    between atoms: C8_8  and  O9_9 
REMARK    5  A    between atoms: O9_9  and  C10_10 
REMARK    6  A    between atoms: C13_13  and  C14_14 
REMARK    7  A    between atoms: C14_14  and  C15_15 
ROOT
ATOM      1  C10 <0> d   1      18.377  -0.554  10.601  0.00  0.00     0.068 A 
ATOM      2  C11 <0> d   1      19.502  -1.116  11.188  0.00  0.00     0.037 A 
ATOM      3  C12 <0> d   1      19.523  -1.356  12.548  0.00  0.00     0.010 A 
ATOM      4  C13 <0> d   1      18.424  -1.038  13.324  0.00  0.00    -0.056 A 
ATOM      5  C23 <0> d   1      17.302  -0.478  12.741  0.00  0.00     0.010 A 
ATOM      6  C24 <0> d   1      17.278  -0.232  11.382  0.00  0.00     0.037 A 
ENDROOT
BRANCH   1   7
ATOM      7  O9  <0> d   1      18.355  -0.318   9.263  0.00  0.00    -0.351 OA
BRANCH   7   8
ATOM      8  C8  <0> d   1      18.045   1.013   8.844  0.00  0.00     0.181 C 
BRANCH   8   9
ATOM      9  C7  <0> d   1      19.240   1.927   9.122  0.00  0.00     0.086 C 
BRANCH   9  10
ATOM     10  C6  <0> d   1      18.911   2.850  10.267  0.00  0.00     0.036 A 
ATOM     11  C5  <0> d   1      17.720   3.550  10.259  0.00  0.00     0.028 A 
ATOM     12  C4  <0> d   1      17.427   4.397  11.318  0.00  0.00     0.010 A 
ATOM     13  C3  <0> d   1      18.348   4.508  12.348  0.00  0.00    -0.041 A 
ATOM     14  C26 <0> d   1      19.522   3.781  12.284  0.00  0.00     0.124 A 
ATOM     15  N25 <0> d   1      19.764   2.981  11.264  0.00  0.00    -0.265 NA
BRANCH  13  16
ATOM     16  C2  <0> d   1      18.076   5.416  13.520  0.00  0.00     0.035 C 
ATOM     17  C1  <0> d   1      16.591   5.784  13.546  0.00  0.00     0.010 C 
ENDBRANCH  13  16
ENDBRANCH   9  10
ENDBRANCH   8   9
ENDBRANCH   7   8
ENDBRANCH   1   7
BRANCH   4  18
ATOM     18  C14 <0> d   1      18.449  -1.301  14.808  0.00  0.00     0.063 C 
BRANCH  18  19
ATOM     19  C15 <0> d   1      17.870  -0.094  15.550  0.00  0.00     0.153 A 
ATOM     20  C21 <0> d   1      17.420  -0.485  16.940  0.00  0.00     0.239 A 
ATOM     21  N20 <0> d   1      18.066   0.151  17.906  0.00  0.00    -0.287 N 
ATOM     22  O22 <0> d   1      16.553  -1.307  17.152  0.00  0.00    -0.272 OA
ATOM     23  C18 <0> d   1      19.015   1.049  17.631  0.00  0.00     0.287 A 
ATOM     24  H42 <0> d   1      17.844  -0.037  18.831  0.00  0.00     0.172 HD
ATOM     25  S17 <0> d   1      19.167   1.150  15.867  0.00  0.00    -0.054 SA
ATOM     26  O19 <0> d   1      19.659   1.684  18.444  0.00  0.00    -0.260 OA
ENDBRANCH  18  19
ENDBRANCH   4  18
TORSDOF 7
ENDMDL
MODEL 2
REMARK VINA RESULT:      -7.6      4.916      7.938
REMARK  7 active torsions:
REMARK  status: ('A' for Active; 'I' for Inactive)
REMARK    1  A    between atoms: C2_2  and  C3_3 
REMARK    2  A    between atoms: C6_6  and  C7_7 
REMARK    3  A    between atoms: C7_7  and  C8_8 
REMARK    4  A    between atoms: C8_8  and  O9_9 
REMARK    5  A    between atoms: O9_9  and  C10_10 
REMARK    6  A    between atoms: C13_13  and  C14_14 
REMARK    7  A    between atoms: C14_14  and  C15_15 
ROOT
ATOM      1  C10 <0> d   1      18.831  -2.704  12.189  0.00  0.00     0.068 A 
ATOM      2  C11 <0> d   1      17.625  -2.962  11.553  0.00  0.00     0.037 A 
ATOM      3  C12 <0> d   1      17.542  -3.973  10.616  0.00  0.00     0.010 A 
ATOM      4  C13 <0> d   1      18.659  -4.729  10.313  0.00  0.00    -0.056 A 
ATOM      5  C23 <0> d   1      19.862  -4.474  10.946  0.00  0.00     0.010 A 
ATOM      6  C24 <0> d   1      19.951  -3.460  11.880  0.00  0.00     0.037 A 
ENDROOT
BRANCH   1   7
ATOM      7  O9  <0> d   1      18.914  -1.709  13.111  0.00  0.00    -0.351 OA
BRANCH   7   8
ATOM      8  C8  <0> d   1      18.583  -0.389  12.674  0.00  0.00     0.181 C 
BRANCH   8   9
ATOM      9  C7  <0> d   1      19.820   0.272  12.063  0.00  0.00     0.086 C 
BRANCH   9  10
ATOM     10  C6  <0> d   1      19.567   0.558  10.605  0.00  0.00     0.036 A 
ATOM     11  C5  <0> d   1      19.201   1.831  10.213  0.00  0.00     0.028 A 
ATOM     12  C4  <0> d   1      18.971   2.084   8.869  0.00  0.00     0.010 A 
ATOM     13  C3  <0> d   1      19.118   1.042   7.967  0.00  0.00    -0.041 A 
ATOM     14  C26 <0> d   1      19.481  -0.207   8.434  0.00  0.00     0.124 A 
ATOM     15  N25 <0> d   1      19.697  -0.410   9.718  0.00  0.00    -0.265 NA
BRANCH  13  16
ATOM     16  C2  <0> d   1      18.878   1.266   6.496  0.00  0.00     0.035 C 
ATOM     17  C1  <0> d   1      17.794   0.304   6.003  0.00  0.00     0.010 C 
ENDBRANCH  13  16
ENDBRANCH   9  10
ENDBRANCH   8   9
ENDBRANCH   7   8
ENDBRANCH   1   7
BRANCH   4  18
ATOM     18  C14 <0> d   1      18.567  -5.833   9.291  0.00  0.00     0.063 C 
BRANCH  18  19
ATOM     19  C15 <0> d   1      18.116  -5.250   7.950  0.00  0.00     0.153 A 
ATOM     20  C21 <0> d   1      19.280  -5.154   6.989  0.00  0.00     0.239 A 
ATOM     21  N20 <0> d   1      19.126  -5.885   5.894  0.00  0.00    -0.287 N 
ATOM     22  O22 <0> d   1      20.265  -4.478   7.201  0.00  0.00    -0.272 OA
ATOM     23  C18 <0> d   1      18.028  -6.618   5.698  0.00  0.00     0.287 A 
ATOM     24  H42 <0> d   1      19.825  -5.887   5.221  0.00  0.00     0.172 HD
ATOM     25  S17 <0> d   1      16.970  -6.389   7.103  0.00  0.00    -0.054 SA
ATOM     26  O19 <0> d   1      17.794  -7.315   4.730  0.00  0.00    -0.260 OA
ENDBRANCH  18  19
ENDBRANCH   4  18
TORSDOF 7
ENDMDL
MODEL 3
REMARK VINA RESULT:      -7.6      2.483      5.194
REMARK  7 active torsions:
REMARK  status: ('A' for Active; 'I' for Inactive)
REMARK    1  A    between atoms: C2_2  and  C3_3 
REMARK    2  A    between atoms: C6_6  and  C7_7 
REMARK    3  A    between atoms: C7_7  and  C8_8 
REMARK    4  A    between atoms: C8_8  and  O9_9 
REMARK    5  A    between atoms: O9_9  and  C10_10 
REMARK    6  A    between atoms: C13_13  and  C14_14 
REMARK    7  A    between atoms: C14_14  and  C15_15 
ROOT
ATOM      1  C10 <0> d   1      18.421   2.893  10.333  0.00  0.00     0.068 A 
ATOM      2  C11 <0> d   1      19.622   2.824  11.023  0.00  0.00     0.037 A 
ATOM      3  C12 <0> d   1      19.874   3.702  12.059  0.00  0.00     0.010 A 
ATOM      4  C13 <0> d   1      18.928   4.647  12.411  0.00  0.00    -0.056 A 
ATOM      5  C23 <0> d   1      17.729   4.717  11.725  0.00  0.00     0.010 A 
ATOM      6  C24 <0> d   1      17.476   3.845  10.684  0.00  0.00     0.037 A 
ENDROOT
BRANCH   1   7
ATOM      7  O9  <0> d   1      18.172   2.030   9.313  0.00  0.00    -0.351 OA
BRANCH   7   8
ATOM      8  C8  <0> d   1      18.413   0.643   9.561  0.00  0.00     0.181 C 
BRANCH   8   9
ATOM      9  C7  <0> d   1      17.207   0.038  10.281  0.00  0.00     0.086 C 
BRANCH   9  10
ATOM     10  C6  <0> d   1      17.591  -0.316  11.695  0.00  0.00     0.036 A 
ATOM     11  C5  <0> d   1      17.247   0.534  12.729  0.00  0.00     0.028 A 
ATOM     12  C4  <0> d   1      17.607   0.200  14.026  0.00  0.00     0.010 A 
ATOM     13  C3  <0> d   1      18.301  -0.981  14.235  0.00  0.00    -0.041 A 
ATOM     14  C26 <0> d   1      18.616  -1.778  13.151  0.00  0.00     0.124 A 
ATOM     15  N25 <0> d   1      18.254  -1.432  11.931  0.00  0.00    -0.265 NA
BRANCH  13  16
ATOM     16  C2  <0> d   1      18.715  -1.387  15.626  0.00  0.00     0.035 C 
ATOM     17  C1  <0> d   1      17.699  -0.852  16.637  0.00  0.00     0.010 C 
ENDBRANCH  13  16
ENDBRANCH   9  10
ENDBRANCH   8   9
ENDBRANCH   7   8
ENDBRANCH   1   7
BRANCH   4  18
ATOM     18  C14 <0> d   1      19.204   5.603  13.543  0.00  0.00     0.063 C 
BRANCH  18  19
ATOM     19  C15 <0> d   1      19.610   4.814  14.789  0.00  0.00     0.153 A 
ATOM     20  C21 <0> d   1      20.062   5.747  15.891  0.00  0.00     0.239 A 
ATOM     21  N20 <0> d   1      19.314   5.680  16.983  0.00  0.00    -0.287 N 
ATOM     22  O22 <0> d   1      21.014   6.491  15.785  0.00  0.00    -0.272 OA
ATOM     23  C18 <0> d   1      18.272   4.849  17.061  0.00  0.00     0.287 A 
ATOM     24  H42 <0> d   1      19.529   6.245  17.742  0.00  0.00     0.172 HD
ATOM     25  S17 <0> d   1      18.164   3.976  15.521  0.00  0.00    -0.054 SA
ATOM     26  O19 <0> d   1      17.532   4.713  18.016  0.00  0.00    -0.260 OA
ENDBRANCH  18  19
ENDBRANCH   4  18
TORSDOF 7
ENDMDL
MODEL 4
REMARK VINA RESULT:      -7.5      2.997      7.342
REMARK  7 active torsions:
REMARK  status: ('A' for Active; 'I' for Inactive)
REMARK    1  A    between atoms: C2_2  and  C3_3 
REMARK    2  A    between atoms: C6_6  and  C7_7 
REMARK    3  A    between atoms: C7_7  and  C8_8 
REMARK    4  A    between atoms: C8_8  and  O9_9 
REMARK    5  A    between atoms: O9_9  and  C10_10 
REMARK    6  A    between atoms: C13_13  and  C14_14 
REMARK    7  A    between atoms: C14_14  and  C15_15 
ROOT
ATOM      1  C10 <0> d   1      18.348   5.321  13.653  0.00  0.00     0.068 A 
ATOM      2  C11 <0> d   1      17.192   5.409  12.892  0.00  0.00     0.037 A 
ATOM      3  C12 <0> d   1      17.141   4.818  11.644  0.00  0.00     0.010 A 
ATOM      4  C13 <0> d   1      18.240   4.137  11.155  0.00  0.00    -0.056 A 
ATOM      5  C23 <0> d   1      19.394   4.048  11.913  0.00  0.00     0.010 A 
ATOM      6  C24 <0> d   1      19.451   4.642  13.159  0.00  0.00     0.037 A 
ENDROOT
BRANCH   1   7
ATOM      7  O9  <0> d   1      18.400   5.903  14.880  0.00  0.00    -0.351 OA
BRANCH   7   8
ATOM      8  C8  <0> d   1      19.337   5.363  15.816  0.00  0.00     0.181 C 
BRANCH   8   9
ATOM      9  C7  <0> d   1      18.588   4.837  17.041  0.00  0.00     0.086 C 
BRANCH   9  10
ATOM     10  C6  <0> d   1      18.740   3.340  17.119  0.00  0.00     0.036 A 
ATOM     11  C5  <0> d   1      18.951   2.738  18.345  0.00  0.00     0.028 A 
ATOM     12  C4  <0> d   1      19.091   1.359  18.405  0.00  0.00     0.010 A 
ATOM     13  C3  <0> d   1      19.013   0.636  17.226  0.00  0.00    -0.041 A 
ATOM     14  C26 <0> d   1      18.807   1.308  16.036  0.00  0.00     0.124 A 
ATOM     15  N25 <0> d   1      18.673   2.619  16.016  0.00  0.00    -0.265 NA
BRANCH  13  16
ATOM     16  C2  <0> d   1      19.160  -0.864  17.239  0.00  0.00     0.035 C 
ATOM     17  C1  <0> d   1      18.237  -1.476  16.182  0.00  0.00     0.010 C 
ENDBRANCH  13  16
ENDBRANCH   9  10
ENDBRANCH   8   9
ENDBRANCH   7   8
ENDBRANCH   1   7
BRANCH   4  18
ATOM     18  C14 <0> d   1      18.182   3.492   9.794  0.00  0.00     0.063 C 
BRANCH  18  19
ATOM     19  C15 <0> d   1      18.704   2.056   9.888  0.00  0.00     0.153 A 
ATOM     20  C21 <0> d   1      17.583   1.101  10.233  0.00  0.00     0.239 A 
ATOM     21  N20 <0> d   1      17.361   0.185   9.300  0.00  0.00    -0.287 N 
ATOM     22  O22 <0> d   1      16.943   1.168  11.261  0.00  0.00    -0.272 OA
ATOM     23  C18 <0> d   1      18.086   0.145   8.181  0.00  0.00     0.287 A 
ATOM     24  H42 <0> d   1      16.658  -0.470   9.435  0.00  0.00     0.172 HD
ATOM     25  S17 <0> d   1      19.267   1.467   8.256  0.00  0.00    -0.054 SA
ATOM     26  O19 <0> d   1      17.962  -0.654   7.273  0.00  0.00    -0.260 OA
ENDBRANCH  18  19
ENDBRANCH   4  18
TORSDOF 7
ENDMDL
MODEL 5
REMARK VINA RESULT:      -7.5      3.789      6.981
REMARK  7 active torsions:
REMARK  status: ('A' for Active; 'I' for Inactive)
REMARK    1  A    between atoms: C2_2  and  C3_3 
REMARK    2  A    between atoms: C6_6  and  C7_7 
REMARK    3  A    between atoms: C7_7  and  C8_8 
REMARK    4  A    between atoms: C8_8  and  O9_9 
REMARK    5  A    between atoms: O9_9  and  C10_10 
REMARK    6  A    between atoms: C13_13  and  C14_14 
REMARK    7  A    between atoms: C14_14  and  C15_15 
ROOT
ATOM      1  C10 <0> d   1      18.590   2.077   9.550  0.00  0.00     0.068 A 
ATOM      2  C11 <0> d   1      17.711   1.140  10.072  0.00  0.00     0.037 A 
ATOM      3  C12 <0> d   1      17.511  -0.060   9.416  0.00  0.00     0.010 A 
ATOM      4  C13 <0> d   1      18.188  -0.326   8.240  0.00  0.00    -0.056 A 
ATOM      5  C23 <0> d   1      19.065   0.607   7.718  0.00  0.00     0.010 A 
ATOM      6  C24 <0> d   1      19.263   1.810   8.368  0.00  0.00     0.037 A 
ENDROOT
BRANCH   1   7
ATOM      7  O9  <0> d   1      18.787   3.257  10.194  0.00  0.00    -0.351 OA
BRANCH   7   8
ATOM      8  C8  <0> d   1      19.716   3.257  11.281  0.00  0.00     0.181 C 
BRANCH   8   9
ATOM      9  C7  <0> d   1      18.973   3.544  12.587  0.00  0.00     0.086 C 
BRANCH   9  10
ATOM     10  C6  <0> d   1      18.938   2.294  13.429  0.00  0.00     0.036 A 
ATOM     11  C5  <0> d   1      18.133   2.249  14.551  0.00  0.00     0.028 A 
ATOM     12  C4  <0> d   1      18.109   1.095  15.319  0.00  0.00     0.010 A 
ATOM     13  C3  <0> d   1      18.899   0.025  14.928  0.00  0.00    -0.041 A 
ATOM     14  C26 <0> d   1      19.684   0.146  13.797  0.00  0.00     0.124 A 
ATOM     15  N25 <0> d   1      19.678   1.256  13.087  0.00  0.00    -0.265 NA
BRANCH  13  16
ATOM     16  C2  <0> d   1      18.909  -1.251  15.731  0.00  0.00     0.035 C 
ATOM     17  C1  <0> d   1      17.639  -1.328  16.581  0.00  0.00     0.010 C 
ENDBRANCH  13  16
ENDBRANCH   9  10
ENDBRANCH   8   9
ENDBRANCH   7   8
ENDBRANCH   1   7
BRANCH   4  18
ATOM     18  C14 <0> d   1      17.970  -1.635   7.526  0.00  0.00     0.063 C 
BRANCH  18  19
ATOM     19  C15 <0> d   1      19.193  -2.534   7.724  0.00  0.00     0.153 A 
ATOM     20  C21 <0> d   1      18.907  -3.609   8.749  0.00  0.00     0.239 A 
ATOM     21  N20 <0> d   1      18.990  -4.840   8.264  0.00  0.00    -0.287 N 
ATOM     22  O22 <0> d   1      18.623  -3.370   9.904  0.00  0.00    -0.272 OA
ATOM     23  C18 <0> d   1      19.304  -5.062   6.986  0.00  0.00     0.287 A 
ATOM     24  H42 <0> d   1      18.821  -5.594   8.850  0.00  0.00     0.172 HD
ATOM     25  S17 <0> d   1      19.545  -3.486   6.209  0.00  0.00    -0.054 SA
ATOM     26  O19 <0> d   1      19.407  -6.149   6.451  0.00  0.00    -0.260 OA
ENDBRANCH  18  19
ENDBRANCH   4  18
TORSDOF 7
ENDMDL
MODEL 6
REMARK VINA RESULT:      -7.5      4.397      7.128
REMARK  7 active torsions:
REMARK  status: ('A' for Active; 'I' for Inactive)
REMARK    1  A    between atoms: C2_2  and  C3_3 
REMARK    2  A    between atoms: C6_6  and  C7_7 
REMARK    3  A    between atoms: C7_7  and  C8_8 
REMARK    4  A    between atoms: C8_8  and  O9_9 
REMARK    5  A    between atoms: O9_9  and  C10_10 
REMARK    6  A    between atoms: C13_13  and  C14_14 
REMARK    7  A    between atoms: C14_14  and  C15_15 
ROOT
ATOM      1  C10 <0> d   1      19.147  -0.610  12.147  0.00  0.00     0.068 A 
ATOM      2  C11 <0> d   1      20.092  -1.139  11.281  0.00  0.00     0.037 A 
ATOM      3  C12 <0> d   1      20.026  -2.471  10.918  0.00  0.00     0.010 A 
ATOM      4  C13 <0> d   1      19.017  -3.274  11.415  0.00  0.00    -0.056 A 
ATOM      5  C23 <0> d   1      18.073  -2.748  12.278  0.00  0.00     0.010 A 
ATOM      6  C24 <0> d   1      18.139  -1.419  12.649  0.00  0.00     0.037 A 
ENDROOT
BRANCH   1   7
ATOM      7  O9  <0> d   1      19.211   0.699  12.506  0.00  0.00    -0.351 OA
BRANCH   7   8
ATOM      8  C8  <0> d   1      19.604   1.631  11.496  0.00  0.00     0.181 C 
BRANCH   8   9
ATOM      9  C7  <0> d   1      18.363   2.137  10.759  0.00  0.00     0.086 C 
BRANCH   9  10
ATOM     10  C6  <0> d   1      18.290   1.494   9.397  0.00  0.00     0.036 A 
ATOM     11  C5  <0> d   1      19.089   1.969   8.375  0.00  0.00     0.028 A 
ATOM     12  C4  <0> d   1      19.014   1.370   7.126  0.00  0.00     0.010 A 
ATOM     13  C3  <0> d   1      18.135   0.313   6.953  0.00  0.00    -0.041 A 
ATOM     14  C26 <0> d   1      17.363  -0.103   8.021  0.00  0.00     0.124 A 
ATOM     15  N25 <0> d   1      17.464   0.486   9.196  0.00  0.00    -0.265 NA
BRANCH  13  16
ATOM     16  C2  <0> d   1      18.016  -0.370   5.614  0.00  0.00     0.035 C 
ATOM     17  C1  <0> d   1      19.360  -0.302   4.886  0.00  0.00     0.010 C 
ENDBRANCH  13  16
ENDBRANCH   9  10
ENDBRANCH   8   9
ENDBRANCH   7   8
ENDBRANCH   1   7
BRANCH   4  18
ATOM     18  C14 <0> d   1      18.945  -4.726  11.016  0.00  0.00     0.063 C 
BRANCH  18  19
ATOM     19  C15 <0> d   1      18.571  -4.830   9.536  0.00  0.00     0.153 A 
ATOM     20  C21 <0> d   1      19.112  -6.109   8.936  0.00  0.00     0.239 A 
ATOM     21  N20 <0> d   1      18.168  -6.922   8.481  0.00  0.00    -0.287 N 
ATOM     22  O22 <0> d   1      20.294  -6.372   8.881  0.00  0.00    -0.272 OA
ATOM     23  C18 <0> d   1      16.876  -6.597   8.561  0.00  0.00     0.287 A 
ATOM     24  H42 <0> d   1      18.422  -7.767   8.080  0.00  0.00     0.172 HD
ATOM     25  S17 <0> d   1      16.767  -5.007   9.337  0.00  0.00    -0.054 SA
ATOM     26  O19 <0> d   1      15.941  -7.271   8.171  0.00  0.00    -0.260 OA
ENDBRANCH  18  19
ENDBRANCH   4  18
TORSDOF 7
ENDMDL
MODEL 7
REMARK VINA RESULT:      -7.5      4.094      6.963
REMARK  7 active torsions:
REMARK  status: ('A' for Active; 'I' for Inactive)
REMARK    1  A    between atoms: C2_2  and  C3_3 
REMARK    2  A    between atoms: C6_6  and  C7_7 
REMARK    3  A    between atoms: C7_7  and  C8_8 
REMARK    4  A    between atoms: C8_8  and  O9_9 
REMARK    5  A    between atoms: O9_9  and  C10_10 
REMARK    6  A    between atoms: C13_13  and  C14_14 
REMARK    7  A    between atoms: C14_14  and  C15_15 
ROOT
ATOM      1  C10 <0> d   1      18.250   0.448   6.827  0.00  0.00     0.068 A 
ATOM      2  C11 <0> d   1      19.117   1.476   7.164  0.00  0.00     0.037 A 
ATOM      3  C12 <0> d   1      19.219   1.891   8.478  0.00  0.00     0.010 A 
ATOM      4  C13 <0> d   1      18.459   1.280   9.457  0.00  0.00    -0.056 A 
ATOM      5  C23 <0> d   1      17.594   0.254   9.124  0.00  0.00     0.010 A 
ATOM      6  C24 <0> d   1      17.485  -0.160   7.811  0.00  0.00     0.037 A 
ENDROOT
BRANCH   1   7
ATOM      7  O9  <0> d   1      18.148   0.039   5.535  0.00  0.00    -0.351 OA
BRANCH   7   8
ATOM      8  C8  <0> d   1      19.307  -0.560   4.950  0.00  0.00     0.181 C 
BRANCH   8   9
ATOM      9  C7  <0> d   1      18.908  -1.855   4.241  0.00  0.00     0.086 C 
BRANCH   9  10
ATOM     10  C6  <0> d   1      18.914  -2.992   5.230  0.00  0.00     0.036 A 
ATOM     11  C5  <0> d   1      17.897  -3.928   5.201  0.00  0.00     0.028 A 
ATOM     12  C4  <0> d   1      17.913  -4.970   6.116  0.00  0.00     0.010 A 
ATOM     13  C3  <0> d   1      18.953  -5.031   7.030  0.00  0.00    -0.041 A 
ATOM     14  C26 <0> d   1      19.932  -4.055   7.002  0.00  0.00     0.124 A 
ATOM     15  N25 <0> d   1      19.889  -3.082   6.115  0.00  0.00    -0.265 NA
BRANCH  13  16
ATOM     16  C2  <0> d   1      19.014  -6.143   8.045  0.00  0.00     0.035 C 
ATOM     17  C1  <0> d   1      19.761  -5.658   9.289  0.00  0.00     0.010 C 
ENDBRANCH  13  16
ENDBRANCH   9  10
ENDBRANCH   8   9
ENDBRANCH   7   8
ENDBRANCH   1   7
BRANCH   4  18
ATOM     18  C14 <0> d   1      18.572   1.733  10.890  0.00  0.00     0.063 C 
BRANCH  18  19
ATOM     19  C15 <0> d   1      18.668   0.510  11.805  0.00  0.00     0.153 A 
ATOM     20  C21 <0> d   1      20.101   0.266  12.224  0.00  0.00     0.239 A 
ATOM     21  N20 <0> d   1      20.293   0.351  13.533  0.00  0.00    -0.287 N 
ATOM     22  O22 <0> d   1      20.992   0.020  11.438  0.00  0.00    -0.272 OA
ATOM     23  C18 <0> d   1      19.286   0.625  14.365  0.00  0.00     0.287 A 
ATOM     24  H42 <0> d   1      21.183   0.210  13.893  0.00  0.00     0.172 HD
ATOM     25  S17 <0> d   1      17.819   0.822  13.389  0.00  0.00    -0.054 SA
ATOM     26  O19 <0> d   1      19.361   0.721  15.575  0.00  0.00    -0.260 OA
ENDBRANCH  18  19
ENDBRANCH   4  18
TORSDOF 7
ENDMDL
MODEL 8
REMARK VINA RESULT:      -7.4      2.936      5.547
REMARK  7 active torsions:
REMARK  status: ('A' for Active; 'I' for Inactive)
REMARK    1  A    between atoms: C2_2  and  C3_3 
REMARK    2  A    between atoms: C6_6  and  C7_7 
REMARK    3  A    between atoms: C7_7  and  C8_8 
REMARK    4  A    between atoms: C8_8  and  O9_9 
REMARK    5  A    between atoms: O9_9  and  C10_10 
REMARK    6  A    between atoms: C13_13  and  C14_14 
REMARK    7  A    between atoms: C14_14  and  C15_15 
ROOT
ATOM      1  C10 <0> d   1      18.196  -0.344   7.940  0.00  0.00     0.068 A 
ATOM      2  C11 <0> d   1      19.086   0.632   7.515  0.00  0.00     0.037 A 
ATOM      3  C12 <0> d   1      19.170   1.832   8.194  0.00  0.00     0.010 A 
ATOM      4  C13 <0> d   1      18.369   2.060   9.297  0.00  0.00    -0.056 A 
ATOM      5  C23 <0> d   1      17.481   1.089   9.723  0.00  0.00     0.010 A 
ATOM      6  C24 <0> d   1      17.390  -0.110   9.043  0.00  0.00     0.037 A 
ENDROOT
BRANCH   1   7
ATOM      7  O9  <0> d   1      18.112  -1.524   7.272  0.00  0.00    -0.351 OA
BRANCH   7   8
ATOM      8  C8  <0> d   1      19.199  -2.439   7.431  0.00  0.00     0.181 C 
BRANCH   8   9
ATOM      9  C7  <0> d   1      18.771  -3.584   8.350  0.00  0.00     0.086 C 
BRANCH   9  10
ATOM     10  C6  <0> d   1      18.714  -3.091   9.774  0.00  0.00     0.036 A 
ATOM     11  C5  <0> d   1      17.601  -3.364  10.546  0.00  0.00     0.028 A 
ATOM     12  C4  <0> d   1      17.558  -2.905  11.854  0.00  0.00     0.010 A 
ATOM     13  C3  <0> d   1      18.640  -2.185  12.337  0.00  0.00    -0.041 A 
ATOM     14  C26 <0> d   1      19.716  -1.946  11.503  0.00  0.00     0.124 A 
ATOM     15  N25 <0> d   1      19.725  -2.402  10.266  0.00  0.00    -0.265 NA
BRANCH  13  16
ATOM     16  C2  <0> d   1      18.641  -1.664  13.751  0.00  0.00     0.035 C 
ATOM     17  C1  <0> d   1      17.844  -0.359  13.814  0.00  0.00     0.010 C 
ENDBRANCH  13  16
ENDBRANCH   9  10
ENDBRANCH   8   9
ENDBRANCH   7   8
ENDBRANCH   1   7
BRANCH   4  18
ATOM     18  C14 <0> d   1      18.463   3.370  10.038  0.00  0.00     0.063 C 
BRANCH  18  19
ATOM     19  C15 <0> d   1      18.088   3.154  11.505  0.00  0.00     0.153 A 
ATOM     20  C21 <0> d   1      19.319   2.868  12.336  0.00  0.00     0.239 A 
ATOM     21  N20 <0> d   1      19.541   3.770  13.283  0.00  0.00    -0.287 N 
ATOM     22  O22 <0> d   1      20.040   1.910  12.153  0.00  0.00    -0.272 OA
ATOM     23  C18 <0> d   1      18.724   4.812  13.453  0.00  0.00     0.287 A 
ATOM     24  H42 <0> d   1      20.310   3.669  13.865  0.00  0.00     0.172 HD
ATOM     25  S17 <0> d   1      17.438   4.693  12.238  0.00  0.00    -0.054 SA
ATOM     26  O19 <0> d   1      18.841   5.685  14.291  0.00  0.00    -0.260 OA
ENDBRANCH  18  19
ENDBRANCH   4  18
TORSDOF 7
ENDMDL
MODEL 9
REMARK VINA RESULT:      -7.3      4.122      7.313
REMARK  7 active torsions:
REMARK  status: ('A' for Active; 'I' for Inactive)
REMARK    1  A    between atoms: C2_2  and  C3_3 
REMARK    2  A    between atoms: C6_6  and  C7_7 
REMARK    3  A    between atoms: C7_7  and  C8_8 
REMARK    4  A    between atoms: C8_8  and  O9_9 
REMARK    5  A    between atoms: O9_9  and  C10_10 
REMARK    6  A    between atoms: C13_13  and  C14_14 
REMARK    7  A    between atoms: C14_14  and  C15_15 
ROOT
ATOM      1  C10 <0> d   1      18.798   1.114   9.063  0.00  0.00     0.068 A 
ATOM      2  C11 <0> d   1      19.866   0.425   9.620  0.00  0.00     0.037 A 
ATOM      3  C12 <0> d   1      19.897  -0.955   9.573  0.00  0.00     0.010 A 
ATOM      4  C13 <0> d   1      18.865  -1.650   8.970  0.00  0.00    -0.056 A 
ATOM      5  C23 <0> d   1      17.800  -0.966   8.413  0.00  0.00     0.010 A 
ATOM      6  C24 <0> d   1      17.762   0.414   8.463  0.00  0.00     0.037 A 
ENDROOT
BRANCH   1   7
ATOM      7  O9  <0> d   1      18.766   2.471   9.109  0.00  0.00    -0.351 OA
BRANCH   7   8
ATOM      8  C8  <0> d   1      18.825   3.079  10.402  0.00  0.00     0.181 C 
BRANCH   8   9
ATOM      9  C7  <0> d   1      17.605   2.654  11.221  0.00  0.00     0.086 C 
BRANCH   9  10
ATOM     10  C6  <0> d   1      18.016   1.610  12.228  0.00  0.00     0.036 A 
ATOM     11  C5  <0> d   1      17.275   0.451  12.350  0.00  0.00     0.028 A 
ATOM     12  C4  <0> d   1      17.662  -0.503  13.280  0.00  0.00     0.010 A 
ATOM     13  C3  <0> d   1      18.783  -0.252  14.055  0.00  0.00    -0.041 A 
ATOM     14  C26 <0> d   1      19.471   0.934  13.882  0.00  0.00     0.124 A 
ATOM     15  N25 <0> d   1      19.078   1.816  12.984  0.00  0.00    -0.265 NA
BRANCH  13  16
ATOM     16  C2  <0> d   1      19.243  -1.257  15.081  0.00  0.00     0.035 C 
ATOM     17  C1  <0> d   1      18.240  -1.302  16.236  0.00  0.00     0.010 C 
ENDBRANCH  13  16
ENDBRANCH   9  10
ENDBRANCH   8   9
ENDBRANCH   7   8
ENDBRANCH   1   7
BRANCH   4  18
ATOM     18  C14 <0> d   1      18.902  -3.156   8.919  0.00  0.00     0.063 C 
BRANCH  18  19
ATOM     19  C15 <0> d   1      18.237  -3.638   7.627  0.00  0.00     0.153 A 
ATOM     20  C21 <0> d   1      19.272  -3.893   6.555  0.00  0.00     0.239 A 
ATOM     21  N20 <0> d   1      19.312  -5.152   6.144  0.00  0.00    -0.287 N 
ATOM     22  O22 <0> d   1      20.002  -3.029   6.114  0.00  0.00    -0.272 OA
ATOM     23  C18 <0> d   1      18.493  -6.075   6.654  0.00  0.00     0.287 A 
ATOM     24  H42 <0> d   1      19.948  -5.409   5.458  0.00  0.00     0.172 HD
ATOM     25  S17 <0> d   1      17.475  -5.278   7.867  0.00  0.00    -0.054 SA
ATOM     26  O19 <0> d   1      18.452  -7.249   6.341  0.00  0.00    -0.260 OA
ENDBRANCH  18  19
ENDBRANCH   4  18
TORSDOF 7
ENDMDL
