MODEL 1
REMARK VINA RESULT:      -7.3      0.000      0.000
REMARK  6 active torsions:
REMARK  status: ('A' for Active; 'I' for Inactive)
REMARK    1  A    between atoms: C7_6  and  O8_7 
REMARK    2  A    between atoms: O8_7  and  C9_8 
REMARK    3  A    between atoms: C9_8  and  C11_10 
REMARK    4  A    between atoms: C11_10  and  O12_11 
REMARK    5  A    between atoms: C11_10  and  C13_12 
REMARK    6  A    between atoms: C11_10  and  C18_17 
ROOT
ATOM      1  C9  ZIN A   1      20.043  -0.641  10.749  0.00  0.00     0.305 C 
ATOM      2  O10 ZIN A   1      20.723  -0.529   9.757  0.00  0.00    -0.261 OA
ENDROOT
BRANCH   1   3
ATOM      3  O8  ZIN A   1      19.212  -1.687  10.879  0.00  0.00    -0.313 OA
BRANCH   3   4
ATOM      4  C7  ZIN A   1      19.254  -2.700   9.832  0.00  0.00     0.136 C 
ATOM      5  C6  ZIN A   1      17.873  -2.886   9.236  0.00  0.00     0.069 C 
ATOM      6  C4  ZIN A   1      17.155  -4.153   9.679  0.00  0.00     0.224 C 
ATOM      7  N2  ZIN A   1      18.062  -5.319   9.555  0.00  0.00    -0.061 N 
ATOM      8  C29 ZIN A   1      16.867  -4.064  11.196  0.00  0.00     0.184 A 
ATOM      9  C1  ZIN A   1      17.305  -6.567   9.777  0.00  0.00     0.273 C 
ATOM     10  C24 ZIN A   1      19.013  -5.103  10.672  0.00  0.00     0.224 C 
ATOM     11  C3  ZIN A   1      18.729  -5.374   8.253  0.00  0.00     0.273 C 
ATOM     12  C23 ZIN A   1      19.946  -3.946  10.342  0.00  0.00     0.069 C 
ATOM     13  C26 ZIN A   1      18.109  -4.699  11.860  0.00  0.00     0.184 A 
ATOM     14  O28 ZIN A   1      17.763  -3.325  12.021  0.00  0.00    -0.371 OA
ENDBRANCH   3   4
ENDBRANCH   1   3
BRANCH   1  15
ATOM     15  C11 ZIN A   1      20.127   0.394  11.842  0.00  0.00     0.213 C 
BRANCH  15  16
ATOM     16  O12 ZIN A   1      21.498   0.662  12.141  0.00  0.00    -0.370 OA
ATOM     17  H40 ZIN A   1      21.733   0.520  13.068  0.00  0.00     0.212 HD
ENDBRANCH  15  16
BRANCH  15  18
ATOM     18  C13 ZIN A   1      19.456   1.664  11.383  0.00  0.00     0.032 A 
ATOM     19  S17 ZIN A   1      18.192   1.760  10.163  0.00  0.00    -0.102 SA
ATOM     20  C16 ZIN A   1      18.104   3.506  10.350  0.00  0.00     0.050 A 
ATOM     21  C15 ZIN A   1      18.987   3.903  11.267  0.00  0.00     0.008 A 
ATOM     22  C14 ZIN A   1      19.733   2.887  11.837  0.00  0.00     0.019 A 
ENDBRANCH  15  18
BRANCH  15  23
ATOM     23  C18 ZIN A   1      19.435  -0.122  13.076  0.00  0.00     0.032 A 
ATOM     24  S22 ZIN A   1      17.786   0.264  13.551  0.00  0.00    -0.102 SA
ATOM     25  C21 ZIN A   1      17.933  -0.739  14.988  0.00  0.00     0.050 A 
ATOM     26  C20 ZIN A   1      19.153  -1.277  15.035  0.00  0.00     0.008 A 
ATOM     27  C19 ZIN A   1      19.981  -0.936  13.981  0.00  0.00     0.019 A 
ENDBRANCH  15  23
ENDBRANCH   1  15
TORSDOF 6
ENDMDL
MODEL 2
REMARK VINA RESULT:      -7.2      2.164      2.539
REMARK  6 active torsions:
REMARK  status: ('A' for Active; 'I' for Inactive)
REMARK    1  A    between atoms: C7_6  and  O8_7 
REMARK    2  A    between atoms: O8_7  and  C9_8 
REMARK    3  A    between atoms: C9_8  and  C11_10 
REMARK    4  A    between atoms: C11_10  and  O12_11 
REMARK    5  A    between atoms: C11_10  and  C13_12 
REMARK    6  A    between atoms: C11_10  and  C18_17 
ROOT
ATOM      1  C9  ZIN A   1      19.823  -2.963  11.115  0.00  0.00     0.305 C 
ATOM      2  O10 ZIN A   1      20.613  -3.688  11.673  0.00  0.00    -0.261 OA
ENDROOT
BRANCH   1   3
ATOM      3  O8  ZIN A   1      18.807  -3.492  10.414  0.00  0.00    -0.313 OA
BRANCH   3   4
ATOM      4  C7  ZIN A   1      19.135  -4.095   9.127  0.00  0.00     0.136 C 
ATOM      5  C6  ZIN A   1      18.049  -3.785   8.118  0.00  0.00     0.069 C 
ATOM      6  C4  ZIN A   1      17.114  -4.946   7.812  0.00  0.00     0.224 C 
ATOM      7  N2  ZIN A   1      17.902  -6.172   7.539  0.00  0.00    -0.061 N 
ATOM      8  C29 ZIN A   1      16.310  -5.296   9.087  0.00  0.00     0.184 A 
ATOM      9  C1  ZIN A   1      17.012  -7.237   7.034  0.00  0.00     0.273 C 
ATOM     10  C24 ZIN A   1      18.405  -6.534   8.886  0.00  0.00     0.224 C 
ATOM     11  C3  ZIN A   1      18.983  -5.941   6.580  0.00  0.00     0.273 C 
ATOM     12  C23 ZIN A   1      19.490  -5.555   9.315  0.00  0.00     0.069 C 
ATOM     13  C26 ZIN A   1      17.174  -6.357   9.805  0.00  0.00     0.184 A 
ATOM     14  O28 ZIN A   1      16.912  -5.070  10.359  0.00  0.00    -0.371 OA
ENDBRANCH   3   4
ENDBRANCH   1   3
BRANCH   1  15
ATOM     15  C11 ZIN A   1      19.976  -1.467  11.207  0.00  0.00     0.213 C 
BRANCH  15  16
ATOM     16  O12 ZIN A   1      21.353  -1.118  11.053  0.00  0.00    -0.370 OA
ATOM     17  H40 ZIN A   1      21.794  -1.572  10.322  0.00  0.00     0.212 HD
ENDBRANCH  15  16
BRANCH  15  18
ATOM     18  C13 ZIN A   1      19.166  -0.812  10.117  0.00  0.00     0.032 A 
ATOM     19  S17 ZIN A   1      17.464  -0.386  10.235  0.00  0.00    -0.102 SA
ATOM     20  C16 ZIN A   1      17.481   0.257   8.599  0.00  0.00     0.050 A 
ATOM     21  C15 ZIN A   1      18.700   0.118   8.076  0.00  0.00     0.008 A 
ATOM     22  C14 ZIN A   1      19.630  -0.472   8.914  0.00  0.00     0.019 A 
ENDBRANCH  15  18
BRANCH  15  23
ATOM     23  C18 ZIN A   1      19.485  -0.993  12.551  0.00  0.00     0.032 A 
ATOM     24  S22 ZIN A   1      19.783   0.599  13.236  0.00  0.00    -0.102 SA
ATOM     25  C21 ZIN A   1      18.876   0.179  14.683  0.00  0.00     0.050 A 
ATOM     26  C20 ZIN A   1      18.426  -1.073  14.581  0.00  0.00     0.008 A 
ATOM     27  C19 ZIN A   1      18.763  -1.720  13.405  0.00  0.00     0.019 A 
ENDBRANCH  15  23
ENDBRANCH   1  15
TORSDOF 6
ENDMDL
MODEL 3
REMARK VINA RESULT:      -7.1      1.429      3.509
REMARK  6 active torsions:
REMARK  status: ('A' for Active; 'I' for Inactive)
REMARK    1  A    between atoms: C7_6  and  O8_7 
REMARK    2  A    between atoms: O8_7  and  C9_8 
REMARK    3  A    between atoms: C9_8  and  C11_10 
REMARK    4  A    between atoms: C11_10  and  O12_11 
REMARK    5  A    between atoms: C11_10  and  C13_12 
REMARK    6  A    between atoms: C11_10  and  C18_17 
ROOT
ATOM      1  C9  ZIN A   1      18.894  -1.577  11.276  0.00  0.00     0.305 C 
ATOM      2  O10 ZIN A   1      20.041  -1.313  11.001  0.00  0.00    -0.261 OA
ENDROOT
BRANCH   1   3
ATOM      3  O8  ZIN A   1      18.390  -2.782  10.967  0.00  0.00    -0.313 OA
BRANCH   3   4
ATOM      4  C7  ZIN A   1      18.940  -3.449   9.793  0.00  0.00     0.136 C 
ATOM      5  C6  ZIN A   1      17.929  -3.431   8.666  0.00  0.00     0.069 C 
ATOM      6  C4  ZIN A   1      17.227  -4.759   8.419  0.00  0.00     0.224 C 
ATOM      7  N2  ZIN A   1      18.225  -5.854   8.359  0.00  0.00    -0.061 N 
ATOM      8  C29 ZIN A   1      16.363  -5.108   9.653  0.00  0.00     0.184 A 
ATOM      9  C1  ZIN A   1      17.572  -7.100   7.909  0.00  0.00     0.273 C 
ATOM     10  C24 ZIN A   1      18.638  -5.987   9.777  0.00  0.00     0.224 C 
ATOM     11  C3  ZIN A   1      19.348  -5.541   7.475  0.00  0.00     0.273 C 
ATOM     12  C23 ZIN A   1      19.502  -4.800  10.179  0.00  0.00     0.069 C 
ATOM     13  C26 ZIN A   1      17.305  -5.930  10.561  0.00  0.00     0.184 A 
ATOM     14  O28 ZIN A   1      16.786  -4.656  10.936  0.00  0.00    -0.371 OA
ENDBRANCH   3   4
ENDBRANCH   1   3
BRANCH   1  15
ATOM     15  C11 ZIN A   1      18.029  -0.554  11.966  0.00  0.00     0.213 C 
BRANCH  15  16
ATOM     16  O12 ZIN A   1      16.653  -0.849  11.721  0.00  0.00    -0.370 OA
ATOM     17  H40 ZIN A   1      16.130  -0.977  12.524  0.00  0.00     0.212 HD
ENDBRANCH  15  16
BRANCH  15  18
ATOM     18  C13 ZIN A   1      18.295  -0.589  13.450  0.00  0.00     0.032 A 
ATOM     19  S17 ZIN A   1      17.592   0.506  14.633  0.00  0.00    -0.102 SA
ATOM     20  C16 ZIN A   1      18.456  -0.300  15.935  0.00  0.00     0.050 A 
ATOM     21  C15 ZIN A   1      19.193  -1.293  15.436  0.00  0.00     0.008 A 
ATOM     22  C14 ZIN A   1      19.104  -1.453  14.064  0.00  0.00     0.019 A 
ENDBRANCH  15  18
BRANCH  15  23
ATOM     23  C18 ZIN A   1      18.351   0.818  11.432  0.00  0.00     0.032 A 
ATOM     24  S22 ZIN A   1      19.651   1.853  12.009  0.00  0.00    -0.102 SA
ATOM     25  C21 ZIN A   1      19.216   3.099  10.848  0.00  0.00     0.050 A 
ATOM     26  C20 ZIN A   1      18.167   2.695  10.130  0.00  0.00     0.008 A 
ATOM     27  C19 ZIN A   1      17.690   1.436  10.452  0.00  0.00     0.019 A 
ENDBRANCH  15  23
ENDBRANCH   1  15
TORSDOF 6
ENDMDL
MODEL 4
REMARK VINA RESULT:      -7.0      4.413      8.350
REMARK  6 active torsions:
REMARK  status: ('A' for Active; 'I' for Inactive)
REMARK    1  A    between atoms: C7_6  and  O8_7 
REMARK    2  A    between atoms: O8_7  and  C9_8 
REMARK    3  A    between atoms: C9_8  and  C11_10 
REMARK    4  A    between atoms: C11_10  and  O12_11 
REMARK    5  A    between atoms: C11_10  and  C13_12 
REMARK    6  A    between atoms: C11_10  and  C18_17 
ROOT
ATOM      1  C9  ZIN A   1      18.171   3.229  11.740  0.00  0.00     0.305 C 
ATOM      2  O10 ZIN A   1      17.082   3.179  11.221  0.00  0.00    -0.261 OA
ENDROOT
BRANCH   1   3
ATOM      3  O8  ZIN A   1      18.479   4.251  12.555  0.00  0.00    -0.313 OA
BRANCH   3   4
ATOM      4  C7  ZIN A   1      17.485   4.626  13.553  0.00  0.00     0.136 C 
ATOM      5  C6  ZIN A   1      17.361   6.134  13.620  0.00  0.00     0.069 C 
ATOM      6  C4  ZIN A   1      18.024   6.774  14.832  0.00  0.00     0.224 C 
ATOM      7  N2  ZIN A   1      17.632   6.049  16.064  0.00  0.00    -0.061 N 
ATOM      8  C29 ZIN A   1      19.554   6.556  14.742  0.00  0.00     0.184 A 
ATOM      9  C1  ZIN A   1      18.098   6.794  17.252  0.00  0.00     0.273 C 
ATOM     10  C24 ZIN A   1      18.386   4.778  15.941  0.00  0.00     0.224 C 
ATOM     11  C3  ZIN A   1      16.187   5.837  16.154  0.00  0.00     0.273 C 
ATOM     12  C23 ZIN A   1      17.763   3.909  14.857  0.00  0.00     0.069 C 
ATOM     13  C26 ZIN A   1      19.795   5.223  15.483  0.00  0.00     0.184 A 
ATOM     14  O28 ZIN A   1      20.042   5.388  14.088  0.00  0.00    -0.371 OA
ENDBRANCH   3   4
ENDBRANCH   1   3
BRANCH   1  15
ATOM     15  C11 ZIN A   1      19.185   2.147  11.475  0.00  0.00     0.213 C 
BRANCH  15  16
ATOM     16  O12 ZIN A   1      20.501   2.699  11.539  0.00  0.00    -0.370 OA
ATOM     17  H40 ZIN A   1      20.584   3.447  12.145  0.00  0.00     0.212 HD
ENDBRANCH  15  16
BRANCH  15  18
ATOM     18  C13 ZIN A   1      19.043   1.061  12.511  0.00  0.00     0.032 A 
ATOM     19  S17 ZIN A   1      17.528   0.548  13.242  0.00  0.00    -0.102 SA
ATOM     20  C16 ZIN A   1      18.370  -0.648  14.218  0.00  0.00     0.050 A 
ATOM     21  C15 ZIN A   1      19.678  -0.596  13.961  0.00  0.00     0.008 A 
ATOM     22  C14 ZIN A   1      20.049   0.348  13.019  0.00  0.00     0.019 A 
ENDBRANCH  15  18
BRANCH  15  23
ATOM     23  C18 ZIN A   1      18.951   1.565  10.105  0.00  0.00     0.032 A 
ATOM     24  S22 ZIN A   1      18.101   0.061   9.772  0.00  0.00    -0.102 SA
ATOM     25  C21 ZIN A   1      18.351   0.266   8.044  0.00  0.00     0.050 A 
ATOM     26  C20 ZIN A   1      19.030   1.393   7.821  0.00  0.00     0.008 A 
ATOM     27  C19 ZIN A   1      19.361   2.109   8.958  0.00  0.00     0.019 A 
ENDBRANCH  15  23
ENDBRANCH   1  15
TORSDOF 6
ENDMDL
MODEL 5
REMARK VINA RESULT:      -7.0      2.127      3.080
REMARK  6 active torsions:
REMARK  status: ('A' for Active; 'I' for Inactive)
REMARK    1  A    between atoms: C7_6  and  O8_7 
REMARK    2  A    between atoms: O8_7  and  C9_8 
REMARK    3  A    between atoms: C9_8  and  C11_10 
REMARK    4  A    between atoms: C11_10  and  O12_11 
REMARK    5  A    between atoms: C11_10  and  C13_12 
REMARK    6  A    between atoms: C11_10  and  C18_17 
ROOT
ATOM      1  C9  ZIN A   1      18.027  -2.784  11.509  0.00  0.00     0.305 C 
ATOM      2  O10 ZIN A   1      16.947  -2.463  11.945  0.00  0.00    -0.261 OA
ENDROOT
BRANCH   1   3
ATOM      3  O8  ZIN A   1      18.235  -4.044  11.095  0.00  0.00    -0.313 OA
BRANCH   3   4
ATOM      4  C7  ZIN A   1      17.303  -4.581  10.110  0.00  0.00     0.136 C 
ATOM      5  C6  ZIN A   1      17.441  -6.087  10.034  0.00  0.00     0.069 C 
ATOM      6  C4  ZIN A   1      18.184  -6.597   8.807  0.00  0.00     0.224 C 
ATOM      7  N2  ZIN A   1      17.652  -5.946   7.586  0.00  0.00    -0.061 N 
ATOM      8  C29 ZIN A   1      19.654  -6.119   8.874  0.00  0.00     0.184 A 
ATOM      9  C1  ZIN A   1      18.219  -6.593   6.386  0.00  0.00     0.273 C 
ATOM     10  C24 ZIN A   1      18.176  -4.564   7.707  0.00  0.00     0.224 C 
ATOM     11  C3  ZIN A   1      16.190  -5.987   7.521  0.00  0.00     0.273 C 
ATOM     12  C23 ZIN A   1      17.431  -3.821   8.807  0.00  0.00     0.069 C 
ATOM     13  C26 ZIN A   1      19.649  -4.760   8.139  0.00  0.00     0.184 A 
ATOM     14  O28 ZIN A   1      19.944  -4.887   9.528  0.00  0.00    -0.371 OA
ENDBRANCH   3   4
ENDBRANCH   1   3
BRANCH   1  15
ATOM     15  C11 ZIN A   1      19.140  -1.772  11.429  0.00  0.00     0.213 C 
BRANCH  15  16
ATOM     16  O12 ZIN A   1      20.380  -2.443  11.202  0.00  0.00    -0.370 OA
ATOM     17  H40 ZIN A   1      21.159  -1.904  11.396  0.00  0.00     0.212 HD
ENDBRANCH  15  16
BRANCH  15  18
ATOM     18  C13 ZIN A   1      18.869  -0.817  10.294  0.00  0.00     0.032 A 
ATOM     19  S17 ZIN A   1      20.088  -0.156   9.212  0.00  0.00    -0.102 SA
ATOM     20  C16 ZIN A   1      18.862   0.751   8.337  0.00  0.00     0.050 A 
ATOM     21  C15 ZIN A   1      17.666   0.526   8.880  0.00  0.00     0.008 A 
ATOM     22  C14 ZIN A   1      17.669  -0.339   9.961  0.00  0.00     0.019 A 
ENDBRANCH  15  18
BRANCH  15  23
ATOM     23  C18 ZIN A   1      19.213  -1.004  12.723  0.00  0.00     0.032 A 
ATOM     24  S22 ZIN A   1      19.333   0.746  12.860  0.00  0.00    -0.102 SA
ATOM     25  C21 ZIN A   1      19.356   0.638  14.615  0.00  0.00     0.050 A 
ATOM     26  C20 ZIN A   1      19.283  -0.642  14.985  0.00  0.00     0.008 A 
ATOM     27  C19 ZIN A   1      19.205  -1.547  13.941  0.00  0.00     0.019 A 
ENDBRANCH  15  23
ENDBRANCH   1  15
TORSDOF 6
ENDMDL
MODEL 6
REMARK VINA RESULT:      -6.9      2.469      3.328
REMARK  6 active torsions:
REMARK  status: ('A' for Active; 'I' for Inactive)
REMARK    1  A    between atoms: C7_6  and  O8_7 
REMARK    2  A    between atoms: O8_7  and  C9_8 
REMARK    3  A    between atoms: C9_8  and  C11_10 
REMARK    4  A    between atoms: C11_10  and  O12_11 
REMARK    5  A    between atoms: C11_10  and  C13_12 
REMARK    6  A    between atoms: C11_10  and  C18_17 
ROOT
ATOM      1  C9  ZIN A   1      18.632   2.671  10.641  0.00  0.00     0.305 C 
ATOM      2  O10 ZIN A   1      18.423   3.592   9.888  0.00  0.00    -0.261 OA
ENDROOT
BRANCH   1   3
ATOM      3  O8  ZIN A   1      18.205   1.437  10.327  0.00  0.00    -0.313 OA
BRANCH   3   4
ATOM      4  C7  ZIN A   1      18.524   0.946   8.992  0.00  0.00     0.136 C 
ATOM      5  C6  ZIN A   1      17.367   0.133   8.450  0.00  0.00     0.069 C 
ATOM      6  C4  ZIN A   1      17.586  -1.373   8.464  0.00  0.00     0.224 C 
ATOM      7  N2  ZIN A   1      18.914  -1.698   7.890  0.00  0.00    -0.061 N 
ATOM      8  C29 ZIN A   1      17.686  -1.853   9.932  0.00  0.00     0.184 A 
ATOM      9  C1  ZIN A   1      19.036  -3.158   7.708  0.00  0.00     0.273 C 
ATOM     10  C24 ZIN A   1      19.841  -1.245   8.956  0.00  0.00     0.224 C 
ATOM     11  C3  ZIN A   1      19.153  -1.022   6.615  0.00  0.00     0.273 C 
ATOM     12  C23 ZIN A   1      19.882   0.276   8.996  0.00  0.00     0.069 C 
ATOM     13  C26 ZIN A   1      19.193  -1.767  10.260  0.00  0.00     0.184 A 
ATOM     14  O28 ZIN A   1      18.214  -0.960  10.910  0.00  0.00    -0.371 OA
ENDBRANCH   3   4
ENDBRANCH   1   3
BRANCH   1  15
ATOM     15  C11 ZIN A   1      19.371   2.906  11.933  0.00  0.00     0.213 C 
BRANCH  15  16
ATOM     16  O12 ZIN A   1      20.741   3.199  11.654  0.00  0.00    -0.370 OA
ATOM     17  H40 ZIN A   1      20.952   4.142  11.670  0.00  0.00     0.212 HD
ENDBRANCH  15  16
BRANCH  15  18
ATOM     18  C13 ZIN A   1      18.747   4.068  12.664  0.00  0.00     0.032 A 
ATOM     19  S17 ZIN A   1      17.104   4.651  12.429  0.00  0.00    -0.102 SA
ATOM     20  C16 ZIN A   1      17.347   5.908  13.634  0.00  0.00     0.050 A 
ATOM     21  C15 ZIN A   1      18.586   5.831  14.118  0.00  0.00     0.008 A 
ATOM     22  C14 ZIN A   1      19.360   4.816  13.583  0.00  0.00     0.019 A 
ENDBRANCH  15  18
BRANCH  15  23
ATOM     23  C18 ZIN A   1      19.286   1.671  12.792  0.00  0.00     0.032 A 
ATOM     24  S22 ZIN A   1      17.917   1.230  13.805  0.00  0.00    -0.102 SA
ATOM     25  C21 ZIN A   1      18.739  -0.232  14.333  0.00  0.00     0.050 A 
ATOM     26  C20 ZIN A   1      19.939  -0.303  13.756  0.00  0.00     0.008 A 
ATOM     27  C19 ZIN A   1      20.241   0.747  12.906  0.00  0.00     0.019 A 
ENDBRANCH  15  23
ENDBRANCH   1  15
TORSDOF 6
ENDMDL
MODEL 7
REMARK VINA RESULT:      -6.7      1.658      2.357
REMARK  6 active torsions:
REMARK  status: ('A' for Active; 'I' for Inactive)
REMARK    1  A    between atoms: C7_6  and  O8_7 
REMARK    2  A    between atoms: O8_7  and  C9_8 
REMARK    3  A    between atoms: C9_8  and  C11_10 
REMARK    4  A    between atoms: C11_10  and  O12_11 
REMARK    5  A    between atoms: C11_10  and  C13_12 
REMARK    6  A    between atoms: C11_10  and  C18_17 
ROOT
ATOM      1  C9  ZIN A   1      17.243  -0.464  12.133  0.00  0.00     0.305 C 
ATOM      2  O10 ZIN A   1      16.159  -0.073  11.769  0.00  0.00    -0.261 OA
ENDROOT
BRANCH   1   3
ATOM      3  O8  ZIN A   1      17.504  -1.781  12.167  0.00  0.00    -0.313 OA
BRANCH   3   4
ATOM      4  C7  ZIN A   1      17.219  -2.544  10.958  0.00  0.00     0.136 C 
ATOM      5  C6  ZIN A   1      17.113  -4.018  11.290  0.00  0.00     0.069 C 
ATOM      6  C4  ZIN A   1      18.318  -4.852  10.879  0.00  0.00     0.224 C 
ATOM      7  N2  ZIN A   1      18.694  -4.542   9.479  0.00  0.00    -0.061 N 
ATOM      8  C29 ZIN A   1      19.547  -4.400  11.704  0.00  0.00     0.184 A 
ATOM      9  C1  ZIN A   1      19.720  -5.497   9.013  0.00  0.00     0.273 C 
ATOM     10  C24 ZIN A   1      19.287  -3.188   9.600  0.00  0.00     0.224 C 
ATOM     11  C3  ZIN A   1      17.547  -4.572   8.571  0.00  0.00     0.273 C 
ATOM     12  C23 ZIN A   1      18.192  -2.164   9.863  0.00  0.00     0.069 C 
ATOM     13  C26 ZIN A   1      20.195  -3.288  10.849  0.00  0.00     0.184 A 
ATOM     14  O28 ZIN A   1      19.624  -3.043  12.132  0.00  0.00    -0.371 OA
ENDBRANCH   3   4
ENDBRANCH   1   3
BRANCH   1  15
ATOM     15  C11 ZIN A   1      18.302   0.524  12.548  0.00  0.00     0.213 C 
BRANCH  15  16
ATOM     16  O12 ZIN A   1      19.588   0.035  12.167  0.00  0.00    -0.370 OA
ATOM     17  H40 ZIN A   1      20.076   0.629  11.580  0.00  0.00     0.212 HD
ENDBRANCH  15  16
BRANCH  15  18
ATOM     18  C13 ZIN A   1      18.046   1.848  11.872  0.00  0.00     0.032 A 
ATOM     19  S17 ZIN A   1      18.329   2.189  10.170  0.00  0.00    -0.102 SA
ATOM     20  C16 ZIN A   1      17.768   3.842  10.378  0.00  0.00     0.050 A 
ATOM     21  C15 ZIN A   1      17.423   4.041  11.650  0.00  0.00     0.008 A 
ATOM     22  C14 ZIN A   1      17.576   2.940  12.475  0.00  0.00     0.019 A 
ENDBRANCH  15  18
BRANCH  15  23
ATOM     23  C18 ZIN A   1      18.257   0.708  14.043  0.00  0.00     0.032 A 
ATOM     24  S22 ZIN A   1      19.307   1.777  14.966  0.00  0.00    -0.102 SA
ATOM     25  C21 ZIN A   1      18.520   1.304  16.466  0.00  0.00     0.050 A 
ATOM     26  C20 ZIN A   1      17.565   0.410  16.207  0.00  0.00     0.008 A 
ATOM     27  C19 ZIN A   1      17.420   0.081  14.871  0.00  0.00     0.019 A 
ENDBRANCH  15  23
ENDBRANCH   1  15
TORSDOF 6
ENDMDL
MODEL 8
REMARK VINA RESULT:      -6.7      3.520      5.434
REMARK  6 active torsions:
REMARK  status: ('A' for Active; 'I' for Inactive)
REMARK    1  A    between atoms: C7_6  and  O8_7 
REMARK    2  A    between atoms: O8_7  and  C9_8 
REMARK    3  A    between atoms: C9_8  and  C11_10 
REMARK    4  A    between atoms: C11_10  and  O12_11 
REMARK    5  A    between atoms: C11_10  and  C13_12 
REMARK    6  A    between atoms: C11_10  and  C18_17 
ROOT
ATOM      1  C9  ZIN A   1      18.787   3.288  14.492  0.00  0.00     0.305 C 
ATOM      2  O10 ZIN A   1      19.230   3.048  15.591  0.00  0.00    -0.261 OA
ENDROOT
BRANCH   1   3
ATOM      3  O8  ZIN A   1      18.150   2.328  13.802  0.00  0.00    -0.313 OA
BRANCH   3   4
ATOM      4  C7  ZIN A   1      18.794   1.021  13.736  0.00  0.00     0.136 C 
ATOM      5  C6  ZIN A   1      19.651   0.928  12.491  0.00  0.00     0.069 C 
ATOM      6  C4  ZIN A   1      19.056   0.087  11.370  0.00  0.00     0.224 C 
ATOM      7  N2  ZIN A   1      18.577  -1.208  11.910  0.00  0.00    -0.061 N 
ATOM      8  C29 ZIN A   1      17.770   0.775  10.853  0.00  0.00     0.184 A 
ATOM      9  C1  ZIN A   1      18.200  -2.104  10.797  0.00  0.00     0.273 C 
ATOM     10  C24 ZIN A   1      17.366  -0.810  12.667  0.00  0.00     0.224 C 
ATOM     11  C3  ZIN A   1      19.575  -1.867  12.753  0.00  0.00     0.273 C 
ATOM     12  C23 ZIN A   1      17.767  -0.073  13.937  0.00  0.00     0.069 C 
ATOM     13  C26 ZIN A   1      16.640   0.175  11.720  0.00  0.00     0.184 A 
ATOM     14  O28 ZIN A   1      16.998   1.555  11.762  0.00  0.00    -0.371 OA
ENDBRANCH   3   4
ENDBRANCH   1   3
BRANCH   1  15
ATOM     15  C11 ZIN A   1      18.949   4.662  13.896  0.00  0.00     0.213 C 
BRANCH  15  16
ATOM     16  O12 ZIN A   1      20.338   4.941  13.709  0.00  0.00    -0.370 OA
ATOM     17  H40 ZIN A   1      20.774   5.302  14.493  0.00  0.00     0.212 HD
ENDBRANCH  15  16
BRANCH  15  18
ATOM     18  C13 ZIN A   1      18.241   4.719  12.566  0.00  0.00     0.032 A 
ATOM     19  S17 ZIN A   1      16.576   5.230  12.324  0.00  0.00    -0.102 SA
ATOM     20  C16 ZIN A   1      16.714   4.960  10.592  0.00  0.00     0.050 A 
ATOM     21  C15 ZIN A   1      17.938   4.517  10.304  0.00  0.00     0.008 A 
ATOM     22  C14 ZIN A   1      18.781   4.384  11.393  0.00  0.00     0.019 A 
ENDBRANCH  15  18
BRANCH  15  23
ATOM     23  C18 ZIN A   1      18.352   5.686  14.826  0.00  0.00     0.032 A 
ATOM     24  S22 ZIN A   1      17.065   5.377  15.985  0.00  0.00    -0.102 SA
ATOM     25  C21 ZIN A   1      17.099   7.053  16.516  0.00  0.00     0.050 A 
ATOM     26  C20 ZIN A   1      18.023   7.722  15.824  0.00  0.00     0.008 A 
ATOM     27  C19 ZIN A   1      18.714   6.968  14.892  0.00  0.00     0.019 A 
ENDBRANCH  15  23
ENDBRANCH   1  15
TORSDOF 6
ENDMDL
MODEL 9
REMARK VINA RESULT:      -6.5      1.533      2.530
REMARK  6 active torsions:
REMARK  status: ('A' for Active; 'I' for Inactive)
REMARK    1  A    between atoms: C7_6  and  O8_7 
REMARK    2  A    between atoms: O8_7  and  C9_8 
REMARK    3  A    between atoms: C9_8  and  C11_10 
REMARK    4  A    between atoms: C11_10  and  O12_11 
REMARK    5  A    between atoms: C11_10  and  C13_12 
REMARK    6  A    between atoms: C11_10  and  C18_17 
ROOT
ATOM      1  C9  ZIN A   1      18.660  -1.200   9.865  0.00  0.00     0.305 C 
ATOM      2  O10 ZIN A   1      17.528  -0.949   9.523  0.00  0.00    -0.261 OA
ENDROOT
BRANCH   1   3
ATOM      3  O8  ZIN A   1      19.223  -2.367   9.516  0.00  0.00    -0.313 OA
BRANCH   3   4
ATOM      4  C7  ZIN A   1      18.544  -3.585   9.943  0.00  0.00     0.136 C 
ATOM      5  C6  ZIN A   1      19.538  -4.721  10.054  0.00  0.00     0.069 C 
ATOM      6  C4  ZIN A   1      19.477  -5.734   8.919  0.00  0.00     0.224 C 
ATOM      7  N2  ZIN A   1      18.071  -6.141   8.680  0.00  0.00    -0.061 N 
ATOM      8  C29 ZIN A   1      19.893  -5.038   7.601  0.00  0.00     0.184 A 
ATOM      9  C1  ZIN A   1      18.033  -7.274   7.733  0.00  0.00     0.273 C 
ATOM     10  C24 ZIN A   1      17.493  -4.934   8.042  0.00  0.00     0.224 C 
ATOM     11  C3  ZIN A   1      17.377  -6.510   9.915  0.00  0.00     0.273 C 
ATOM     12  C23 ZIN A   1      17.326  -3.830   9.078  0.00  0.00     0.069 C 
ATOM     13  C26 ZIN A   1      18.567  -4.503   7.015  0.00  0.00     0.184 A 
ATOM     14  O28 ZIN A   1      19.623  -3.648   7.446  0.00  0.00    -0.371 OA
ENDBRANCH   3   4
ENDBRANCH   1   3
BRANCH   1  15
ATOM     15  C11 ZIN A   1      19.438  -0.203  10.684  0.00  0.00     0.213 C 
BRANCH  15  16
ATOM     16  O12 ZIN A   1      20.819  -0.262  10.321  0.00  0.00    -0.370 OA
ATOM     17  H40 ZIN A   1      21.098   0.446   9.724  0.00  0.00     0.212 HD
ENDBRANCH  15  16
BRANCH  15  18
ATOM     18  C13 ZIN A   1      18.908   1.184  10.424  0.00  0.00     0.032 A 
ATOM     19  S17 ZIN A   1      19.252   2.150   8.995  0.00  0.00    -0.102 SA
ATOM     20  C16 ZIN A   1      18.258   3.464   9.608  0.00  0.00     0.050 A 
ATOM     21  C15 ZIN A   1      17.753   3.127  10.795  0.00  0.00     0.008 A 
ATOM     22  C14 ZIN A   1      18.112   1.869  11.246  0.00  0.00     0.019 A 
ENDBRANCH  15  18
BRANCH  15  23
ATOM     23  C18 ZIN A   1      19.290  -0.530  12.148  0.00  0.00     0.032 A 
ATOM     24  S22 ZIN A   1      20.179   0.240  13.455  0.00  0.00    -0.102 SA
ATOM     25  C21 ZIN A   1      19.353  -0.758  14.645  0.00  0.00     0.050 A 
ATOM     26  C20 ZIN A   1      18.502  -1.578  14.027  0.00  0.00     0.008 A 
ATOM     27  C19 ZIN A   1      18.468  -1.453  12.649  0.00  0.00     0.019 A 
ENDBRANCH  15  23
ENDBRANCH   1  15
TORSDOF 6
ENDMDL
