MODEL 1
REMARK VINA RESULT:      -3.2      0.000      0.000
REMARK  4 active torsions:
REMARK  status: ('A' for Active; 'I' for Inactive)
REMARK    1  A    between atoms: N1_1  and  C5_5 
REMARK    2  A    between atoms: C5_5  and  C7_6 
REMARK    3  A    between atoms: C5_5  and  C9_8 
REMARK    4  A    between atoms: C7_6  and  S8_7 
ROOT
ATOM      1  C5  <0> d   1      18.006  -0.991   5.901  0.00  0.00     0.292 C 
ENDROOT
BRANCH   1   2
ATOM      2  N1  <0> d   1      17.730  -1.591   7.213  0.00  0.00    -0.065 N 
ATOM      3  H2  <0> d   1      16.950  -2.226   7.137  0.00  0.00     0.275 HD
ATOM      4  H3  <0> d   1      17.507  -0.863   7.876  0.00  0.00     0.275 HD
ATOM      5  H4  <0> d   1      18.545  -2.095   7.531  0.00  0.00     0.275 HD
ENDBRANCH   1   2
BRANCH   1   6
ATOM      6  C7  <0> d   1      18.110   0.529   6.047  0.00  0.00     0.114 C 
BRANCH   6   7
ATOM      7  S8  <0> d   1      18.935   0.931   7.612  0.00  0.00    -0.180 SA
ATOM      8  H14 <0> d   1      19.137   2.257   7.514  0.00  0.00     0.101 HD
ENDBRANCH   6   7
ENDBRANCH   1   6
BRANCH   1   9
ATOM      9  C9  <0> d   1      19.306  -1.534   5.364  0.00  0.00     0.205 C 
ATOM     10  O10 <0> d   1      19.728  -2.606   5.763  0.00  0.00    -0.646 OA
ATOM     11  O11 <0> d   1      19.934  -0.902   4.534  0.00  0.00    -0.646 OA
ENDBRANCH   1   9
TORSDOF 4
ENDMDL
MODEL 2
REMARK VINA RESULT:      -3.1     11.099     11.388
REMARK  4 active torsions:
REMARK  status: ('A' for Active; 'I' for Inactive)
REMARK    1  A    between atoms: N1_1  and  C5_5 
REMARK    2  A    between atoms: C5_5  and  C7_6 
REMARK    3  A    between atoms: C5_5  and  C9_8 
REMARK    4  A    between atoms: C7_6  and  S8_7 
ROOT
ATOM      1  C5  <0> d   1      18.923   1.064  16.555  0.00  0.00     0.292 C 
ENDROOT
BRANCH   1   2
ATOM      2  N1  <0> d   1      17.484   0.799  16.428  0.00  0.00    -0.065 N 
ATOM      3  H2  <0> d   1      17.326   0.147  15.674  0.00  0.00     0.275 HD
ATOM      4  H3  <0> d   1      16.998   1.662  16.232  0.00  0.00     0.275 HD
ATOM      5  H4  <0> d   1      17.136   0.406  17.290  0.00  0.00     0.275 HD
ENDBRANCH   1   2
BRANCH   1   6
ATOM      6  C7  <0> d   1      19.204   2.528  16.211  0.00  0.00     0.114 C 
BRANCH   6   7
ATOM      7  S8  <0> d   1      18.397   2.945  14.640  0.00  0.00    -0.180 SA
ATOM      8  H14 <0> d   1      19.428   3.007  13.779  0.00  0.00     0.101 HD
ENDBRANCH   6   7
ENDBRANCH   1   6
BRANCH   1   9
ATOM      9  C9  <0> d   1      19.360   0.788  17.971  0.00  0.00     0.205 C 
ATOM     10  O10 <0> d   1      19.306  -0.346  18.415  0.00  0.00    -0.646 OA
ATOM     11  O11 <0> d   1      19.768   1.698  18.672  0.00  0.00    -0.646 OA
ENDBRANCH   1   9
TORSDOF 4
ENDMDL
MODEL 3
REMARK VINA RESULT:      -3.1      7.068      7.407
REMARK  4 active torsions:
REMARK  status: ('A' for Active; 'I' for Inactive)
REMARK    1  A    between atoms: N1_1  and  C5_5 
REMARK    2  A    between atoms: C5_5  and  C7_6 
REMARK    3  A    between atoms: C5_5  and  C9_8 
REMARK    4  A    between atoms: C7_6  and  S8_7 
ROOT
ATOM      1  C5  <0> d   1      20.157   0.348  12.282  0.00  0.00     0.292 C 
ENDROOT
BRANCH   1   2
ATOM      2  N1  <0> d   1      21.596   0.615  12.170  0.00  0.00    -0.065 N 
ATOM      3  H2  <0> d   1      22.047   0.410  13.049  0.00  0.00     0.275 HD
ATOM      4  H3  <0> d   1      21.741   1.586  11.936  0.00  0.00     0.275 HD
ATOM      5  H4  <0> d   1      21.991   0.033  11.446  0.00  0.00     0.275 HD
ENDBRANCH   1   2
BRANCH   1   6
ATOM      6  C7  <0> d   1      19.787  -0.840  11.390  0.00  0.00     0.114 C 
BRANCH   6   7
ATOM      7  S8  <0> d   1      19.901  -0.346   9.648  0.00  0.00    -0.180 SA
ATOM      8  H14 <0> d   1      19.690  -1.501   8.993  0.00  0.00     0.101 HD
ENDBRANCH   6   7
ENDBRANCH   1   6
BRANCH   1   9
ATOM      9  C9  <0> d   1      19.817   0.025  13.715  0.00  0.00     0.205 C 
ATOM     10  O10 <0> d   1      19.660   0.926  14.521  0.00  0.00    -0.646 OA
ATOM     11  O11 <0> d   1      19.699  -1.136  14.067  0.00  0.00    -0.646 OA
ENDBRANCH   1   9
TORSDOF 4
ENDMDL
MODEL 4
REMARK VINA RESULT:      -3.1     10.938     11.216
REMARK  4 active torsions:
REMARK  status: ('A' for Active; 'I' for Inactive)
REMARK    1  A    between atoms: N1_1  and  C5_5 
REMARK    2  A    between atoms: C5_5  and  C7_6 
REMARK    3  A    between atoms: C5_5  and  C9_8 
REMARK    4  A    between atoms: C7_6  and  S8_7 
ROOT
ATOM      1  C5  <0> d   1      18.071   0.476  17.028  0.00  0.00     0.292 C 
ENDROOT
BRANCH   1   2
ATOM      2  N1  <0> d   1      17.603   1.127  15.798  0.00  0.00    -0.065 N 
ATOM      3  H2  <0> d   1      18.002   0.661  14.997  0.00  0.00     0.275 HD
ATOM      4  H3  <0> d   1      17.888   2.095  15.799  0.00  0.00     0.275 HD
ATOM      5  H4  <0> d   1      16.596   1.073  15.750  0.00  0.00     0.275 HD
ENDBRANCH   1   2
BRANCH   1   6
ATOM      6  C7  <0> d   1      18.488  -0.964  16.717  0.00  0.00     0.114 C 
BRANCH   6   7
ATOM      7  S8  <0> d   1      19.049  -1.071  14.995  0.00  0.00    -0.180 SA
ATOM      8  H14 <0> d   1      17.898  -1.055  14.300  0.00  0.00     0.101 HD
ENDBRANCH   6   7
ENDBRANCH   1   6
BRANCH   1   9
ATOM      9  C9  <0> d   1      19.254   1.233  17.577  0.00  0.00     0.205 C 
ATOM     10  O10 <0> d   1      19.927   0.746  18.469  0.00  0.00    -0.646 OA
ATOM     11  O11 <0> d   1      19.536   2.331  17.131  0.00  0.00    -0.646 OA
ENDBRANCH   1   9
TORSDOF 4
ENDMDL
MODEL 5
REMARK VINA RESULT:      -3.1      7.263      7.476
REMARK  4 active torsions:
REMARK  status: ('A' for Active; 'I' for Inactive)
REMARK    1  A    between atoms: N1_1  and  C5_5 
REMARK    2  A    between atoms: C5_5  and  C7_6 
REMARK    3  A    between atoms: C5_5  and  C9_8 
REMARK    4  A    between atoms: C7_6  and  S8_7 
ROOT
ATOM      1  C5  <0> d   1      20.132   0.681  12.367  0.00  0.00     0.292 C 
ENDROOT
BRANCH   1   2
ATOM      2  N1  <0> d   1      21.578   0.622  12.118  0.00  0.00    -0.065 N 
ATOM      3  H2  <0> d   1      21.774   0.960  11.187  0.00  0.00     0.275 HD
ATOM      4  H3  <0> d   1      21.895  -0.333  12.202  0.00  0.00     0.275 HD
ATOM      5  H4  <0> d   1      22.060   1.197  12.792  0.00  0.00     0.275 HD
ENDBRANCH   1   2
BRANCH   1   6
ATOM      6  C7  <0> d   1      19.858   0.403  13.847  0.00  0.00     0.114 C 
BRANCH   6   7
ATOM      7  S8  <0> d   1      19.202  -1.278  14.034  0.00  0.00    -0.180 SA
ATOM      8  H14 <0> d   1      20.241  -2.049  13.671  0.00  0.00     0.101 HD
ENDBRANCH   6   7
ENDBRANCH   1   6
BRANCH   1   9
ATOM      9  C9  <0> d   1      19.617   2.052  12.010  0.00  0.00     0.205 C 
ATOM     10  O10 <0> d   1      19.195   2.791  12.884  0.00  0.00    -0.646 OA
ATOM     11  O11 <0> d   1      19.622   2.423  10.849  0.00  0.00    -0.646 OA
ENDBRANCH   1   9
TORSDOF 4
ENDMDL
MODEL 6
REMARK VINA RESULT:      -3.1      6.537      6.746
REMARK  4 active torsions:
REMARK  status: ('A' for Active; 'I' for Inactive)
REMARK    1  A    between atoms: N1_1  and  C5_5 
REMARK    2  A    between atoms: C5_5  and  C7_6 
REMARK    3  A    between atoms: C5_5  and  C9_8 
REMARK    4  A    between atoms: C7_6  and  S8_7 
ROOT
ATOM      1  C5  <0> d   1      20.177  -0.362  11.311  0.00  0.00     0.292 C 
ENDROOT
BRANCH   1   2
ATOM      2  N1  <0> d   1      21.569  -0.631  10.929  0.00  0.00    -0.065 N 
ATOM      3  H2  <0> d   1      22.095  -0.910  11.744  0.00  0.00     0.275 HD
ATOM      4  H3  <0> d   1      21.978   0.203  10.535  0.00  0.00     0.275 HD
ATOM      5  H4  <0> d   1      21.593  -1.373  10.245  0.00  0.00     0.275 HD
ENDBRANCH   1   2
BRANCH   1   6
ATOM      6  C7  <0> d   1      19.527  -1.654  11.811  0.00  0.00     0.114 C 
BRANCH   6   7
ATOM      7  S8  <0> d   1      17.722  -1.498  11.714  0.00  0.00    -0.180 SA
ATOM      8  H14 <0> d   1      17.503  -1.343  10.396  0.00  0.00     0.101 HD
ENDBRANCH   6   7
ENDBRANCH   1   6
BRANCH   1   9
ATOM      9  C9  <0> d   1      20.149   0.671  12.408  0.00  0.00     0.205 C 
ATOM     10  O10 <0> d   1      20.357   0.339  13.563  0.00  0.00    -0.646 OA
ATOM     11  O11 <0> d   1      19.917   1.838  12.142  0.00  0.00    -0.646 OA
ENDBRANCH   1   9
TORSDOF 4
ENDMDL
MODEL 7
REMARK VINA RESULT:      -3.1      5.416      5.687
REMARK  4 active torsions:
REMARK  status: ('A' for Active; 'I' for Inactive)
REMARK    1  A    between atoms: N1_1  and  C5_5 
REMARK    2  A    between atoms: C5_5  and  C7_6 
REMARK    3  A    between atoms: C5_5  and  C9_8 
REMARK    4  A    between atoms: C7_6  and  S8_7 
ROOT
ATOM      1  C5  <0> d   1      20.217   0.333  11.822  0.00  0.00     0.292 C 
ENDROOT
BRANCH   1   2
ATOM      2  N1  <0> d   1      21.616   0.623  12.163  0.00  0.00    -0.065 N 
ATOM      3  H2  <0> d   1      22.226   0.156  11.509  0.00  0.00     0.275 HD
ATOM      4  H3  <0> d   1      21.810   0.295  13.097  0.00  0.00     0.275 HD
ATOM      5  H4  <0> d   1      21.774   1.619  12.117  0.00  0.00     0.275 HD
ENDBRANCH   1   2
BRANCH   1   6
ATOM      6  C7  <0> d   1      19.528   1.620  11.359  0.00  0.00     0.114 C 
BRANCH   6   7
ATOM      7  S8  <0> d   1      17.729   1.406  11.446  0.00  0.00    -0.180 SA
ATOM      8  H14 <0> d   1      17.470   1.561  12.757  0.00  0.00     0.101 HD
ENDBRANCH   6   7
ENDBRANCH   1   6
BRANCH   1   9
ATOM      9  C9  <0> d   1      20.172  -0.687  10.714  0.00  0.00     0.205 C 
ATOM     10  O10 <0> d   1      20.366  -0.342   9.560  0.00  0.00    -0.646 OA
ATOM     11  O11 <0> d   1      19.942  -1.856  10.970  0.00  0.00    -0.646 OA
ENDBRANCH   1   9
TORSDOF 4
ENDMDL
MODEL 8
REMARK VINA RESULT:      -3.0      4.908      5.194
REMARK  4 active torsions:
REMARK  status: ('A' for Active; 'I' for Inactive)
REMARK    1  A    between atoms: N1_1  and  C5_5 
REMARK    2  A    between atoms: C5_5  and  C7_6 
REMARK    3  A    between atoms: C5_5  and  C9_8 
REMARK    4  A    between atoms: C7_6  and  S8_7 
ROOT
ATOM      1  C5  <0> d   1      20.143  -0.445  10.677  0.00  0.00     0.292 C 
ENDROOT
BRANCH   1   2
ATOM      2  N1  <0> d   1      21.582  -0.570  10.943  0.00  0.00    -0.065 N 
ATOM      3  H2  <0> d   1      21.893  -1.495  10.686  0.00  0.00     0.275 HD
ATOM      4  H3  <0> d   1      21.757  -0.418  11.925  0.00  0.00     0.275 HD
ATOM      5  H4  <0> d   1      22.086   0.116  10.401  0.00  0.00     0.275 HD
ENDBRANCH   1   2
BRANCH   1   6
ATOM      6  C7  <0> d   1      19.914  -0.305   9.170  0.00  0.00     0.114 C 
BRANCH   6   7
ATOM      7  S8  <0> d   1      19.261   1.349   8.809  0.00  0.00    -0.180 SA
ATOM      8  H14 <0> d   1      20.263   1.924   8.120  0.00  0.00     0.101 HD
ENDBRANCH   6   7
ENDBRANCH   1   6
BRANCH   1   9
ATOM      9  C9  <0> d   1      19.430  -1.674  11.181  0.00  0.00     0.205 C 
ATOM     10  O10 <0> d   1      20.063  -2.687  11.427  0.00  0.00    -0.646 OA
ATOM     11  O11 <0> d   1      18.223  -1.655  11.343  0.00  0.00    -0.646 OA
ENDBRANCH   1   9
TORSDOF 4
ENDMDL
MODEL 9
REMARK VINA RESULT:      -2.9      1.786      2.304
REMARK  4 active torsions:
REMARK  status: ('A' for Active; 'I' for Inactive)
REMARK    1  A    between atoms: N1_1  and  C5_5 
REMARK    2  A    between atoms: C5_5  and  C7_6 
REMARK    3  A    between atoms: C5_5  and  C9_8 
REMARK    4  A    between atoms: C7_6  and  S8_7 
ROOT
ATOM      1  C5  <0> d   1      18.785  -0.935   6.419  0.00  0.00     0.292 C 
ENDROOT
BRANCH   1   2
ATOM      2  N1  <0> d   1      17.371  -0.549   6.510  0.00  0.00    -0.065 N 
ATOM      3  H2  <0> d   1      16.839  -1.308   6.908  0.00  0.00     0.275 HD
ATOM      4  H3  <0> d   1      17.019  -0.340   5.587  0.00  0.00     0.275 HD
ATOM      5  H4  <0> d   1      17.282   0.268   7.096  0.00  0.00     0.275 HD
ENDBRANCH   1   2
BRANCH   1   6
ATOM      6  C7  <0> d   1      18.953  -2.374   6.913  0.00  0.00     0.114 C 
BRANCH   6   7
ATOM      7  S8  <0> d   1      18.468  -2.474   8.659  0.00  0.00    -0.180 SA
ATOM      8  H14 <0> d   1      17.711  -1.374   8.825  0.00  0.00     0.101 HD
ENDBRANCH   6   7
ENDBRANCH   1   6
BRANCH   1   9
ATOM      9  C9  <0> d   1      19.240  -0.841   4.985  0.00  0.00     0.205 C 
ATOM     10  O10 <0> d   1      19.234   0.236   4.414  0.00  0.00    -0.646 OA
ATOM     11  O11 <0> d   1      19.614  -1.840   4.397  0.00  0.00    -0.646 OA
ENDBRANCH   1   9
TORSDOF 4
ENDMDL
