MODEL 1
REMARK VINA RESULT:      -8.1      0.000      0.000
REMARK  4 active torsions:
REMARK  status: ('A' for Active; 'I' for Inactive)
REMARK    1  A    between atoms: C6_6  and  N7_7 
REMARK    2  A    between atoms: N7_7  and  C9_9 
REMARK    3  A    between atoms: C9_9  and  O11_11 
REMARK    4  A    between atoms: O11_11  and  C12_12 
ROOT
ATOM      1  C9  ZIN A   1      18.598  -0.261  12.061  0.00  0.00     0.222 C 
ATOM      2  S10 ZIN A   1      17.003   0.360  12.071  0.00  0.00    -0.032 SA
ENDROOT
BRANCH   1   3
ATOM      3  N7  ZIN A   1      18.883  -1.398  12.726  0.00  0.00    -0.322 N 
ATOM      4  C8  ZIN A   1      19.187  -1.352  14.159  0.00  0.00     0.159 C 
BRANCH   3   5
ATOM      5  C6  ZIN A   1      18.887  -2.622  12.050  0.00  0.00     0.037 A 
ATOM      6  C5  ZIN A   1      20.090  -3.256  11.767  0.00  0.00     0.030 A 
ATOM      7  C4  ZIN A   1      20.091  -4.465  11.099  0.00  0.00     0.003 A 
ATOM      8  C3  ZIN A   1      18.896  -5.044  10.712  0.00  0.00     0.007 A 
ATOM      9  C2  ZIN A   1      17.697  -4.414  10.992  0.00  0.00    -0.060 A 
ATOM     10  C1  ZIN A   1      16.397  -5.049  10.568  0.00  0.00     0.048 C 
ATOM     11  C22 ZIN A   1      17.690  -3.202  11.655  0.00  0.00     0.036 A 
ENDBRANCH   3   5
ENDBRANCH   1   3
BRANCH   1  12
ATOM     12  O11 ZIN A   1      19.569   0.387  11.387  0.00  0.00    -0.284 OA
BRANCH  12  13
ATOM     13  C12 ZIN A   1      19.417   0.497  10.041  0.00  0.00     0.079 A 
ATOM     14  C21 ZIN A   1      19.426  -0.630   9.268  0.00  0.00     0.049 A 
ATOM     15  C20 ZIN A   1      19.264  -0.519   7.877  0.00  0.00    -0.023 A 
ATOM     16  C15 ZIN A   1      19.106   0.764   7.295  0.00  0.00    -0.026 A 
ATOM     17  C19 ZIN A   1      19.262  -1.656   7.050  0.00  0.00     0.012 A 
ATOM     18  C14 ZIN A   1      19.107   1.902   8.120  0.00  0.00     0.015 A 
ATOM     19  C16 ZIN A   1      18.949   0.874   5.903  0.00  0.00     0.012 A 
ATOM     20  C13 ZIN A   1      19.260   1.760   9.465  0.00  0.00     0.038 A 
ATOM     21  C17 ZIN A   1      18.953  -0.249   5.133  0.00  0.00     0.001 A 
ATOM     22  C18 ZIN A   1      19.108  -1.510   5.705  0.00  0.00     0.001 A 
ENDBRANCH  12  13
ENDBRANCH   1  12
TORSDOF 4
ENDMDL
MODEL 2
REMARK VINA RESULT:      -8.0      3.123      7.778
REMARK  4 active torsions:
REMARK  status: ('A' for Active; 'I' for Inactive)
REMARK    1  A    between atoms: C6_6  and  N7_7 
REMARK    2  A    between atoms: N7_7  and  C9_9 
REMARK    3  A    between atoms: C9_9  and  O11_11 
REMARK    4  A    between atoms: O11_11  and  C12_12 
ROOT
ATOM      1  C9  ZIN A   1      19.263  -0.664  11.866  0.00  0.00     0.222 C 
ATOM      2  S10 ZIN A   1      19.674  -2.136  11.095  0.00  0.00    -0.032 SA
ENDROOT
BRANCH   1   3
ATOM      3  N7  ZIN A   1      18.118  -0.031  11.542  0.00  0.00    -0.322 N 
ATOM      4  C8  ZIN A   1      16.826  -0.666  11.817  0.00  0.00     0.159 C 
BRANCH   3   5
ATOM      5  C6  ZIN A   1      18.163   1.233  10.945  0.00  0.00     0.037 A 
ATOM      6  C5  ZIN A   1      18.832   1.411   9.741  0.00  0.00     0.030 A 
ATOM      7  C4  ZIN A   1      18.873   2.660   9.153  0.00  0.00     0.003 A 
ATOM      8  C3  ZIN A   1      18.250   3.734   9.763  0.00  0.00     0.007 A 
ATOM      9  C2  ZIN A   1      17.583   3.560  10.962  0.00  0.00    -0.060 A 
ATOM     10  C1  ZIN A   1      16.905   4.732  11.622  0.00  0.00     0.048 C 
ATOM     11  C22 ZIN A   1      17.542   2.314  11.557  0.00  0.00     0.036 A 
ENDBRANCH   3   5
ENDBRANCH   1   3
BRANCH   1  12
ATOM     12  O11 ZIN A   1      20.083  -0.139  12.798  0.00  0.00    -0.284 OA
BRANCH  12  13
ATOM     13  C12 ZIN A   1      19.632  -0.127  14.080  0.00  0.00     0.079 A 
ATOM     14  C21 ZIN A   1      19.457   1.066  14.722  0.00  0.00     0.049 A 
ATOM     15  C20 ZIN A   1      18.986   1.080  16.046  0.00  0.00    -0.023 A 
ATOM     16  C15 ZIN A   1      18.711  -0.148  16.699  0.00  0.00    -0.026 A 
ATOM     17  C19 ZIN A   1      18.788   2.288  16.736  0.00  0.00     0.012 A 
ATOM     18  C14 ZIN A   1      18.908  -1.356  16.010  0.00  0.00     0.015 A 
ATOM     19  C16 ZIN A   1      18.246  -0.133  18.025  0.00  0.00     0.012 A 
ATOM     20  C13 ZIN A   1      19.359  -1.336  14.727  0.00  0.00     0.038 A 
ATOM     21  C17 ZIN A   1      18.066   1.057  18.662  0.00  0.00     0.001 A 
ATOM     22  C18 ZIN A   1      18.336   2.264  18.020  0.00  0.00     0.001 A 
ENDBRANCH  12  13
ENDBRANCH   1  12
TORSDOF 4
ENDMDL
MODEL 3
REMARK VINA RESULT:      -7.9      3.033      4.283
REMARK  4 active torsions:
REMARK  status: ('A' for Active; 'I' for Inactive)
REMARK    1  A    between atoms: C6_6  and  N7_7 
REMARK    2  A    between atoms: N7_7  and  C9_9 
REMARK    3  A    between atoms: C9_9  and  O11_11 
REMARK    4  A    between atoms: O11_11  and  C12_12 
ROOT
ATOM      1  C9  ZIN A   1      18.387   2.178  12.957  0.00  0.00     0.222 C 
ATOM      2  S10 ZIN A   1      18.597   3.764  13.565  0.00  0.00    -0.032 SA
ENDROOT
BRANCH   1   3
ATOM      3  N7  ZIN A   1      19.192   1.183  13.380  0.00  0.00    -0.322 N 
ATOM      4  C8  ZIN A   1      20.368   0.806  12.591  0.00  0.00     0.159 C 
BRANCH   3   5
ATOM      5  C6  ZIN A   1      18.906   0.510  14.573  0.00  0.00     0.037 A 
ATOM      6  C5  ZIN A   1      18.363  -0.767  14.538  0.00  0.00     0.030 A 
ATOM      7  C4  ZIN A   1      18.082  -1.429  15.718  0.00  0.00     0.003 A 
ATOM      8  C3  ZIN A   1      18.341  -0.821  16.932  0.00  0.00     0.007 A 
ATOM      9  C2  ZIN A   1      18.881   0.452  16.970  0.00  0.00    -0.060 A 
ATOM     10  C1  ZIN A   1      19.163   1.111  18.295  0.00  0.00     0.048 C 
ATOM     11  C22 ZIN A   1      19.160   1.121  15.793  0.00  0.00     0.036 A 
ENDBRANCH   3   5
ENDBRANCH   1   3
BRANCH   1  12
ATOM     12  O11 ZIN A   1      17.417   1.923  12.058  0.00  0.00    -0.284 OA
BRANCH  12  13
ATOM     13  C12 ZIN A   1      17.802   1.757  10.765  0.00  0.00     0.079 A 
ATOM     14  C21 ZIN A   1      17.477   0.604  10.109  0.00  0.00     0.049 A 
ATOM     15  C20 ZIN A   1      17.870   0.433   8.771  0.00  0.00    -0.023 A 
ATOM     16  C15 ZIN A   1      18.609   1.457   8.126  0.00  0.00    -0.026 A 
ATOM     17  C19 ZIN A   1      17.550  -0.738   8.061  0.00  0.00     0.012 A 
ATOM     18  C14 ZIN A   1      18.930   2.627   8.834  0.00  0.00     0.015 A 
ATOM     19  C16 ZIN A   1      19.006   1.281   6.790  0.00  0.00     0.012 A 
ATOM     20  C13 ZIN A   1      18.530   2.765  10.127  0.00  0.00     0.038 A 
ATOM     21  C17 ZIN A   1      18.678   0.134   6.134  0.00  0.00     0.001 A 
ATOM     22  C18 ZIN A   1      17.952  -0.872   6.767  0.00  0.00     0.001 A 
ENDBRANCH  12  13
ENDBRANCH   1  12
TORSDOF 4
ENDMDL
MODEL 4
REMARK VINA RESULT:      -7.9      2.425      3.281
REMARK  4 active torsions:
REMARK  status: ('A' for Active; 'I' for Inactive)
REMARK    1  A    between atoms: C6_6  and  N7_7 
REMARK    2  A    between atoms: N7_7  and  C9_9 
REMARK    3  A    between atoms: C9_9  and  O11_11 
REMARK    4  A    between atoms: O11_11  and  C12_12 
ROOT
ATOM      1  C9  ZIN A   1      18.567   1.420  11.558  0.00  0.00     0.222 C 
ATOM      2  S10 ZIN A   1      18.152   3.060  11.819  0.00  0.00    -0.032 SA
ENDROOT
BRANCH   1   3
ATOM      3  N7  ZIN A   1      17.810   0.440  12.093  0.00  0.00    -0.322 N 
ATOM      4  C8  ZIN A   1      16.606  -0.019  11.396  0.00  0.00     0.159 C 
BRANCH   3   5
ATOM      5  C6  ZIN A   1      18.175  -0.138  13.313  0.00  0.00     0.037 A 
ATOM      6  C5  ZIN A   1      19.268  -0.993  13.379  0.00  0.00     0.030 A 
ATOM      7  C4  ZIN A   1      19.626  -1.562  14.585  0.00  0.00     0.003 A 
ATOM      8  C3  ZIN A   1      18.899  -1.281  15.727  0.00  0.00     0.007 A 
ATOM      9  C2  ZIN A   1      17.810  -0.430  15.665  0.00  0.00    -0.060 A 
ATOM     10  C1  ZIN A   1      17.020  -0.126  16.912  0.00  0.00     0.048 C 
ATOM     11  C22 ZIN A   1      17.444   0.138  14.460  0.00  0.00     0.036 A 
ENDBRANCH   3   5
ENDBRANCH   1   3
BRANCH   1  12
ATOM     12  O11 ZIN A   1      19.648   1.107  10.817  0.00  0.00    -0.284 OA
BRANCH  12  13
ATOM     13  C12 ZIN A   1      19.440   0.855   9.498  0.00  0.00     0.079 A 
ATOM     14  C21 ZIN A   1      19.492  -0.432   9.042  0.00  0.00     0.049 A 
ATOM     15  C20 ZIN A   1      19.272  -0.695   7.680  0.00  0.00    -0.023 A 
ATOM     16  C15 ZIN A   1      19.010   0.383   6.797  0.00  0.00    -0.026 A 
ATOM     17  C19 ZIN A   1      19.312  -2.006   7.175  0.00  0.00     0.012 A 
ATOM     18  C14 ZIN A   1      18.969   1.694   7.300  0.00  0.00     0.015 A 
ATOM     19  C16 ZIN A   1      18.796   0.119   5.433  0.00  0.00     0.012 A 
ATOM     20  C13 ZIN A   1      19.180   1.916   8.625  0.00  0.00     0.038 A 
ATOM     21  C17 ZIN A   1      18.843  -1.164   4.980  0.00  0.00     0.001 A 
ATOM     22  C18 ZIN A   1      19.100  -2.224   5.848  0.00  0.00     0.001 A 
ENDBRANCH  12  13
ENDBRANCH   1  12
TORSDOF 4
ENDMDL
MODEL 5
REMARK VINA RESULT:      -7.8      1.820      3.444
REMARK  4 active torsions:
REMARK  status: ('A' for Active; 'I' for Inactive)
REMARK    1  A    between atoms: C6_6  and  N7_7 
REMARK    2  A    between atoms: N7_7  and  C9_9 
REMARK    3  A    between atoms: C9_9  and  O11_11 
REMARK    4  A    between atoms: O11_11  and  C12_12 
ROOT
ATOM      1  C9  ZIN A   1      17.773  -2.598  11.379  0.00  0.00     0.222 C 
ATOM      2  S10 ZIN A   1      17.197  -4.189  11.117  0.00  0.00    -0.032 SA
ENDROOT
BRANCH   1   3
ATOM      3  N7  ZIN A   1      18.938  -2.402  12.028  0.00  0.00    -0.322 N 
ATOM      4  C8  ZIN A   1      20.127  -3.170  11.648  0.00  0.00     0.159 C 
BRANCH   3   5
ATOM      5  C6  ZIN A   1      19.013  -1.464  13.062  0.00  0.00     0.037 A 
ATOM      6  C5  ZIN A   1      19.746  -0.296  12.892  0.00  0.00     0.030 A 
ATOM      7  C4  ZIN A   1      19.817   0.628  13.916  0.00  0.00     0.003 A 
ATOM      8  C3  ZIN A   1      19.160   0.392  15.110  0.00  0.00     0.007 A 
ATOM      9  C2  ZIN A   1      18.429  -0.770  15.282  0.00  0.00    -0.060 A 
ATOM     10  C1  ZIN A   1      17.715  -1.022  16.584  0.00  0.00     0.048 C 
ATOM     11  C22 ZIN A   1      18.359  -1.700  14.264  0.00  0.00     0.036 A 
ENDBRANCH   3   5
ENDBRANCH   1   3
BRANCH   1  12
ATOM     12  O11 ZIN A   1      17.063  -1.542  10.935  0.00  0.00    -0.284 OA
BRANCH  12  13
ATOM     13  C12 ZIN A   1      17.540  -0.895   9.840  0.00  0.00     0.079 A 
ATOM     14  C21 ZIN A   1      17.851  -1.609   8.718  0.00  0.00     0.049 A 
ATOM     15  C20 ZIN A   1      18.340  -0.940   7.583  0.00  0.00    -0.023 A 
ATOM     16  C15 ZIN A   1      18.513   0.466   7.624  0.00  0.00    -0.026 A 
ATOM     17  C19 ZIN A   1      18.666  -1.641   6.409  0.00  0.00     0.012 A 
ATOM     18  C14 ZIN A   1      18.187   1.167   8.797  0.00  0.00     0.015 A 
ATOM     19  C16 ZIN A   1      19.007   1.132   6.490  0.00  0.00     0.012 A 
ATOM     20  C13 ZIN A   1      17.710   0.492   9.878  0.00  0.00     0.038 A 
ATOM     21  C17 ZIN A   1      19.313   0.420   5.370  0.00  0.00     0.001 A 
ATOM     22  C18 ZIN A   1      19.143  -0.962   5.330  0.00  0.00     0.001 A 
ENDBRANCH  12  13
ENDBRANCH   1  12
TORSDOF 4
ENDMDL
MODEL 6
REMARK VINA RESULT:      -7.8      1.205      5.220
REMARK  4 active torsions:
REMARK  status: ('A' for Active; 'I' for Inactive)
REMARK    1  A    between atoms: C6_6  and  N7_7 
REMARK    2  A    between atoms: N7_7  and  C9_9 
REMARK    3  A    between atoms: C9_9  and  O11_11 
REMARK    4  A    between atoms: O11_11  and  C12_12 
ROOT
ATOM      1  C9  ZIN A   1      18.511  -0.576  12.138  0.00  0.00     0.222 C 
ATOM      2  S10 ZIN A   1      16.959   0.133  12.275  0.00  0.00    -0.032 SA
ENDROOT
BRANCH   1   3
ATOM      3  N7  ZIN A   1      19.492   0.072  11.478  0.00  0.00    -0.322 N 
ATOM      4  C8  ZIN A   1      20.719   0.455  12.182  0.00  0.00     0.159 C 
BRANCH   3   5
ATOM      5  C6  ZIN A   1      19.339   0.377  10.122  0.00  0.00     0.037 A 
ATOM      6  C5  ZIN A   1      19.244   1.701   9.713  0.00  0.00     0.030 A 
ATOM      7  C4  ZIN A   1      19.093   1.999   8.373  0.00  0.00     0.003 A 
ATOM      8  C3  ZIN A   1      19.037   0.981   7.438  0.00  0.00     0.007 A 
ATOM      9  C2  ZIN A   1      19.131  -0.338   7.843  0.00  0.00    -0.060 A 
ATOM     10  C1  ZIN A   1      19.069  -1.444   6.821  0.00  0.00     0.048 C 
ATOM     11  C22 ZIN A   1      19.276  -0.643   9.182  0.00  0.00     0.036 A 
ENDBRANCH   3   5
ENDBRANCH   1   3
BRANCH   1  12
ATOM     12  O11 ZIN A   1      18.753  -1.781  12.691  0.00  0.00    -0.284 OA
BRANCH  12  13
ATOM     13  C12 ZIN A   1      18.771  -2.851  11.854  0.00  0.00     0.079 A 
ATOM     14  C21 ZIN A   1      17.594  -3.347  11.370  0.00  0.00     0.049 A 
ATOM     15  C20 ZIN A   1      17.611  -4.451  10.501  0.00  0.00    -0.023 A 
ATOM     16  C15 ZIN A   1      18.851  -5.040  10.148  0.00  0.00    -0.026 A 
ATOM     17  C19 ZIN A   1      16.420  -4.985   9.979  0.00  0.00     0.012 A 
ATOM     18  C14 ZIN A   1      20.042  -4.506  10.669  0.00  0.00     0.015 A 
ATOM     19  C16 ZIN A   1      18.866  -6.147   9.283  0.00  0.00     0.012 A 
ATOM     20  C13 ZIN A   1      19.993  -3.433  11.504  0.00  0.00     0.038 A 
ATOM     21  C17 ZIN A   1      17.693  -6.638   8.797  0.00  0.00     0.001 A 
ATOM     22  C18 ZIN A   1      16.474  -6.059   9.143  0.00  0.00     0.001 A 
ENDBRANCH  12  13
ENDBRANCH   1  12
TORSDOF 4
ENDMDL
MODEL 7
REMARK VINA RESULT:      -7.8      3.237      8.115
REMARK  4 active torsions:
REMARK  status: ('A' for Active; 'I' for Inactive)
REMARK    1  A    between atoms: C6_6  and  N7_7 
REMARK    2  A    between atoms: N7_7  and  C9_9 
REMARK    3  A    between atoms: C9_9  and  O11_11 
REMARK    4  A    between atoms: O11_11  and  C12_12 
ROOT
ATOM      1  C9  ZIN A   1      18.735   0.019  11.746  0.00  0.00     0.222 C 
ATOM      2  S10 ZIN A   1      17.138  -0.590  11.845  0.00  0.00    -0.032 SA
ENDROOT
BRANCH   1   3
ATOM      3  N7  ZIN A   1      19.045   0.950  10.821  0.00  0.00    -0.322 N 
ATOM      4  C8  ZIN A   1      19.709   0.553   9.577  0.00  0.00     0.159 C 
BRANCH   3   5
ATOM      5  C6  ZIN A   1      18.732   2.293  11.049  0.00  0.00     0.037 A 
ATOM      6  C5  ZIN A   1      17.715   2.903  10.326  0.00  0.00     0.030 A 
ATOM      7  C4  ZIN A   1      17.408   4.231  10.554  0.00  0.00     0.003 A 
ATOM      8  C3  ZIN A   1      18.112   4.952  11.501  0.00  0.00     0.007 A 
ATOM      9  C2  ZIN A   1      19.126   4.348  12.222  0.00  0.00    -0.060 A 
ATOM     10  C1  ZIN A   1      19.889   5.137  13.253  0.00  0.00     0.048 C 
ATOM     11  C22 ZIN A   1      19.441   3.022  11.995  0.00  0.00     0.036 A 
ENDBRANCH   3   5
ENDBRANCH   1   3
BRANCH   1  12
ATOM     12  O11 ZIN A   1      19.681  -0.430  12.594  0.00  0.00    -0.284 OA
BRANCH  12  13
ATOM     13  C12 ZIN A   1      19.415  -0.333  13.923  0.00  0.00     0.079 A 
ATOM     14  C21 ZIN A   1      19.412   0.895  14.522  0.00  0.00     0.049 A 
ATOM     15  C20 ZIN A   1      19.132   0.997  15.895  0.00  0.00    -0.023 A 
ATOM     16  C15 ZIN A   1      18.867  -0.179  16.640  0.00  0.00    -0.026 A 
ATOM     17  C19 ZIN A   1      19.114   2.244  16.543  0.00  0.00     0.012 A 
ATOM     18  C14 ZIN A   1      18.884  -1.426  15.993  0.00  0.00     0.015 A 
ATOM     19  C16 ZIN A   1      18.593  -0.075  18.014  0.00  0.00     0.012 A 
ATOM     20  C13 ZIN A   1      19.153  -1.491  14.661  0.00  0.00     0.038 A 
ATOM     21  C17 ZIN A   1      18.585   1.149  18.610  0.00  0.00     0.001 A 
ATOM     22  C18 ZIN A   1      18.845   2.305  17.877  0.00  0.00     0.001 A 
ENDBRANCH  12  13
ENDBRANCH   1  12
TORSDOF 4
ENDMDL
MODEL 8
REMARK VINA RESULT:      -7.7      3.241      7.958
REMARK  4 active torsions:
REMARK  status: ('A' for Active; 'I' for Inactive)
REMARK    1  A    between atoms: C6_6  and  N7_7 
REMARK    2  A    between atoms: N7_7  and  C9_9 
REMARK    3  A    between atoms: C9_9  and  O11_11 
REMARK    4  A    between atoms: O11_11  and  C12_12 
ROOT
ATOM      1  C9  ZIN A   1      18.937   0.317  11.257  0.00  0.00     0.222 C 
ATOM      2  S10 ZIN A   1      20.397  -0.562  11.097  0.00  0.00    -0.032 SA
ENDROOT
BRANCH   1   3
ATOM      3  N7  ZIN A   1      18.761   1.463  10.569  0.00  0.00    -0.322 N 
ATOM      4  C8  ZIN A   1      18.555   1.422   9.119  0.00  0.00     0.159 C 
BRANCH   3   5
ATOM      5  C6  ZIN A   1      18.775   2.690  11.239  0.00  0.00     0.037 A 
ATOM      6  C5  ZIN A   1      19.976   3.227  11.684  0.00  0.00     0.030 A 
ATOM      7  C4  ZIN A   1      19.986   4.439  12.345  0.00  0.00     0.003 A 
ATOM      8  C3  ZIN A   1      18.802   5.119  12.564  0.00  0.00     0.007 A 
ATOM      9  C2  ZIN A   1      17.604   4.587  12.123  0.00  0.00    -0.060 A 
ATOM     10  C1  ZIN A   1      16.317   5.332  12.363  0.00  0.00     0.048 C 
ATOM     11  C22 ZIN A   1      17.587   3.372  11.465  0.00  0.00     0.036 A 
ENDBRANCH   3   5
ENDBRANCH   1   3
BRANCH   1  12
ATOM     12  O11 ZIN A   1      17.962  -0.137  12.069  0.00  0.00    -0.284 OA
BRANCH  12  13
ATOM     13  C12 ZIN A   1      18.250  -0.212  13.395  0.00  0.00     0.079 A 
ATOM     14  C21 ZIN A   1      18.399   0.938  14.117  0.00  0.00     0.049 A 
ATOM     15  C20 ZIN A   1      18.692   0.862  15.490  0.00  0.00    -0.023 A 
ATOM     16  C15 ZIN A   1      18.839  -0.408  16.101  0.00  0.00    -0.026 A 
ATOM     17  C19 ZIN A   1      18.847   2.024  16.266  0.00  0.00     0.012 A 
ATOM     18  C14 ZIN A   1      18.683  -1.570  15.326  0.00  0.00     0.015 A 
ATOM     19  C16 ZIN A   1      19.136  -0.482  17.472  0.00  0.00     0.012 A 
ATOM     20  C13 ZIN A   1      18.394  -1.464  14.001  0.00  0.00     0.038 A 
ATOM     21  C17 ZIN A   1      19.280   0.665  18.193  0.00  0.00     0.001 A 
ATOM     22  C18 ZIN A   1      19.136   1.913  17.592  0.00  0.00     0.001 A 
ENDBRANCH  12  13
ENDBRANCH   1  12
TORSDOF 4
ENDMDL
MODEL 9
REMARK VINA RESULT:      -7.7      2.630      4.755
REMARK  4 active torsions:
REMARK  status: ('A' for Active; 'I' for Inactive)
REMARK    1  A    between atoms: C6_6  and  N7_7 
REMARK    2  A    between atoms: N7_7  and  C9_9 
REMARK    3  A    between atoms: C9_9  and  O11_11 
REMARK    4  A    between atoms: O11_11  and  C12_12 
ROOT
ATOM      1  C9  ZIN A   1      19.063  -0.068  11.440  0.00  0.00     0.222 C 
ATOM      2  S10 ZIN A   1      19.279  -1.575  12.223  0.00  0.00    -0.032 SA
ENDROOT
BRANCH   1   3
ATOM      3  N7  ZIN A   1      17.980   0.686  11.718  0.00  0.00    -0.322 N 
ATOM      4  C8  ZIN A   1      16.648   0.076  11.736  0.00  0.00     0.159 C 
BRANCH   3   5
ATOM      5  C6  ZIN A   1      18.129   2.049  11.990  0.00  0.00     0.037 A 
ATOM      6  C5  ZIN A   1      18.732   2.461  13.172  0.00  0.00     0.030 A 
ATOM      7  C4  ZIN A   1      18.878   3.809  13.437  0.00  0.00     0.003 A 
ATOM      8  C3  ZIN A   1      18.425   4.748  12.528  0.00  0.00     0.007 A 
ATOM      9  C2  ZIN A   1      17.824   4.340  11.351  0.00  0.00    -0.060 A 
ATOM     10  C1  ZIN A   1      17.332   5.366  10.363  0.00  0.00     0.048 C 
ATOM     11  C22 ZIN A   1      17.671   2.994  11.082  0.00  0.00     0.036 A 
ENDBRANCH   3   5
ENDBRANCH   1   3
BRANCH   1  12
ATOM     12  O11 ZIN A   1      19.975   0.365  10.548  0.00  0.00    -0.284 OA
BRANCH  12  13
ATOM     13  C12 ZIN A   1      19.622   0.325   9.236  0.00  0.00     0.079 A 
ATOM     14  C21 ZIN A   1      19.575  -0.877   8.589  0.00  0.00     0.049 A 
ATOM     15  C20 ZIN A   1      19.206  -0.922   7.234  0.00  0.00    -0.023 A 
ATOM     16  C15 ZIN A   1      18.898   0.285   6.557  0.00  0.00    -0.026 A 
ATOM     17  C19 ZIN A   1      19.142  -2.140   6.536  0.00  0.00     0.012 A 
ATOM     18  C14 ZIN A   1      18.962   1.503   7.253  0.00  0.00     0.015 A 
ATOM     19  C16 ZIN A   1      18.534   0.239   5.200  0.00  0.00     0.012 A 
ATOM     20  C13 ZIN A   1      19.317   1.513   8.566  0.00  0.00     0.038 A 
ATOM     21  C17 ZIN A   1      18.483  -0.959   4.556  0.00  0.00     0.001 A 
ATOM     22  C18 ZIN A   1      18.785  -2.145   5.222  0.00  0.00     0.001 A 
ENDBRANCH  12  13
ENDBRANCH   1  12
TORSDOF 4
ENDMDL
