MODEL 1
REMARK VINA RESULT:      -9.5      0.000      0.000
REMARK  2 active torsions:
REMARK  status: ('A' for Active; 'I' for Inactive)
REMARK    1  A    between atoms: C11_11  and  C12_12 
REMARK    2  A    between atoms: C16_15  and  C18_16 
ROOT
ATOM      1  O1  <0> d   1      19.296   0.982   5.707  0.00  0.00    -0.284 OA
ATOM      2  C2  <0> d   1      19.040   0.100   6.501  0.00  0.00     0.220 C 
ATOM      3  C3  <0> d   1      18.881  -1.298   6.043  0.00  0.00     0.031 A 
ATOM      4  C4  <0> d   1      18.746  -1.602   4.694  0.00  0.00     0.016 A 
ATOM      5  C5  <0> d   1      18.600  -2.924   4.300  0.00  0.00     0.001 A 
ATOM      6  C6  <0> d   1      18.588  -3.937   5.239  0.00  0.00     0.001 A 
ATOM      7  C7  <0> d   1      18.722  -3.648   6.588  0.00  0.00     0.016 A 
ATOM      8  C8  <0> d   1      18.870  -2.331   6.998  0.00  0.00     0.029 A 
ATOM      9  C9  <0> d   1      19.015  -1.987   8.432  0.00  0.00     0.192 C 
ATOM     10  O10 <0> d   1      19.252  -2.854   9.250  0.00  0.00    -0.287 OA
ATOM     11  C11 <0> d   1      18.870  -0.589   8.855  0.00  0.00     0.037 C 
ATOM     12  C27 <0> d   1      18.886   0.407   7.945  0.00  0.00     0.168 C 
ATOM     13  O28 <0> d   1      18.753   1.692   8.348  0.00  0.00    -0.187 OA
ENDROOT
BRANCH  11  14
ATOM     14  C12 <0> d   1      18.708  -0.263  10.318  0.00  0.00     0.026 C 
ATOM     15  C26 <0> d   1      20.008  -0.582  11.060  0.00  0.00     0.010 C 
ATOM     16  C25 <0> d   1      19.843  -0.251  12.543  0.00  0.00     0.010 C 
ATOM     17  C16 <0> d   1      18.704  -1.088  13.129  0.00  0.00     0.018 C 
ATOM     18  C15 <0> d   1      17.403  -0.769  12.388  0.00  0.00     0.010 C 
ATOM     19  C14 <0> d   1      17.568  -1.100  10.902  0.00  0.00     0.010 C 
BRANCH  17  20
ATOM     20  C18 <0> d   1      18.541  -0.763  14.591  0.00  0.00    -0.054 A 
ATOM     21  C24 <0> d   1      19.225  -1.495  15.542  0.00  0.00     0.009 A 
ATOM     22  C23 <0> d   1      19.081  -1.193  16.884  0.00  0.00     0.024 A 
ATOM     23  C21 <0> d   1      18.241  -0.165  17.275  0.00  0.00     0.034 A 
ATOM     24  C20 <0> d   1      17.551   0.564  16.322  0.00  0.00     0.024 A 
ATOM     25 Cl22 <0> d   1      18.053   0.209  18.959  0.00  0.00    -0.084 Cl
ATOM     26  C19 <0> d   1      17.701   0.264  14.981  0.00  0.00     0.009 A 
ENDBRANCH  17  20
ENDBRANCH  11  14
TORSDOF 2
ENDMDL
MODEL 2
REMARK VINA RESULT:      -9.5      4.103      9.398
REMARK  2 active torsions:
REMARK  status: ('A' for Active; 'I' for Inactive)
REMARK    1  A    between atoms: C11_11  and  C12_12 
REMARK    2  A    between atoms: C16_15  and  C18_16 
ROOT
ATOM      1  O1  <0> d   1      19.135  -0.853  17.401  0.00  0.00    -0.284 OA
ATOM      2  C2  <0> d   1      18.885   0.014  16.588  0.00  0.00     0.220 C 
ATOM      3  C3  <0> d   1      18.700   1.416  17.021  0.00  0.00     0.031 A 
ATOM      4  C4  <0> d   1      18.533   1.738  18.362  0.00  0.00     0.016 A 
ATOM      5  C5  <0> d   1      18.363   3.065  18.733  0.00  0.00     0.001 A 
ATOM      6  C6  <0> d   1      18.358   4.063  17.779  0.00  0.00     0.001 A 
ATOM      7  C7  <0> d   1      18.524   3.755  16.437  0.00  0.00     0.016 A 
ATOM      8  C8  <0> d   1      18.696   2.434  16.050  0.00  0.00     0.029 A 
ATOM      9  C9  <0> d   1      18.876   2.070  14.626  0.00  0.00     0.192 C 
ATOM     10  O10 <0> d   1      19.119   2.928  13.799  0.00  0.00    -0.287 OA
ATOM     11  C11 <0> d   1      18.756   0.664  14.221  0.00  0.00     0.037 C 
ATOM     12  C27 <0> d   1      18.766  -0.318  15.146  0.00  0.00     0.168 C 
ATOM     13  O28 <0> d   1      18.657  -1.610  14.761  0.00  0.00    -0.187 OA
ENDROOT
BRANCH  11  14
ATOM     14  C12 <0> d   1      18.629   0.314  12.760  0.00  0.00     0.026 C 
ATOM     15  C26 <0> d   1      19.866   0.809  12.007  0.00  0.00     0.010 C 
ATOM     16  C25 <0> d   1      19.736   0.453  10.525  0.00  0.00     0.010 C 
ATOM     17  C16 <0> d   1      18.487   1.122   9.948  0.00  0.00     0.018 C 
ATOM     18  C15 <0> d   1      17.249   0.628  10.701  0.00  0.00     0.010 C 
ATOM     19  C14 <0> d   1      17.379   0.983  12.184  0.00  0.00     0.010 C 
BRANCH  17  20
ATOM     20  C18 <0> d   1      18.358   0.773   8.488  0.00  0.00    -0.054 A 
ATOM     21  C24 <0> d   1      19.192   1.367   7.559  0.00  0.00     0.009 A 
ATOM     22  C23 <0> d   1      19.079   1.042   6.220  0.00  0.00     0.024 A 
ATOM     23  C21 <0> d   1      18.122   0.131   5.808  0.00  0.00     0.034 A 
ATOM     24  C20 <0> d   1      17.284  -0.460   6.738  0.00  0.00     0.024 A 
ATOM     25 Cl22 <0> d   1      17.974  -0.272   4.126  0.00  0.00    -0.084 Cl
ATOM     26  C19 <0> d   1      17.402  -0.138   8.076  0.00  0.00     0.009 A 
ENDBRANCH  17  20
ENDBRANCH  11  14
TORSDOF 2
ENDMDL
MODEL 3
REMARK VINA RESULT:      -9.3      4.344      9.301
REMARK  2 active torsions:
REMARK  status: ('A' for Active; 'I' for Inactive)
REMARK    1  A    between atoms: C11_11  and  C12_12 
REMARK    2  A    between atoms: C16_15  and  C18_16 
ROOT
ATOM      1  O1  <0> d   1      19.215   5.272  16.143  0.00  0.00    -0.284 OA
ATOM      2  C2  <0> d   1      19.140   4.136  15.720  0.00  0.00     0.220 C 
ATOM      3  C3  <0> d   1      18.960   3.000  16.651  0.00  0.00     0.031 A 
ATOM      4  C4  <0> d   1      19.147   3.155  18.018  0.00  0.00     0.016 A 
ATOM      5  C5  <0> d   1      18.969   2.068  18.863  0.00  0.00     0.001 A 
ATOM      6  C6  <0> d   1      18.609   0.836  18.352  0.00  0.00     0.001 A 
ATOM      7  C7  <0> d   1      18.420   0.668  16.988  0.00  0.00     0.016 A 
ATOM      8  C8  <0> d   1      18.593   1.745  16.131  0.00  0.00     0.029 A 
ATOM      9  C9  <0> d   1      18.400   1.600  14.670  0.00  0.00     0.192 C 
ATOM     10  O10 <0> d   1      17.854   0.612  14.218  0.00  0.00    -0.287 OA
ATOM     11  C11 <0> d   1      18.874   2.660  13.772  0.00  0.00     0.037 C 
ATOM     12  C27 <0> d   1      19.221   3.868  14.263  0.00  0.00     0.168 C 
ATOM     13  O28 <0> d   1      19.656   4.837  13.425  0.00  0.00    -0.187 OA
ENDROOT
BRANCH  11  14
ATOM     14  C12 <0> d   1      18.967   2.400  12.290  0.00  0.00     0.026 C 
ATOM     15  C26 <0> d   1      17.619   2.703  11.632  0.00  0.00     0.010 C 
ATOM     16  C25 <0> d   1      17.714   2.438  10.129  0.00  0.00     0.010 C 
ATOM     17  C16 <0> d   1      18.078   0.971   9.891  0.00  0.00     0.018 C 
ATOM     18  C15 <0> d   1      19.426   0.668  10.549  0.00  0.00     0.010 C 
ATOM     19  C14 <0> d   1      19.332   0.933  12.053  0.00  0.00     0.010 C 
BRANCH  17  20
ATOM     20  C18 <0> d   1      18.171   0.710   8.411  0.00  0.00    -0.054 A 
ATOM     21  C24 <0> d   1      19.080   1.411   7.641  0.00  0.00     0.009 A 
ATOM     22  C23 <0> d   1      19.171   1.167   6.283  0.00  0.00     0.024 A 
ATOM     23  C21 <0> d   1      18.342   0.230   5.692  0.00  0.00     0.034 A 
ATOM     24  C20 <0> d   1      17.428  -0.468   6.462  0.00  0.00     0.024 A 
ATOM     25 Cl22 <0> d   1      18.449  -0.071   3.987  0.00  0.00    -0.084 Cl
ATOM     26  C19 <0> d   1      17.342  -0.227   7.821  0.00  0.00     0.009 A 
ENDBRANCH  17  20
ENDBRANCH  11  14
TORSDOF 2
ENDMDL
MODEL 4
REMARK VINA RESULT:      -9.1      4.668      9.116
REMARK  2 active torsions:
REMARK  status: ('A' for Active; 'I' for Inactive)
REMARK    1  A    between atoms: C11_11  and  C12_12 
REMARK    2  A    between atoms: C16_15  and  C18_16 
ROOT
ATOM      1  O1  <0> d   1      16.178   6.252  13.542  0.00  0.00    -0.284 OA
ATOM      2  C2  <0> d   1      16.950   5.322  13.427  0.00  0.00     0.220 C 
ATOM      3  C3  <0> d   1      17.846   4.948  14.543  0.00  0.00     0.031 A 
ATOM      4  C4  <0> d   1      18.033   5.794  15.629  0.00  0.00     0.016 A 
ATOM      5  C5  <0> d   1      18.880   5.412  16.659  0.00  0.00     0.001 A 
ATOM      6  C6  <0> d   1      19.538   4.198  16.610  0.00  0.00     0.001 A 
ATOM      7  C7  <0> d   1      19.361   3.345  15.532  0.00  0.00     0.016 A 
ATOM      8  C8  <0> d   1      18.517   3.712  14.495  0.00  0.00     0.029 A 
ATOM      9  C9  <0> d   1      18.305   2.824  13.328  0.00  0.00     0.192 C 
ATOM     10  O10 <0> d   1      18.668   1.665  13.366  0.00  0.00    -0.287 OA
ATOM     11  C11 <0> d   1      17.654   3.358  12.125  0.00  0.00     0.037 C 
ATOM     12  C27 <0> d   1      17.004   4.540  12.166  0.00  0.00     0.168 C 
ATOM     13  O28 <0> d   1      16.407   5.021  11.051  0.00  0.00    -0.187 OA
ENDROOT
BRANCH  11  14
ATOM     14  C12 <0> d   1      17.706   2.577  10.837  0.00  0.00     0.026 C 
ATOM     15  C26 <0> d   1      17.428   1.101  11.123  0.00  0.00     0.010 C 
ATOM     16  C25 <0> d   1      17.481   0.309   9.815  0.00  0.00     0.010 C 
ATOM     17  C16 <0> d   1      18.869   0.453   9.188  0.00  0.00     0.018 C 
ATOM     18  C15 <0> d   1      19.148   1.931   8.901  0.00  0.00     0.010 C 
ATOM     19  C14 <0> d   1      19.095   2.723  10.209  0.00  0.00     0.010 C 
BRANCH  17  20
ATOM     20  C18 <0> d   1      18.922  -0.327   7.900  0.00  0.00    -0.054 A 
ATOM     21  C24 <0> d   1      18.664   0.305   6.698  0.00  0.00     0.009 A 
ATOM     22  C23 <0> d   1      18.719  -0.408   5.515  0.00  0.00     0.024 A 
ATOM     23  C21 <0> d   1      19.020  -1.759   5.536  0.00  0.00     0.034 A 
ATOM     24  C20 <0> d   1      19.273  -2.392   6.740  0.00  0.00     0.024 A 
ATOM     25 Cl22 <0> d   1      19.081  -2.657   4.052  0.00  0.00    -0.084 Cl
ATOM     26  C19 <0> d   1      19.223  -1.676   7.921  0.00  0.00     0.009 A 
ENDBRANCH  17  20
ENDBRANCH  11  14
TORSDOF 2
ENDMDL
MODEL 5
REMARK VINA RESULT:      -9.0      1.314      2.718
REMARK  2 active torsions:
REMARK  status: ('A' for Active; 'I' for Inactive)
REMARK    1  A    between atoms: C11_11  and  C12_12 
REMARK    2  A    between atoms: C16_15  and  C18_16 
ROOT
ATOM      1  O1  <0> d   1      18.269  -4.241   6.885  0.00  0.00    -0.284 OA
ATOM      2  C2  <0> d   1      18.409  -3.138   7.374  0.00  0.00     0.220 C 
ATOM      3  C3  <0> d   1      18.687  -1.966   6.515  0.00  0.00     0.031 A 
ATOM      4  C4  <0> d   1      19.065  -2.122   5.187  0.00  0.00     0.016 A 
ATOM      5  C5  <0> d   1      19.316  -1.001   4.409  0.00  0.00     0.001 A 
ATOM      6  C6  <0> d   1      19.195   0.265   4.946  0.00  0.00     0.001 A 
ATOM      7  C7  <0> d   1      18.819   0.435   6.270  0.00  0.00     0.016 A 
ATOM      8  C8  <0> d   1      18.563  -0.676   7.061  0.00  0.00     0.029 A 
ATOM      9  C9  <0> d   1      18.160  -0.530   8.479  0.00  0.00     0.192 C 
ATOM     10  O10 <0> d   1      17.810   0.552   8.909  0.00  0.00    -0.287 OA
ATOM     11  C11 <0> d   1      18.187  -1.704   9.360  0.00  0.00     0.037 C 
ATOM     12  C27 <0> d   1      18.300  -2.946   8.842  0.00  0.00     0.168 C 
ATOM     13  O28 <0> d   1      18.322  -4.020   9.664  0.00  0.00    -0.187 OA
ENDROOT
BRANCH  11  14
ATOM     14  C12 <0> d   1      18.082  -1.523  10.852  0.00  0.00     0.026 C 
ATOM     15  C26 <0> d   1      17.090  -0.399  11.162  0.00  0.00     0.010 C 
ATOM     16  C25 <0> d   1      16.984  -0.216  12.676  0.00  0.00     0.010 C 
ATOM     17  C16 <0> d   1      18.358   0.147  13.244  0.00  0.00     0.018 C 
ATOM     18  C15 <0> d   1      19.350  -0.977  12.934  0.00  0.00     0.010 C 
ATOM     19  C14 <0> d   1      19.456  -1.161  11.419  0.00  0.00     0.010 C 
BRANCH  17  20
ATOM     20  C18 <0> d   1      18.254   0.328  14.735  0.00  0.00    -0.054 A 
ATOM     21  C24 <0> d   1      17.705  -0.671  15.517  0.00  0.00     0.009 A 
ATOM     22  C23 <0> d   1      17.615  -0.508  16.886  0.00  0.00     0.024 A 
ATOM     23  C21 <0> d   1      18.063   0.662  17.474  0.00  0.00     0.034 A 
ATOM     24  C20 <0> d   1      18.607   1.665  16.691  0.00  0.00     0.024 A 
ATOM     25 Cl22 <0> d   1      17.943   0.871  19.193  0.00  0.00    -0.084 Cl
ATOM     26  C19 <0> d   1      18.701   1.498  15.322  0.00  0.00     0.009 A 
ENDBRANCH  17  20
ENDBRANCH  11  14
TORSDOF 2
ENDMDL
MODEL 6
REMARK VINA RESULT:      -9.0      3.458      4.127
REMARK  2 active torsions:
REMARK  status: ('A' for Active; 'I' for Inactive)
REMARK    1  A    between atoms: C11_11  and  C12_12 
REMARK    2  A    between atoms: C16_15  and  C18_16 
ROOT
ATOM      1  O1  <0> d   1      19.596  -1.514   4.752  0.00  0.00    -0.284 OA
ATOM      2  C2  <0> d   1      19.257  -1.609   5.914  0.00  0.00     0.220 C 
ATOM      3  C3  <0> d   1      19.228  -2.929   6.580  0.00  0.00     0.031 A 
ATOM      4  C4  <0> d   1      19.314  -4.107   5.848  0.00  0.00     0.016 A 
ATOM      5  C5  <0> d   1      19.285  -5.328   6.506  0.00  0.00     0.001 A 
ATOM      6  C6  <0> d   1      19.170  -5.380   7.881  0.00  0.00     0.001 A 
ATOM      7  C7  <0> d   1      19.083  -4.212   8.624  0.00  0.00     0.016 A 
ATOM      8  C8  <0> d   1      19.112  -2.983   7.981  0.00  0.00     0.029 A 
ATOM      9  C9  <0> d   1      19.021  -1.717   8.745  0.00  0.00     0.192 C 
ATOM     10  O10 <0> d   1      19.164  -1.717   9.952  0.00  0.00    -0.287 OA
ATOM     11  C11 <0> d   1      18.756  -0.462   8.030  0.00  0.00     0.037 C 
ATOM     12  C27 <0> d   1      18.871  -0.402   6.687  0.00  0.00     0.168 C 
ATOM     13  O28 <0> d   1      18.625   0.760   6.040  0.00  0.00    -0.187 OA
ENDROOT
BRANCH  11  14
ATOM     14  C12 <0> d   1      18.357   0.769   8.803  0.00  0.00     0.026 C 
ATOM     15  C26 <0> d   1      19.605   1.592   9.130  0.00  0.00     0.010 C 
ATOM     16  C25 <0> d   1      19.200   2.842   9.914  0.00  0.00     0.010 C 
ATOM     17  C16 <0> d   1      18.508   2.426  11.214  0.00  0.00     0.018 C 
ATOM     18  C15 <0> d   1      17.260   1.603  10.887  0.00  0.00     0.010 C 
ATOM     19  C14 <0> d   1      17.665   0.353  10.102  0.00  0.00     0.010 C 
BRANCH  17  20
ATOM     20  C18 <0> d   1      18.109   3.657  11.987  0.00  0.00    -0.054 A 
ATOM     21  C24 <0> d   1      17.002   4.388  11.599  0.00  0.00     0.009 A 
ATOM     22  C23 <0> d   1      16.632   5.513  12.312  0.00  0.00     0.024 A 
ATOM     23  C21 <0> d   1      17.378   5.915  13.406  0.00  0.00     0.034 A 
ATOM     24  C20 <0> d   1      18.490   5.186  13.790  0.00  0.00     0.024 A 
ATOM     25 Cl22 <0> d   1      16.919   7.332  14.296  0.00  0.00    -0.084 Cl
ATOM     26  C19 <0> d   1      18.855   4.058  13.080  0.00  0.00     0.009 A 
ENDBRANCH  17  20
ENDBRANCH  11  14
TORSDOF 2
ENDMDL
MODEL 7
REMARK VINA RESULT:      -8.9      4.436      8.645
REMARK  2 active torsions:
REMARK  status: ('A' for Active; 'I' for Inactive)
REMARK    1  A    between atoms: C11_11  and  C12_12 
REMARK    2  A    between atoms: C16_15  and  C18_16 
ROOT
ATOM      1  O1  <0> d   1      19.107   3.934  14.259  0.00  0.00    -0.284 OA
ATOM      2  C2  <0> d   1      19.068   2.758  14.559  0.00  0.00     0.220 C 
ATOM      3  C3  <0> d   1      19.007   2.347  15.979  0.00  0.00     0.031 A 
ATOM      4  C4  <0> d   1      19.266   3.252  17.001  0.00  0.00     0.016 A 
ATOM      5  C5  <0> d   1      19.198   2.833  18.322  0.00  0.00     0.001 A 
ATOM      6  C6  <0> d   1      18.876   1.524  18.625  0.00  0.00     0.001 A 
ATOM      7  C7  <0> d   1      18.615   0.611  17.615  0.00  0.00     0.016 A 
ATOM      8  C8  <0> d   1      18.678   1.015  16.289  0.00  0.00     0.029 A 
ATOM      9  C9  <0> d   1      18.405   0.065  15.186  0.00  0.00     0.192 C 
ATOM     10  O10 <0> d   1      17.887  -1.011  15.416  0.00  0.00    -0.287 OA
ATOM     11  C11 <0> d   1      18.766   0.435  13.811  0.00  0.00     0.037 C 
ATOM     12  C27 <0> d   1      19.076   1.712  13.506  0.00  0.00     0.168 C 
ATOM     13  O28 <0> d   1      19.406   2.041  12.235  0.00  0.00    -0.187 OA
ENDROOT
BRANCH  11  14
ATOM     14  C12 <0> d   1      18.783  -0.618  12.733  0.00  0.00     0.026 C 
ATOM     15  C26 <0> d   1      17.358  -0.860  12.232  0.00  0.00     0.010 C 
ATOM     16  C25 <0> d   1      17.377  -1.929  11.138  0.00  0.00     0.010 C 
ATOM     17  C16 <0> d   1      17.944  -3.231  11.707  0.00  0.00     0.018 C 
ATOM     18  C15 <0> d   1      19.370  -2.990  12.208  0.00  0.00     0.010 C 
ATOM     19  C14 <0> d   1      19.352  -1.920  13.303  0.00  0.00     0.010 C 
BRANCH  17  20
ATOM     20  C18 <0> d   1      17.963  -4.284  10.630  0.00  0.00    -0.054 A 
ATOM     21  C24 <0> d   1      16.775  -4.812  10.159  0.00  0.00     0.009 A 
ATOM     22  C23 <0> d   1      16.791  -5.774   9.166  0.00  0.00     0.024 A 
ATOM     23  C21 <0> d   1      17.997  -6.217   8.653  0.00  0.00     0.034 A 
ATOM     24  C20 <0> d   1      19.186  -5.693   9.128  0.00  0.00     0.024 A 
ATOM     25 Cl22 <0> d   1      18.018  -7.431   7.412  0.00  0.00    -0.084 Cl
ATOM     26  C19 <0> d   1      19.168  -4.727  10.117  0.00  0.00     0.009 A 
ENDBRANCH  17  20
ENDBRANCH  11  14
TORSDOF 2
ENDMDL
MODEL 8
REMARK VINA RESULT:      -8.6      4.799      9.447
REMARK  2 active torsions:
REMARK  status: ('A' for Active; 'I' for Inactive)
REMARK    1  A    between atoms: C11_11  and  C12_12 
REMARK    2  A    between atoms: C16_15  and  C18_16 
ROOT
ATOM      1  O1  <0> d   1      19.062   2.276  17.047  0.00  0.00    -0.284 OA
ATOM      2  C2  <0> d   1      18.838   2.792  15.971  0.00  0.00     0.220 C 
ATOM      3  C3  <0> d   1      18.634   4.254  15.869  0.00  0.00     0.031 A 
ATOM      4  C4  <0> d   1      18.420   5.031  17.000  0.00  0.00     0.016 A 
ATOM      5  C5  <0> d   1      18.234   6.400  16.868  0.00  0.00     0.001 A 
ATOM      6  C6  <0> d   1      18.260   6.992  15.620  0.00  0.00     0.001 A 
ATOM      7  C7  <0> d   1      18.472   6.228  14.483  0.00  0.00     0.016 A 
ATOM      8  C8  <0> d   1      18.661   4.859  14.599  0.00  0.00     0.029 A 
ATOM      9  C9  <0> d   1      18.890   4.013  13.404  0.00  0.00     0.192 C 
ATOM     10  O10 <0> d   1      19.159   4.524  12.334  0.00  0.00    -0.287 OA
ATOM     11  C11 <0> d   1      18.788   2.554  13.524  0.00  0.00     0.037 C 
ATOM     12  C27 <0> d   1      18.768   1.967  14.739  0.00  0.00     0.168 C 
ATOM     13  O28 <0> d   1      18.676   0.621  14.837  0.00  0.00    -0.187 OA
ENDROOT
BRANCH  11  14
ATOM     14  C12 <0> d   1      18.712   1.704  12.282  0.00  0.00     0.026 C 
ATOM     15  C26 <0> d   1      20.116   1.518  11.703  0.00  0.00     0.010 C 
ATOM     16  C25 <0> d   1      20.037   0.656  10.442  0.00  0.00     0.010 C 
ATOM     17  C16 <0> d   1      19.147   1.346   9.407  0.00  0.00     0.018 C 
ATOM     18  C15 <0> d   1      17.742   1.532   9.986  0.00  0.00     0.010 C 
ATOM     19  C14 <0> d   1      17.820   2.395  11.247  0.00  0.00     0.010 C 
BRANCH  17  20
ATOM     20  C18 <0> d   1      19.069   0.497   8.164  0.00  0.00    -0.054 A 
ATOM     21  C24 <0> d   1      19.195  -0.876   8.256  0.00  0.00     0.009 A 
ATOM     22  C23 <0> d   1      19.118  -1.656   7.118  0.00  0.00     0.024 A 
ATOM     23  C21 <0> d   1      18.927  -1.060   5.884  0.00  0.00     0.034 A 
ATOM     24  C20 <0> d   1      18.807   0.316   5.791  0.00  0.00     0.024 A 
ATOM     25 Cl22 <0> d   1      18.838  -2.038   4.452  0.00  0.00    -0.084 Cl
ATOM     26  C19 <0> d   1      18.879   1.093   6.931  0.00  0.00     0.009 A 
ENDBRANCH  17  20
ENDBRANCH  11  14
TORSDOF 2
ENDMDL
MODEL 9
REMARK VINA RESULT:      -8.5      4.384      8.941
REMARK  2 active torsions:
REMARK  status: ('A' for Active; 'I' for Inactive)
REMARK    1  A    between atoms: C11_11  and  C12_12 
REMARK    2  A    between atoms: C16_15  and  C18_16 
ROOT
ATOM      1  O1  <0> d   1      19.598   0.604  18.236  0.00  0.00    -0.284 OA
ATOM      2  C2  <0> d   1      19.224   0.796  17.097  0.00  0.00     0.220 C 
ATOM      3  C3  <0> d   1      18.971   2.171  16.612  0.00  0.00     0.031 A 
ATOM      4  C4  <0> d   1      18.884   3.239  17.495  0.00  0.00     0.016 A 
ATOM      5  C5  <0> d   1      18.647   4.516  17.006  0.00  0.00     0.001 A 
ATOM      6  C6  <0> d   1      18.496   4.730  15.650  0.00  0.00     0.001 A 
ATOM      7  C7  <0> d   1      18.580   3.671  14.758  0.00  0.00     0.016 A 
ATOM      8  C8  <0> d   1      18.818   2.389  15.231  0.00  0.00     0.029 A 
ATOM      9  C9  <0> d   1      18.913   1.237  14.305  0.00  0.00     0.192 C 
ATOM     10  O10 <0> d   1      19.029   1.419  13.109  0.00  0.00    -0.287 OA
ATOM     11  C11 <0> d   1      18.866  -0.128  14.846  0.00  0.00     0.037 C 
ATOM     12  C27 <0> d   1      19.018  -0.345  16.169  0.00  0.00     0.168 C 
ATOM     13  O28 <0> d   1      18.974  -1.606  16.656  0.00  0.00    -0.187 OA
ENDROOT
BRANCH  11  14
ATOM     14  C12 <0> d   1      18.652  -1.294  13.916  0.00  0.00     0.026 C 
ATOM     15  C26 <0> d   1      19.990  -1.706  13.298  0.00  0.00     0.010 C 
ATOM     16  C25 <0> d   1      19.772  -2.890  12.354  0.00  0.00     0.010 C 
ATOM     17  C16 <0> d   1      18.801  -2.485  11.243  0.00  0.00     0.018 C 
ATOM     18  C15 <0> d   1      17.462  -2.073  11.862  0.00  0.00     0.010 C 
ATOM     19  C14 <0> d   1      17.680  -0.889  12.806  0.00  0.00     0.010 C 
BRANCH  17  20
ATOM     20  C18 <0> d   1      18.586  -3.651  10.314  0.00  0.00    -0.054 A 
ATOM     21  C24 <0> d   1      17.365  -3.821   9.689  0.00  0.00     0.009 A 
ATOM     22  C23 <0> d   1      17.170  -4.887   8.830  0.00  0.00     0.024 A 
ATOM     23  C21 <0> d   1      18.193  -5.791   8.606  0.00  0.00     0.034 A 
ATOM     24  C20 <0> d   1      19.414  -5.623   9.237  0.00  0.00     0.024 A 
ATOM     25 Cl22 <0> d   1      17.946  -7.134   7.535  0.00  0.00    -0.084 Cl
ATOM     26  C19 <0> d   1      19.609  -4.554  10.090  0.00  0.00     0.009 A 
ENDBRANCH  17  20
ENDBRANCH  11  14
TORSDOF 2
ENDMDL
