MODEL 1
REMARK VINA RESULT:      -3.4      0.000      0.000
REMARK  2 active torsions:
REMARK  status: ('A' for Active; 'I' for Inactive)
REMARK    1  A    between atoms: C2_2  and  O4_3 
REMARK    2  A    between atoms: C2_2  and  C5_4 
ROOT
ATOM      1  C1  <0> d   1      17.249  -0.485  16.929  0.00  0.00     0.050 C 
ATOM      2  C2  <0> d   1      17.820   0.837  17.447  0.00  0.00     0.214 C 
ENDROOT
BRANCH   2   3
ATOM      3  O4  <0> d   1      16.899   1.426  18.368  0.00  0.00    -0.385 OA
ATOM      4  H11 <0> d   1      17.320   1.879  19.110  0.00  0.00     0.210 HD
ENDBRANCH   2   3
BRANCH   2   5
ATOM      5  C5  <0> d   1      19.131   0.579  18.144  0.00  0.00     0.202 C 
ATOM      6  O6  <0> d   1      19.543  -0.562  18.264  0.00  0.00    -0.646 OA
ATOM      7  O7  <0> d   1      19.780   1.511  18.588  0.00  0.00    -0.646 OA
ENDBRANCH   2   5
TORSDOF 2
ENDMDL
MODEL 2
REMARK VINA RESULT:      -3.3     12.518     12.856
REMARK  2 active torsions:
REMARK  status: ('A' for Active; 'I' for Inactive)
REMARK    1  A    between atoms: C2_2  and  O4_3 
REMARK    2  A    between atoms: C2_2  and  C5_4 
ROOT
ATOM      1  C1  <0> d   1      18.120   0.451   6.105  0.00  0.00     0.050 C 
ATOM      2  C2  <0> d   1      18.029  -1.062   5.898  0.00  0.00     0.214 C 
ENDROOT
BRANCH   2   3
ATOM      3  O4  <0> d   1      16.910  -1.362   5.061  0.00  0.00    -0.385 OA
ATOM      4  H11 <0> d   1      17.087  -2.042   4.397  0.00  0.00     0.210 HD
ENDBRANCH   2   3
BRANCH   2   5
ATOM      5  C5  <0> d   1      19.293  -1.557   5.242  0.00  0.00     0.202 C 
ATOM      6  O6  <0> d   1      19.957  -0.801   4.553  0.00  0.00    -0.646 OA
ATOM      7  O7  <0> d   1      19.651  -2.711   5.402  0.00  0.00    -0.646 OA
ENDBRANCH   2   5
TORSDOF 2
ENDMDL
MODEL 3
REMARK VINA RESULT:      -3.1     12.077     12.594
REMARK  2 active torsions:
REMARK  status: ('A' for Active; 'I' for Inactive)
REMARK    1  A    between atoms: C2_2  and  O4_3 
REMARK    2  A    between atoms: C2_2  and  C5_4 
ROOT
ATOM      1  C1  <0> d   1      19.244   0.151   5.211  0.00  0.00     0.050 C 
ATOM      2  C2  <0> d   1      18.909  -1.340   5.142  0.00  0.00     0.214 C 
ENDROOT
BRANCH   2   3
ATOM      3  O4  <0> d   1      19.532  -1.916   3.992  0.00  0.00    -0.385 OA
ATOM      4  H11 <0> d   1      19.020  -1.819   3.177  0.00  0.00     0.210 HD
ENDBRANCH   2   3
BRANCH   2   5
ATOM      5  C5  <0> d   1      19.416  -2.027   6.384  0.00  0.00     0.202 C 
ATOM      6  O6  <0> d   1      19.979  -3.105   6.297  0.00  0.00    -0.646 OA
ATOM      7  O7  <0> d   1      19.263  -1.505   7.475  0.00  0.00    -0.646 OA
ENDBRANCH   2   5
TORSDOF 2
ENDMDL
MODEL 4
REMARK VINA RESULT:      -3.0      7.500      7.919
REMARK  2 active torsions:
REMARK  status: ('A' for Active; 'I' for Inactive)
REMARK    1  A    between atoms: C2_2  and  O4_3 
REMARK    2  A    between atoms: C2_2  and  C5_4 
ROOT
ATOM      1  C1  <0> d   1      19.061   2.201   8.879  0.00  0.00     0.050 C 
ATOM      2  C2  <0> d   1      19.059   1.946  10.388  0.00  0.00     0.214 C 
ENDROOT
BRANCH   2   3
ATOM      3  O4  <0> d   1      20.048   2.769  11.011  0.00  0.00    -0.385 OA
ATOM      4  H11 <0> d   1      20.816   2.952  10.453  0.00  0.00     0.210 HD
ENDBRANCH   2   3
BRANCH   2   5
ATOM      5  C5  <0> d   1      17.702   2.278  10.952  0.00  0.00     0.202 C 
ATOM      6  O6  <0> d   1      17.108   1.458  11.632  0.00  0.00    -0.646 OA
ATOM      7  O7  <0> d   1      17.198   3.365  10.729  0.00  0.00    -0.646 OA
ENDBRANCH   2   5
TORSDOF 2
ENDMDL
MODEL 5
REMARK VINA RESULT:      -3.0      8.137      8.612
REMARK  2 active torsions:
REMARK  status: ('A' for Active; 'I' for Inactive)
REMARK    1  A    between atoms: C2_2  and  O4_3 
REMARK    2  A    between atoms: C2_2  and  C5_4 
ROOT
ATOM      1  C1  <0> d   1      19.667  -1.969  11.091  0.00  0.00     0.050 C 
ATOM      2  C2  <0> d   1      20.195  -0.577  10.737  0.00  0.00     0.214 C 
ENDROOT
BRANCH   2   3
ATOM      3  O4  <0> d   1      21.613  -0.547  10.911  0.00  0.00    -0.385 OA
ATOM      4  H11 <0> d   1      21.910   0.032  11.626  0.00  0.00     0.210 HD
ENDBRANCH   2   3
BRANCH   2   5
ATOM      5  C5  <0> d   1      19.858  -0.261   9.303  0.00  0.00     0.202 C 
ATOM      6  O6  <0> d   1      19.753  -1.163   8.489  0.00  0.00    -0.646 OA
ATOM      7  O7  <0> d   1      19.691   0.896   8.956  0.00  0.00    -0.646 OA
ENDBRANCH   2   5
TORSDOF 2
ENDMDL
MODEL 6
REMARK VINA RESULT:      -2.9      8.082      8.487
REMARK  2 active torsions:
REMARK  status: ('A' for Active; 'I' for Inactive)
REMARK    1  A    between atoms: C2_2  and  O4_3 
REMARK    2  A    between atoms: C2_2  and  C5_4 
ROOT
ATOM      1  C1  <0> d   1      16.871   5.381  12.128  0.00  0.00     0.050 C 
ATOM      2  C2  <0> d   1      16.840   4.893  10.678  0.00  0.00     0.214 C 
ENDROOT
BRANCH   2   3
ATOM      3  O4  <0> d   1      17.500   5.844   9.841  0.00  0.00    -0.385 OA
ATOM      4  H11 <0> d   1      18.205   6.336  10.284  0.00  0.00     0.210 HD
ENDBRANCH   2   3
BRANCH   2   5
ATOM      5  C5  <0> d   1      17.544   3.564  10.580  0.00  0.00     0.202 C 
ATOM      6  O6  <0> d   1      18.502   3.436   9.837  0.00  0.00    -0.646 OA
ATOM      7  O7  <0> d   1      17.157   2.618  11.244  0.00  0.00    -0.646 OA
ENDBRANCH   2   5
TORSDOF 2
ENDMDL
MODEL 7
REMARK VINA RESULT:      -2.9      1.656      2.673
REMARK  2 active torsions:
REMARK  status: ('A' for Active; 'I' for Inactive)
REMARK    1  A    between atoms: C2_2  and  O4_3 
REMARK    2  A    between atoms: C2_2  and  C5_4 
ROOT
ATOM      1  C1  <0> d   1      17.721   1.030  18.443  0.00  0.00     0.050 C 
ATOM      2  C2  <0> d   1      18.824   0.434  17.566  0.00  0.00     0.214 C 
ENDROOT
BRANCH   2   3
ATOM      3  O4  <0> d   1      19.941   0.075  18.382  0.00  0.00    -0.385 OA
ATOM      4  H11 <0> d   1      20.258  -0.826  18.240  0.00  0.00     0.210 HD
ENDBRANCH   2   3
BRANCH   2   5
ATOM      5  C5  <0> d   1      18.300  -0.793  16.865  0.00  0.00     0.202 C 
ATOM      6  O6  <0> d   1      19.075  -1.562  16.323  0.00  0.00    -0.646 OA
ATOM      7  O7  <0> d   1      17.102  -1.016  16.840  0.00  0.00    -0.646 OA
ENDBRANCH   2   5
TORSDOF 2
ENDMDL
MODEL 8
REMARK VINA RESULT:      -2.9     12.290     13.011
REMARK  2 active torsions:
REMARK  status: ('A' for Active; 'I' for Inactive)
REMARK    1  A    between atoms: C2_2  and  O4_3 
REMARK    2  A    between atoms: C2_2  and  C5_4 
ROOT
ATOM      1  C1  <0> d   1      18.489  -3.516   7.400  0.00  0.00     0.050 C 
ATOM      2  C2  <0> d   1      19.683  -3.032   6.575  0.00  0.00     0.214 C 
ENDROOT
BRANCH   2   3
ATOM      3  O4  <0> d   1      20.739  -3.992   6.655  0.00  0.00    -0.385 OA
ATOM      4  H11 <0> d   1      21.619  -3.622   6.505  0.00  0.00     0.210 HD
ENDBRANCH   2   3
BRANCH   2   5
ATOM      5  C5  <0> d   1      19.265  -2.864   5.137  0.00  0.00     0.202 C 
ATOM      6  O6  <0> d   1      19.619  -1.880   4.510  0.00  0.00    -0.646 OA
ATOM      7  O7  <0> d   1      18.574  -3.713   4.600  0.00  0.00    -0.646 OA
ENDBRANCH   2   5
TORSDOF 2
ENDMDL
MODEL 9
REMARK VINA RESULT:      -2.9      7.218      7.646
REMARK  2 active torsions:
REMARK  status: ('A' for Active; 'I' for Inactive)
REMARK    1  A    between atoms: C2_2  and  O4_3 
REMARK    2  A    between atoms: C2_2  and  C5_4 
ROOT
ATOM      1  C1  <0> d   1      19.222   2.277   9.704  0.00  0.00     0.050 C 
ATOM      2  C2  <0> d   1      19.292   2.603  11.198  0.00  0.00     0.214 C 
ENDROOT
BRANCH   2   3
ATOM      3  O4  <0> d   1      20.599   3.081  11.521  0.00  0.00    -0.385 OA
ATOM      4  H11 <0> d   1      21.170   2.418  11.934  0.00  0.00     0.210 HD
ENDBRANCH   2   3
BRANCH   2   5
ATOM      5  C5  <0> d   1      18.274   3.663  11.529  0.00  0.00     0.202 C 
ATOM      6  O6  <0> d   1      17.090   3.457  11.320  0.00  0.00    -0.646 OA
ATOM      7  O7  <0> d   1      18.633   4.726  12.004  0.00  0.00    -0.646 OA
ENDBRANCH   2   5
TORSDOF 2
ENDMDL
