MODEL 1
REMARK VINA RESULT:      -3.2      0.000      0.000
REMARK  0 active torsions:
REMARK  status: ('A' for Active; 'I' for Inactive)
ROOT
ATOM      1  C1  <0> d   1      17.439  -1.717  11.549  0.00  0.00     0.158 C 
ATOM      2  N2  <0> d   1      18.656  -2.529  11.468  0.00  0.00    -0.337 N 
ATOM      3  C3  <0> d   1      18.721  -3.910  11.572  0.00  0.00     0.110 A 
ATOM      4  C4  <0> d   1      19.995  -4.269  11.448  0.00  0.00     0.107 A 
ATOM      5  N5  <0> d   1      20.747  -3.119  11.266  0.00  0.00    -0.342 N 
ATOM      6  C6  <0> d   1      19.907  -2.066  11.276  0.00  0.00     0.177 A 
ATOM      7  S7  <0> d   1      20.352  -0.423  11.088  0.00  0.00    -0.040 SA
ATOM      8  H13 <0> d   1      21.709  -3.080  11.148  0.00  0.00     0.167 HD
ENDROOT
TORSDOF 0
ENDMDL
MODEL 2
REMARK VINA RESULT:      -3.1      4.788      5.542
REMARK  0 active torsions:
REMARK  status: ('A' for Active; 'I' for Inactive)
ROOT
ATOM      1  C1  <0> d   1      19.553   1.715   8.470  0.00  0.00     0.158 C 
ATOM      2  N2  <0> d   1      18.573   0.870   7.783  0.00  0.00    -0.337 N 
ATOM      3  C3  <0> d   1      18.464   0.699   6.412  0.00  0.00     0.110 A 
ATOM      4  C4  <0> d   1      17.459  -0.140   6.183  0.00  0.00     0.107 A 
ATOM      5  N5  <0> d   1      16.923  -0.507   7.408  0.00  0.00    -0.342 N 
ATOM      6  C6  <0> d   1      17.623   0.119   8.374  0.00  0.00     0.177 A 
ATOM      7  S7  <0> d   1      17.347  -0.010  10.059  0.00  0.00    -0.040 SA
ATOM      8  H13 <0> d   1      16.176  -1.110   7.545  0.00  0.00     0.167 HD
ENDROOT
TORSDOF 0
ENDMDL
MODEL 3
REMARK VINA RESULT:      -3.1      3.396      3.679
REMARK  0 active torsions:
REMARK  status: ('A' for Active; 'I' for Inactive)
ROOT
ATOM      1  C1  <0> d   1      17.830   1.731  10.596  0.00  0.00     0.158 C 
ATOM      2  N2  <0> d   1      18.987   0.844  10.450  0.00  0.00    -0.337 N 
ATOM      3  C3  <0> d   1      19.694   0.251  11.483  0.00  0.00     0.110 A 
ATOM      4  C4  <0> d   1      20.669  -0.478  10.947  0.00  0.00     0.107 A 
ATOM      5  N5  <0> d   1      20.586  -0.352   9.569  0.00  0.00    -0.342 N 
ATOM      6  C6  <0> d   1      19.546   0.457   9.286  0.00  0.00     0.177 A 
ATOM      7  S7  <0> d   1      19.032   0.922   7.720  0.00  0.00    -0.040 SA
ATOM      8  H13 <0> d   1      21.172  -0.774   8.922  0.00  0.00     0.167 HD
ENDROOT
TORSDOF 0
ENDMDL
MODEL 4
REMARK VINA RESULT:      -3.1      3.700      4.139
REMARK  0 active torsions:
REMARK  status: ('A' for Active; 'I' for Inactive)
ROOT
ATOM      1  C1  <0> d   1      19.230   1.893   8.954  0.00  0.00     0.158 C 
ATOM      2  N2  <0> d   1      19.306   0.498   8.512  0.00  0.00    -0.337 N 
ATOM      3  C3  <0> d   1      18.905   0.012   7.277  0.00  0.00     0.110 A 
ATOM      4  C4  <0> d   1      19.133  -1.297   7.259  0.00  0.00     0.107 A 
ATOM      5  N5  <0> d   1      19.681  -1.651   8.482  0.00  0.00    -0.342 N 
ATOM      6  C6  <0> d   1      19.783  -0.537   9.232  0.00  0.00     0.177 A 
ATOM      7  S7  <0> d   1      20.400  -0.451  10.827  0.00  0.00    -0.040 SA
ATOM      8  H13 <0> d   1      19.947  -2.545   8.751  0.00  0.00     0.167 HD
ENDROOT
TORSDOF 0
ENDMDL
MODEL 5
REMARK VINA RESULT:      -3.1      2.927      3.561
REMARK  0 active torsions:
REMARK  status: ('A' for Active; 'I' for Inactive)
ROOT
ATOM      1  C1  <0> d   1      17.738  -1.367  12.105  0.00  0.00     0.158 C 
ATOM      2  N2  <0> d   1      18.969  -0.618  12.368  0.00  0.00    -0.337 N 
ATOM      3  C3  <0> d   1      19.732   0.052  11.425  0.00  0.00     0.110 A 
ATOM      4  C4  <0> d   1      20.765   0.605  12.053  0.00  0.00     0.107 A 
ATOM      5  N5  <0> d   1      20.665   0.289  13.399  0.00  0.00    -0.342 N 
ATOM      6  C6  <0> d   1      19.556  -0.455  13.571  0.00  0.00     0.177 A 
ATOM      7  S7  <0> d   1      18.994  -1.094  15.058  0.00  0.00    -0.040 SA
ATOM      8  H13 <0> d   1      21.284   0.559  14.095  0.00  0.00     0.167 HD
ENDROOT
TORSDOF 0
ENDMDL
MODEL 6
REMARK VINA RESULT:      -3.0      5.988      6.404
REMARK  0 active torsions:
REMARK  status: ('A' for Active; 'I' for Inactive)
ROOT
ATOM      1  C1  <0> d   1      19.247  -1.065   7.915  0.00  0.00     0.158 C 
ATOM      2  N2  <0> d   1      19.141  -0.968   6.456  0.00  0.00    -0.337 N 
ATOM      3  C3  <0> d   1      19.012   0.202   5.725  0.00  0.00     0.110 A 
ATOM      4  C4  <0> d   1      18.945  -0.124   4.439  0.00  0.00     0.107 A 
ATOM      5  N5  <0> d   1      19.031  -1.504   4.344  0.00  0.00    -0.342 N 
ATOM      6  C6  <0> d   1      19.155  -2.001   5.591  0.00  0.00     0.177 A 
ATOM      7  S7  <0> d   1      19.296  -3.657   6.004  0.00  0.00    -0.040 SA
ATOM      8  H13 <0> d   1      19.008  -2.023   3.525  0.00  0.00     0.167 HD
ENDROOT
TORSDOF 0
ENDMDL
MODEL 7
REMARK VINA RESULT:      -3.0      4.130      4.926
REMARK  0 active torsions:
REMARK  status: ('A' for Active; 'I' for Inactive)
ROOT
ATOM      1  C1  <0> d   1      17.835   1.025   9.677  0.00  0.00     0.158 C 
ATOM      2  N2  <0> d   1      18.838   1.660  10.535  0.00  0.00    -0.337 N 
ATOM      3  C3  <0> d   1      18.939   3.016  10.803  0.00  0.00     0.110 A 
ATOM      4  C4  <0> d   1      19.972   3.196  11.620  0.00  0.00     0.107 A 
ATOM      5  N5  <0> d   1      20.534   1.955  11.877  0.00  0.00    -0.342 N 
ATOM      6  C6  <0> d   1      19.821   1.028  11.207  0.00  0.00     0.177 A 
ATOM      7  S7  <0> d   1      20.119  -0.658  11.201  0.00  0.00    -0.040 SA
ATOM      8  H13 <0> d   1      21.303   1.783  12.441  0.00  0.00     0.167 HD
ENDROOT
TORSDOF 0
ENDMDL
MODEL 8
REMARK VINA RESULT:      -3.0      5.595      6.256
REMARK  0 active torsions:
REMARK  status: ('A' for Active; 'I' for Inactive)
ROOT
ATOM      1  C1  <0> d   1      17.033   4.757  10.836  0.00  0.00     0.158 C 
ATOM      2  N2  <0> d   1      18.129   3.789  10.750  0.00  0.00    -0.337 N 
ATOM      3  C3  <0> d   1      18.265   2.795   9.795  0.00  0.00     0.110 A 
ATOM      4  C4  <0> d   1      19.385   2.128  10.055  0.00  0.00     0.107 A 
ATOM      5  N5  <0> d   1      19.968   2.694  11.177  0.00  0.00    -0.342 N 
ATOM      6  C6  <0> d   1      19.186   3.713  11.584  0.00  0.00     0.177 A 
ATOM      7  S7  <0> d   1      19.477   4.728  12.932  0.00  0.00    -0.040 SA
ATOM      8  H13 <0> d   1      20.795   2.409  11.596  0.00  0.00     0.167 HD
ENDROOT
TORSDOF 0
ENDMDL
MODEL 9
REMARK VINA RESULT:      -2.9      4.076      4.574
REMARK  0 active torsions:
REMARK  status: ('A' for Active; 'I' for Inactive)
ROOT
ATOM      1  C1  <0> d   1      17.089   0.278  10.718  0.00  0.00     0.158 C 
ATOM      2  N2  <0> d   1      18.050   0.757   9.720  0.00  0.00    -0.337 N 
ATOM      3  C3  <0> d   1      18.060   0.425   8.375  0.00  0.00     0.110 A 
ATOM      4  C4  <0> d   1      19.080   1.057   7.805  0.00  0.00     0.107 A 
ATOM      5  N5  <0> d   1      19.726   1.795   8.785  0.00  0.00    -0.342 N 
ATOM      6  C6  <0> d   1      19.075   1.601   9.949  0.00  0.00     0.177 A 
ATOM      7  S7  <0> d   1      19.486   2.298  11.459  0.00  0.00    -0.040 SA
ATOM      8  H13 <0> d   1      20.507   2.355   8.656  0.00  0.00     0.167 HD
ENDROOT
TORSDOF 0
ENDMDL
