MODEL 1
REMARK VINA RESULT:      -5.9      0.000      0.000
REMARK  5 active torsions:
REMARK  status: ('A' for Active; 'I' for Inactive)
REMARK    1  A    between atoms: P2_2  and  C5_5 
REMARK    2  A    between atoms: C5_5  and  O6_6 
REMARK    3  A    between atoms: C5_5  and  C7_7 
REMARK    4  A    between atoms: C5_5  and  P14_14 
REMARK    5  A    between atoms: C7_7  and  C8_8 
ROOT
ATOM      1  C5  ZIN A   1      18.714   0.528   9.804  0.00  0.00     0.289 C 
ENDROOT
BRANCH   1   2
ATOM      2  P2  ZIN A   1      18.510  -0.755  11.082  0.00  0.00     0.310 P 
ATOM      3  O1  ZIN A   1      19.204  -0.289  12.406  0.00  0.00    -0.637 OA
ATOM      4  O3  ZIN A   1      19.164  -2.092  10.591  0.00  0.00    -0.637 OA
ATOM      5  O4  ZIN A   1      16.982  -0.988  11.347  0.00  0.00    -0.637 OA
ENDBRANCH   1   2
BRANCH   1   6
ATOM      6  O6  ZIN A   1      20.007   0.405   9.208  0.00  0.00    -0.365 OA
ATOM      7  H18 ZIN A   1      20.583   1.168   9.358  0.00  0.00     0.212 HD
ENDBRANCH   1   6
BRANCH   1   8
ATOM      8  C7  ZIN A   1      17.639   0.355   8.730  0.00  0.00     0.108 C 
BRANCH   8   9
ATOM      9  C8  ZIN A   1      18.289  -0.035   7.427  0.00  0.00    -0.036 A 
ATOM     10  C13 ZIN A   1      18.559  -1.362   7.150  0.00  0.00     0.123 A 
ATOM     11  N12 ZIN A   1      19.123  -1.711   6.011  0.00  0.00    -0.273 NA
ATOM     12  C11 ZIN A   1      19.459  -0.819   5.101  0.00  0.00     0.116 A 
ATOM     13  C10 ZIN A   1      19.223   0.527   5.310  0.00  0.00     0.020 A 
ATOM     14  C9  ZIN A   1      18.628   0.932   6.494  0.00  0.00     0.010 A 
ENDBRANCH   8   9
ENDBRANCH   1   8
BRANCH   1  15
ATOM     15  P14 ZIN A   1      18.551   2.176  10.567  0.00  0.00     0.310 P 
ATOM     16  O15 ZIN A   1      17.260   2.216  11.453  0.00  0.00    -0.637 OA
ATOM     17  O16 ZIN A   1      19.806   2.464  11.460  0.00  0.00    -0.637 OA
ATOM     18  O17 ZIN A   1      18.449   3.264   9.445  0.00  0.00    -0.637 OA
ENDBRANCH   1  15
TORSDOF 5
ENDMDL
MODEL 2
REMARK VINA RESULT:      -5.9      0.038      1.521
REMARK  5 active torsions:
REMARK  status: ('A' for Active; 'I' for Inactive)
REMARK    1  A    between atoms: P2_2  and  C5_5 
REMARK    2  A    between atoms: C5_5  and  O6_6 
REMARK    3  A    between atoms: C5_5  and  C7_7 
REMARK    4  A    between atoms: C5_5  and  P14_14 
REMARK    5  A    between atoms: C7_7  and  C8_8 
ROOT
ATOM      1  C5  ZIN A   1      18.714   0.497   9.827  0.00  0.00     0.289 C 
ENDROOT
BRANCH   1   2
ATOM      2  P2  ZIN A   1      18.505  -0.794  11.096  0.00  0.00     0.310 P 
ATOM      3  O1  ZIN A   1      16.978  -1.032  11.352  0.00  0.00    -0.637 OA
ATOM      4  O3  ZIN A   1      19.193  -0.335  12.428  0.00  0.00    -0.637 OA
ATOM      5  O4  ZIN A   1      19.165  -2.126  10.600  0.00  0.00    -0.637 OA
ENDBRANCH   1   2
BRANCH   1   6
ATOM      6  O6  ZIN A   1      20.008   0.373   9.231  0.00  0.00    -0.365 OA
ATOM      7  H18 ZIN A   1      20.001  -0.052   8.362  0.00  0.00     0.212 HD
ENDBRANCH   1   6
BRANCH   1   8
ATOM      8  C7  ZIN A   1      17.640   0.334   8.751  0.00  0.00     0.108 C 
BRANCH   8   9
ATOM      9  C8  ZIN A   1      18.289  -0.050   7.446  0.00  0.00    -0.036 A 
ATOM     10  C13 ZIN A   1      18.569  -1.373   7.167  0.00  0.00     0.123 A 
ATOM     11  N12 ZIN A   1      19.133  -1.717   6.025  0.00  0.00    -0.273 NA
ATOM     12  C11 ZIN A   1      19.459  -0.821   5.115  0.00  0.00     0.116 A 
ATOM     13  C10 ZIN A   1      19.214   0.522   5.327  0.00  0.00     0.020 A 
ATOM     14  C9  ZIN A   1      18.618   0.921   6.514  0.00  0.00     0.010 A 
ENDBRANCH   8   9
ENDBRANCH   1   8
BRANCH   1  15
ATOM     15  P14 ZIN A   1      18.556   2.140  10.600  0.00  0.00     0.310 P 
ATOM     16  O15 ZIN A   1      19.813   2.421  11.493  0.00  0.00    -0.637 OA
ATOM     17  O16 ZIN A   1      18.453   3.235   9.485  0.00  0.00    -0.637 OA
ATOM     18  O17 ZIN A   1      17.266   2.178  11.489  0.00  0.00    -0.637 OA
ENDBRANCH   1  15
TORSDOF 5
ENDMDL
MODEL 3
REMARK VINA RESULT:      -5.8      5.223      7.472
REMARK  5 active torsions:
REMARK  status: ('A' for Active; 'I' for Inactive)
REMARK    1  A    between atoms: P2_2  and  C5_5 
REMARK    2  A    between atoms: C5_5  and  O6_6 
REMARK    3  A    between atoms: C5_5  and  C7_7 
REMARK    4  A    between atoms: C5_5  and  P14_14 
REMARK    5  A    between atoms: C7_7  and  C8_8 
ROOT
ATOM      1  C5  ZIN A   1      18.614   0.752  13.348  0.00  0.00     0.289 C 
ENDROOT
BRANCH   1   2
ATOM      2  P2  ZIN A   1      18.368   2.189  12.254  0.00  0.00     0.310 P 
ATOM      3  O1  ZIN A   1      18.036   3.453  13.117  0.00  0.00    -0.637 OA
ATOM      4  O3  ZIN A   1      17.182   1.900  11.270  0.00  0.00    -0.637 OA
ATOM      5  O4  ZIN A   1      19.676   2.448  11.430  0.00  0.00    -0.637 OA
ENDBRANCH   1   2
BRANCH   1   6
ATOM      6  O6  ZIN A   1      19.924   0.805  13.916  0.00  0.00    -0.365 OA
ATOM      7  H18 ZIN A   1      20.636   0.820  13.261  0.00  0.00     0.212 HD
ENDBRANCH   1   6
BRANCH   1   8
ATOM      8  C7  ZIN A   1      17.572   0.779  14.468  0.00  0.00     0.108 C 
BRANCH   8   9
ATOM      9  C8  ZIN A   1      18.265   0.663  15.802  0.00  0.00    -0.036 A 
ATOM     10  C13 ZIN A   1      18.771   1.785  16.427  0.00  0.00     0.123 A 
ATOM     11  N12 ZIN A   1      19.375   1.692  17.596  0.00  0.00    -0.273 NA
ATOM     12  C11 ZIN A   1      19.527   0.533  18.207  0.00  0.00     0.116 A 
ATOM     13  C10 ZIN A   1      19.051  -0.633  17.639  0.00  0.00     0.020 A 
ATOM     14  C9  ZIN A   1      18.406  -0.573  16.413  0.00  0.00     0.010 A 
ENDBRANCH   8   9
ENDBRANCH   1   8
BRANCH   1  15
ATOM     15  P14 ZIN A   1      18.430  -0.784  12.384  0.00  0.00     0.310 P 
ATOM     16  O15 ZIN A   1      19.159  -0.627  11.007  0.00  0.00    -0.637 OA
ATOM     17  O16 ZIN A   1      19.064  -1.977  13.177  0.00  0.00    -0.637 OA
ATOM     18  O17 ZIN A   1      16.909  -1.069  12.141  0.00  0.00    -0.637 OA
ENDBRANCH   1  15
TORSDOF 5
ENDMDL
MODEL 4
REMARK VINA RESULT:      -5.8      1.523      3.270
REMARK  5 active torsions:
REMARK  status: ('A' for Active; 'I' for Inactive)
REMARK    1  A    between atoms: P2_2  and  C5_5 
REMARK    2  A    between atoms: C5_5  and  O6_6 
REMARK    3  A    between atoms: C5_5  and  C7_7 
REMARK    4  A    between atoms: C5_5  and  P14_14 
REMARK    5  A    between atoms: C7_7  and  C8_8 
ROOT
ATOM      1  C5  ZIN A   1      17.996  -0.941   9.459  0.00  0.00     0.289 C 
ENDROOT
BRANCH   1   2
ATOM      2  P2  ZIN A   1      17.567   0.321  10.702  0.00  0.00     0.310 P 
ATOM      3  O1  ZIN A   1      18.549   0.211  11.918  0.00  0.00    -0.637 OA
ATOM      4  O3  ZIN A   1      16.097   0.093  11.195  0.00  0.00    -0.637 OA
ATOM      5  O4  ZIN A   1      17.687   1.746  10.061  0.00  0.00    -0.637 OA
ENDBRANCH   1   2
BRANCH   1   6
ATOM      6  O6  ZIN A   1      16.994  -0.966   8.440  0.00  0.00    -0.365 OA
ATOM      7  H18 ZIN A   1      16.925  -0.142   7.937  0.00  0.00     0.212 HD
ENDBRANCH   1   6
BRANCH   1   8
ATOM      8  C7  ZIN A   1      19.350  -0.604   8.834  0.00  0.00     0.108 C 
BRANCH   8   9
ATOM      9  C8  ZIN A   1      19.255  -0.718   7.335  0.00  0.00    -0.036 A 
ATOM     10  C13 ZIN A   1      19.459  -1.933   6.711  0.00  0.00     0.123 A 
ATOM     11  N12 ZIN A   1      19.372  -2.042   5.399  0.00  0.00    -0.273 NA
ATOM     12  C11 ZIN A   1      19.100  -1.003   4.635  0.00  0.00     0.116 A 
ATOM     13  C10 ZIN A   1      18.889   0.246   5.187  0.00  0.00     0.020 A 
ATOM     14  C9  ZIN A   1      18.967   0.397   6.563  0.00  0.00     0.010 A 
ENDBRANCH   8   9
ENDBRANCH   1   8
BRANCH   1  15
ATOM     15  P14 ZIN A   1      18.086  -2.576  10.261  0.00  0.00     0.310 P 
ATOM     16  O15 ZIN A   1      17.693  -3.687   9.229  0.00  0.00    -0.637 OA
ATOM     17  O16 ZIN A   1      19.547  -2.829  10.769  0.00  0.00    -0.637 OA
ATOM     18  O17 ZIN A   1      17.097  -2.618  11.475  0.00  0.00    -0.637 OA
ENDBRANCH   1  15
TORSDOF 5
ENDMDL
MODEL 5
REMARK VINA RESULT:      -5.6      4.537      6.299
REMARK  5 active torsions:
REMARK  status: ('A' for Active; 'I' for Inactive)
REMARK    1  A    between atoms: P2_2  and  C5_5 
REMARK    2  A    between atoms: C5_5  and  O6_6 
REMARK    3  A    between atoms: C5_5  and  C7_7 
REMARK    4  A    between atoms: C5_5  and  P14_14 
REMARK    5  A    between atoms: C7_7  and  C8_8 
ROOT
ATOM      1  C5  ZIN A   1      18.272   0.625  12.298  0.00  0.00     0.289 C 
ENDROOT
BRANCH   1   2
ATOM      2  P2  ZIN A   1      17.872  -0.641  11.049  0.00  0.00     0.310 P 
ATOM      3  O1  ZIN A   1      17.031   0.008   9.898  0.00  0.00    -0.637 OA
ATOM      4  O3  ZIN A   1      17.044  -1.792  11.717  0.00  0.00    -0.637 OA
ATOM      5  O4  ZIN A   1      19.199  -1.229  10.458  0.00  0.00    -0.637 OA
ENDBRANCH   1   2
BRANCH   1   6
ATOM      6  O6  ZIN A   1      17.196   0.730  13.232  0.00  0.00    -0.365 OA
ATOM      7  H18 ZIN A   1      16.919   1.639  13.412  0.00  0.00     0.212 HD
ENDBRANCH   1   6
BRANCH   1   8
ATOM      8  C7  ZIN A   1      19.551   0.227  13.037  0.00  0.00     0.108 C 
BRANCH   8   9
ATOM      9  C8  ZIN A   1      19.240  -0.000  14.494  0.00  0.00    -0.036 A 
ATOM     10  C13 ZIN A   1      19.220   1.061  15.379  0.00  0.00     0.123 A 
ATOM     11  N12 ZIN A   1      18.944   0.871  16.654  0.00  0.00    -0.273 NA
ATOM     12  C11 ZIN A   1      18.688  -0.329  17.136  0.00  0.00     0.116 A 
ATOM     13  C10 ZIN A   1      18.695  -1.438  16.313  0.00  0.00     0.020 A 
ATOM     14  C9  ZIN A   1      18.976  -1.277  14.964  0.00  0.00     0.010 A 
ENDBRANCH   8   9
ENDBRANCH   1   8
BRANCH   1  15
ATOM     15  P14 ZIN A   1      18.521   2.232  11.474  0.00  0.00     0.310 P 
ATOM     16  O15 ZIN A   1      17.131   2.851  11.105  0.00  0.00    -0.637 OA
ATOM     17  O16 ZIN A   1      19.285   3.201  12.440  0.00  0.00    -0.637 OA
ATOM     18  O17 ZIN A   1      19.364   2.025  10.170  0.00  0.00    -0.637 OA
ENDBRANCH   1  15
TORSDOF 5
ENDMDL
MODEL 6
REMARK VINA RESULT:      -5.6      3.963      5.233
REMARK  5 active torsions:
REMARK  status: ('A' for Active; 'I' for Inactive)
REMARK    1  A    between atoms: P2_2  and  C5_5 
REMARK    2  A    between atoms: C5_5  and  O6_6 
REMARK    3  A    between atoms: C5_5  and  C7_7 
REMARK    4  A    between atoms: C5_5  and  P14_14 
REMARK    5  A    between atoms: C7_7  and  C8_8 
ROOT
ATOM      1  C5  ZIN A   1      18.528  -1.464   6.940  0.00  0.00     0.289 C 
ENDROOT
BRANCH   1   2
ATOM      2  P2  ZIN A   1      18.770  -3.243   6.626  0.00  0.00     0.310 P 
ATOM      3  O1  ZIN A   1      18.203  -4.068   7.831  0.00  0.00    -0.637 OA
ATOM      4  O3  ZIN A   1      20.300  -3.542   6.462  0.00  0.00    -0.637 OA
ATOM      5  O4  ZIN A   1      18.016  -3.649   5.314  0.00  0.00    -0.637 OA
ENDBRANCH   1   2
BRANCH   1   6
ATOM      6  O6  ZIN A   1      17.178  -1.232   7.346  0.00  0.00    -0.365 OA
ATOM      7  H18 ZIN A   1      16.772  -0.456   6.936  0.00  0.00     0.212 HD
ENDBRANCH   1   6
BRANCH   1   8
ATOM      8  C7  ZIN A   1      19.479  -1.006   8.047  0.00  0.00     0.108 C 
BRANCH   8   9
ATOM      9  C8  ZIN A   1      18.680  -0.455   9.200  0.00  0.00    -0.036 A 
ATOM     10  C13 ZIN A   1      18.219  -1.293  10.196  0.00  0.00     0.123 A 
ATOM     11  N12 ZIN A   1      17.524  -0.817  11.210  0.00  0.00    -0.273 NA
ATOM     12  C11 ZIN A   1      17.233   0.465  11.310  0.00  0.00     0.116 A 
ATOM     13  C10 ZIN A   1      17.656   1.363  10.349  0.00  0.00     0.020 A 
ATOM     14  C9  ZIN A   1      18.394   0.900   9.270  0.00  0.00     0.010 A 
ENDBRANCH   8   9
ENDBRANCH   1   8
BRANCH   1  15
ATOM     15  P14 ZIN A   1      18.874  -0.526   5.415  0.00  0.00     0.310 P 
ATOM     16  O15 ZIN A   1      20.070  -1.190   4.654  0.00  0.00    -0.637 OA
ATOM     17  O16 ZIN A   1      17.603  -0.533   4.499  0.00  0.00    -0.637 OA
ATOM     18  O17 ZIN A   1      19.243   0.951   5.783  0.00  0.00    -0.637 OA
ENDBRANCH   1  15
TORSDOF 5
ENDMDL
MODEL 7
REMARK VINA RESULT:      -5.6      1.851      2.835
REMARK  5 active torsions:
REMARK  status: ('A' for Active; 'I' for Inactive)
REMARK    1  A    between atoms: P2_2  and  C5_5 
REMARK    2  A    between atoms: C5_5  and  O6_6 
REMARK    3  A    between atoms: C5_5  and  C7_7 
REMARK    4  A    between atoms: C5_5  and  P14_14 
REMARK    5  A    between atoms: C7_7  and  C8_8 
ROOT
ATOM      1  C5  ZIN A   1      18.734  -1.979   9.370  0.00  0.00     0.289 C 
ENDROOT
BRANCH   1   2
ATOM      2  P2  ZIN A   1      18.896  -3.735   9.830  0.00  0.00     0.310 P 
ATOM      3  O1  ZIN A   1      19.697  -3.853  11.170  0.00  0.00    -0.637 OA
ATOM      4  O3  ZIN A   1      19.656  -4.505   8.696  0.00  0.00    -0.637 OA
ATOM      5  O4  ZIN A   1      17.470  -4.359  10.018  0.00  0.00    -0.637 OA
ENDBRANCH   1   2
BRANCH   1   6
ATOM      6  O6  ZIN A   1      20.000  -1.482   8.933  0.00  0.00    -0.365 OA
ATOM      7  H18 ZIN A   1      19.946  -0.875   8.182  0.00  0.00     0.212 HD
ENDBRANCH   1   6
BRANCH   1   8
ATOM      8  C7  ZIN A   1      17.713  -1.839   8.240  0.00  0.00     0.108 C 
BRANCH   8   9
ATOM      9  C8  ZIN A   1      18.371  -1.197   7.045  0.00  0.00    -0.036 A 
ATOM     10  C13 ZIN A   1      19.043  -1.969   6.118  0.00  0.00     0.123 A 
ATOM     11  N12 ZIN A   1      19.617  -1.415   5.068  0.00  0.00    -0.273 NA
ATOM     12  C11 ZIN A   1      19.583  -0.113   4.866  0.00  0.00     0.116 A 
ATOM     13  C10 ZIN A   1      18.934   0.723   5.754  0.00  0.00     0.020 A 
ATOM     14  C9  ZIN A   1      18.314   0.176   6.867  0.00  0.00     0.010 A 
ENDBRANCH   8   9
ENDBRANCH   1   8
BRANCH   1  15
ATOM     15  P14 ZIN A   1      18.173  -1.023  10.818  0.00  0.00     0.310 P 
ATOM     16  O15 ZIN A   1      19.393  -0.732  11.756  0.00  0.00    -0.637 OA
ATOM     17  O16 ZIN A   1      17.548   0.332  10.339  0.00  0.00    -0.637 OA
ATOM     18  O17 ZIN A   1      17.095  -1.846  11.602  0.00  0.00    -0.637 OA
ENDBRANCH   1  15
TORSDOF 5
ENDMDL
MODEL 8
REMARK VINA RESULT:      -5.5      3.916      5.761
REMARK  5 active torsions:
REMARK  status: ('A' for Active; 'I' for Inactive)
REMARK    1  A    between atoms: P2_2  and  C5_5 
REMARK    2  A    between atoms: C5_5  and  O6_6 
REMARK    3  A    between atoms: C5_5  and  C7_7 
REMARK    4  A    between atoms: C5_5  and  P14_14 
REMARK    5  A    between atoms: C7_7  and  C8_8 
ROOT
ATOM      1  C5  ZIN A   1      18.401   1.118  10.953  0.00  0.00     0.289 C 
ENDROOT
BRANCH   1   2
ATOM      2  P2  ZIN A   1      18.750   0.758   9.200  0.00  0.00     0.310 P 
ATOM      3  O1  ZIN A   1      19.270   2.055   8.494  0.00  0.00    -0.637 OA
ATOM      4  O3  ZIN A   1      17.438   0.269   8.495  0.00  0.00    -0.637 OA
ATOM      5  O4  ZIN A   1      19.842  -0.362   9.104  0.00  0.00    -0.637 OA
ENDBRANCH   1   2
BRANCH   1   6
ATOM      6  O6  ZIN A   1      19.631   1.202  11.675  0.00  0.00    -0.365 OA
ATOM      7  H18 ZIN A   1      19.737   2.022  12.178  0.00  0.00     0.212 HD
ENDBRANCH   1   6
BRANCH   1   8
ATOM      8  C7  ZIN A   1      17.653   2.447  11.062  0.00  0.00     0.108 C 
BRANCH   8   9
ATOM      9  C8  ZIN A   1      18.270   3.282  12.155  0.00  0.00    -0.036 A 
ATOM     10  C13 ZIN A   1      17.841   3.152  13.461  0.00  0.00     0.123 A 
ATOM     11  N12 ZIN A   1      18.378   3.876  14.423  0.00  0.00    -0.273 NA
ATOM     12  C11 ZIN A   1      19.332   4.753  14.180  0.00  0.00     0.116 A 
ATOM     13  C10 ZIN A   1      19.808   4.942  12.897  0.00  0.00     0.020 A 
ATOM     14  C9  ZIN A   1      19.270   4.195  11.860  0.00  0.00     0.010 A 
ENDBRANCH   8   9
ENDBRANCH   1   8
BRANCH   1  15
ATOM     15  P14 ZIN A   1      17.375  -0.217  11.653  0.00  0.00     0.310 P 
ATOM     16  O15 ZIN A   1      17.671  -0.354  13.185  0.00  0.00    -0.637 OA
ATOM     17  O16 ZIN A   1      15.861   0.123  11.442  0.00  0.00    -0.637 OA
ATOM     18  O17 ZIN A   1      17.712  -1.567  10.933  0.00  0.00    -0.637 OA
ENDBRANCH   1  15
TORSDOF 5
ENDMDL
MODEL 9
REMARK VINA RESULT:      -5.5      3.606      5.125
REMARK  5 active torsions:
REMARK  status: ('A' for Active; 'I' for Inactive)
REMARK    1  A    between atoms: P2_2  and  C5_5 
REMARK    2  A    between atoms: C5_5  and  O6_6 
REMARK    3  A    between atoms: C5_5  and  C7_7 
REMARK    4  A    between atoms: C5_5  and  P14_14 
REMARK    5  A    between atoms: C7_7  and  C8_8 
ROOT
ATOM      1  C5  ZIN A   1      18.486   0.994  10.350  0.00  0.00     0.289 C 
ENDROOT
BRANCH   1   2
ATOM      2  P2  ZIN A   1      19.168  -0.361  11.360  0.00  0.00     0.310 P 
ATOM      3  O1  ZIN A   1      18.537  -1.720  10.904  0.00  0.00    -0.637 OA
ATOM      4  O3  ZIN A   1      18.831  -0.108  12.870  0.00  0.00    -0.637 OA
ATOM      5  O4  ZIN A   1      20.723  -0.419  11.175  0.00  0.00    -0.637 OA
ENDBRANCH   1   2
BRANCH   1   6
ATOM      6  O6  ZIN A   1      17.120   1.215  10.707  0.00  0.00    -0.365 OA
ATOM      7  H18 ZIN A   1      16.634   0.406  10.918  0.00  0.00     0.212 HD
ENDBRANCH   1   6
BRANCH   1   8
ATOM      8  C7  ZIN A   1      19.291   2.271  10.598  0.00  0.00     0.108 C 
BRANCH   8   9
ATOM      9  C8  ZIN A   1      18.370   3.357  11.092  0.00  0.00    -0.036 A 
ATOM     10  C13 ZIN A   1      18.104   3.488  12.442  0.00  0.00     0.123 A 
ATOM     11  N12 ZIN A   1      17.303   4.439  12.882  0.00  0.00    -0.273 NA
ATOM     12  C11 ZIN A   1      16.720   5.290  12.061  0.00  0.00     0.116 A 
ATOM     13  C10 ZIN A   1      16.935   5.217  10.698  0.00  0.00     0.020 A 
ATOM     14  C9  ZIN A   1      17.775   4.233  10.199  0.00  0.00     0.010 A 
ENDBRANCH   8   9
ENDBRANCH   1   8
BRANCH   1  15
ATOM     15  P14 ZIN A   1      18.588   0.546   8.585  0.00  0.00     0.310 P 
ATOM     16  O15 ZIN A   1      18.961   1.813   7.744  0.00  0.00    -0.637 OA
ATOM     17  O16 ZIN A   1      19.685  -0.554   8.388  0.00  0.00    -0.637 OA
ATOM     18  O17 ZIN A   1      17.202  -0.009   8.107  0.00  0.00    -0.637 OA
ENDBRANCH   1  15
TORSDOF 5
ENDMDL
