MODEL 1
REMARK VINA RESULT:      -6.9      0.000      0.000
REMARK  4 active torsions:
REMARK  status: ('A' for Active; 'I' for Inactive)
REMARK    1  A    between atoms: C2_2  and  C4_3 
REMARK    2  A    between atoms: C2_2  and  C20_19 
REMARK    3  A    between atoms: C4_3  and  N5_4 
REMARK    4  A    between atoms: C20_19  and  N21_20 
ROOT
ATOM      1  N5  ZIN A   1      19.247  -0.291  12.748  0.00  0.00    -0.346 N 
ATOM      2  C6  ZIN A   1      19.060   0.851  11.962  0.00  0.00     0.041 A 
ATOM      3  C7  ZIN A   1      20.104   1.769  11.897  0.00  0.00     0.030 A 
ATOM      4  C8  ZIN A   1      19.995   2.899  11.114  0.00  0.00     0.002 A 
ATOM      5  C9  ZIN A   1      18.837   3.107  10.388  0.00  0.00     0.001 A 
ATOM      6  C10 ZIN A   1      17.799   2.207  10.463  0.00  0.00     0.009 A 
ATOM      7  C11 ZIN A   1      17.881   1.066  11.263  0.00  0.00    -0.031 A 
ATOM      8  C12 ZIN A   1      16.625   0.224  11.295  0.00  0.00     0.045 C 
ATOM      9  C13 ZIN A   1      16.729  -0.966  12.232  0.00  0.00     0.045 C 
ATOM     10  C14 ZIN A   1      17.825  -1.907  11.801  0.00  0.00    -0.031 A 
ATOM     11  C15 ZIN A   1      17.577  -3.075  11.117  0.00  0.00     0.009 A 
ATOM     12  C16 ZIN A   1      18.648  -3.893  10.787  0.00  0.00     0.001 A 
ATOM     13  C17 ZIN A   1      19.937  -3.540  11.141  0.00  0.00     0.002 A 
ATOM     14  C18 ZIN A   1      20.178  -2.356  11.822  0.00  0.00     0.030 A 
ATOM     15  C19 ZIN A   1      19.109  -1.541  12.133  0.00  0.00     0.041 A 
ENDROOT
BRANCH   1  16
ATOM     16  C4  ZIN A   1      19.583  -0.182  14.170  0.00  0.00     0.135 C 
BRANCH  16  17
ATOM     17  C2  ZIN A   1      18.522   0.661  14.880  0.00  0.00     0.026 C 
ATOM     18  C1  ZIN A   1      17.554  -0.260  15.626  0.00  0.00     0.013 C 
BRANCH  17  19
ATOM     19  C20 ZIN A   1      19.202   1.600  15.878  0.00  0.00     0.239 C 
BRANCH  19  20
ATOM     20  N21 ZIN A   1      19.382   2.921  15.263  0.00  0.00    -0.078 N 
ATOM     21  H22 ZIN A   1      20.130   2.878  14.587  0.00  0.00     0.278 HD
ATOM     22  C23 ZIN A   1      18.138   3.323  14.591  0.00  0.00     0.269 C 
ATOM     23  C24 ZIN A   1      19.717   3.905  16.301  0.00  0.00     0.269 C 
ENDBRANCH  19  20
ENDBRANCH  17  19
ENDBRANCH  16  17
ENDBRANCH   1  16
TORSDOF 4
ENDMDL
MODEL 2
REMARK VINA RESULT:      -6.7      1.923      3.103
REMARK  4 active torsions:
REMARK  status: ('A' for Active; 'I' for Inactive)
REMARK    1  A    between atoms: C2_2  and  C4_3 
REMARK    2  A    between atoms: C2_2  and  C20_19 
REMARK    3  A    between atoms: C4_3  and  N5_4 
REMARK    4  A    between atoms: C20_19  and  N21_20 
ROOT
ATOM      1  N5  ZIN A   1      18.445   1.779  11.517  0.00  0.00    -0.346 N 
ATOM      2  C6  ZIN A   1      18.432   1.465  10.153  0.00  0.00     0.041 A 
ATOM      3  C7  ZIN A   1      19.239   2.220   9.309  0.00  0.00     0.030 A 
ATOM      4  C8  ZIN A   1      19.297   1.940   7.960  0.00  0.00     0.002 A 
ATOM      5  C9  ZIN A   1      18.544   0.895   7.456  0.00  0.00     0.001 A 
ATOM      6  C10 ZIN A   1      17.735   0.157   8.289  0.00  0.00     0.009 A 
ATOM      7  C11 ZIN A   1      17.649   0.435   9.654  0.00  0.00    -0.031 A 
ATOM      8  C12 ZIN A   1      16.654  -0.416  10.411  0.00  0.00     0.045 C 
ATOM      9  C13 ZIN A   1      16.537  -0.035  11.876  0.00  0.00     0.045 C 
ATOM     10  C14 ZIN A   1      17.847  -0.223  12.596  0.00  0.00    -0.031 A 
ATOM     11  C15 ZIN A   1      18.108  -1.313  13.395  0.00  0.00     0.009 A 
ATOM     12  C16 ZIN A   1      19.334  -1.386  14.042  0.00  0.00     0.001 A 
ATOM     13  C17 ZIN A   1      20.271  -0.381  13.886  0.00  0.00     0.002 A 
ATOM     14  C18 ZIN A   1      20.003   0.709  13.072  0.00  0.00     0.030 A 
ATOM     15  C19 ZIN A   1      18.788   0.766  12.420  0.00  0.00     0.041 A 
ENDROOT
BRANCH   1  16
ATOM     16  C4  ZIN A   1      18.117   3.128  11.985  0.00  0.00     0.135 C 
BRANCH  16  17
ATOM     17  C2  ZIN A   1      19.188   3.601  12.969  0.00  0.00     0.026 C 
ATOM     18  C1  ZIN A   1      19.845   4.876  12.435  0.00  0.00     0.013 C 
BRANCH  17  19
ATOM     19  C20 ZIN A   1      18.542   3.891  14.325  0.00  0.00     0.239 C 
BRANCH  19  20
ATOM     20  N21 ZIN A   1      19.439   3.449  15.400  0.00  0.00    -0.078 N 
ATOM     21  H22 ZIN A   1      20.303   3.114  15.000  0.00  0.00     0.278 HD
ATOM     22  C23 ZIN A   1      19.721   4.577  16.299  0.00  0.00     0.269 C 
ATOM     23  C24 ZIN A   1      18.799   2.366  16.158  0.00  0.00     0.269 C 
ENDBRANCH  19  20
ENDBRANCH  17  19
ENDBRANCH  16  17
ENDBRANCH   1  16
TORSDOF 4
ENDMDL
MODEL 3
REMARK VINA RESULT:      -6.7      2.878      6.147
REMARK  4 active torsions:
REMARK  status: ('A' for Active; 'I' for Inactive)
REMARK    1  A    between atoms: C2_2  and  C4_3 
REMARK    2  A    between atoms: C2_2  and  C20_19 
REMARK    3  A    between atoms: C4_3  and  N5_4 
REMARK    4  A    between atoms: C20_19  and  N21_20 
ROOT
ATOM      1  N5  ZIN A   1      18.095  -1.369  10.404  0.00  0.00    -0.346 N 
ATOM      2  C6  ZIN A   1      18.232  -0.661   9.204  0.00  0.00     0.041 A 
ATOM      3  C7  ZIN A   1      17.169  -0.699   8.307  0.00  0.00     0.030 A 
ATOM      4  C8  ZIN A   1      17.227   0.004   7.123  0.00  0.00     0.002 A 
ATOM      5  C9  ZIN A   1      18.354   0.752   6.837  0.00  0.00     0.001 A 
ATOM      6  C10 ZIN A   1      19.412   0.779   7.718  0.00  0.00     0.009 A 
ATOM      7  C11 ZIN A   1      19.380   0.060   8.914  0.00  0.00    -0.031 A 
ATOM      8  C12 ZIN A   1      20.653   0.132   9.728  0.00  0.00     0.045 C 
ATOM      9  C13 ZIN A   1      20.606  -0.720  10.984  0.00  0.00     0.045 C 
ATOM     10  C14 ZIN A   1      19.514  -0.260  11.916  0.00  0.00    -0.031 A 
ATOM     11  C15 ZIN A   1      19.760   0.514  13.027  0.00  0.00     0.009 A 
ATOM     12  C16 ZIN A   1      18.694   0.865  13.843  0.00  0.00     0.001 A 
ATOM     13  C17 ZIN A   1      17.411   0.442  13.544  0.00  0.00     0.002 A 
ATOM     14  C18 ZIN A   1      17.172  -0.330  12.417  0.00  0.00     0.030 A 
ATOM     15  C19 ZIN A   1      18.236  -0.662  11.603  0.00  0.00     0.041 A 
ENDROOT
BRANCH   1  16
ATOM     16  C4  ZIN A   1      17.809  -2.807  10.404  0.00  0.00     0.135 C 
BRANCH  16  17
ATOM     17  C2  ZIN A   1      19.068  -3.577  10.003  0.00  0.00     0.026 C 
ATOM     18  C1  ZIN A   1      19.391  -4.620  11.074  0.00  0.00     0.013 C 
BRANCH  17  19
ATOM     19  C20 ZIN A   1      18.832  -4.279   8.664  0.00  0.00     0.239 C 
BRANCH  19  20
ATOM     20  N21 ZIN A   1      19.969  -4.022   7.770  0.00  0.00    -0.078 N 
ATOM     21  H22 ZIN A   1      20.726  -3.614   8.297  0.00  0.00     0.278 HD
ATOM     22  C23 ZIN A   1      20.416  -5.287   7.170  0.00  0.00     0.269 C 
ATOM     23  C24 ZIN A   1      19.557  -3.096   6.707  0.00  0.00     0.269 C 
ENDBRANCH  19  20
ENDBRANCH  17  19
ENDBRANCH  16  17
ENDBRANCH   1  16
TORSDOF 4
ENDMDL
MODEL 4
REMARK VINA RESULT:      -6.7      2.061      4.765
REMARK  4 active torsions:
REMARK  status: ('A' for Active; 'I' for Inactive)
REMARK    1  A    between atoms: C2_2  and  C4_3 
REMARK    2  A    between atoms: C2_2  and  C20_19 
REMARK    3  A    between atoms: C4_3  and  N5_4 
REMARK    4  A    between atoms: C20_19  and  N21_20 
ROOT
ATOM      1  N5  ZIN A   1      17.741  -0.756  10.805  0.00  0.00    -0.346 N 
ATOM      2  C6  ZIN A   1      18.296  -2.004  11.111  0.00  0.00     0.041 A 
ATOM      3  C7  ZIN A   1      17.424  -3.032  11.455  0.00  0.00     0.030 A 
ATOM      4  C8  ZIN A   1      17.905  -4.294  11.735  0.00  0.00     0.002 A 
ATOM      5  C9  ZIN A   1      19.267  -4.527  11.666  0.00  0.00     0.001 A 
ATOM      6  C10 ZIN A   1      20.130  -3.506  11.339  0.00  0.00     0.009 A 
ATOM      7  C11 ZIN A   1      19.666  -2.218  11.069  0.00  0.00    -0.031 A 
ATOM      8  C12 ZIN A   1      20.750  -1.197  10.807  0.00  0.00     0.045 C 
ATOM      9  C13 ZIN A   1      20.209   0.204  10.590  0.00  0.00     0.045 C 
ATOM     10  C14 ZIN A   1      19.310   0.262   9.381  0.00  0.00    -0.031 A 
ATOM     11  C15 ZIN A   1      19.728   0.752   8.165  0.00  0.00     0.009 A 
ATOM     12  C16 ZIN A   1      18.821   0.793   7.116  0.00  0.00     0.001 A 
ATOM     13  C17 ZIN A   1      17.523   0.351   7.293  0.00  0.00     0.002 A 
ATOM     14  C18 ZIN A   1      17.113  -0.149   8.519  0.00  0.00     0.030 A 
ATOM     15  C19 ZIN A   1      18.026  -0.200   9.553  0.00  0.00     0.041 A 
ENDROOT
BRANCH   1  16
ATOM     16  C4  ZIN A   1      16.882  -0.056  11.765  0.00  0.00     0.135 C 
BRANCH  16  17
ATOM     17  C2  ZIN A   1      17.753   0.697  12.772  0.00  0.00     0.026 C 
ATOM     18  C1  ZIN A   1      17.635   2.202  12.524  0.00  0.00     0.013 C 
BRANCH  17  19
ATOM     19  C20 ZIN A   1      17.283   0.377  14.192  0.00  0.00     0.239 C 
BRANCH  19  20
ATOM     20  N21 ZIN A   1      18.020  -0.787  14.701  0.00  0.00    -0.078 N 
ATOM     21  H22 ZIN A   1      17.675  -1.624  14.256  0.00  0.00     0.278 HD
ATOM     22  C23 ZIN A   1      19.451  -0.630  14.404  0.00  0.00     0.269 C 
ATOM     23  C24 ZIN A   1      17.830  -0.891  16.154  0.00  0.00     0.269 C 
ENDBRANCH  19  20
ENDBRANCH  17  19
ENDBRANCH  16  17
ENDBRANCH   1  16
TORSDOF 4
ENDMDL
MODEL 5
REMARK VINA RESULT:      -6.6      2.066      4.086
REMARK  4 active torsions:
REMARK  status: ('A' for Active; 'I' for Inactive)
REMARK    1  A    between atoms: C2_2  and  C4_3 
REMARK    2  A    between atoms: C2_2  and  C20_19 
REMARK    3  A    between atoms: C4_3  and  N5_4 
REMARK    4  A    between atoms: C20_19  and  N21_20 
ROOT
ATOM      1  N5  ZIN A   1      18.112   1.396  12.626  0.00  0.00    -0.346 N 
ATOM      2  C6  ZIN A   1      18.299   0.592  13.756  0.00  0.00     0.041 A 
ATOM      3  C7  ZIN A   1      17.264   0.533  14.685  0.00  0.00     0.030 A 
ATOM      4  C8  ZIN A   1      17.372  -0.268  15.803  0.00  0.00     0.002 A 
ATOM      5  C9  ZIN A   1      18.521  -1.016  15.988  0.00  0.00     0.001 A 
ATOM      6  C10 ZIN A   1      19.549  -0.947  15.076  0.00  0.00     0.009 A 
ATOM      7  C11 ZIN A   1      19.468  -0.129  13.948  0.00  0.00    -0.031 A 
ATOM      8  C12 ZIN A   1      20.714  -0.108  13.091  0.00  0.00     0.045 C 
ATOM      9  C13 ZIN A   1      20.612   0.847  11.915  0.00  0.00     0.045 C 
ATOM     10  C14 ZIN A   1      19.499   0.447  10.982  0.00  0.00    -0.031 A 
ATOM     11  C15 ZIN A   1      19.722  -0.224   9.802  0.00  0.00     0.009 A 
ATOM     12  C16 ZIN A   1      18.636  -0.526   8.992  0.00  0.00     0.001 A 
ATOM     13  C17 ZIN A   1      17.357  -0.154   9.365  0.00  0.00     0.002 A 
ATOM     14  C18 ZIN A   1      17.142   0.515  10.560  0.00  0.00     0.030 A 
ATOM     15  C19 ZIN A   1      18.225   0.796  11.367  0.00  0.00     0.041 A 
ENDROOT
BRANCH   1  16
ATOM     16  C4  ZIN A   1      17.802   2.823  12.758  0.00  0.00     0.135 C 
BRANCH  16  17
ATOM     17  C2  ZIN A   1      19.029   3.563  13.292  0.00  0.00     0.026 C 
ATOM     18  C1  ZIN A   1      19.417   4.678  12.318  0.00  0.00     0.013 C 
BRANCH  17  19
ATOM     19  C20 ZIN A   1      18.704   4.171  14.658  0.00  0.00     0.239 C 
BRANCH  19  20
ATOM     20  N21 ZIN A   1      19.843   3.977  15.564  0.00  0.00    -0.078 N 
ATOM     21  H22 ZIN A   1      20.596   3.526  15.066  0.00  0.00     0.278 HD
ATOM     22  C23 ZIN A   1      20.300   5.281  16.064  0.00  0.00     0.269 C 
ATOM     23  C24 ZIN A   1      19.432   3.135  16.695  0.00  0.00     0.269 C 
ENDBRANCH  19  20
ENDBRANCH  17  19
ENDBRANCH  16  17
ENDBRANCH   1  16
TORSDOF 4
ENDMDL
MODEL 6
REMARK VINA RESULT:      -6.5      2.365      5.958
REMARK  4 active torsions:
REMARK  status: ('A' for Active; 'I' for Inactive)
REMARK    1  A    between atoms: C2_2  and  C4_3 
REMARK    2  A    between atoms: C2_2  and  C20_19 
REMARK    3  A    between atoms: C4_3  and  N5_4 
REMARK    4  A    between atoms: C20_19  and  N21_20 
ROOT
ATOM      1  N5  ZIN A   1      18.468  -1.565  11.391  0.00  0.00    -0.346 N 
ATOM      2  C6  ZIN A   1      18.555  -1.193  12.738  0.00  0.00     0.041 A 
ATOM      3  C7  ZIN A   1      19.436  -1.903  13.548  0.00  0.00     0.030 A 
ATOM      4  C8  ZIN A   1      19.593  -1.564  14.876  0.00  0.00     0.002 A 
ATOM      5  C9  ZIN A   1      18.867  -0.507  15.393  0.00  0.00     0.001 A 
ATOM      6  C10 ZIN A   1      17.986   0.186  14.595  0.00  0.00     0.009 A 
ATOM      7  C11 ZIN A   1      17.798  -0.151  13.253  0.00  0.00    -0.031 A 
ATOM      8  C12 ZIN A   1      16.737   0.656  12.541  0.00  0.00     0.045 C 
ATOM      9  C13 ZIN A   1      16.513   0.211  11.107  0.00  0.00     0.045 C 
ATOM     10  C14 ZIN A   1      17.760   0.383  10.280  0.00  0.00    -0.031 A 
ATOM     11  C15 ZIN A   1      17.944   1.440   9.418  0.00  0.00     0.009 A 
ATOM     12  C16 ZIN A   1      19.115   1.499   8.676  0.00  0.00     0.001 A 
ATOM     13  C17 ZIN A   1      20.076   0.512   8.800  0.00  0.00     0.002 A 
ATOM     14  C18 ZIN A   1      19.886  -0.545   9.677  0.00  0.00     0.030 A 
ATOM     15  C19 ZIN A   1      18.725  -0.588  10.423  0.00  0.00     0.041 A 
ENDROOT
BRANCH   1  16
ATOM     16  C4  ZIN A   1      18.124  -2.936  11.008  0.00  0.00     0.135 C 
BRANCH  16  17
ATOM     17  C2  ZIN A   1      19.312  -3.578  10.289  0.00  0.00     0.026 C 
ATOM     18  C1  ZIN A   1      19.894  -4.693  11.160  0.00  0.00     0.013 C 
BRANCH  17  19
ATOM     19  C20 ZIN A   1      18.845  -4.165   8.955  0.00  0.00     0.239 C 
BRANCH  19  20
ATOM     20  N21 ZIN A   1      19.888  -3.967   7.941  0.00  0.00    -0.078 N 
ATOM     21  H22 ZIN A   1      20.728  -3.625   8.384  0.00  0.00     0.278 HD
ATOM     22  C23 ZIN A   1      20.173  -5.246   7.275  0.00  0.00     0.269 C 
ATOM     23  C24 ZIN A   1      19.426  -2.990   6.947  0.00  0.00     0.269 C 
ENDBRANCH  19  20
ENDBRANCH  17  19
ENDBRANCH  16  17
ENDBRANCH   1  16
TORSDOF 4
ENDMDL
MODEL 7
REMARK VINA RESULT:      -6.5      3.427      6.441
REMARK  4 active torsions:
REMARK  status: ('A' for Active; 'I' for Inactive)
REMARK    1  A    between atoms: C2_2  and  C4_3 
REMARK    2  A    between atoms: C2_2  and  C20_19 
REMARK    3  A    between atoms: C4_3  and  N5_4 
REMARK    4  A    between atoms: C20_19  and  N21_20 
ROOT
ATOM      1  N5  ZIN A   1      18.639  -1.980   9.616  0.00  0.00    -0.346 N 
ATOM      2  C6  ZIN A   1      18.165  -1.240  10.704  0.00  0.00     0.041 A 
ATOM      3  C7  ZIN A   1      17.345  -0.148  10.435  0.00  0.00     0.030 A 
ATOM      4  C8  ZIN A   1      16.817   0.602  11.464  0.00  0.00     0.002 A 
ATOM      5  C9  ZIN A   1      17.109   0.255  12.770  0.00  0.00     0.001 A 
ATOM      6  C10 ZIN A   1      17.931  -0.816  13.037  0.00  0.00     0.009 A 
ATOM      7  C11 ZIN A   1      18.490  -1.578  12.009  0.00  0.00    -0.031 A 
ATOM      8  C12 ZIN A   1      19.433  -2.667  12.470  0.00  0.00     0.045 C 
ATOM      9  C13 ZIN A   1      20.075  -3.425  11.322  0.00  0.00     0.045 C 
ATOM     10  C14 ZIN A   1      19.039  -4.128  10.484  0.00  0.00    -0.031 A 
ATOM     11  C15 ZIN A   1      18.779  -5.475  10.597  0.00  0.00     0.009 A 
ATOM     12  C16 ZIN A   1      17.826  -6.042   9.762  0.00  0.00     0.001 A 
ATOM     13  C17 ZIN A   1      17.154  -5.266   8.835  0.00  0.00     0.002 A 
ATOM     14  C18 ZIN A   1      17.417  -3.908   8.735  0.00  0.00     0.030 A 
ATOM     15  C19 ZIN A   1      18.354  -3.350   9.580  0.00  0.00     0.041 A 
ENDROOT
BRANCH   1  16
ATOM     16  C4  ZIN A   1      19.406  -1.339   8.544  0.00  0.00     0.135 C 
BRANCH  16  17
ATOM     17  C2  ZIN A   1      18.481  -1.042   7.363  0.00  0.00     0.026 C 
ATOM     18  C1  ZIN A   1      18.466   0.464   7.092  0.00  0.00     0.013 C 
BRANCH  17  19
ATOM     19  C20 ZIN A   1      18.986  -1.777   6.120  0.00  0.00     0.239 C 
BRANCH  19  20
ATOM     20  N21 ZIN A   1      17.877  -2.514   5.502  0.00  0.00    -0.078 N 
ATOM     21  H22 ZIN A   1      17.125  -2.611   6.168  0.00  0.00     0.278 HD
ATOM     22  C23 ZIN A   1      17.396  -1.779   4.324  0.00  0.00     0.269 C 
ATOM     23  C24 ZIN A   1      18.341  -3.846   5.091  0.00  0.00     0.269 C 
ENDBRANCH  19  20
ENDBRANCH  17  19
ENDBRANCH  16  17
ENDBRANCH   1  16
TORSDOF 4
ENDMDL
MODEL 8
REMARK VINA RESULT:      -6.4      2.574      6.403
REMARK  4 active torsions:
REMARK  status: ('A' for Active; 'I' for Inactive)
REMARK    1  A    between atoms: C2_2  and  C4_3 
REMARK    2  A    between atoms: C2_2  and  C20_19 
REMARK    3  A    between atoms: C4_3  and  N5_4 
REMARK    4  A    between atoms: C20_19  and  N21_20 
ROOT
ATOM      1  N5  ZIN A   1      19.464   0.226  10.146  0.00  0.00    -0.346 N 
ATOM      2  C6  ZIN A   1      19.140  -0.905  10.904  0.00  0.00     0.041 A 
ATOM      3  C7  ZIN A   1      20.132  -1.865  11.086  0.00  0.00     0.030 A 
ATOM      4  C8  ZIN A   1      19.887  -2.986  11.851  0.00  0.00     0.002 A 
ATOM      5  C9  ZIN A   1      18.645  -3.145  12.438  0.00  0.00     0.001 A 
ATOM      6  C10 ZIN A   1      17.661  -2.203  12.245  0.00  0.00     0.009 A 
ATOM      7  C11 ZIN A   1      17.882  -1.069  11.461  0.00  0.00    -0.031 A 
ATOM      8  C12 ZIN A   1      16.673  -0.177  11.286  0.00  0.00     0.045 C 
ATOM      9  C13 ZIN A   1      16.933   1.005  10.370  0.00  0.00     0.045 C 
ATOM     10  C14 ZIN A   1      18.009   1.902  10.925  0.00  0.00    -0.031 A 
ATOM     11  C15 ZIN A   1      17.733   3.081  11.577  0.00  0.00     0.009 A 
ATOM     12  C16 ZIN A   1      18.791   3.856  12.030  0.00  0.00     0.001 A 
ATOM     13  C17 ZIN A   1      20.097   3.449  11.826  0.00  0.00     0.002 A 
ATOM     14  C18 ZIN A   1      20.366   2.254  11.176  0.00  0.00     0.030 A 
ATOM     15  C19 ZIN A   1      19.307   1.483  10.743  0.00  0.00     0.041 A 
ENDROOT
BRANCH   1  16
ATOM     16  C4  ZIN A   1      19.956   0.099   8.772  0.00  0.00     0.135 C 
BRANCH  16  17
ATOM     17  C2  ZIN A   1      18.837  -0.436   7.877  0.00  0.00     0.026 C 
ATOM     18  C1  ZIN A   1      18.277   0.703   7.023  0.00  0.00     0.013 C 
BRANCH  17  19
ATOM     19  C20 ZIN A   1      19.393  -1.531   6.964  0.00  0.00     0.239 C 
BRANCH  19  20
ATOM     20  N21 ZIN A   1      19.504  -2.787   7.717  0.00  0.00    -0.078 N 
ATOM     21  H22 ZIN A   1      20.153  -2.665   8.481  0.00  0.00     0.278 HD
ATOM     22  C23 ZIN A   1      18.186  -3.158   8.251  0.00  0.00     0.269 C 
ATOM     23  C24 ZIN A   1      19.989  -3.850   6.828  0.00  0.00     0.269 C 
ENDBRANCH  19  20
ENDBRANCH  17  19
ENDBRANCH  16  17
ENDBRANCH   1  16
TORSDOF 4
ENDMDL
MODEL 9
REMARK VINA RESULT:      -6.3      2.755      5.563
REMARK  4 active torsions:
REMARK  status: ('A' for Active; 'I' for Inactive)
REMARK    1  A    between atoms: C2_2  and  C4_3 
REMARK    2  A    between atoms: C2_2  and  C20_19 
REMARK    3  A    between atoms: C4_3  and  N5_4 
REMARK    4  A    between atoms: C20_19  and  N21_20 
ROOT
ATOM      1  N5  ZIN A   1      19.047   0.632  10.353  0.00  0.00    -0.346 N 
ATOM      2  C6  ZIN A   1      18.646   1.843  10.927  0.00  0.00     0.041 A 
ATOM      3  C7  ZIN A   1      17.838   2.683  10.166  0.00  0.00     0.030 A 
ATOM      4  C8  ZIN A   1      17.382   3.875  10.686  0.00  0.00     0.002 A 
ATOM      5  C9  ZIN A   1      17.733   4.227  11.977  0.00  0.00     0.001 A 
ATOM      6  C10 ZIN A   1      18.544   3.403  12.724  0.00  0.00     0.009 A 
ATOM      7  C11 ZIN A   1      19.031   2.200  12.211  0.00  0.00    -0.031 A 
ATOM      8  C12 ZIN A   1      19.972   1.455  13.131  0.00  0.00     0.045 C 
ATOM      9  C13 ZIN A   1      20.536   0.190  12.509  0.00  0.00     0.045 C 
ATOM     10  C14 ZIN A   1      19.442  -0.793  12.181  0.00  0.00    -0.031 A 
ATOM     11  C15 ZIN A   1      19.158  -1.882  12.973  0.00  0.00     0.009 A 
ATOM     12  C16 ZIN A   1      18.150  -2.750  12.576  0.00  0.00     0.001 A 
ATOM     13  C17 ZIN A   1      17.449  -2.523  11.405  0.00  0.00     0.002 A 
ATOM     14  C18 ZIN A   1      17.737  -1.418  10.619  0.00  0.00     0.030 A 
ATOM     15  C19 ZIN A   1      18.730  -0.552  11.029  0.00  0.00     0.041 A 
ENDROOT
BRANCH   1  16
ATOM     16  C4  ZIN A   1      19.772   0.603   9.079  0.00  0.00     0.135 C 
BRANCH  16  17
ATOM     17  C2  ZIN A   1      18.832   0.130   7.969  0.00  0.00     0.026 C 
ATOM     18  C1  ZIN A   1      18.783   1.183   6.859  0.00  0.00     0.013 C 
BRANCH  17  19
ATOM     19  C20 ZIN A   1      19.345  -1.192   7.394  0.00  0.00     0.239 C 
BRANCH  19  20
ATOM     20  N21 ZIN A   1      18.207  -2.009   6.954  0.00  0.00    -0.078 N 
ATOM     21  H22 ZIN A   1      17.346  -1.576   7.255  0.00  0.00     0.278 HD
ATOM     22  C23 ZIN A   1      18.216  -2.113   5.488  0.00  0.00     0.269 C 
ATOM     23  C24 ZIN A   1      18.311  -3.351   7.541  0.00  0.00     0.269 C 
ENDBRANCH  19  20
ENDBRANCH  17  19
ENDBRANCH  16  17
ENDBRANCH   1  16
TORSDOF 4
ENDMDL
