MODEL 1
REMARK VINA RESULT:      -7.0      0.000      0.000
REMARK  6 active torsions:
REMARK  status: ('A' for Active; 'I' for Inactive)
REMARK    1  A    between atoms: C7_7  and  C8_8 
REMARK    2  A    between atoms: C8_8  and  O10_9 
REMARK    3  A    between atoms: C8_8  and  C16_15 
REMARK    4  A    between atoms: O10_9  and  C11_10 
REMARK    5  A    between atoms: C11_10  and  C12_11 
REMARK    6  A    between atoms: C12_11  and  N13_12 
ROOT
ATOM      1  C8  ZIN A   1      18.612   1.043  10.340  0.00  0.00     0.188 C 
ENDROOT
BRANCH   1   2
ATOM      2  C7  ZIN A   1      18.151   2.427  10.722  0.00  0.00    -0.019 A 
ATOM      3  C2  ZIN A   1      17.740   2.687  12.016  0.00  0.00    -0.053 A 
ATOM      4  C1  ZIN A   1      17.758   1.586  13.047  0.00  0.00     0.049 C 
ATOM      5  C3  ZIN A   1      17.319   3.955  12.367  0.00  0.00     0.007 A 
ATOM      6  C4  ZIN A   1      17.303   4.964  11.422  0.00  0.00     0.001 A 
ATOM      7  C5  ZIN A   1      17.708   4.703  10.126  0.00  0.00     0.001 A 
ATOM      8  C6  ZIN A   1      18.130   3.435   9.776  0.00  0.00     0.011 A 
ENDBRANCH   1   2
BRANCH   1   9
ATOM      9  O10 ZIN A   1      20.001   0.905  10.641  0.00  0.00    -0.375 OA
BRANCH   9  10
ATOM     10  C11 ZIN A   1      20.451  -0.451  10.697  0.00  0.00     0.199 C 
BRANCH  10  11
ATOM     11  C12 ZIN A   1      19.585  -1.234  11.685  0.00  0.00     0.297 C 
BRANCH  11  12
ATOM     12  N13 ZIN A   1      19.116  -2.474  11.051  0.00  0.00     0.082 N 
ATOM     13  C14 ZIN A   1      19.869  -3.635  11.545  0.00  0.00     0.309 C 
ATOM     14  C15 ZIN A   1      17.673  -2.657  11.255  0.00  0.00     0.309 C 
ENDBRANCH  11  12
ENDBRANCH  10  11
ENDBRANCH   9  10
ENDBRANCH   1   9
BRANCH   1  15
ATOM     15  C16 ZIN A   1      18.392   0.832   8.864  0.00  0.00    -0.025 A 
ATOM     16  C21 ZIN A   1      17.365   0.016   8.428  0.00  0.00     0.010 A 
ATOM     17  C20 ZIN A   1      17.162  -0.176   7.074  0.00  0.00     0.001 A 
ATOM     18  C19 ZIN A   1      17.991   0.441   6.157  0.00  0.00     0.000 A 
ATOM     19  C18 ZIN A   1      19.022   1.252   6.593  0.00  0.00     0.001 A 
ATOM     20  C17 ZIN A   1      19.223   1.448   7.947  0.00  0.00     0.010 A 
ENDBRANCH   1  15
TORSDOF 6
ENDMDL
MODEL 2
REMARK VINA RESULT:      -6.9      1.779      4.541
REMARK  6 active torsions:
REMARK  status: ('A' for Active; 'I' for Inactive)
REMARK    1  A    between atoms: C7_7  and  C8_8 
REMARK    2  A    between atoms: C8_8  and  O10_9 
REMARK    3  A    between atoms: C8_8  and  C16_15 
REMARK    4  A    between atoms: O10_9  and  C11_10 
REMARK    5  A    between atoms: C11_10  and  C12_11 
REMARK    6  A    between atoms: C12_11  and  N13_12 
ROOT
ATOM      1  C8  ZIN A   1      18.435   0.854  10.299  0.00  0.00     0.188 C 
ENDROOT
BRANCH   1   2
ATOM      2  C7  ZIN A   1      18.492  -0.528  10.899  0.00  0.00    -0.019 A 
ATOM      3  C2  ZIN A   1      19.711  -1.152  11.084  0.00  0.00    -0.053 A 
ATOM      4  C1  ZIN A   1      20.984  -0.448  10.690  0.00  0.00     0.049 C 
ATOM      5  C3  ZIN A   1      19.763  -2.418  11.635  0.00  0.00     0.007 A 
ATOM      6  C4  ZIN A   1      18.595  -3.064  11.996  0.00  0.00     0.001 A 
ATOM      7  C5  ZIN A   1      17.375  -2.442  11.806  0.00  0.00     0.001 A 
ATOM      8  C6  ZIN A   1      17.323  -1.175  11.256  0.00  0.00     0.011 A 
ENDBRANCH   1   2
BRANCH   1   9
ATOM      9  O10 ZIN A   1      17.310   1.557  10.829  0.00  0.00    -0.375 OA
BRANCH   9  10
ATOM     10  C11 ZIN A   1      17.602   2.894  11.244  0.00  0.00     0.199 C 
BRANCH  10  11
ATOM     11  C12 ZIN A   1      19.033   2.958  11.779  0.00  0.00     0.297 C 
BRANCH  11  12
ATOM     12  N13 ZIN A   1      19.005   3.043  13.246  0.00  0.00     0.082 N 
ATOM     13  C14 ZIN A   1      17.827   3.790  13.708  0.00  0.00     0.309 C 
ATOM     14  C15 ZIN A   1      19.050   1.705  13.851  0.00  0.00     0.309 C 
ENDBRANCH  11  12
ENDBRANCH  10  11
ENDBRANCH   9  10
ENDBRANCH   1   9
BRANCH   1  15
ATOM     15  C16 ZIN A   1      18.301   0.746   8.802  0.00  0.00    -0.025 A 
ATOM     16  C21 ZIN A   1      17.332  -0.073   8.253  0.00  0.00     0.010 A 
ATOM     17  C20 ZIN A   1      17.207  -0.171   6.879  0.00  0.00     0.001 A 
ATOM     18  C19 ZIN A   1      18.056   0.544   6.056  0.00  0.00     0.000 A 
ATOM     19  C18 ZIN A   1      19.029   1.358   6.605  0.00  0.00     0.001 A 
ATOM     20  C17 ZIN A   1      19.152   1.459   7.979  0.00  0.00     0.010 A 
ENDBRANCH   1  15
TORSDOF 6
ENDMDL
MODEL 3
REMARK VINA RESULT:      -6.9      2.715      6.617
REMARK  6 active torsions:
REMARK  status: ('A' for Active; 'I' for Inactive)
REMARK    1  A    between atoms: C7_7  and  C8_8 
REMARK    2  A    between atoms: C8_8  and  O10_9 
REMARK    3  A    between atoms: C8_8  and  C16_15 
REMARK    4  A    between atoms: O10_9  and  C11_10 
REMARK    5  A    between atoms: C11_10  and  C12_11 
REMARK    6  A    between atoms: C12_11  and  N13_12 
ROOT
ATOM      1  C8  ZIN A   1      18.953  -0.135  13.185  0.00  0.00     0.188 C 
ENDROOT
BRANCH   1   2
ATOM      2  C7  ZIN A   1      18.726  -1.389  12.380  0.00  0.00    -0.019 A 
ATOM      3  C2  ZIN A   1      17.618  -1.494  11.559  0.00  0.00    -0.053 A 
ATOM      4  C1  ZIN A   1      16.640  -0.351  11.466  0.00  0.00     0.049 C 
ATOM      5  C3  ZIN A   1      17.410  -2.643  10.821  0.00  0.00     0.007 A 
ATOM      6  C4  ZIN A   1      18.308  -3.692  10.907  0.00  0.00     0.001 A 
ATOM      7  C5  ZIN A   1      19.412  -3.590  11.732  0.00  0.00     0.001 A 
ATOM      8  C6  ZIN A   1      19.620  -2.439  12.470  0.00  0.00     0.011 A 
ENDBRANCH   1   2
BRANCH   1   9
ATOM      9  O10 ZIN A   1      20.330   0.239  13.105  0.00  0.00    -0.375 OA
BRANCH   9  10
ATOM     10  C11 ZIN A   1      20.642   1.070  11.984  0.00  0.00     0.199 C 
BRANCH  10  11
ATOM     11  C12 ZIN A   1      19.566   2.147  11.834  0.00  0.00     0.297 C 
BRANCH  11  12
ATOM     12  N13 ZIN A   1      19.383   2.461  10.411  0.00  0.00     0.082 N 
ATOM     13  C14 ZIN A   1      19.325   1.235   9.603  0.00  0.00     0.309 C 
ATOM     14  C15 ZIN A   1      18.184   3.285  10.203  0.00  0.00     0.309 C 
ENDBRANCH  11  12
ENDBRANCH  10  11
ENDBRANCH   9  10
ENDBRANCH   1   9
BRANCH   1  15
ATOM     15  C16 ZIN A   1      18.583  -0.388  14.623  0.00  0.00    -0.025 A 
ATOM     16  C21 ZIN A   1      19.343  -1.252  15.390  0.00  0.00     0.010 A 
ATOM     17  C20 ZIN A   1      19.006  -1.482  16.711  0.00  0.00     0.001 A 
ATOM     18  C19 ZIN A   1      17.904  -0.856  17.262  0.00  0.00     0.000 A 
ATOM     19  C18 ZIN A   1      17.141   0.003  16.493  0.00  0.00     0.001 A 
ATOM     20  C17 ZIN A   1      17.480   0.237  15.174  0.00  0.00     0.010 A 
ENDBRANCH   1  15
TORSDOF 6
ENDMDL
MODEL 4
REMARK VINA RESULT:      -6.9      1.720      2.334
REMARK  6 active torsions:
REMARK  status: ('A' for Active; 'I' for Inactive)
REMARK    1  A    between atoms: C7_7  and  C8_8 
REMARK    2  A    between atoms: C8_8  and  O10_9 
REMARK    3  A    between atoms: C8_8  and  C16_15 
REMARK    4  A    between atoms: O10_9  and  C11_10 
REMARK    5  A    between atoms: C11_10  and  C12_11 
REMARK    6  A    between atoms: C12_11  and  N13_12 
ROOT
ATOM      1  C8  ZIN A   1      18.303  -0.813   9.298  0.00  0.00     0.188 C 
ENDROOT
BRANCH   1   2
ATOM      2  C7  ZIN A   1      18.281   0.622   9.763  0.00  0.00    -0.019 A 
ATOM      3  C2  ZIN A   1      17.497   0.988  10.840  0.00  0.00    -0.053 A 
ATOM      4  C1  ZIN A   1      16.667  -0.048  11.554  0.00  0.00     0.049 C 
ATOM      5  C3  ZIN A   1      17.478   2.302  11.267  0.00  0.00     0.007 A 
ATOM      6  C4  ZIN A   1      18.240   3.253  10.612  0.00  0.00     0.001 A 
ATOM      7  C5  ZIN A   1      19.019   2.887   9.530  0.00  0.00     0.001 A 
ATOM      8  C6  ZIN A   1      19.039   1.572   9.104  0.00  0.00     0.011 A 
ENDBRANCH   1   2
BRANCH   1   9
ATOM      9  O10 ZIN A   1      19.508  -1.439   9.742  0.00  0.00    -0.375 OA
BRANCH   9  10
ATOM     10  C11 ZIN A   1      19.310  -2.426  10.756  0.00  0.00     0.199 C 
BRANCH  10  11
ATOM     11  C12 ZIN A   1      19.348  -3.819  10.125  0.00  0.00     0.297 C 
BRANCH  11  12
ATOM     12  N13 ZIN A   1      18.027  -4.449  10.248  0.00  0.00     0.082 N 
ATOM     13  C14 ZIN A   1      17.242  -3.823  11.321  0.00  0.00     0.309 C 
ATOM     14  C15 ZIN A   1      17.301  -4.405   8.971  0.00  0.00     0.309 C 
ENDBRANCH  11  12
ENDBRANCH  10  11
ENDBRANCH   9  10
ENDBRANCH   1   9
BRANCH   1  15
ATOM     15  C16 ZIN A   1      18.239  -0.853   7.793  0.00  0.00    -0.025 A 
ATOM     16  C21 ZIN A   1      17.207  -0.217   7.128  0.00  0.00     0.010 A 
ATOM     17  C20 ZIN A   1      17.150  -0.252   5.747  0.00  0.00     0.001 A 
ATOM     18  C19 ZIN A   1      18.120  -0.928   5.032  0.00  0.00     0.000 A 
ATOM     19  C18 ZIN A   1      19.149  -1.570   5.698  0.00  0.00     0.001 A 
ATOM     20  C17 ZIN A   1      19.208  -1.532   7.078  0.00  0.00     0.010 A 
ENDBRANCH   1  15
TORSDOF 6
ENDMDL
MODEL 5
REMARK VINA RESULT:      -6.8      2.654      4.971
REMARK  6 active torsions:
REMARK  status: ('A' for Active; 'I' for Inactive)
REMARK    1  A    between atoms: C7_7  and  C8_8 
REMARK    2  A    between atoms: C8_8  and  O10_9 
REMARK    3  A    between atoms: C8_8  and  C16_15 
REMARK    4  A    between atoms: O10_9  and  C11_10 
REMARK    5  A    between atoms: C11_10  and  C12_11 
REMARK    6  A    between atoms: C12_11  and  N13_12 
ROOT
ATOM      1  C8  ZIN A   1      18.390  -0.641  12.309  0.00  0.00     0.188 C 
ENDROOT
BRANCH   1   2
ATOM      2  C7  ZIN A   1      18.516   0.766  11.783  0.00  0.00    -0.019 A 
ATOM      3  C2  ZIN A   1      19.750   1.388  11.759  0.00  0.00    -0.053 A 
ATOM      4  C1  ZIN A   1      20.972   0.656  12.253  0.00  0.00     0.049 C 
ATOM      5  C3  ZIN A   1      19.866   2.677  11.276  0.00  0.00     0.007 A 
ATOM      6  C4  ZIN A   1      18.745   3.349  10.823  0.00  0.00     0.001 A 
ATOM      7  C5  ZIN A   1      17.510   2.730  10.852  0.00  0.00     0.001 A 
ATOM      8  C6  ZIN A   1      17.395   1.439  11.334  0.00  0.00     0.011 A 
ENDBRANCH   1   2
BRANCH   1   9
ATOM      9  O10 ZIN A   1      17.200  -1.238  11.791  0.00  0.00    -0.375 OA
BRANCH   9  10
ATOM     10  C11 ZIN A   1      17.376  -2.578  11.325  0.00  0.00     0.199 C 
BRANCH  10  11
ATOM     11  C12 ZIN A   1      18.526  -2.619  10.317  0.00  0.00     0.297 C 
BRANCH  11  12
ATOM     12  N13 ZIN A   1      19.254  -3.887  10.455  0.00  0.00     0.082 N 
ATOM     13  C14 ZIN A   1      20.239  -3.813  11.543  0.00  0.00     0.309 C 
ATOM     14  C15 ZIN A   1      18.326  -5.007  10.660  0.00  0.00     0.309 C 
ENDBRANCH  11  12
ENDBRANCH  10  11
ENDBRANCH   9  10
ENDBRANCH   1   9
BRANCH   1  15
ATOM     15  C16 ZIN A   1      18.324  -0.610  13.814  0.00  0.00    -0.025 A 
ATOM     16  C21 ZIN A   1      19.089  -1.490  14.557  0.00  0.00     0.010 A 
ATOM     17  C20 ZIN A   1      19.031  -1.460  15.938  0.00  0.00     0.001 A 
ATOM     18  C19 ZIN A   1      18.203  -0.556  16.575  0.00  0.00     0.000 A 
ATOM     19  C18 ZIN A   1      17.433   0.319  15.832  0.00  0.00     0.001 A 
ATOM     20  C17 ZIN A   1      17.494   0.292  14.451  0.00  0.00     0.010 A 
ENDBRANCH   1  15
TORSDOF 6
ENDMDL
MODEL 6
REMARK VINA RESULT:      -6.7      3.051      5.224
REMARK  6 active torsions:
REMARK  status: ('A' for Active; 'I' for Inactive)
REMARK    1  A    between atoms: C7_7  and  C8_8 
REMARK    2  A    between atoms: C8_8  and  O10_9 
REMARK    3  A    between atoms: C8_8  and  C16_15 
REMARK    4  A    between atoms: O10_9  and  C11_10 
REMARK    5  A    between atoms: C11_10  and  C12_11 
REMARK    6  A    between atoms: C12_11  and  N13_12 
ROOT
ATOM      1  C8  ZIN A   1      18.762   2.250  13.118  0.00  0.00     0.188 C 
ENDROOT
BRANCH   1   2
ATOM      2  C7  ZIN A   1      18.489   0.862  12.597  0.00  0.00    -0.019 A 
ATOM      3  C2  ZIN A   1      19.538   0.052  12.202  0.00  0.00    -0.053 A 
ATOM      4  C1  ZIN A   1      20.955   0.557  12.296  0.00  0.00     0.049 C 
ATOM      5  C3  ZIN A   1      19.288  -1.220  11.725  0.00  0.00     0.007 A 
ATOM      6  C4  ZIN A   1      17.987  -1.683  11.638  0.00  0.00     0.001 A 
ATOM      7  C5  ZIN A   1      16.938  -0.872  12.028  0.00  0.00     0.001 A 
ATOM      8  C6  ZIN A   1      17.189   0.401  12.506  0.00  0.00     0.011 A 
ENDBRANCH   1   2
BRANCH   1   9
ATOM      9  O10 ZIN A   1      18.163   2.401  14.406  0.00  0.00    -0.375 OA
BRANCH   9  10
ATOM     10  C11 ZIN A   1      19.080   2.258  15.494  0.00  0.00     0.199 C 
BRANCH  10  11
ATOM     11  C12 ZIN A   1      18.415   1.465  16.619  0.00  0.00     0.297 C 
BRANCH  11  12
ATOM     12  N13 ZIN A   1      18.987   0.113  16.670  0.00  0.00     0.082 N 
ATOM     13  C14 ZIN A   1      19.246  -0.297  18.057  0.00  0.00     0.309 C 
ATOM     14  C15 ZIN A   1      18.115  -0.854  15.990  0.00  0.00     0.309 C 
ENDBRANCH  11  12
ENDBRANCH  10  11
ENDBRANCH   9  10
ENDBRANCH   1   9
BRANCH   1  15
ATOM     15  C16 ZIN A   1      18.179   3.265  12.169  0.00  0.00    -0.025 A 
ATOM     16  C21 ZIN A   1      17.292   4.217  12.636  0.00  0.00     0.010 A 
ATOM     17  C20 ZIN A   1      16.759   5.151  11.767  0.00  0.00     0.001 A 
ATOM     18  C19 ZIN A   1      17.107   5.127  10.429  0.00  0.00     0.000 A 
ATOM     19  C18 ZIN A   1      17.989   4.170   9.961  0.00  0.00     0.001 A 
ATOM     20  C17 ZIN A   1      18.525   3.239  10.831  0.00  0.00     0.010 A 
ENDBRANCH   1  15
TORSDOF 6
ENDMDL
MODEL 7
REMARK VINA RESULT:      -6.7      3.051      6.708
REMARK  6 active torsions:
REMARK  status: ('A' for Active; 'I' for Inactive)
REMARK    1  A    between atoms: C7_7  and  C8_8 
REMARK    2  A    between atoms: C8_8  and  O10_9 
REMARK    3  A    between atoms: C8_8  and  C16_15 
REMARK    4  A    between atoms: O10_9  and  C11_10 
REMARK    5  A    between atoms: C11_10  and  C12_11 
REMARK    6  A    between atoms: C12_11  and  N13_12 
ROOT
ATOM      1  C8  ZIN A   1      18.120   1.342  13.836  0.00  0.00     0.188 C 
ENDROOT
BRANCH   1   2
ATOM      2  C7  ZIN A   1      18.851   0.655  12.711  0.00  0.00    -0.019 A 
ATOM      3  C2  ZIN A   1      18.142  -0.014  11.731  0.00  0.00    -0.053 A 
ATOM      4  C1  ZIN A   1      16.636  -0.053  11.787  0.00  0.00     0.049 C 
ATOM      5  C3  ZIN A   1      18.811  -0.643  10.699  0.00  0.00     0.007 A 
ATOM      6  C4  ZIN A   1      20.193  -0.608  10.649  0.00  0.00     0.001 A 
ATOM      7  C5  ZIN A   1      20.903   0.057  11.632  0.00  0.00     0.001 A 
ATOM      8  C6  ZIN A   1      20.232   0.686  12.664  0.00  0.00     0.011 A 
ENDBRANCH   1   2
BRANCH   1   9
ATOM      9  O10 ZIN A   1      18.552   2.701  13.925  0.00  0.00    -0.375 OA
BRANCH   9  10
ATOM     10  C11 ZIN A   1      17.815   3.599  13.091  0.00  0.00     0.199 C 
BRANCH  10  11
ATOM     11  C12 ZIN A   1      18.781   4.347  12.170  0.00  0.00     0.297 C 
BRANCH  11  12
ATOM     12  N13 ZIN A   1      18.177   4.490  10.839  0.00  0.00     0.082 N 
ATOM     13  C14 ZIN A   1      18.333   3.258  10.054  0.00  0.00     0.309 C 
ATOM     14  C15 ZIN A   1      16.762   4.873  10.941  0.00  0.00     0.309 C 
ENDBRANCH  11  12
ENDBRANCH  10  11
ENDBRANCH   9  10
ENDBRANCH   1   9
BRANCH   1  15
ATOM     15  C16 ZIN A   1      18.418   0.634  15.133  0.00  0.00    -0.025 A 
ATOM     16  C21 ZIN A   1      18.918   1.345  16.208  0.00  0.00     0.010 A 
ATOM     17  C20 ZIN A   1      19.188   0.696  17.400  0.00  0.00     0.001 A 
ATOM     18  C19 ZIN A   1      18.966  -0.663  17.512  0.00  0.00     0.000 A 
ATOM     19  C18 ZIN A   1      18.472  -1.374  16.434  0.00  0.00     0.001 A 
ATOM     20  C17 ZIN A   1      18.197  -0.726  15.245  0.00  0.00     0.010 A 
ENDBRANCH   1  15
TORSDOF 6
ENDMDL
MODEL 8
REMARK VINA RESULT:      -6.6      2.252      4.787
REMARK  6 active torsions:
REMARK  status: ('A' for Active; 'I' for Inactive)
REMARK    1  A    between atoms: C7_7  and  C8_8 
REMARK    2  A    between atoms: C8_8  and  O10_9 
REMARK    3  A    between atoms: C8_8  and  C16_15 
REMARK    4  A    between atoms: O10_9  and  C11_10 
REMARK    5  A    between atoms: C11_10  and  C12_11 
REMARK    6  A    between atoms: C12_11  and  N13_12 
ROOT
ATOM      1  C8  ZIN A   1      18.838  -0.594  12.106  0.00  0.00     0.188 C 
ENDROOT
BRANCH   1   2
ATOM      2  C7  ZIN A   1      18.928   0.221  10.841  0.00  0.00    -0.019 A 
ATOM      3  C2  ZIN A   1      18.308   1.455  10.767  0.00  0.00    -0.053 A 
ATOM      4  C1  ZIN A   1      17.547   1.987  11.954  0.00  0.00     0.049 C 
ATOM      5  C3  ZIN A   1      18.391   2.202   9.608  0.00  0.00     0.007 A 
ATOM      6  C4  ZIN A   1      19.090   1.714   8.519  0.00  0.00     0.001 A 
ATOM      7  C5  ZIN A   1      19.704   0.478   8.590  0.00  0.00     0.001 A 
ATOM      8  C6  ZIN A   1      19.622  -0.270   9.750  0.00  0.00     0.011 A 
ENDBRANCH   1   2
BRANCH   1   9
ATOM      9  O10 ZIN A   1      20.025  -0.406  12.878  0.00  0.00    -0.375 OA
BRANCH   9  10
ATOM     10  C11 ZIN A   1      19.806   0.252  14.128  0.00  0.00     0.199 C 
BRANCH  10  11
ATOM     11  C12 ZIN A   1      18.690  -0.462  14.891  0.00  0.00     0.297 C 
BRANCH  11  12
ATOM     12  N13 ZIN A   1      18.607   0.075  16.256  0.00  0.00     0.082 N 
ATOM     13  C14 ZIN A   1      18.982   1.495  16.287  0.00  0.00     0.309 C 
ATOM     14  C15 ZIN A   1      17.267  -0.128  16.822  0.00  0.00     0.309 C 
ENDBRANCH  11  12
ENDBRANCH  10  11
ENDBRANCH   9  10
ENDBRANCH   1   9
BRANCH   1  15
ATOM     15  C16 ZIN A   1      18.692  -2.052  11.754  0.00  0.00    -0.025 A 
ATOM     16  C21 ZIN A   1      19.792  -2.888  11.805  0.00  0.00     0.010 A 
ATOM     17  C20 ZIN A   1      19.659  -4.227  11.485  0.00  0.00     0.001 A 
ATOM     18  C19 ZIN A   1      18.427  -4.727  11.106  0.00  0.00     0.000 A 
ATOM     19  C18 ZIN A   1      17.329  -3.889  11.049  0.00  0.00     0.001 A 
ATOM     20  C17 ZIN A   1      17.461  -2.551  11.373  0.00  0.00     0.010 A 
ENDBRANCH   1  15
TORSDOF 6
ENDMDL
MODEL 9
REMARK VINA RESULT:      -6.5      2.033      5.178
REMARK  6 active torsions:
REMARK  status: ('A' for Active; 'I' for Inactive)
REMARK    1  A    between atoms: C7_7  and  C8_8 
REMARK    2  A    between atoms: C8_8  and  O10_9 
REMARK    3  A    between atoms: C8_8  and  C16_15 
REMARK    4  A    between atoms: O10_9  and  C11_10 
REMARK    5  A    between atoms: C11_10  and  C12_11 
REMARK    6  A    between atoms: C12_11  and  N13_12 
ROOT
ATOM      1  C8  ZIN A   1      18.496  -1.388   8.424  0.00  0.00     0.188 C 
ENDROOT
BRANCH   1   2
ATOM      2  C7  ZIN A   1      18.295  -1.373   6.930  0.00  0.00    -0.019 A 
ATOM      3  C2  ZIN A   1      18.954  -2.292   6.134  0.00  0.00    -0.053 A 
ATOM      4  C1  ZIN A   1      19.869  -3.312   6.762  0.00  0.00     0.049 C 
ATOM      5  C3  ZIN A   1      18.770  -2.279   4.765  0.00  0.00     0.007 A 
ATOM      6  C4  ZIN A   1      17.930  -1.343   4.189  0.00  0.00     0.001 A 
ATOM      7  C5  ZIN A   1      17.276  -0.420   4.984  0.00  0.00     0.001 A 
ATOM      8  C6  ZIN A   1      17.460  -0.434   6.354  0.00  0.00     0.011 A 
ENDBRANCH   1   2
BRANCH   1   9
ATOM      9  O10 ZIN A   1      17.439  -2.128   9.038  0.00  0.00    -0.375 OA
BRANCH   9  10
ATOM     10  C11 ZIN A   1      17.879  -3.286   9.752  0.00  0.00     0.199 C 
BRANCH  10  11
ATOM     11  C12 ZIN A   1      17.807  -3.015  11.256  0.00  0.00     0.297 C 
BRANCH  11  12
ATOM     12  N13 ZIN A   1      19.109  -2.526  11.729  0.00  0.00     0.082 N 
ATOM     13  C14 ZIN A   1      19.000  -1.963  13.082  0.00  0.00     0.309 C 
ATOM     14  C15 ZIN A   1      20.121  -3.589  11.681  0.00  0.00     0.309 C 
ENDBRANCH  11  12
ENDBRANCH  10  11
ENDBRANCH   9  10
ENDBRANCH   1   9
BRANCH   1  15
ATOM     15  C16 ZIN A   1      18.488   0.026   8.945  0.00  0.00    -0.025 A 
ATOM     16  C21 ZIN A   1      17.588   0.395   9.927  0.00  0.00     0.010 A 
ATOM     17  C20 ZIN A   1      17.583   1.692  10.408  0.00  0.00     0.001 A 
ATOM     18  C19 ZIN A   1      18.473   2.620   9.901  0.00  0.00     0.000 A 
ATOM     19  C18 ZIN A   1      19.369   2.252   8.914  0.00  0.00     0.001 A 
ATOM     20  C17 ZIN A   1      19.376   0.954   8.436  0.00  0.00     0.010 A 
ENDBRANCH   1  15
TORSDOF 6
ENDMDL
