MODEL 1
REMARK VINA RESULT:      -6.6      0.000      0.000
REMARK  10 active torsions:
REMARK  status: ('A' for Active; 'I' for Inactive)
REMARK    1  A    between atoms: C2_2  and  O4_4 
REMARK    2  A    between atoms: O4_4  and  C5_5 
REMARK    3  A    between atoms: C5_5  and  C6_6 
REMARK    4  A    between atoms: C6_6  and  C7_7 
REMARK    5  A    between atoms: C6_6  and  C19_19 
REMARK    6  A    between atoms: C7_7  and  C8_8 
REMARK    7  A    between atoms: C8_8  and  N9_9 
REMARK    8  A    between atoms: C15_15  and  N16_16 
REMARK    9  A    between atoms: C19_19  and  O20_20 
REMARK   10  A    between atoms: O20_20  and  C21_21 
ROOT
ATOM      1  C8  <0> d   1      18.651  -0.250   9.498  0.00  0.00     0.132 C 
ENDROOT
BRANCH   1   2
ATOM      2  C7  <0> d   1      17.180  -0.037   9.863  0.00  0.00     0.029 C 
BRANCH   2   3
ATOM      3  C6  <0> d   1      17.047   0.105  11.380  0.00  0.00     0.036 C 
BRANCH   3   4
ATOM      4  C5  <0> d   1      17.720   1.403  11.832  0.00  0.00     0.185 C 
BRANCH   4   5
ATOM      5  O4  <0> d   1      17.150   2.522  11.103  0.00  0.00    -0.321 OA
BRANCH   5   6
ATOM      6  C2  <0> d   1      18.004   3.457  10.656  0.00  0.00     0.254 C 
ATOM      7  C1  <0> d   1      17.491   4.813  10.246  0.00  0.00     0.126 C 
ATOM      8  O3  <0> d   1      19.184   3.210  10.583  0.00  0.00    -0.266 OA
ENDBRANCH   5   6
ENDBRANCH   4   5
ENDBRANCH   3   4
BRANCH   3   9
ATOM      9  C19 <0> d   1      17.724  -1.084  12.065  0.00  0.00     0.185 C 
BRANCH   9  10
ATOM     10  O20 <0> d   1      16.943  -2.286  11.832  0.00  0.00    -0.321 OA
BRANCH  10  11
ATOM     11  C21 <0> d   1      17.620  -3.398  11.502  0.00  0.00     0.254 C 
ATOM     12  C22 <0> d   1      16.875  -4.679  11.227  0.00  0.00     0.126 C 
ATOM     13  O23 <0> d   1      18.826  -3.371  11.426  0.00  0.00    -0.266 OA
ENDBRANCH  10  11
ENDBRANCH   9  10
ENDBRANCH   3   9
ENDBRANCH   2   3
ENDBRANCH   1   2
BRANCH   1  14
ATOM     14  N9  <0> d   1      18.863   0.112   8.094  0.00  0.00    -0.324 N 
ATOM     15  C18 <0> d   1      19.054  -0.760   7.052  0.00  0.00     0.180 A 
ATOM     16  C12 <0> d   1      19.210   0.040   5.901  0.00  0.00     0.122 A 
ATOM     17  N17 <0> d   1      19.097  -2.079   6.930  0.00  0.00    -0.043 NA
ATOM     18  N11 <0> d   1      19.118   1.333   6.301  0.00  0.00    -0.238 NA
ATOM     19  C13 <0> d   1      19.418  -0.595   4.677  0.00  0.00     0.171 A 
ATOM     20  C10 <0> d   1      18.914   1.377   7.586  0.00  0.00     0.212 A 
ATOM     21  N14 <0> d   1      19.453  -1.915   4.643  0.00  0.00    -0.073 NA
ATOM     22  C15 <0> d   1      19.296  -2.636   5.746  0.00  0.00     0.722 A 
BRANCH  22  23
ATOM     23  N16 <0> d   1      19.342  -4.018   5.655  0.00  0.00    -0.231 N 
ATOM     24  H36 <0> d   1      19.482  -4.443   4.795  0.00  0.00     0.174 HD
ATOM     25  H37 <0> d   1      19.234  -4.560   6.453  0.00  0.00     0.174 HD
ENDBRANCH  22  23
ENDBRANCH   1  14
TORSDOF 10
ENDMDL
MODEL 2
REMARK VINA RESULT:      -6.5      4.822      8.666
REMARK  10 active torsions:
REMARK  status: ('A' for Active; 'I' for Inactive)
REMARK    1  A    between atoms: C2_2  and  O4_4 
REMARK    2  A    between atoms: O4_4  and  C5_5 
REMARK    3  A    between atoms: C5_5  and  C6_6 
REMARK    4  A    between atoms: C6_6  and  C7_7 
REMARK    5  A    between atoms: C6_6  and  C19_19 
REMARK    6  A    between atoms: C7_7  and  C8_8 
REMARK    7  A    between atoms: C8_8  and  N9_9 
REMARK    8  A    between atoms: C15_15  and  N16_16 
REMARK    9  A    between atoms: C19_19  and  O20_20 
REMARK   10  A    between atoms: O20_20  and  C21_21 
ROOT
ATOM      1  C8  <0> d   1      18.665   0.352  13.342  0.00  0.00     0.132 C 
ENDROOT
BRANCH   1   2
ATOM      2  C7  <0> d   1      17.185   0.324  12.955  0.00  0.00     0.029 C 
BRANCH   2   3
ATOM      3  C6  <0> d   1      17.058   0.201  11.435  0.00  0.00     0.036 C 
BRANCH   3   4
ATOM      4  C5  <0> d   1      17.748  -1.083  10.968  0.00  0.00     0.185 C 
BRANCH   4   5
ATOM      5  O4  <0> d   1      17.114  -2.229  11.594  0.00  0.00    -0.321 OA
BRANCH   5   6
ATOM      6  C2  <0> d   1      17.882  -3.308  11.812  0.00  0.00     0.254 C 
ATOM      7  C1  <0> d   1      17.279  -4.687  11.753  0.00  0.00     0.126 C 
ATOM      8  O3  <0> d   1      19.057  -3.172  12.057  0.00  0.00    -0.266 OA
ENDBRANCH   5   6
ENDBRANCH   4   5
ENDBRANCH   3   4
BRANCH   3   9
ATOM      9  C19 <0> d   1      17.721   1.408  10.768  0.00  0.00     0.185 C 
BRANCH   9  10
ATOM     10  O20 <0> d   1      17.083   2.628  11.230  0.00  0.00    -0.321 OA
BRANCH  10  11
ATOM     11  C21 <0> d   1      17.815   3.752  11.187  0.00  0.00     0.254 C 
ATOM     12  C22 <0> d   1      17.406   4.883  10.278  0.00  0.00     0.126 C 
ATOM     13  O23 <0> d   1      18.802   3.857  11.877  0.00  0.00    -0.266 OA
ENDBRANCH  10  11
ENDBRANCH   9  10
ENDBRANCH   3   9
ENDBRANCH   2   3
ENDBRANCH   1   2
BRANCH   1  14
ATOM     14  N9  <0> d   1      18.818  -0.114  14.723  0.00  0.00    -0.324 N 
ATOM     15  C18 <0> d   1      19.025   0.675  15.826  0.00  0.00     0.180 A 
ATOM     16  C12 <0> d   1      19.106  -0.207  16.923  0.00  0.00     0.122 A 
ATOM     17  N17 <0> d   1      19.136   1.979  16.038  0.00  0.00    -0.043 NA
ATOM     18  N11 <0> d   1      18.956  -1.463  16.435  0.00  0.00    -0.238 NA
ATOM     19  C13 <0> d   1      19.313   0.333  18.193  0.00  0.00     0.171 A 
ATOM     20  C10 <0> d   1      18.786  -1.410  15.145  0.00  0.00     0.212 A 
ATOM     21  N14 <0> d   1      19.418   1.644  18.317  0.00  0.00    -0.073 NA
ATOM     22  C15 <0> d   1      19.331   2.444  17.262  0.00  0.00     0.722 A 
BRANCH  22  23
ATOM     23  N16 <0> d   1      19.448   3.813  17.447  0.00  0.00    -0.231 N 
ATOM     24  H36 <0> d   1      19.201   4.421  16.734  0.00  0.00     0.174 HD
ATOM     25  H37 <0> d   1      19.777   4.161  18.290  0.00  0.00     0.174 HD
ENDBRANCH  22  23
ENDBRANCH   1  14
TORSDOF 10
ENDMDL
MODEL 3
REMARK VINA RESULT:      -6.4      4.138      6.482
REMARK  10 active torsions:
REMARK  status: ('A' for Active; 'I' for Inactive)
REMARK    1  A    between atoms: C2_2  and  O4_4 
REMARK    2  A    between atoms: O4_4  and  C5_5 
REMARK    3  A    between atoms: C5_5  and  C6_6 
REMARK    4  A    between atoms: C6_6  and  C7_7 
REMARK    5  A    between atoms: C6_6  and  C19_19 
REMARK    6  A    between atoms: C7_7  and  C8_8 
REMARK    7  A    between atoms: C8_8  and  N9_9 
REMARK    8  A    between atoms: C15_15  and  N16_16 
REMARK    9  A    between atoms: C19_19  and  O20_20 
REMARK   10  A    between atoms: O20_20  and  C21_21 
ROOT
ATOM      1  C8  <0> d   1      18.695   2.268  14.815  0.00  0.00     0.132 C 
ENDROOT
BRANCH   1   2
ATOM      2  C7  <0> d   1      17.831   1.007  14.875  0.00  0.00     0.029 C 
BRANCH   2   3
ATOM      3  C6  <0> d   1      18.702  -0.191  15.256  0.00  0.00     0.036 C 
BRANCH   3   4
ATOM      4  C5  <0> d   1      18.755  -1.176  14.086  0.00  0.00     0.185 C 
BRANCH   4   5
ATOM      5  O4  <0> d   1      17.655  -0.906  13.177  0.00  0.00    -0.321 OA
BRANCH   5   6
ATOM      6  C2  <0> d   1      17.680  -1.530  11.989  0.00  0.00     0.254 C 
ATOM      7  C1  <0> d   1      18.019  -2.997  11.915  0.00  0.00     0.126 C 
ATOM      8  O3  <0> d   1      17.430  -0.916  10.979  0.00  0.00    -0.266 OA
ENDBRANCH   5   6
ENDBRANCH   4   5
ENDBRANCH   3   4
BRANCH   3   9
ATOM      9  C19 <0> d   1      18.105  -0.887  16.481  0.00  0.00     0.185 C 
BRANCH   9  10
ATOM     10  O20 <0> d   1      18.995  -0.718  17.616  0.00  0.00    -0.321 OA
BRANCH  10  11
ATOM     11  C21 <0> d   1      18.962   0.467  18.245  0.00  0.00     0.254 C 
ATOM     12  C22 <0> d   1      17.640   1.082  18.626  0.00  0.00     0.126 C 
ATOM     13  O23 <0> d   1      19.994   1.041  18.506  0.00  0.00    -0.266 OA
ENDBRANCH  10  11
ENDBRANCH   9  10
ENDBRANCH   3   9
ENDBRANCH   2   3
ENDBRANCH   1   2
BRANCH   1  14
ATOM     14  N9  <0> d   1      18.248   3.115  13.706  0.00  0.00    -0.324 N 
ATOM     15  C18 <0> d   1      18.475   2.890  12.372  0.00  0.00     0.180 A 
ATOM     16  C12 <0> d   1      17.860   3.958  11.688  0.00  0.00     0.122 A 
ATOM     17  N17 <0> d   1      19.087   1.945  11.672  0.00  0.00    -0.043 NA
ATOM     18  N11 <0> d   1      17.309   4.766  12.629  0.00  0.00    -0.238 NA
ATOM     19  C13 <0> d   1      17.932   3.983  10.296  0.00  0.00     0.171 A 
ATOM     20  C10 <0> d   1      17.536   4.273  13.812  0.00  0.00     0.212 A 
ATOM     21  N14 <0> d   1      18.565   3.004   9.675  0.00  0.00    -0.073 NA
ATOM     22  C15 <0> d   1      19.128   2.010  10.351  0.00  0.00     0.722 A 
BRANCH  22  23
ATOM     23  N16 <0> d   1      19.782   1.008   9.650  0.00  0.00    -0.231 N 
ATOM     24  H36 <0> d   1      19.270   0.323   9.194  0.00  0.00     0.174 HD
ATOM     25  H37 <0> d   1      20.751   0.994   9.616  0.00  0.00     0.174 HD
ENDBRANCH  22  23
ENDBRANCH   1  14
TORSDOF 10
ENDMDL
MODEL 4
REMARK VINA RESULT:      -6.4      3.033      5.291
REMARK  10 active torsions:
REMARK  status: ('A' for Active; 'I' for Inactive)
REMARK    1  A    between atoms: C2_2  and  O4_4 
REMARK    2  A    between atoms: O4_4  and  C5_5 
REMARK    3  A    between atoms: C5_5  and  C6_6 
REMARK    4  A    between atoms: C6_6  and  C7_7 
REMARK    5  A    between atoms: C6_6  and  C19_19 
REMARK    6  A    between atoms: C7_7  and  C8_8 
REMARK    7  A    between atoms: C8_8  and  N9_9 
REMARK    8  A    between atoms: C15_15  and  N16_16 
REMARK    9  A    between atoms: C19_19  and  O20_20 
REMARK   10  A    between atoms: O20_20  and  C21_21 
ROOT
ATOM      1  C8  <0> d   1      19.158  -1.347   8.782  0.00  0.00     0.132 C 
ENDROOT
BRANCH   1   2
ATOM      2  C7  <0> d   1      20.042  -0.164   9.184  0.00  0.00     0.029 C 
BRANCH   2   3
ATOM      3  C6  <0> d   1      19.570   1.096   8.457  0.00  0.00     0.036 C 
BRANCH   3   4
ATOM      4  C5  <0> d   1      18.900   2.041   9.458  0.00  0.00     0.185 C 
BRANCH   4   5
ATOM      5  O4  <0> d   1      17.584   1.530   9.799  0.00  0.00    -0.321 OA
BRANCH   5   6
ATOM      6  C2  <0> d   1      17.298   1.408  11.105  0.00  0.00     0.254 C 
ATOM      7  C1  <0> d   1      16.923   0.062  11.671  0.00  0.00     0.126 C 
ATOM      8  O3  <0> d   1      17.340   2.376  11.825  0.00  0.00    -0.266 OA
ENDBRANCH   5   6
ENDBRANCH   4   5
ENDBRANCH   3   4
BRANCH   3   9
ATOM      9  C19 <0> d   1      18.565   0.711   7.369  0.00  0.00     0.185 C 
BRANCH   9  10
ATOM     10  O20 <0> d   1      19.205   0.790   6.069  0.00  0.00    -0.321 OA
BRANCH  10  11
ATOM     11  C21 <0> d   1      19.064  -0.268   5.254  0.00  0.00     0.254 C 
ATOM     12  C22 <0> d   1      17.725  -0.946   5.125  0.00  0.00     0.126 C 
ATOM     13  O23 <0> d   1      20.012  -0.676   4.625  0.00  0.00    -0.266 OA
ENDBRANCH  10  11
ENDBRANCH   9  10
ENDBRANCH   3   9
ENDBRANCH   2   3
ENDBRANCH   1   2
BRANCH   1  14
ATOM     14  N9  <0> d   1      19.022  -2.263   9.917  0.00  0.00    -0.324 N 
ATOM     15  C18 <0> d   1      18.163  -3.331   9.999  0.00  0.00     0.180 A 
ATOM     16  C12 <0> d   1      18.388  -3.913  11.263  0.00  0.00     0.122 A 
ATOM     17  N17 <0> d   1      17.264  -3.873   9.190  0.00  0.00    -0.043 NA
ATOM     18  N11 <0> d   1      19.349  -3.175  11.874  0.00  0.00    -0.238 NA
ATOM     19  C13 <0> d   1      17.642  -5.037  11.616  0.00  0.00     0.171 A 
ATOM     20  C10 <0> d   1      19.721  -2.209  11.087  0.00  0.00     0.212 A 
ATOM     21  N14 <0> d   1      16.761  -5.512  10.754  0.00  0.00    -0.073 NA
ATOM     22  C15 <0> d   1      16.580  -4.941   9.569  0.00  0.00     0.722 A 
BRANCH  22  23
ATOM     23  N16 <0> d   1      15.644  -5.480   8.701  0.00  0.00    -0.231 N 
ATOM     24  H36 <0> d   1      15.719  -5.321   7.748  0.00  0.00     0.174 HD
ATOM     25  H37 <0> d   1      14.914  -6.016   9.049  0.00  0.00     0.174 HD
ENDBRANCH  22  23
ENDBRANCH   1  14
TORSDOF 10
ENDMDL
MODEL 5
REMARK VINA RESULT:      -6.4      3.972      5.934
REMARK  10 active torsions:
REMARK  status: ('A' for Active; 'I' for Inactive)
REMARK    1  A    between atoms: C2_2  and  O4_4 
REMARK    2  A    between atoms: O4_4  and  C5_5 
REMARK    3  A    between atoms: C5_5  and  C6_6 
REMARK    4  A    between atoms: C6_6  and  C7_7 
REMARK    5  A    between atoms: C6_6  and  C19_19 
REMARK    6  A    between atoms: C7_7  and  C8_8 
REMARK    7  A    between atoms: C8_8  and  N9_9 
REMARK    8  A    between atoms: C15_15  and  N16_16 
REMARK    9  A    between atoms: C19_19  and  O20_20 
REMARK   10  A    between atoms: O20_20  and  C21_21 
ROOT
ATOM      1  C8  <0> d   1      19.143   3.643  12.925  0.00  0.00     0.132 C 
ENDROOT
BRANCH   1   2
ATOM      2  C7  <0> d   1      18.082   3.010  13.828  0.00  0.00     0.029 C 
BRANCH   2   3
ATOM      3  C6  <0> d   1      18.690   1.821  14.574  0.00  0.00     0.036 C 
BRANCH   3   4
ATOM      4  C5  <0> d   1      17.588   0.817  14.918  0.00  0.00     0.185 C 
BRANCH   4   5
ATOM      5  O4  <0> d   1      17.808  -0.415  14.181  0.00  0.00    -0.321 OA
BRANCH   5   6
ATOM      6  C2  <0> d   1      18.762  -1.239  14.644  0.00  0.00     0.254 C 
ATOM      7  C1  <0> d   1      18.922  -1.448  16.128  0.00  0.00     0.126 C 
ATOM      8  O3  <0> d   1      19.491  -1.812  13.870  0.00  0.00    -0.266 OA
ENDBRANCH   5   6
ENDBRANCH   4   5
ENDBRANCH   3   4
BRANCH   3   9
ATOM      9  C19 <0> d   1      19.352   2.312  15.863  0.00  0.00     0.185 C 
BRANCH   9  10
ATOM     10  O20 <0> d   1      18.365   2.355  16.928  0.00  0.00    -0.321 OA
BRANCH  10  11
ATOM     11  C21 <0> d   1      18.701   1.780  18.094  0.00  0.00     0.254 C 
ATOM     12  C22 <0> d   1      17.720   0.880  18.799  0.00  0.00     0.126 C 
ATOM     13  O23 <0> d   1      19.789   1.986  18.577  0.00  0.00    -0.266 OA
ENDBRANCH  10  11
ENDBRANCH   9  10
ENDBRANCH   3   9
ENDBRANCH   2   3
ENDBRANCH   1   2
BRANCH   1  14
ATOM     14  N9  <0> d   1      18.944   3.191  11.546  0.00  0.00    -0.324 N 
ATOM     15  C18 <0> d   1      19.372   2.002  11.012  0.00  0.00     0.180 A 
ATOM     16  C12 <0> d   1      18.952   2.007   9.666  0.00  0.00     0.122 A 
ATOM     17  N17 <0> d   1      20.026   0.947  11.478  0.00  0.00    -0.043 NA
ATOM     18  N11 <0> d   1      18.310   3.184   9.456  0.00  0.00    -0.238 NA
ATOM     19  C13 <0> d   1      19.254   0.900   8.873  0.00  0.00     0.171 A 
ATOM     20  C10 <0> d   1      18.304   3.878  10.556  0.00  0.00     0.212 A 
ATOM     21  N14 <0> d   1      19.914  -0.108   9.415  0.00  0.00    -0.073 NA
ATOM     22  C15 <0> d   1      20.289  -0.081  10.688  0.00  0.00     0.722 A 
BRANCH  22  23
ATOM     23  N16 <0> d   1      20.979  -1.165  11.207  0.00  0.00    -0.231 N 
ATOM     24  H36 <0> d   1      21.418  -1.791  10.610  0.00  0.00     0.174 HD
ATOM     25  H37 <0> d   1      21.024  -1.297  12.167  0.00  0.00     0.174 HD
ENDBRANCH  22  23
ENDBRANCH   1  14
TORSDOF 10
ENDMDL
MODEL 6
REMARK VINA RESULT:      -6.4      2.799      4.652
REMARK  10 active torsions:
REMARK  status: ('A' for Active; 'I' for Inactive)
REMARK    1  A    between atoms: C2_2  and  O4_4 
REMARK    2  A    between atoms: O4_4  and  C5_5 
REMARK    3  A    between atoms: C5_5  and  C6_6 
REMARK    4  A    between atoms: C6_6  and  C7_7 
REMARK    5  A    between atoms: C6_6  and  C19_19 
REMARK    6  A    between atoms: C7_7  and  C8_8 
REMARK    7  A    between atoms: C8_8  and  N9_9 
REMARK    8  A    between atoms: C15_15  and  N16_16 
REMARK    9  A    between atoms: C19_19  and  O20_20 
REMARK   10  A    between atoms: O20_20  and  C21_21 
ROOT
ATOM      1  C8  <0> d   1      18.315  -1.353   9.632  0.00  0.00     0.132 C 
ENDROOT
BRANCH   1   2
ATOM      2  C7  <0> d   1      19.466  -0.345   9.637  0.00  0.00     0.029 C 
BRANCH   2   3
ATOM      3  C6  <0> d   1      19.478   0.422   8.313  0.00  0.00     0.036 C 
BRANCH   3   4
ATOM      4  C5  <0> d   1      19.245   1.910   8.585  0.00  0.00     0.185 C 
BRANCH   4   5
ATOM      5  O4  <0> d   1      19.122   2.128  10.015  0.00  0.00    -0.321 OA
BRANCH   5   6
ATOM      6  C2  <0> d   1      18.009   2.742  10.446  0.00  0.00     0.254 C 
ATOM      7  C1  <0> d   1      17.843   4.227  10.250  0.00  0.00     0.126 C 
ATOM      8  O3  <0> d   1      17.140   2.103  10.990  0.00  0.00    -0.266 OA
ENDBRANCH   5   6
ENDBRANCH   4   5
ENDBRANCH   3   4
BRANCH   3   9
ATOM      9  C19 <0> d   1      18.367  -0.110   7.405  0.00  0.00     0.185 C 
BRANCH   9  10
ATOM     10  O20 <0> d   1      18.625   0.297   6.036  0.00  0.00    -0.321 OA
BRANCH  10  11
ATOM     11  C21 <0> d   1      18.833  -0.679   5.138  0.00  0.00     0.254 C 
ATOM     12  C22 <0> d   1      17.681  -1.532   4.673  0.00  0.00     0.126 C 
ATOM     13  O23 <0> d   1      19.944  -0.873   4.704  0.00  0.00    -0.266 OA
ENDBRANCH  10  11
ENDBRANCH   9  10
ENDBRANCH   3   9
ENDBRANCH   2   3
ENDBRANCH   1   2
BRANCH   1  14
ATOM     14  N9  <0> d   1      18.845  -2.701   9.859  0.00  0.00    -0.324 N 
ATOM     15  C18 <0> d   1      19.037  -3.667   8.904  0.00  0.00     0.180 A 
ATOM     16  C12 <0> d   1      19.562  -4.785   9.584  0.00  0.00     0.122 A 
ATOM     17  N17 <0> d   1      18.857  -3.737   7.592  0.00  0.00    -0.043 NA
ATOM     18  N11 <0> d   1      19.650  -4.446  10.895  0.00  0.00    -0.238 NA
ATOM     19  C13 <0> d   1      19.861  -5.930   8.845  0.00  0.00     0.171 A 
ATOM     20  C10 <0> d   1      19.230  -3.225  11.057  0.00  0.00     0.212 A 
ATOM     21  N14 <0> d   1      19.647  -5.918   7.542  0.00  0.00    -0.073 NA
ATOM     22  C15 <0> d   1      19.156  -4.846   6.934  0.00  0.00     0.722 A 
BRANCH  22  23
ATOM     23  N16 <0> d   1      18.950  -4.887   5.564  0.00  0.00    -0.231 N 
ATOM     24  H36 <0> d   1      19.526  -4.380   4.972  0.00  0.00     0.174 HD
ATOM     25  H37 <0> d   1      18.230  -5.424   5.198  0.00  0.00     0.174 HD
ENDBRANCH  22  23
ENDBRANCH   1  14
TORSDOF 10
ENDMDL
MODEL 7
REMARK VINA RESULT:      -6.3      4.940      7.654
REMARK  10 active torsions:
REMARK  status: ('A' for Active; 'I' for Inactive)
REMARK    1  A    between atoms: C2_2  and  O4_4 
REMARK    2  A    between atoms: O4_4  and  C5_5 
REMARK    3  A    between atoms: C5_5  and  C6_6 
REMARK    4  A    between atoms: C6_6  and  C7_7 
REMARK    5  A    between atoms: C6_6  and  C19_19 
REMARK    6  A    between atoms: C7_7  and  C8_8 
REMARK    7  A    between atoms: C8_8  and  N9_9 
REMARK    8  A    between atoms: C15_15  and  N16_16 
REMARK    9  A    between atoms: C19_19  and  O20_20 
REMARK   10  A    between atoms: O20_20  and  C21_21 
ROOT
ATOM      1  C8  <0> d   1      18.301   0.557  13.466  0.00  0.00     0.132 C 
ENDROOT
BRANCH   1   2
ATOM      2  C7  <0> d   1      19.605   0.743  12.688  0.00  0.00     0.029 C 
BRANCH   2   3
ATOM      3  C6  <0> d   1      19.310   0.738  11.188  0.00  0.00     0.036 C 
BRANCH   3   4
ATOM      4  C5  <0> d   1      17.869   1.197  10.950  0.00  0.00     0.185 C 
BRANCH   4   5
ATOM      5  O4  <0> d   1      17.875   2.440  10.199  0.00  0.00    -0.321 OA
BRANCH   5   6
ATOM      6  C2  <0> d   1      17.488   3.548  10.851  0.00  0.00     0.254 C 
ATOM      7  C1  <0> d   1      17.563   4.889  10.169  0.00  0.00     0.126 C 
ATOM      8  O3  <0> d   1      17.080   3.469  11.985  0.00  0.00    -0.266 OA
ENDBRANCH   5   6
ENDBRANCH   4   5
ENDBRANCH   3   4
BRANCH   3   9
ATOM      9  C19 <0> d   1      19.491  -0.678  10.637  0.00  0.00     0.185 C 
BRANCH   9  10
ATOM     10  O20 <0> d   1      18.210  -1.362  10.631  0.00  0.00    -0.321 OA
BRANCH  10  11
ATOM     11  C21 <0> d   1      18.131  -2.513  11.319  0.00  0.00     0.254 C 
ATOM     12  C22 <0> d   1      19.374  -3.121  11.915  0.00  0.00     0.126 C 
ATOM     13  O23 <0> d   1      17.063  -3.060  11.458  0.00  0.00    -0.266 OA
ENDBRANCH  10  11
ENDBRANCH   9  10
ENDBRANCH   3   9
ENDBRANCH   2   3
ENDBRANCH   1   2
BRANCH   1  14
ATOM     14  N9  <0> d   1      18.595  -0.004  14.787  0.00  0.00    -0.324 N 
ATOM     15  C18 <0> d   1      18.869   0.709  15.928  0.00  0.00     0.180 A 
ATOM     16  C12 <0> d   1      19.082  -0.248  16.941  0.00  0.00     0.122 A 
ATOM     17  N17 <0> d   1      18.947   1.997  16.231  0.00  0.00    -0.043 NA
ATOM     18  N11 <0> d   1      18.938  -1.470  16.369  0.00  0.00    -0.238 NA
ATOM     19  C13 <0> d   1      19.380   0.204  18.226  0.00  0.00     0.171 A 
ATOM     20  C10 <0> d   1      18.653  -1.328  15.108  0.00  0.00     0.212 A 
ATOM     21  N14 <0> d   1      19.444   1.506  18.443  0.00  0.00    -0.073 NA
ATOM     22  C15 <0> d   1      19.232   2.378  17.466  0.00  0.00     0.722 A 
BRANCH  22  23
ATOM     23  N16 <0> d   1      19.311   3.733  17.748  0.00  0.00    -0.231 N 
ATOM     24  H36 <0> d   1      18.930   4.080  18.569  0.00  0.00     0.174 HD
ATOM     25  H37 <0> d   1      19.748   4.333  17.124  0.00  0.00     0.174 HD
ENDBRANCH  22  23
ENDBRANCH   1  14
TORSDOF 10
ENDMDL
MODEL 8
REMARK VINA RESULT:      -6.3      3.390      6.206
REMARK  10 active torsions:
REMARK  status: ('A' for Active; 'I' for Inactive)
REMARK    1  A    between atoms: C2_2  and  O4_4 
REMARK    2  A    between atoms: O4_4  and  C5_5 
REMARK    3  A    between atoms: C5_5  and  C6_6 
REMARK    4  A    between atoms: C6_6  and  C7_7 
REMARK    5  A    between atoms: C6_6  and  C19_19 
REMARK    6  A    between atoms: C7_7  and  C8_8 
REMARK    7  A    between atoms: C8_8  and  N9_9 
REMARK    8  A    between atoms: C15_15  and  N16_16 
REMARK    9  A    between atoms: C19_19  and  O20_20 
REMARK   10  A    between atoms: O20_20  and  C21_21 
ROOT
ATOM      1  C8  <0> d   1      20.550  -0.545   9.991  0.00  0.00     0.132 C 
ENDROOT
BRANCH   1   2
ATOM      2  C7  <0> d   1      19.499  -0.524   8.880  0.00  0.00     0.029 C 
BRANCH   2   3
ATOM      3  C6  <0> d   1      19.294   0.913   8.398  0.00  0.00     0.036 C 
BRANCH   3   4
ATOM      4  C5  <0> d   1      18.150   1.556   9.185  0.00  0.00     0.185 C 
BRANCH   4   5
ATOM      5  O4  <0> d   1      18.643   2.732   9.881  0.00  0.00    -0.321 OA
BRANCH   5   6
ATOM      6  C2  <0> d   1      17.748   3.444  10.584  0.00  0.00     0.254 C 
ATOM      7  C1  <0> d   1      17.512   4.895  10.253  0.00  0.00     0.126 C 
ATOM      8  O3  <0> d   1      17.133   2.921  11.482  0.00  0.00    -0.266 OA
ENDBRANCH   5   6
ENDBRANCH   4   5
ENDBRANCH   3   4
BRANCH   3   9
ATOM      9  C19 <0> d   1      18.946   0.906   6.908  0.00  0.00     0.185 C 
BRANCH   9  10
ATOM     10  O20 <0> d   1      18.595  -0.442   6.498  0.00  0.00    -0.321 OA
BRANCH  10  11
ATOM     11  C21 <0> d   1      19.151  -0.898   5.364  0.00  0.00     0.254 C 
ATOM     12  C22 <0> d   1      19.062  -2.362   5.019  0.00  0.00     0.126 C 
ATOM     13  O23 <0> d   1      19.722  -0.134   4.622  0.00  0.00    -0.266 OA
ENDBRANCH  10  11
ENDBRANCH   9  10
ENDBRANCH   3   9
ENDBRANCH   2   3
ENDBRANCH   1   2
BRANCH   1  14
ATOM     14  N9  <0> d   1      19.955  -1.080  11.218  0.00  0.00    -0.324 N 
ATOM     15  C18 <0> d   1      19.578  -0.355  12.320  0.00  0.00     0.180 A 
ATOM     16  C12 <0> d   1      19.059  -1.288  13.240  0.00  0.00     0.122 A 
ATOM     17  N17 <0> d   1      19.593   0.930  12.646  0.00  0.00    -0.043 NA
ATOM     18  N11 <0> d   1      19.154  -2.511  12.661  0.00  0.00    -0.238 NA
ATOM     19  C13 <0> d   1      18.590  -0.819  14.467  0.00  0.00     0.171 A 
ATOM     20  C10 <0> d   1      19.679  -2.391  11.476  0.00  0.00     0.212 A 
ATOM     21  N14 <0> d   1      18.646   0.478  14.715  0.00  0.00    -0.073 NA
ATOM     22  C15 <0> d   1      19.136   1.329  13.822  0.00  0.00     0.722 A 
BRANCH  22  23
ATOM     23  N16 <0> d   1      19.172   2.679  14.132  0.00  0.00    -0.231 N 
ATOM     24  H36 <0> d   1      19.931   3.218  13.863  0.00  0.00     0.174 HD
ATOM     25  H37 <0> d   1      18.437   3.084  14.619  0.00  0.00     0.174 HD
ENDBRANCH  22  23
ENDBRANCH   1  14
TORSDOF 10
ENDMDL
MODEL 9
REMARK VINA RESULT:      -6.2      1.612      2.675
REMARK  10 active torsions:
REMARK  status: ('A' for Active; 'I' for Inactive)
REMARK    1  A    between atoms: C2_2  and  O4_4 
REMARK    2  A    between atoms: O4_4  and  C5_5 
REMARK    3  A    between atoms: C5_5  and  C6_6 
REMARK    4  A    between atoms: C6_6  and  C7_7 
REMARK    5  A    between atoms: C6_6  and  C19_19 
REMARK    6  A    between atoms: C7_7  and  C8_8 
REMARK    7  A    between atoms: C8_8  and  N9_9 
REMARK    8  A    between atoms: C15_15  and  N16_16 
REMARK    9  A    between atoms: C19_19  and  O20_20 
REMARK   10  A    between atoms: O20_20  and  C21_21 
ROOT
ATOM      1  C8  <0> d   1      18.590   1.144   7.065  0.00  0.00     0.132 C 
ENDROOT
BRANCH   1   2
ATOM      2  C7  <0> d   1      19.551   1.333   8.240  0.00  0.00     0.029 C 
BRANCH   2   3
ATOM      3  C6  <0> d   1      18.765   1.314   9.552  0.00  0.00     0.036 C 
BRANCH   3   4
ATOM      4  C5  <0> d   1      18.868   2.684  10.228  0.00  0.00     0.185 C 
BRANCH   4   5
ATOM      5  O4  <0> d   1      17.831   3.559   9.709  0.00  0.00    -0.321 OA
BRANCH   5   6
ATOM      6  C2  <0> d   1      17.508   4.628  10.453  0.00  0.00     0.254 C 
ATOM      7  C1  <0> d   1      17.176   4.458  11.913  0.00  0.00     0.126 C 
ATOM      8  O3  <0> d   1      17.482   5.726   9.951  0.00  0.00    -0.266 OA
ENDBRANCH   5   6
ENDBRANCH   4   5
ENDBRANCH   3   4
BRANCH   3   9
ATOM      9  C19 <0> d   1      19.344   0.244  10.479  0.00  0.00     0.185 C 
BRANCH   9  10
ATOM     10  O20 <0> d   1      18.594   0.221  11.721  0.00  0.00    -0.321 OA
BRANCH  10  11
ATOM     11  C21 <0> d   1      17.722  -0.786  11.889  0.00  0.00     0.254 C 
ATOM     12  C22 <0> d   1      18.219  -2.155  12.277  0.00  0.00     0.126 C 
ATOM     13  O23 <0> d   1      16.540  -0.595  11.727  0.00  0.00    -0.266 OA
ENDBRANCH  10  11
ENDBRANCH   9  10
ENDBRANCH   3   9
ENDBRANCH   2   3
ENDBRANCH   1   2
BRANCH   1  14
ATOM     14  N9  <0> d   1      18.959  -0.063   6.321  0.00  0.00    -0.324 N 
ATOM     15  C18 <0> d   1      18.791  -1.358   6.742  0.00  0.00     0.180 A 
ATOM     16  C12 <0> d   1      19.285  -2.171   5.702  0.00  0.00     0.122 A 
ATOM     17  N17 <0> d   1      18.289  -1.933   7.826  0.00  0.00    -0.043 NA
ATOM     18  N11 <0> d   1      19.728  -1.340   4.725  0.00  0.00    -0.238 NA
ATOM     19  C13 <0> d   1      19.235  -3.556   5.863  0.00  0.00     0.171 A 
ATOM     20  C10 <0> d   1      19.537  -0.105   5.086  0.00  0.00     0.212 A 
ATOM     21  N14 <0> d   1      18.723  -4.048   6.976  0.00  0.00    -0.073 NA
ATOM     22  C15 <0> d   1      18.261  -3.252   7.933  0.00  0.00     0.722 A 
BRANCH  22  23
ATOM     23  N16 <0> d   1      17.734  -3.820   9.082  0.00  0.00    -0.231 N 
ATOM     24  H36 <0> d   1      17.510  -4.763   9.097  0.00  0.00     0.174 HD
ATOM     25  H37 <0> d   1      17.590  -3.274   9.870  0.00  0.00     0.174 HD
ENDBRANCH  22  23
ENDBRANCH   1  14
TORSDOF 10
ENDMDL
