MODEL 1
REMARK VINA RESULT:      -9.4      0.000      0.000
REMARK  7 active torsions:
REMARK  status: ('A' for Active; 'I' for Inactive)
REMARK    1  A    between atoms: C2_2  and  C3_3 
REMARK       I    between atoms: N7_7  and  C8_8 
REMARK       I    between atoms: C8_8  and  N10_10 
REMARK    2  A    between atoms: N10_10  and  C11_11 
REMARK    3  A    between atoms: C11_11  and  C12_12 
REMARK    4  A    between atoms: C12_12  and  C13_13 
REMARK    5  A    between atoms: C16_16  and  S17_17 
REMARK    6  A    between atoms: S17_17  and  N20_20 
REMARK       I    between atoms: N20_20  and  C21_21 
REMARK       I    between atoms: C21_21  and  N23_23 
REMARK    7  A    between atoms: N23_23  and  C24_24 
ROOT
ATOM      1  C13 ZIN A   1      18.353   0.499   6.277  0.00  0.00    -0.057 A 
ATOM      2  C14 ZIN A   1      19.252   1.311   6.943  0.00  0.00     0.009 A 
ATOM      3  C15 ZIN A   1      19.161   1.464   8.314  0.00  0.00     0.026 A 
ATOM      4  C16 ZIN A   1      18.171   0.804   9.019  0.00  0.00     0.081 A 
ATOM      5  C33 ZIN A   1      17.272  -0.007   8.352  0.00  0.00     0.026 A 
ATOM      6  C34 ZIN A   1      17.361  -0.157   6.980  0.00  0.00     0.009 A 
ENDROOT
BRANCH   1   7
ATOM      7  C12 ZIN A   1      18.453   0.333   4.782  0.00  0.00     0.058 C 
BRANCH   7   8
ATOM      8  C11 ZIN A   1      19.367  -0.851   4.461  0.00  0.00     0.129 C 
BRANCH   8   9
ATOM      9  N10 ZIN A   1      18.589  -2.093   4.502  0.00  0.00    -0.342 N 
ATOM     10  C8  ZIN A   1      19.004  -3.123   5.266  0.00  0.00     0.325 C 
ATOM     11  N7  ZIN A   1      18.288  -4.264   5.303  0.00  0.00    -0.262 N 
ATOM     12  O9  ZIN A   1      20.023  -3.022   5.921  0.00  0.00    -0.247 OA
ATOM     13  C6  ZIN A   1      18.610  -5.467   6.082  0.00  0.00     0.171 A 
ATOM     14  C35 ZIN A   1      17.152  -4.516   4.628  0.00  0.00     0.258 A 
ATOM     15  C4  ZIN A   1      17.509  -6.458   5.784  0.00  0.00    -0.054 A 
ATOM     16  C3  ZIN A   1      16.674  -5.867   4.934  0.00  0.00     0.013 A 
ATOM     17  C5  ZIN A   1      17.381  -7.852   6.342  0.00  0.00     0.046 C 
ATOM     18  O36 ZIN A   1      16.598  -3.734   3.880  0.00  0.00    -0.267 OA
ATOM     19  H47 ZIN A   1      17.777  -2.173   3.979  0.00  0.00     0.164 HD
BRANCH  16  20
ATOM     20  C2  ZIN A   1      15.427  -6.495   4.366  0.00  0.00     0.040 C 
ATOM     21  C1  ZIN A   1      14.243  -6.202   5.290  0.00  0.00     0.010 C 
ENDBRANCH  16  20
ENDBRANCH   8   9
ENDBRANCH   7   8
ENDBRANCH   1   7
BRANCH   4  22
ATOM     22  S17 ZIN A   1      18.056   0.997  10.766  0.00  0.00     0.287 S 
ATOM     23  O18 ZIN A   1      19.387   1.137  11.242  0.00  0.00    -0.198 OA
ATOM     24  O19 ZIN A   1      17.041   1.964  10.997  0.00  0.00    -0.198 OA
BRANCH  22  25
ATOM     25  N20 ZIN A   1      17.488  -0.433  11.380  0.00  0.00    -0.102 NA
ATOM     26  C21 ZIN A   1      18.224  -1.556  11.261  0.00  0.00     0.353 C 
ATOM     27  O22 ZIN A   1      19.304  -1.519  10.703  0.00  0.00    -0.244 OA
ATOM     28  N23 ZIN A   1      17.763  -2.720  11.760  0.00  0.00    -0.336 N 
ATOM     29  H54 ZIN A   1      16.902  -2.749  12.206  0.00  0.00     0.164 HD
BRANCH  28  30
ATOM     30  C24 ZIN A   1      18.563  -3.941  11.630  0.00  0.00     0.086 C 
ATOM     31  C32 ZIN A   1      18.971  -4.129  10.168  0.00  0.00     0.026 C 
ATOM     32  C31 ZIN A   1      17.717  -4.246   9.298  0.00  0.00     0.006 C 
ATOM     33  C28 ZIN A   1      16.889  -5.449   9.756  0.00  0.00    -0.019 C 
ATOM     34  C27 ZIN A   1      16.480  -5.260  11.219  0.00  0.00     0.006 C 
ATOM     35  C30 ZIN A   1      15.635  -5.565   8.888  0.00  0.00     0.010 C 
ATOM     36  C26 ZIN A   1      17.735  -5.144  12.088  0.00  0.00     0.026 C 
ENDBRANCH  28  30
ENDBRANCH  22  25
ENDBRANCH   4  22
TORSDOF 7
ENDMDL
MODEL 2
REMARK VINA RESULT:      -9.2      3.306      7.963
REMARK  7 active torsions:
REMARK  status: ('A' for Active; 'I' for Inactive)
REMARK    1  A    between atoms: C2_2  and  C3_3 
REMARK       I    between atoms: N7_7  and  C8_8 
REMARK       I    between atoms: C8_8  and  N10_10 
REMARK    2  A    between atoms: N10_10  and  C11_11 
REMARK    3  A    between atoms: C11_11  and  C12_12 
REMARK    4  A    between atoms: C12_12  and  C13_13 
REMARK    5  A    between atoms: C16_16  and  S17_17 
REMARK    6  A    between atoms: S17_17  and  N20_20 
REMARK       I    between atoms: N20_20  and  C21_21 
REMARK       I    between atoms: C21_21  and  N23_23 
REMARK    7  A    between atoms: N23_23  and  C24_24 
ROOT
ATOM      1  C13 ZIN A   1      19.109   1.600   8.637  0.00  0.00    -0.057 A 
ATOM      2  C14 ZIN A   1      18.908   2.107   7.366  0.00  0.00     0.009 A 
ATOM      3  C15 ZIN A   1      18.778   1.247   6.292  0.00  0.00     0.026 A 
ATOM      4  C16 ZIN A   1      18.850  -0.120   6.488  0.00  0.00     0.081 A 
ATOM      5  C33 ZIN A   1      19.052  -0.626   7.757  0.00  0.00     0.026 A 
ATOM      6  C34 ZIN A   1      19.185   0.234   8.831  0.00  0.00     0.009 A 
ENDROOT
BRANCH   1   7
ATOM      7  C12 ZIN A   1      19.250   2.538   9.808  0.00  0.00     0.058 C 
BRANCH   7   8
ATOM      8  C11 ZIN A   1      17.883   2.740  10.466  0.00  0.00     0.129 C 
BRANCH   8   9
ATOM      9  N10 ZIN A   1      17.872   2.087  11.778  0.00  0.00    -0.342 N 
ATOM     10  C8  ZIN A   1      18.292   2.760  12.868  0.00  0.00     0.325 C 
ATOM     11  N7  ZIN A   1      18.282   2.159  14.075  0.00  0.00    -0.262 N 
ATOM     12  O9  ZIN A   1      18.679   3.907  12.762  0.00  0.00    -0.247 OA
ATOM     13  C6  ZIN A   1      18.707   2.758  15.347  0.00  0.00     0.171 A 
ATOM     14  C35 ZIN A   1      17.888   0.899  14.335  0.00  0.00     0.258 A 
ATOM     15  C4  ZIN A   1      18.504   1.686  16.394  0.00  0.00    -0.054 A 
ATOM     16  C3  ZIN A   1      18.022   0.617  15.767  0.00  0.00     0.013 A 
ATOM     17  C5  ZIN A   1      18.794   1.806  17.867  0.00  0.00     0.046 C 
ATOM     18  O36 ZIN A   1      17.474   0.112  13.506  0.00  0.00    -0.267 OA
ATOM     19  H47 ZIN A   1      17.563   1.172  11.861  0.00  0.00     0.164 HD
BRANCH  16  20
ATOM     20  C2  ZIN A   1      17.672  -0.691  16.429  0.00  0.00     0.040 C 
ATOM     21  C1  ZIN A   1      18.874  -1.635  16.361  0.00  0.00     0.010 C 
ENDBRANCH  16  20
ENDBRANCH   8   9
ENDBRANCH   7   8
ENDBRANCH   1   7
BRANCH   4  22
ATOM     22  S17 ZIN A   1      18.684  -1.216   5.118  0.00  0.00     0.287 S 
ATOM     23  O18 ZIN A   1      17.740  -0.619   4.239  0.00  0.00    -0.198 OA
ATOM     24  O19 ZIN A   1      20.002  -1.567   4.722  0.00  0.00    -0.198 OA
BRANCH  22  25
ATOM     25  N20 ZIN A   1      17.981  -2.605   5.685  0.00  0.00    -0.102 NA
ATOM     26  C21 ZIN A   1      18.752  -3.616   6.131  0.00  0.00     0.353 C 
ATOM     27  O22 ZIN A   1      19.964  -3.509   6.116  0.00  0.00    -0.244 OA
ATOM     28  N23 ZIN A   1      18.182  -4.747   6.593  0.00  0.00    -0.336 N 
ATOM     29  H54 ZIN A   1      17.215  -4.831   6.605  0.00  0.00     0.164 HD
BRANCH  28  30
ATOM     30  C24 ZIN A   1      19.021  -5.846   7.077  0.00  0.00     0.086 C 
ATOM     31  C32 ZIN A   1      18.134  -7.029   7.470  0.00  0.00     0.026 C 
ATOM     32  C31 ZIN A   1      17.169  -6.597   8.578  0.00  0.00     0.006 C 
ATOM     33  C28 ZIN A   1      17.967  -6.130   9.797  0.00  0.00    -0.019 C 
ATOM     34  C27 ZIN A   1      18.854  -4.947   9.403  0.00  0.00     0.006 C 
ATOM     35  C30 ZIN A   1      17.003  -5.699  10.903  0.00  0.00     0.010 C 
ATOM     36  C26 ZIN A   1      19.819  -5.379   8.296  0.00  0.00     0.026 C 
ENDBRANCH  28  30
ENDBRANCH  22  25
ENDBRANCH   4  22
TORSDOF 7
ENDMDL
MODEL 3
REMARK VINA RESULT:      -9.2      3.149      7.779
REMARK  7 active torsions:
REMARK  status: ('A' for Active; 'I' for Inactive)
REMARK    1  A    between atoms: C2_2  and  C3_3 
REMARK       I    between atoms: N7_7  and  C8_8 
REMARK       I    between atoms: C8_8  and  N10_10 
REMARK    2  A    between atoms: N10_10  and  C11_11 
REMARK    3  A    between atoms: C11_11  and  C12_12 
REMARK    4  A    between atoms: C12_12  and  C13_13 
REMARK    5  A    between atoms: C16_16  and  S17_17 
REMARK    6  A    between atoms: S17_17  and  N20_20 
REMARK       I    between atoms: N20_20  and  C21_21 
REMARK       I    between atoms: C21_21  and  N23_23 
REMARK    7  A    between atoms: N23_23  and  C24_24 
ROOT
ATOM      1  C13 ZIN A   1      18.403   1.632   8.719  0.00  0.00    -0.057 A 
ATOM      2  C14 ZIN A   1      17.729   0.424   8.738  0.00  0.00     0.009 A 
ATOM      3  C15 ZIN A   1      17.790  -0.418   7.643  0.00  0.00     0.026 A 
ATOM      4  C16 ZIN A   1      18.524  -0.052   6.530  0.00  0.00     0.081 A 
ATOM      5  C33 ZIN A   1      19.196   1.155   6.511  0.00  0.00     0.026 A 
ATOM      6  C34 ZIN A   1      19.133   1.998   7.605  0.00  0.00     0.009 A 
ENDROOT
BRANCH   1   7
ATOM      7  C12 ZIN A   1      18.337   2.549   9.913  0.00  0.00     0.058 C 
BRANCH   7   8
ATOM      8  C11 ZIN A   1      19.637   2.440  10.712  0.00  0.00     0.129 C 
BRANCH   8   9
ATOM      9  N10 ZIN A   1      19.332   2.029  12.086  0.00  0.00    -0.342 N 
ATOM     10  C8  ZIN A   1      19.570   0.761  12.478  0.00  0.00     0.325 C 
ATOM     11  N7  ZIN A   1      19.289   0.384  13.741  0.00  0.00    -0.262 N 
ATOM     12  O9  ZIN A   1      20.037  -0.040  11.693  0.00  0.00    -0.247 OA
ATOM     13  C6  ZIN A   1      19.491  -0.954  14.314  0.00  0.00     0.171 A 
ATOM     14  C35 ZIN A   1      18.765   1.160  14.708  0.00  0.00     0.258 A 
ATOM     15  C4  ZIN A   1      19.025  -0.861  15.748  0.00  0.00    -0.054 A 
ATOM     16  C3  ZIN A   1      18.611   0.387  15.943  0.00  0.00     0.013 A 
ATOM     17  C5  ZIN A   1      19.026  -1.974  16.765  0.00  0.00     0.046 C 
ATOM     18  O36 ZIN A   1      18.471   2.333  14.578  0.00  0.00    -0.267 OA
ATOM     19  H47 ZIN A   1      18.959   2.669  12.711  0.00  0.00     0.164 HD
BRANCH  16  20
ATOM     20  C2  ZIN A   1      18.061   0.926  17.239  0.00  0.00     0.040 C 
ATOM     21  C1  ZIN A   1      19.214   1.419  18.117  0.00  0.00     0.010 C 
ENDBRANCH  16  20
ENDBRANCH   8   9
ENDBRANCH   7   8
ENDBRANCH   1   7
BRANCH   4  22
ATOM     22  S17 ZIN A   1      18.603  -1.127   5.135  0.00  0.00     0.287 S 
ATOM     23  O18 ZIN A   1      17.703  -0.597   4.171  0.00  0.00    -0.198 OA
ATOM     24  O19 ZIN A   1      19.982  -1.346   4.874  0.00  0.00    -0.198 OA
BRANCH  22  25
ATOM     25  N20 ZIN A   1      17.977  -2.586   5.606  0.00  0.00    -0.102 NA
ATOM     26  C21 ZIN A   1      18.790  -3.535   6.112  0.00  0.00     0.353 C 
ATOM     27  O22 ZIN A   1      19.982  -3.320   6.221  0.00  0.00    -0.244 OA
ATOM     28  N23 ZIN A   1      18.282  -4.724   6.495  0.00  0.00    -0.336 N 
ATOM     29  H54 ZIN A   1      17.331  -4.895   6.408  0.00  0.00     0.164 HD
BRANCH  28  30
ATOM     30  C24 ZIN A   1      19.166  -5.755   7.043  0.00  0.00     0.086 C 
ATOM     31  C32 ZIN A   1      18.339  -6.986   7.422  0.00  0.00     0.026 C 
ATOM     32  C31 ZIN A   1      17.296  -6.596   8.472  0.00  0.00     0.006 C 
ATOM     33  C28 ZIN A   1      18.002  -6.053   9.716  0.00  0.00    -0.019 C 
ATOM     34  C27 ZIN A   1      18.828  -4.823   9.338  0.00  0.00     0.006 C 
ATOM     35  C30 ZIN A   1      16.959  -5.664  10.765  0.00  0.00     0.010 C 
ATOM     36  C26 ZIN A   1      19.872  -5.213   8.288  0.00  0.00     0.026 C 
ENDBRANCH  28  30
ENDBRANCH  22  25
ENDBRANCH   4  22
TORSDOF 7
ENDMDL
MODEL 4
REMARK VINA RESULT:      -9.1      3.399      8.323
REMARK  7 active torsions:
REMARK  status: ('A' for Active; 'I' for Inactive)
REMARK    1  A    between atoms: C2_2  and  C3_3 
REMARK       I    between atoms: N7_7  and  C8_8 
REMARK       I    between atoms: C8_8  and  N10_10 
REMARK    2  A    between atoms: N10_10  and  C11_11 
REMARK    3  A    between atoms: C11_11  and  C12_12 
REMARK    4  A    between atoms: C12_12  and  C13_13 
REMARK    5  A    between atoms: C16_16  and  S17_17 
REMARK    6  A    between atoms: S17_17  and  N20_20 
REMARK       I    between atoms: N20_20  and  C21_21 
REMARK       I    between atoms: C21_21  and  N23_23 
REMARK    7  A    between atoms: N23_23  and  C24_24 
ROOT
ATOM      1  C13 ZIN A   1      19.136   1.140   8.407  0.00  0.00    -0.057 A 
ATOM      2  C14 ZIN A   1      18.933   1.250   7.044  0.00  0.00     0.009 A 
ATOM      3  C15 ZIN A   1      19.002   0.125   6.243  0.00  0.00     0.026 A 
ATOM      4  C16 ZIN A   1      19.273  -1.109   6.805  0.00  0.00     0.081 A 
ATOM      5  C33 ZIN A   1      19.476  -1.217   8.168  0.00  0.00     0.026 A 
ATOM      6  C34 ZIN A   1      19.411  -0.092   8.968  0.00  0.00     0.009 A 
ENDROOT
BRANCH   1   7
ATOM      7  C12 ZIN A   1      19.060   2.367   9.280  0.00  0.00     0.058 C 
BRANCH   7   8
ATOM      8  C11 ZIN A   1      17.754   2.344  10.078  0.00  0.00     0.129 C 
BRANCH   8   9
ATOM      9  N10 ZIN A   1      18.058   2.353  11.511  0.00  0.00    -0.342 N 
ATOM     10  C8  ZIN A   1      17.582   1.374  12.307  0.00  0.00     0.325 C 
ATOM     11  N7  ZIN A   1      17.862   1.383  13.625  0.00  0.00    -0.262 N 
ATOM     12  O9  ZIN A   1      16.900   0.486  11.835  0.00  0.00    -0.247 OA
ATOM     13  C6  ZIN A   1      17.417   0.392  14.615  0.00  0.00     0.171 A 
ATOM     14  C35 ZIN A   1      18.594   2.303  14.280  0.00  0.00     0.258 A 
ATOM     15  C4  ZIN A   1      17.990   0.846  15.937  0.00  0.00    -0.054 A 
ATOM     16  C3  ZIN A   1      18.673   1.963  15.702  0.00  0.00     0.013 A 
ATOM     17  C5  ZIN A   1      17.818   0.164  17.270  0.00  0.00     0.046 C 
ATOM     18  O36 ZIN A   1      19.119   3.271  13.765  0.00  0.00    -0.267 OA
ATOM     19  H47 ZIN A   1      18.602   3.062  11.887  0.00  0.00     0.164 HD
BRANCH  16  20
ATOM     20  C2  ZIN A   1      19.413   2.761  16.745  0.00  0.00     0.040 C 
ATOM     21  C1  ZIN A   1      18.492   3.845  17.307  0.00  0.00     0.010 C 
ENDBRANCH  16  20
ENDBRANCH   8   9
ENDBRANCH   7   8
ENDBRANCH   1   7
BRANCH   4  22
ATOM     22  S17 ZIN A   1      19.360  -2.543   5.784  0.00  0.00     0.287 S 
ATOM     23  O18 ZIN A   1      19.587  -2.078   4.461  0.00  0.00    -0.198 OA
ATOM     24  O19 ZIN A   1      20.223  -3.456   6.447  0.00  0.00    -0.198 OA
BRANCH  22  25
ATOM     25  N20 ZIN A   1      17.856  -3.235   5.785  0.00  0.00    -0.102 NA
ATOM     26  C21 ZIN A   1      17.732  -4.576   5.856  0.00  0.00     0.353 C 
ATOM     27  O22 ZIN A   1      18.724  -5.276   5.919  0.00  0.00    -0.244 OA
ATOM     28  N23 ZIN A   1      16.508  -5.141   5.857  0.00  0.00    -0.336 N 
ATOM     29  H54 ZIN A   1      15.716  -4.582   5.808  0.00  0.00     0.164 HD
BRANCH  28  30
ATOM     30  C24 ZIN A   1      16.374  -6.597   5.933  0.00  0.00     0.086 C 
ATOM     31  C32 ZIN A   1      15.123  -7.035   5.168  0.00  0.00     0.026 C 
ATOM     32  C31 ZIN A   1      13.889  -6.376   5.788  0.00  0.00     0.006 C 
ATOM     33  C28 ZIN A   1      13.765  -6.799   7.253  0.00  0.00    -0.019 C 
ATOM     34  C27 ZIN A   1      15.016  -6.362   8.018  0.00  0.00     0.006 C 
ATOM     35  C30 ZIN A   1      12.532  -6.140   7.873  0.00  0.00     0.010 C 
ATOM     36  C26 ZIN A   1      16.250  -7.022   7.398  0.00  0.00     0.026 C 
ENDBRANCH  28  30
ENDBRANCH  22  25
ENDBRANCH   4  22
TORSDOF 7
ENDMDL
MODEL 5
REMARK VINA RESULT:      -9.0      3.199      7.942
REMARK  7 active torsions:
REMARK  status: ('A' for Active; 'I' for Inactive)
REMARK    1  A    between atoms: C2_2  and  C3_3 
REMARK       I    between atoms: N7_7  and  C8_8 
REMARK       I    between atoms: C8_8  and  N10_10 
REMARK    2  A    between atoms: N10_10  and  C11_11 
REMARK    3  A    between atoms: C11_11  and  C12_12 
REMARK    4  A    between atoms: C12_12  and  C13_13 
REMARK    5  A    between atoms: C16_16  and  S17_17 
REMARK    6  A    between atoms: S17_17  and  N20_20 
REMARK       I    between atoms: N20_20  and  C21_21 
REMARK       I    between atoms: C21_21  and  N23_23 
REMARK    7  A    between atoms: N23_23  and  C24_24 
ROOT
ATOM      1  C13 ZIN A   1      18.264   1.473   8.665  0.00  0.00    -0.057 A 
ATOM      2  C14 ZIN A   1      17.556   0.299   8.488  0.00  0.00     0.009 A 
ATOM      3  C15 ZIN A   1      17.684  -0.416   7.312  0.00  0.00     0.026 A 
ATOM      4  C16 ZIN A   1      18.521   0.045   6.311  0.00  0.00     0.081 A 
ATOM      5  C33 ZIN A   1      19.227   1.219   6.487  0.00  0.00     0.026 A 
ATOM      6  C34 ZIN A   1      19.096   1.935   7.663  0.00  0.00     0.009 A 
ENDROOT
BRANCH   1   7
ATOM      7  C12 ZIN A   1      18.124   2.251   9.948  0.00  0.00     0.058 C 
BRANCH   7   8
ATOM      8  C11 ZIN A   1      19.451   2.218  10.710  0.00  0.00     0.129 C 
BRANCH   8   9
ATOM      9  N10 ZIN A   1      19.198   1.874  12.112  0.00  0.00    -0.342 N 
ATOM     10  C8  ZIN A   1      19.459   0.627  12.557  0.00  0.00     0.325 C 
ATOM     11  N7  ZIN A   1      19.227   0.311  13.846  0.00  0.00    -0.262 N 
ATOM     12  O9  ZIN A   1      19.902  -0.209  11.794  0.00  0.00    -0.247 OA
ATOM     13  C6  ZIN A   1      19.457  -0.996  14.475  0.00  0.00     0.171 A 
ATOM     14  C35 ZIN A   1      18.733   1.131  14.793  0.00  0.00     0.258 A 
ATOM     15  C4  ZIN A   1      19.043  -0.837  15.920  0.00  0.00    -0.054 A 
ATOM     16  C3  ZIN A   1      18.629   0.418  16.069  0.00  0.00     0.013 A 
ATOM     17  C5  ZIN A   1      19.089  -1.898  16.988  0.00  0.00     0.046 C 
ATOM     18  O36 ZIN A   1      18.427   2.294  14.617  0.00  0.00    -0.267 OA
ATOM     19  H47 ZIN A   1      18.844   2.541  12.720  0.00  0.00     0.164 HD
BRANCH  16  20
ATOM     20  C2  ZIN A   1      18.123   1.016  17.356  0.00  0.00     0.040 C 
ATOM     21  C1  ZIN A   1      19.262   1.763  18.054  0.00  0.00     0.010 C 
ENDBRANCH  16  20
ENDBRANCH   8   9
ENDBRANCH   7   8
ENDBRANCH   1   7
BRANCH   4  22
ATOM     22  S17 ZIN A   1      18.685  -0.866   4.812  0.00  0.00     0.287 S 
ATOM     23  O18 ZIN A   1      17.997  -0.123   3.814  0.00  0.00    -0.198 OA
ATOM     24  O19 ZIN A   1      20.055  -1.225   4.708  0.00  0.00    -0.198 OA
BRANCH  22  25
ATOM     25  N20 ZIN A   1      17.844  -2.280   5.004  0.00  0.00    -0.102 NA
ATOM     26  C21 ZIN A   1      18.435  -3.341   5.590  0.00  0.00     0.353 C 
ATOM     27  O22 ZIN A   1      19.585  -3.259   5.976  0.00  0.00    -0.244 OA
ATOM     28  N23 ZIN A   1      17.752  -4.492   5.747  0.00  0.00    -0.336 N 
ATOM     29  H54 ZIN A   1      16.834  -4.557   5.439  0.00  0.00     0.164 HD
BRANCH  28  30
ATOM     30  C24 ZIN A   1      18.395  -5.644   6.383  0.00  0.00     0.086 C 
ATOM     31  C32 ZIN A   1      17.816  -6.936   5.803  0.00  0.00     0.026 C 
ATOM     32  C31 ZIN A   1      16.308  -6.983   6.066  0.00  0.00     0.006 C 
ATOM     33  C28 ZIN A   1      16.052  -6.941   7.574  0.00  0.00    -0.019 C 
ATOM     34  C27 ZIN A   1      16.632  -5.649   8.154  0.00  0.00     0.006 C 
ATOM     35  C30 ZIN A   1      14.546  -6.987   7.837  0.00  0.00     0.010 C 
ATOM     36  C26 ZIN A   1      18.139  -5.603   7.891  0.00  0.00     0.026 C 
ENDBRANCH  28  30
ENDBRANCH  22  25
ENDBRANCH   4  22
TORSDOF 7
ENDMDL
MODEL 6
REMARK VINA RESULT:      -9.0      3.184      6.832
REMARK  7 active torsions:
REMARK  status: ('A' for Active; 'I' for Inactive)
REMARK    1  A    between atoms: C2_2  and  C3_3 
REMARK       I    between atoms: N7_7  and  C8_8 
REMARK       I    between atoms: C8_8  and  N10_10 
REMARK    2  A    between atoms: N10_10  and  C11_11 
REMARK    3  A    between atoms: C11_11  and  C12_12 
REMARK    4  A    between atoms: C12_12  and  C13_13 
REMARK    5  A    between atoms: C16_16  and  S17_17 
REMARK    6  A    between atoms: S17_17  and  N20_20 
REMARK       I    between atoms: N20_20  and  C21_21 
REMARK       I    between atoms: C21_21  and  N23_23 
REMARK    7  A    between atoms: N23_23  and  C24_24 
ROOT
ATOM      1  C13 ZIN A   1      18.178  -4.446  11.160  0.00  0.00    -0.057 A 
ATOM      2  C14 ZIN A   1      19.535  -4.186  11.088  0.00  0.00     0.009 A 
ATOM      3  C15 ZIN A   1      20.033  -2.984  11.553  0.00  0.00     0.026 A 
ATOM      4  C16 ZIN A   1      19.176  -2.042  12.091  0.00  0.00     0.081 A 
ATOM      5  C33 ZIN A   1      17.821  -2.302  12.162  0.00  0.00     0.026 A 
ATOM      6  C34 ZIN A   1      17.322  -3.503  11.693  0.00  0.00     0.009 A 
ENDROOT
BRANCH   1   7
ATOM      7  C12 ZIN A   1      17.635  -5.757  10.653  0.00  0.00     0.058 C 
BRANCH   7   8
ATOM      8  C11 ZIN A   1      17.568  -5.723   9.124  0.00  0.00     0.129 C 
BRANCH   8   9
ATOM      9  N10 ZIN A   1      17.755  -4.346   8.659  0.00  0.00    -0.342 N 
ATOM     10  C8  ZIN A   1      18.250  -4.113   7.427  0.00  0.00     0.325 C 
ATOM     11  N7  ZIN A   1      18.421  -2.846   6.999  0.00  0.00    -0.262 N 
ATOM     12  O9  ZIN A   1      18.541  -5.045   6.703  0.00  0.00    -0.247 OA
ATOM     13  C6  ZIN A   1      18.948  -2.434   5.691  0.00  0.00     0.171 A 
ATOM     14  C35 ZIN A   1      18.149  -1.726   7.694  0.00  0.00     0.258 A 
ATOM     15  C4  ZIN A   1      18.942  -0.923   5.703  0.00  0.00    -0.054 A 
ATOM     16  C3  ZIN A   1      18.467  -0.545   6.886  0.00  0.00     0.013 A 
ATOM     17  C5  ZIN A   1      19.392  -0.016   4.586  0.00  0.00     0.046 C 
ATOM     18  O36 ZIN A   1      17.698  -1.697   8.822  0.00  0.00    -0.267 OA
ATOM     19  H47 ZIN A   1      17.522  -3.603   9.237  0.00  0.00     0.164 HD
BRANCH  16  20
ATOM     20  C2  ZIN A   1      18.288   0.884   7.332  0.00  0.00     0.040 C 
ATOM     21  C1  ZIN A   1      19.427   1.270   8.277  0.00  0.00     0.010 C 
ENDBRANCH  16  20
ENDBRANCH   8   9
ENDBRANCH   7   8
ENDBRANCH   1   7
BRANCH   4  22
ATOM     22  S17 ZIN A   1      19.812  -0.510  12.685  0.00  0.00     0.287 S 
ATOM     23  O18 ZIN A   1      19.859  -0.618  14.101  0.00  0.00    -0.198 OA
ATOM     24  O19 ZIN A   1      20.951  -0.212  11.890  0.00  0.00    -0.198 OA
BRANCH  22  25
ATOM     25  N20 ZIN A   1      18.685   0.654  12.343  0.00  0.00    -0.102 NA
ATOM     26  C21 ZIN A   1      19.081   1.895  11.998  0.00  0.00     0.353 C 
ATOM     27  O22 ZIN A   1      20.267   2.161  11.940  0.00  0.00    -0.244 OA
ATOM     28  N23 ZIN A   1      18.165   2.844  11.719  0.00  0.00    -0.336 N 
ATOM     29  H54 ZIN A   1      17.219   2.631  11.765  0.00  0.00     0.164 HD
BRANCH  28  30
ATOM     30  C24 ZIN A   1      18.596   4.192  11.346  0.00  0.00     0.086 C 
ATOM     31  C32 ZIN A   1      19.102   4.928  12.589  0.00  0.00     0.026 C 
ATOM     32  C31 ZIN A   1      17.975   5.020  13.621  0.00  0.00     0.006 C 
ATOM     33  C28 ZIN A   1      16.794   5.785  13.021  0.00  0.00    -0.019 C 
ATOM     34  C27 ZIN A   1      16.288   5.049  11.778  0.00  0.00     0.006 C 
ATOM     35  C30 ZIN A   1      15.668   5.876  14.052  0.00  0.00     0.010 C 
ATOM     36  C26 ZIN A   1      17.415   4.958  10.746  0.00  0.00     0.026 C 
ENDBRANCH  28  30
ENDBRANCH  22  25
ENDBRANCH   4  22
TORSDOF 7
ENDMDL
MODEL 7
REMARK VINA RESULT:      -9.0      3.372      8.436
REMARK  7 active torsions:
REMARK  status: ('A' for Active; 'I' for Inactive)
REMARK    1  A    between atoms: C2_2  and  C3_3 
REMARK       I    between atoms: N7_7  and  C8_8 
REMARK       I    between atoms: C8_8  and  N10_10 
REMARK    2  A    between atoms: N10_10  and  C11_11 
REMARK    3  A    between atoms: C11_11  and  C12_12 
REMARK    4  A    between atoms: C12_12  and  C13_13 
REMARK    5  A    between atoms: C16_16  and  S17_17 
REMARK    6  A    between atoms: S17_17  and  N20_20 
REMARK       I    between atoms: N20_20  and  C21_21 
REMARK       I    between atoms: C21_21  and  N23_23 
REMARK    7  A    between atoms: N23_23  and  C24_24 
ROOT
ATOM      1  C13 ZIN A   1      19.193   1.442   8.808  0.00  0.00    -0.057 A 
ATOM      2  C14 ZIN A   1      19.331   0.073   8.942  0.00  0.00     0.009 A 
ATOM      3  C15 ZIN A   1      19.169  -0.749   7.842  0.00  0.00     0.026 A 
ATOM      4  C16 ZIN A   1      18.869  -0.201   6.608  0.00  0.00     0.081 A 
ATOM      5  C33 ZIN A   1      18.731   1.168   6.476  0.00  0.00     0.026 A 
ATOM      6  C34 ZIN A   1      18.889   1.989   7.577  0.00  0.00     0.009 A 
ENDROOT
BRANCH   1   7
ATOM      7  C12 ZIN A   1      19.370   2.337  10.008  0.00  0.00     0.058 C 
BRANCH   7   8
ATOM      8  C11 ZIN A   1      18.004   2.619  10.638  0.00  0.00     0.129 C 
BRANCH   8   9
ATOM      9  N10 ZIN A   1      17.936   1.985  11.958  0.00  0.00    -0.342 N 
ATOM     10  C8  ZIN A   1      18.333   2.665  13.053  0.00  0.00     0.325 C 
ATOM     11  N7  ZIN A   1      18.271   2.082  14.266  0.00  0.00    -0.262 N 
ATOM     12  O9  ZIN A   1      18.748   3.802  12.944  0.00  0.00    -0.247 OA
ATOM     13  C6  ZIN A   1      18.666   2.689  15.544  0.00  0.00     0.171 A 
ATOM     14  C35 ZIN A   1      17.842   0.834  14.530  0.00  0.00     0.258 A 
ATOM     15  C4  ZIN A   1      18.405   1.638  16.597  0.00  0.00    -0.054 A 
ATOM     16  C3  ZIN A   1      17.923   0.570  15.969  0.00  0.00     0.013 A 
ATOM     17  C5  ZIN A   1      18.649   1.772  18.078  0.00  0.00     0.046 C 
ATOM     18  O36 ZIN A   1      17.439   0.044  13.698  0.00  0.00    -0.267 OA
ATOM     19  H47 ZIN A   1      17.605   1.078  12.044  0.00  0.00     0.164 HD
BRANCH  16  20
ATOM     20  C2  ZIN A   1      17.523  -0.721  16.637  0.00  0.00     0.040 C 
ATOM     21  C1  ZIN A   1      18.654  -1.742  16.492  0.00  0.00     0.010 C 
ENDBRANCH  16  20
ENDBRANCH   8   9
ENDBRANCH   7   8
ENDBRANCH   1   7
BRANCH   4  22
ATOM     22  S17 ZIN A   1      18.664  -1.248   5.206  0.00  0.00     0.287 S 
ATOM     23  O18 ZIN A   1      17.597  -0.696   4.447  0.00  0.00    -0.198 OA
ATOM     24  O19 ZIN A   1      19.963  -1.467   4.675  0.00  0.00    -0.198 OA
BRANCH  22  25
ATOM     25  N20 ZIN A   1      18.132  -2.713   5.763  0.00  0.00    -0.102 NA
ATOM     26  C21 ZIN A   1      17.685  -3.642   4.895  0.00  0.00     0.353 C 
ATOM     27  O22 ZIN A   1      17.671  -3.403   3.703  0.00  0.00    -0.244 OA
ATOM     28  N23 ZIN A   1      17.251  -4.836   5.347  0.00  0.00    -0.336 N 
ATOM     29  H54 ZIN A   1      17.263  -5.026   6.299  0.00  0.00     0.164 HD
BRANCH  28  30
ATOM     30  C24 ZIN A   1      16.764  -5.844   4.403  0.00  0.00     0.086 C 
ATOM     31  C32 ZIN A   1      15.234  -5.857   4.416  0.00  0.00     0.026 C 
ATOM     32  C31 ZIN A   1      14.738  -6.194   5.824  0.00  0.00     0.006 C 
ATOM     33  C28 ZIN A   1      15.263  -7.571   6.234  0.00  0.00    -0.019 C 
ATOM     34  C27 ZIN A   1      16.793  -7.558   6.222  0.00  0.00     0.006 C 
ATOM     35  C30 ZIN A   1      14.768  -7.908   7.642  0.00  0.00     0.010 C 
ATOM     36  C26 ZIN A   1      17.289  -7.222   4.813  0.00  0.00     0.026 C 
ENDBRANCH  28  30
ENDBRANCH  22  25
ENDBRANCH   4  22
TORSDOF 7
ENDMDL
MODEL 8
REMARK VINA RESULT:      -9.0      4.346      7.064
REMARK  7 active torsions:
REMARK  status: ('A' for Active; 'I' for Inactive)
REMARK    1  A    between atoms: C2_2  and  C3_3 
REMARK       I    between atoms: N7_7  and  C8_8 
REMARK       I    between atoms: C8_8  and  N10_10 
REMARK    2  A    between atoms: N10_10  and  C11_11 
REMARK    3  A    between atoms: C11_11  and  C12_12 
REMARK    4  A    between atoms: C12_12  and  C13_13 
REMARK    5  A    between atoms: C16_16  and  S17_17 
REMARK    6  A    between atoms: S17_17  and  N20_20 
REMARK       I    between atoms: N20_20  and  C21_21 
REMARK       I    between atoms: C21_21  and  N23_23 
REMARK    7  A    between atoms: N23_23  and  C24_24 
ROOT
ATOM      1  C13 ZIN A   1      18.705  -3.165  11.692  0.00  0.00    -0.057 A 
ATOM      2  C14 ZIN A   1      17.457  -2.603  11.496  0.00  0.00     0.009 A 
ATOM      3  C15 ZIN A   1      17.269  -1.250  11.706  0.00  0.00     0.026 A 
ATOM      4  C16 ZIN A   1      18.328  -0.459  12.113  0.00  0.00     0.081 A 
ATOM      5  C33 ZIN A   1      19.574  -1.022  12.310  0.00  0.00     0.026 A 
ATOM      6  C34 ZIN A   1      19.762  -2.376  12.103  0.00  0.00     0.009 A 
ENDROOT
BRANCH   1   7
ATOM      7  C12 ZIN A   1      18.910  -4.640  11.462  0.00  0.00     0.058 C 
BRANCH   7   8
ATOM      8  C11 ZIN A   1      19.629  -4.852  10.128  0.00  0.00     0.129 C 
BRANCH   8   9
ATOM      9  N10 ZIN A   1      19.506  -3.642   9.310  0.00  0.00    -0.342 N 
ATOM     10  C8  ZIN A   1      19.101  -3.734   8.028  0.00  0.00     0.325 C 
ATOM     11  N7  ZIN A   1      18.988  -2.621   7.276  0.00  0.00    -0.262 N 
ATOM     12  O9  ZIN A   1      18.838  -4.820   7.550  0.00  0.00    -0.247 OA
ATOM     13  C6  ZIN A   1      18.563  -2.560   5.872  0.00  0.00     0.171 A 
ATOM     14  C35 ZIN A   1      19.252  -1.361   7.671  0.00  0.00     0.258 A 
ATOM     15  C4  ZIN A   1      18.602  -1.097   5.493  0.00  0.00    -0.054 A 
ATOM     16  C3  ZIN A   1      19.006  -0.428   6.569  0.00  0.00     0.013 A 
ATOM     17  C5  ZIN A   1      18.252  -0.509   4.150  0.00  0.00     0.046 C 
ATOM     18  O36 ZIN A   1      19.631  -1.044   8.781  0.00  0.00    -0.267 OA
ATOM     19  H47 ZIN A   1      19.717  -2.776   9.691  0.00  0.00     0.164 HD
BRANCH  16  20
ATOM     20  C2  ZIN A   1      19.189   1.066   6.641  0.00  0.00     0.040 C 
ATOM     21  C1  ZIN A   1      18.799   1.561   8.036  0.00  0.00     0.010 C 
ENDBRANCH  16  20
ENDBRANCH   8   9
ENDBRANCH   7   8
ENDBRANCH   1   7
BRANCH   4  22
ATOM     22  S17 ZIN A   1      18.087   1.266  12.380  0.00  0.00     0.287 S 
ATOM     23  O18 ZIN A   1      19.376   1.863  12.330  0.00  0.00    -0.198 OA
ATOM     24  O19 ZIN A   1      17.015   1.658  11.535  0.00  0.00    -0.198 OA
BRANCH  22  25
ATOM     25  N20 ZIN A   1      17.548   1.450  13.935  0.00  0.00    -0.102 NA
ATOM     26  C21 ZIN A   1      18.422   1.406  14.961  0.00  0.00     0.353 C 
ATOM     27  O22 ZIN A   1      19.605   1.231  14.744  0.00  0.00    -0.244 OA
ATOM     28  N23 ZIN A   1      17.984   1.555  16.227  0.00  0.00    -0.336 N 
ATOM     29  H54 ZIN A   1      17.039   1.695  16.400  0.00  0.00     0.164 HD
BRANCH  28  30
ATOM     30  C24 ZIN A   1      18.934   1.506  17.341  0.00  0.00     0.086 C 
ATOM     31  C32 ZIN A   1      18.265   0.857  18.554  0.00  0.00     0.026 C 
ATOM     32  C31 ZIN A   1      17.040   1.679  18.963  0.00  0.00     0.006 C 
ATOM     33  C28 ZIN A   1      17.477   3.101  19.322  0.00  0.00    -0.019 C 
ATOM     34  C27 ZIN A   1      18.147   3.751  18.109  0.00  0.00     0.006 C 
ATOM     35  C30 ZIN A   1      16.254   3.923  19.730  0.00  0.00     0.010 C 
ATOM     36  C26 ZIN A   1      19.371   2.928  17.701  0.00  0.00     0.026 C 
ENDBRANCH  28  30
ENDBRANCH  22  25
ENDBRANCH   4  22
TORSDOF 7
ENDMDL
MODEL 9
REMARK VINA RESULT:      -8.8      3.581      8.825
REMARK  7 active torsions:
REMARK  status: ('A' for Active; 'I' for Inactive)
REMARK    1  A    between atoms: C2_2  and  C3_3 
REMARK       I    between atoms: N7_7  and  C8_8 
REMARK       I    between atoms: C8_8  and  N10_10 
REMARK    2  A    between atoms: N10_10  and  C11_11 
REMARK    3  A    between atoms: C11_11  and  C12_12 
REMARK    4  A    between atoms: C12_12  and  C13_13 
REMARK    5  A    between atoms: C16_16  and  S17_17 
REMARK    6  A    between atoms: S17_17  and  N20_20 
REMARK       I    between atoms: N20_20  and  C21_21 
REMARK       I    between atoms: C21_21  and  N23_23 
REMARK    7  A    between atoms: N23_23  and  C24_24 
ROOT
ATOM      1  C13 ZIN A   1      18.304   1.379   8.756  0.00  0.00    -0.057 A 
ATOM      2  C14 ZIN A   1      19.125   1.904   7.775  0.00  0.00     0.009 A 
ATOM      3  C15 ZIN A   1      19.248   1.259   6.559  0.00  0.00     0.026 A 
ATOM      4  C16 ZIN A   1      18.550   0.089   6.323  0.00  0.00     0.081 A 
ATOM      5  C33 ZIN A   1      17.731  -0.436   7.304  0.00  0.00     0.026 A 
ATOM      6  C34 ZIN A   1      17.611   0.207   8.522  0.00  0.00     0.009 A 
ENDROOT
BRANCH   1   7
ATOM      7  C12 ZIN A   1      18.170   2.082  10.082  0.00  0.00     0.058 C 
BRANCH   7   8
ATOM      8  C11 ZIN A   1      19.524   2.087  10.795  0.00  0.00     0.129 C 
BRANCH   8   9
ATOM      9  N10 ZIN A   1      19.365   1.544  12.146  0.00  0.00    -0.342 N 
ATOM     10  C8  ZIN A   1      19.230   2.379  13.196  0.00  0.00     0.325 C 
ATOM     11  N7  ZIN A   1      19.084   1.879  14.439  0.00  0.00    -0.262 N 
ATOM     12  O9  ZIN A   1      19.240   3.582  13.021  0.00  0.00    -0.247 OA
ATOM     13  C6  ZIN A   1      18.928   2.655  15.676  0.00  0.00     0.171 A 
ATOM     14  C35 ZIN A   1      19.062   0.576  14.778  0.00  0.00     0.258 A 
ATOM     15  C4  ZIN A   1      18.803   1.639  16.788  0.00  0.00    -0.054 A 
ATOM     16  C3  ZIN A   1      18.883   0.437  16.225  0.00  0.00     0.013 A 
ATOM     17  C5  ZIN A   1      18.624   1.932  18.255  0.00  0.00     0.046 C 
ATOM     18  O36 ZIN A   1      19.168  -0.349  13.997  0.00  0.00    -0.267 OA
ATOM     19  H47 ZIN A   1      19.357   0.584  12.285  0.00  0.00     0.164 HD
BRANCH  16  20
ATOM     20  C2  ZIN A   1      18.805  -0.873  16.967  0.00  0.00     0.040 C 
ATOM     21  C1  ZIN A   1      17.388  -1.439  16.857  0.00  0.00     0.010 C 
ENDBRANCH  16  20
ENDBRANCH   8   9
ENDBRANCH   7   8
ENDBRANCH   1   7
BRANCH   4  22
ATOM     22  S17 ZIN A   1      18.706  -0.733   4.772  0.00  0.00     0.287 S 
ATOM     23  O18 ZIN A   1      18.524   0.261   3.772  0.00  0.00    -0.198 OA
ATOM     24  O19 ZIN A   1      19.871  -1.541   4.861  0.00  0.00    -0.198 OA
BRANCH  22  25
ATOM     25  N20 ZIN A   1      17.424  -1.772   4.638  0.00  0.00    -0.102 NA
ATOM     26  C21 ZIN A   1      17.636  -3.065   4.322  0.00  0.00     0.353 C 
ATOM     27  O22 ZIN A   1      18.768  -3.468   4.134  0.00  0.00    -0.244 OA
ATOM     28  N23 ZIN A   1      16.593  -3.913   4.212  0.00  0.00    -0.336 N 
ATOM     29  H54 ZIN A   1      15.690  -3.591   4.362  0.00  0.00     0.164 HD
BRANCH  28  30
ATOM     30  C24 ZIN A   1      16.824  -5.317   3.867  0.00  0.00     0.086 C 
ATOM     31  C32 ZIN A   1      16.719  -5.495   2.351  0.00  0.00     0.026 C 
ATOM     32  C31 ZIN A   1      15.322  -5.078   1.884  0.00  0.00     0.006 C 
ATOM     33  C28 ZIN A   1      14.271  -5.950   2.574  0.00  0.00    -0.019 C 
ATOM     34  C27 ZIN A   1      14.376  -5.772   4.090  0.00  0.00     0.006 C 
ATOM     35  C30 ZIN A   1      12.875  -5.532   2.108  0.00  0.00     0.010 C 
ATOM     36  C26 ZIN A   1      15.773  -6.190   4.557  0.00  0.00     0.026 C 
ENDBRANCH  28  30
ENDBRANCH  22  25
ENDBRANCH   4  22
TORSDOF 7
ENDMDL
