MODEL 1
REMARK VINA RESULT:      -5.4      0.000      0.000
REMARK  0 active torsions:
REMARK  status: ('A' for Active; 'I' for Inactive)
ROOT
ATOM      1  O1  ZIN A   1      19.811  -4.303   6.406  0.00  0.00    -0.238 OA
ATOM      2  C2  ZIN A   1      19.627  -3.118   6.608  0.00  0.00     0.370 A 
ATOM      3  N3  ZIN A   1      19.614  -2.529   7.820  0.00  0.00    -0.300 N 
ATOM      4  C4  ZIN A   1      19.373  -1.170   7.624  0.00  0.00     0.072 A 
ATOM      5  C5  ZIN A   1      19.252  -0.090   8.484  0.00  0.00     0.056 A 
ATOM      6  C6  ZIN A   1      19.005   1.171   7.975  0.00  0.00     0.036 A 
ATOM      7 Cl7  ZIN A   1      18.853   2.525   9.050  0.00  0.00    -0.084 Cl
ATOM      8  C8  ZIN A   1      18.877   1.356   6.608  0.00  0.00     0.026 A 
ATOM      9  C9  ZIN A   1      18.995   0.283   5.745  0.00  0.00     0.041 A 
ATOM     10  C10 ZIN A   1      19.244  -0.984   6.247  0.00  0.00     0.107 A 
ATOM     11  O11 ZIN A   1      19.411  -2.194   5.659  0.00  0.00    -0.259 OA
ATOM     12  H12 ZIN A   1      19.749  -2.970   8.674  0.00  0.00     0.171 HD
ENDROOT
TORSDOF 0
ENDMDL
MODEL 2
REMARK VINA RESULT:      -5.3      1.886      2.433
REMARK  0 active torsions:
REMARK  status: ('A' for Active; 'I' for Inactive)
ROOT
ATOM      1  O1  ZIN A   1      19.595  -1.511   4.253  0.00  0.00    -0.238 OA
ATOM      2  C2  ZIN A   1      19.264  -0.962   5.286  0.00  0.00     0.370 A 
ATOM      3  N3  ZIN A   1      19.585   0.300   5.634  0.00  0.00    -0.300 N 
ATOM      4  C4  ZIN A   1      19.017   0.548   6.884  0.00  0.00     0.072 A 
ATOM      5  C5  ZIN A   1      19.011   1.649   7.725  0.00  0.00     0.056 A 
ATOM      6  C6  ZIN A   1      18.343   1.588   8.933  0.00  0.00     0.036 A 
ATOM      7 Cl7  ZIN A   1      18.333   2.965   9.989  0.00  0.00    -0.084 Cl
ATOM      8  C8  ZIN A   1      17.680   0.429   9.304  0.00  0.00     0.026 A 
ATOM      9  C9  ZIN A   1      17.683  -0.673   8.470  0.00  0.00     0.041 A 
ATOM     10  C10 ZIN A   1      18.351  -0.620   7.257  0.00  0.00     0.107 A 
ATOM     11  O11 ZIN A   1      18.518  -1.517   6.255  0.00  0.00    -0.259 OA
ATOM     12  H12 ZIN A   1      20.114   0.922   5.111  0.00  0.00     0.171 HD
ENDROOT
TORSDOF 0
ENDMDL
MODEL 3
REMARK VINA RESULT:      -5.2      3.028      3.535
REMARK  0 active torsions:
REMARK  status: ('A' for Active; 'I' for Inactive)
ROOT
ATOM      1  O1  ZIN A   1      20.012  -1.309  11.542  0.00  0.00    -0.238 OA
ATOM      2  C2  ZIN A   1      19.780  -0.909  10.417  0.00  0.00     0.370 A 
ATOM      3  N3  ZIN A   1      19.635  -1.691   9.329  0.00  0.00    -0.300 N 
ATOM      4  C4  ZIN A   1      19.380  -0.854   8.242  0.00  0.00     0.072 A 
ATOM      5  C5  ZIN A   1      19.151  -1.086   6.896  0.00  0.00     0.056 A 
ATOM      6  C6  ZIN A   1      18.924  -0.021   6.044  0.00  0.00     0.036 A 
ATOM      7 Cl7  ZIN A   1      18.637  -0.308   4.356  0.00  0.00    -0.084 Cl
ATOM      8  C8  ZIN A   1      18.925   1.275   6.533  0.00  0.00     0.026 A 
ATOM      9  C9  ZIN A   1      19.153   1.512   7.876  0.00  0.00     0.041 A 
ATOM     10  C10 ZIN A   1      19.382   0.451   8.736  0.00  0.00     0.107 A 
ATOM     11  O11 ZIN A   1      19.623   0.377  10.068  0.00  0.00    -0.259 OA
ATOM     12  H12 ZIN A   1      19.696  -2.659   9.305  0.00  0.00     0.171 HD
ENDROOT
TORSDOF 0
ENDMDL
MODEL 4
REMARK VINA RESULT:      -5.2      7.705      8.723
REMARK  0 active torsions:
REMARK  status: ('A' for Active; 'I' for Inactive)
ROOT
ATOM      1  O1  ZIN A   1      20.746   0.435  12.186  0.00  0.00    -0.238 OA
ATOM      2  C2  ZIN A   1      20.145   0.338  13.239  0.00  0.00     0.370 A 
ATOM      3  N3  ZIN A   1      19.877   1.359  14.078  0.00  0.00    -0.300 N 
ATOM      4  C4  ZIN A   1      19.175   0.836  15.164  0.00  0.00     0.072 A 
ATOM      5  C5  ZIN A   1      18.646   1.397  16.315  0.00  0.00     0.056 A 
ATOM      6  C6  ZIN A   1      17.987   0.598  17.230  0.00  0.00     0.036 A 
ATOM      7 Cl7  ZIN A   1      17.324   1.297  18.673  0.00  0.00    -0.084 Cl
ATOM      8  C8  ZIN A   1      17.854  -0.762  16.998  0.00  0.00     0.026 A 
ATOM      9  C9  ZIN A   1      18.380  -1.328  15.852  0.00  0.00     0.041 A 
ATOM     10  C10 ZIN A   1      19.042  -0.533  14.929  0.00  0.00     0.107 A 
ATOM     11  O11 ZIN A   1      19.641  -0.799  13.743  0.00  0.00    -0.259 OA
ATOM     12  H12 ZIN A   1      20.125   2.288  13.949  0.00  0.00     0.171 HD
ENDROOT
TORSDOF 0
ENDMDL
MODEL 5
REMARK VINA RESULT:      -5.2      9.048     10.103
REMARK  0 active torsions:
REMARK  status: ('A' for Active; 'I' for Inactive)
ROOT
ATOM      1  O1  ZIN A   1      19.576   2.463  18.983  0.00  0.00    -0.238 OA
ATOM      2  C2  ZIN A   1      19.298   1.720  18.061  0.00  0.00     0.370 A 
ATOM      3  N3  ZIN A   1      18.804   2.110  16.870  0.00  0.00    -0.300 N 
ATOM      4  C4  ZIN A   1      18.622   0.964  16.095  0.00  0.00     0.072 A 
ATOM      5  C5  ZIN A   1      18.152   0.749  14.810  0.00  0.00     0.056 A 
ATOM      6  C6  ZIN A   1      18.087  -0.537  14.308  0.00  0.00     0.036 A 
ATOM      7 Cl7  ZIN A   1      17.499  -0.811  12.698  0.00  0.00    -0.084 Cl
ATOM      8  C8  ZIN A   1      18.491  -1.609  15.086  0.00  0.00     0.026 A 
ATOM      9  C9  ZIN A   1      18.961  -1.401  16.370  0.00  0.00     0.041 A 
ATOM     10  C10 ZIN A   1      19.029  -0.115  16.881  0.00  0.00     0.107 A 
ATOM     11  O11 ZIN A   1      19.440   0.385  18.071  0.00  0.00    -0.259 OA
ATOM     12  H12 ZIN A   1      18.610   3.021  16.599  0.00  0.00     0.171 HD
ENDROOT
TORSDOF 0
ENDMDL
MODEL 6
REMARK VINA RESULT:      -5.0      4.236      5.173
REMARK  0 active torsions:
REMARK  status: ('A' for Active; 'I' for Inactive)
ROOT
ATOM      1  O1  ZIN A   1      18.555   2.967  12.454  0.00  0.00    -0.238 OA
ATOM      2  C2  ZIN A   1      18.489   2.412  11.374  0.00  0.00     0.370 A 
ATOM      3  N3  ZIN A   1      19.217   2.737  10.287  0.00  0.00    -0.300 N 
ATOM      4  C4  ZIN A   1      18.848   1.868   9.260  0.00  0.00     0.072 A 
ATOM      5  C5  ZIN A   1      19.250   1.728   7.941  0.00  0.00     0.056 A 
ATOM      6  C6  ZIN A   1      18.683   0.746   7.150  0.00  0.00     0.036 A 
ATOM      7 Cl7  ZIN A   1      19.184   0.568   5.498  0.00  0.00    -0.084 Cl
ATOM      8  C8  ZIN A   1      17.715  -0.096   7.672  0.00  0.00     0.026 A 
ATOM      9  C9  ZIN A   1      17.309   0.040   8.987  0.00  0.00     0.041 A 
ATOM     10  C10 ZIN A   1      17.873   1.021   9.787  0.00  0.00     0.107 A 
ATOM     11  O11 ZIN A   1      17.684   1.378  11.080  0.00  0.00    -0.259 OA
ATOM     12  H12 ZIN A   1      19.878   3.445  10.229  0.00  0.00     0.171 HD
ENDROOT
TORSDOF 0
ENDMDL
MODEL 7
REMARK VINA RESULT:      -4.9      4.021      4.743
REMARK  0 active torsions:
REMARK  status: ('A' for Active; 'I' for Inactive)
ROOT
ATOM      1  O1  ZIN A   1      17.074   0.586  12.791  0.00  0.00    -0.238 OA
ATOM      2  C2  ZIN A   1      17.401   0.652  11.622  0.00  0.00     0.370 A 
ATOM      3  N3  ZIN A   1      16.890  -0.102  10.628  0.00  0.00    -0.300 N 
ATOM      4  C4  ZIN A   1      17.525   0.278   9.445  0.00  0.00     0.072 A 
ATOM      5  C5  ZIN A   1      17.414  -0.141   8.129  0.00  0.00     0.056 A 
ATOM      6  C6  ZIN A   1      18.201   0.442   7.154  0.00  0.00     0.036 A 
ATOM      7 Cl7  ZIN A   1      18.065  -0.080   5.504  0.00  0.00    -0.084 Cl
ATOM      8  C8  ZIN A   1      19.099   1.442   7.490  0.00  0.00     0.026 A 
ATOM      9  C9  ZIN A   1      19.215   1.863   8.801  0.00  0.00     0.041 A 
ATOM     10  C10 ZIN A   1      18.430   1.284   9.785  0.00  0.00     0.107 A 
ATOM     11  O11 ZIN A   1      18.322   1.490  11.120  0.00  0.00    -0.259 OA
ATOM     12  H12 ZIN A   1      16.206  -0.783  10.718  0.00  0.00     0.171 HD
ENDROOT
TORSDOF 0
ENDMDL
MODEL 8
REMARK VINA RESULT:      -4.9      6.183      7.137
REMARK  0 active torsions:
REMARK  status: ('A' for Active; 'I' for Inactive)
ROOT
ATOM      1  O1  ZIN A   1      19.074   2.114  15.860  0.00  0.00    -0.238 OA
ATOM      2  C2  ZIN A   1      18.935   2.285  14.664  0.00  0.00     0.370 A 
ATOM      3  N3  ZIN A   1      19.603   1.620  13.700  0.00  0.00    -0.300 N 
ATOM      4  C4  ZIN A   1      19.159   2.105  12.470  0.00  0.00     0.072 A 
ATOM      5  C5  ZIN A   1      19.480   1.805  11.156  0.00  0.00     0.056 A 
ATOM      6  C6  ZIN A   1      18.852   2.477  10.124  0.00  0.00     0.036 A 
ATOM      7 Cl7  ZIN A   1      19.253   2.104   8.477  0.00  0.00    -0.084 Cl
ATOM      8  C8  ZIN A   1      17.904   3.447  10.401  0.00  0.00     0.026 A 
ATOM      9  C9  ZIN A   1      17.580   3.752  11.710  0.00  0.00     0.041 A 
ATOM     10  C10 ZIN A   1      18.204   3.083  12.750  0.00  0.00     0.107 A 
ATOM     11  O11 ZIN A   1      18.090   3.161  14.099  0.00  0.00    -0.259 OA
ATOM     12  H12 ZIN A   1      20.270   0.928  13.836  0.00  0.00     0.171 HD
ENDROOT
TORSDOF 0
ENDMDL
MODEL 9
REMARK VINA RESULT:      -4.8      8.308      9.209
REMARK  0 active torsions:
REMARK  status: ('A' for Active; 'I' for Inactive)
ROOT
ATOM      1  O1  ZIN A   1      19.679   1.488  18.641  0.00  0.00    -0.238 OA
ATOM      2  C2  ZIN A   1      19.282   1.244  17.517  0.00  0.00     0.370 A 
ATOM      3  N3  ZIN A   1      19.075   0.010  17.017  0.00  0.00    -0.300 N 
ATOM      4  C4  ZIN A   1      18.623   0.160  15.706  0.00  0.00     0.072 A 
ATOM      5  C5  ZIN A   1      18.256  -0.739  14.717  0.00  0.00     0.056 A 
ATOM      6  C6  ZIN A   1      17.841  -0.273  13.484  0.00  0.00     0.036 A 
ATOM      7 Cl7  ZIN A   1      17.380  -1.396  12.243  0.00  0.00    -0.084 Cl
ATOM      8  C8  ZIN A   1      17.792   1.089  13.235  0.00  0.00     0.026 A 
ATOM      9  C9  ZIN A   1      18.158   1.990  14.217  0.00  0.00     0.041 A 
ATOM     10  C10 ZIN A   1      18.575   1.531  15.456  0.00  0.00     0.107 A 
ATOM     11  O11 ZIN A   1      18.979   2.162  16.586  0.00  0.00    -0.259 OA
ATOM     12  H12 ZIN A   1      19.213  -0.829  17.483  0.00  0.00     0.171 HD
ENDROOT
TORSDOF 0
ENDMDL
