MODEL 1
REMARK VINA RESULT:      -8.4      0.000      0.000
REMARK  2 active torsions:
REMARK  status: ('A' for Active; 'I' for Inactive)
REMARK    1  A    between atoms: C3_3  and  O4_4 
REMARK    2  A    between atoms: C25_21  and  C26_22 
ROOT
ATOM      1  C1  ZIN A   1      19.251   2.960  10.509  0.00  0.00     0.015 C 
ATOM      2  C2  ZIN A   1      18.786   2.070  11.116  0.00  0.00    -0.078 C 
ATOM      3  C3  ZIN A   1      18.204   0.956  11.877  0.00  0.00     0.128 C 
ATOM      4  C5  ZIN A   1      18.928   0.792  13.239  0.00  0.00     0.052 C 
ATOM      5  C6  ZIN A   1      19.269  -0.720  13.380  0.00  0.00     0.010 C 
ATOM      6  C7  ZIN A   1      18.351  -1.360  12.330  0.00  0.00     0.002 C 
ATOM      7  C9  ZIN A   1      18.571  -2.794  11.957  0.00  0.00    -0.005 C 
ATOM      8  C11 ZIN A   1      19.997  -3.130  11.545  0.00  0.00     0.010 C 
ATOM      9  C12 ZIN A   1      20.107  -4.655  11.375  0.00  0.00     0.035 C 
ATOM     10  C13 ZIN A   1      19.113  -5.052  10.296  0.00  0.00    -0.072 C 
ATOM     11  C14 ZIN A   1      19.567  -5.771   9.269  0.00  0.00     0.053 C 
ATOM     12  C15 ZIN A   1      18.639  -6.189   8.212  0.00  0.00     0.149 C 
ATOM     13  O16 ZIN A   1      19.020  -6.459   7.093  0.00  0.00    -0.293 OA
ATOM     14  C17 ZIN A   1      17.174  -6.260   8.601  0.00  0.00     0.084 C 
ATOM     15  C18 ZIN A   1      16.817  -4.914   9.237  0.00  0.00     0.017 C 
ATOM     16  C19 ZIN A   1      17.691  -4.615  10.443  0.00  0.00     0.019 C 
ATOM     17  C21 ZIN A   1      17.587  -3.146  10.826  0.00  0.00    -0.002 C 
ATOM     18  C23 ZIN A   1      17.766  -2.211   9.640  0.00  0.00     0.006 C 
ATOM     19  C24 ZIN A   1      17.519  -0.750  10.056  0.00  0.00     0.014 C 
ATOM     20  C25 ZIN A   1      18.485  -0.376  11.154  0.00  0.00     0.006 C 
ENDROOT
BRANCH   3  21
ATOM     21  O4  ZIN A   1      16.805   1.132  12.063  0.00  0.00    -0.377 OA
ATOM     22  H29 ZIN A   1      16.264   0.450  11.641  0.00  0.00     0.211 HD
ENDBRANCH   3  21
BRANCH  20  23
ATOM     23  C26 ZIN A   1      19.907  -0.273  10.601  0.00  0.00     0.009 C 
ATOM     24  C27 ZIN A   1      19.866  -0.338   9.073  0.00  0.00     0.006 C 
ENDBRANCH  20  23
TORSDOF 2
ENDMDL
MODEL 2
REMARK VINA RESULT:      -7.9      2.136      3.873
REMARK  2 active torsions:
REMARK  status: ('A' for Active; 'I' for Inactive)
REMARK    1  A    between atoms: C3_3  and  O4_4 
REMARK    2  A    between atoms: C25_21  and  C26_22 
ROOT
ATOM      1  C1  ZIN A   1      18.589   4.432  14.048  0.00  0.00     0.015 C 
ATOM      2  C2  ZIN A   1      19.026   3.904  13.097  0.00  0.00    -0.078 C 
ATOM      3  C3  ZIN A   1      19.574   3.241  11.905  0.00  0.00     0.128 C 
ATOM      4  C5  ZIN A   1      18.958   3.846  10.617  0.00  0.00     0.052 C 
ATOM      5  C6  ZIN A   1      18.504   2.645   9.737  0.00  0.00     0.010 C 
ATOM      6  C7  ZIN A   1      19.270   1.473  10.365  0.00  0.00     0.002 C 
ATOM      7  C9  ZIN A   1      18.897   0.076   9.974  0.00  0.00    -0.005 C 
ATOM      8  C11 ZIN A   1      17.417  -0.249  10.120  0.00  0.00     0.010 C 
ATOM      9  C12 ZIN A   1      17.163  -1.639   9.513  0.00  0.00     0.035 C 
ATOM     10  C13 ZIN A   1      18.022  -2.624  10.288  0.00  0.00    -0.072 C 
ATOM     11  C14 ZIN A   1      17.422  -3.693  10.810  0.00  0.00     0.053 C 
ATOM     12  C15 ZIN A   1      18.216  -4.678  11.554  0.00  0.00     0.149 C 
ATOM     13  O16 ZIN A   1      17.719  -5.411  12.381  0.00  0.00    -0.293 OA
ATOM     14  C17 ZIN A   1      19.698  -4.720  11.230  0.00  0.00     0.084 C 
ATOM     15  C18 ZIN A   1      20.222  -3.288  11.352  0.00  0.00     0.017 C 
ATOM     16  C19 ZIN A   1      19.485  -2.340  10.422  0.00  0.00     0.019 C 
ATOM     17  C21 ZIN A   1      19.746  -0.893  10.816  0.00  0.00    -0.002 C 
ATOM     18  C23 ZIN A   1      19.546  -0.640  12.303  0.00  0.00     0.006 C 
ATOM     19  C24 ZIN A   1      19.952   0.798  12.669  0.00  0.00     0.014 C 
ATOM     20  C25 ZIN A   1      19.120   1.768  11.868  0.00  0.00     0.006 C 
ENDROOT
BRANCH   3  21
ATOM     21  O4  ZIN A   1      20.994   3.321  11.877  0.00  0.00    -0.377 OA
ATOM     22  H29 ZIN A   1      21.333   4.168  11.556  0.00  0.00     0.211 HD
ENDBRANCH   3  21
BRANCH  20  23
ATOM     23  C26 ZIN A   1      17.670   1.755  12.353  0.00  0.00     0.009 C 
ATOM     24  C27 ZIN A   1      17.565   0.912  13.625  0.00  0.00     0.006 C 
ENDBRANCH  20  23
TORSDOF 2
ENDMDL
MODEL 3
REMARK VINA RESULT:      -7.8      2.387      7.452
REMARK  2 active torsions:
REMARK  status: ('A' for Active; 'I' for Inactive)
REMARK    1  A    between atoms: C3_3  and  O4_4 
REMARK    2  A    between atoms: C25_21  and  C26_22 
ROOT
ATOM      1  C1  ZIN A   1      17.655  -3.630  10.883  0.00  0.00     0.015 C 
ATOM      2  C2  ZIN A   1      17.864  -2.667  10.247  0.00  0.00    -0.078 C 
ATOM      3  C3  ZIN A   1      18.126  -1.460   9.451  0.00  0.00     0.128 C 
ATOM      4  C5  ZIN A   1      19.552  -1.509   8.843  0.00  0.00     0.052 C 
ATOM      5  C6  ZIN A   1      20.210  -0.132   9.145  0.00  0.00     0.010 C 
ATOM      6  C7  ZIN A   1      18.997   0.737   9.502  0.00  0.00     0.002 C 
ATOM      7  C9  ZIN A   1      19.230   2.081  10.123  0.00  0.00    -0.005 C 
ATOM      8  C11 ZIN A   1      20.124   2.062  11.355  0.00  0.00     0.010 C 
ATOM      9  C12 ZIN A   1      20.418   3.515  11.764  0.00  0.00     0.035 C 
ATOM     10  C13 ZIN A   1      19.079   4.169  12.064  0.00  0.00    -0.072 C 
ATOM     11  C14 ZIN A   1      18.936   4.776  13.243  0.00  0.00     0.053 C 
ATOM     12  C15 ZIN A   1      17.665   5.433  13.569  0.00  0.00     0.149 C 
ATOM     13  O16 ZIN A   1      17.317   5.624  14.714  0.00  0.00    -0.293 OA
ATOM     14  C17 ZIN A   1      16.812   5.855  12.387  0.00  0.00     0.084 C 
ATOM     15  C18 ZIN A   1      16.657   4.627  11.488  0.00  0.00     0.017 C 
ATOM     16  C19 ZIN A   1      18.003   4.095  11.029  0.00  0.00     0.019 C 
ATOM     17  C21 ZIN A   1      17.858   2.689  10.464  0.00  0.00    -0.002 C 
ATOM     18  C23 ZIN A   1      17.064   1.764  11.375  0.00  0.00     0.006 C 
ATOM     19  C24 ZIN A   1      16.833   0.402  10.699  0.00  0.00     0.014 C 
ATOM     20  C25 ZIN A   1      18.166  -0.223  10.371  0.00  0.00     0.006 C 
ENDROOT
BRANCH   3  21
ATOM     21  O4  ZIN A   1      17.145  -1.288   8.435  0.00  0.00    -0.377 OA
ATOM     22  H29 ZIN A   1      16.251  -1.537   8.707  0.00  0.00     0.211 HD
ENDBRANCH   3  21
BRANCH  20  23
ATOM     23  C26 ZIN A   1      18.879  -0.663  11.650  0.00  0.00     0.009 C 
ATOM     24  C27 ZIN A   1      17.904  -0.591  12.827  0.00  0.00     0.006 C 
ENDBRANCH  20  23
TORSDOF 2
ENDMDL
MODEL 4
REMARK VINA RESULT:      -7.8      1.395      1.694
REMARK  2 active torsions:
REMARK  status: ('A' for Active; 'I' for Inactive)
REMARK    1  A    between atoms: C3_3  and  O4_4 
REMARK    2  A    between atoms: C25_21  and  C26_22 
ROOT
ATOM      1  C1  ZIN A   1      20.322   3.269  11.619  0.00  0.00     0.015 C 
ATOM      2  C2  ZIN A   1      19.400   2.565  11.445  0.00  0.00    -0.078 C 
ATOM      3  C3  ZIN A   1      18.247   1.682  11.226  0.00  0.00     0.128 C 
ATOM      4  C5  ZIN A   1      17.481   1.450  12.555  0.00  0.00     0.052 C 
ATOM      5  C6  ZIN A   1      17.251  -0.084  12.673  0.00  0.00     0.010 C 
ATOM      6  C7  ZIN A   1      17.500  -0.562  11.236  0.00  0.00     0.002 C 
ATOM      7  C9  ZIN A   1      17.644  -2.031  10.980  0.00  0.00    -0.005 C 
ATOM      8  C11 ZIN A   1      18.679  -2.728  11.851  0.00  0.00     0.010 C 
ATOM      9  C12 ZIN A   1      18.581  -4.243  11.605  0.00  0.00     0.035 C 
ATOM     10  C13 ZIN A   1      18.861  -4.470  10.129  0.00  0.00    -0.072 C 
ATOM     11  C14 ZIN A   1      19.807  -5.351   9.805  0.00  0.00     0.053 C 
ATOM     12  C15 ZIN A   1      20.100  -5.612   8.391  0.00  0.00     0.149 C 
ATOM     13  O16 ZIN A   1      21.171  -6.048   8.027  0.00  0.00    -0.293 OA
ATOM     14  C17 ZIN A   1      18.984  -5.301   7.411  0.00  0.00     0.084 C 
ATOM     15  C18 ZIN A   1      18.532  -3.866   7.692  0.00  0.00     0.017 C 
ATOM     16  C19 ZIN A   1      18.065  -3.696   9.126  0.00  0.00     0.019 C 
ATOM     17  C21 ZIN A   1      17.981  -2.220   9.489  0.00  0.00    -0.002 C 
ATOM     18  C23 ZIN A   1      19.235  -1.446   9.112  0.00  0.00     0.006 C 
ATOM     19  C24 ZIN A   1      19.045   0.058   9.376  0.00  0.00     0.014 C 
ATOM     20  C25 ZIN A   1      18.731   0.271  10.837  0.00  0.00     0.006 C 
ENDROOT
BRANCH   3  21
ATOM     21  O4  ZIN A   1      17.380   2.201  10.224  0.00  0.00    -0.377 OA
ATOM     22  H29 ZIN A   1      16.573   1.684  10.097  0.00  0.00     0.211 HD
ENDBRANCH   3  21
BRANCH  20  23
ATOM     23  C26 ZIN A   1      19.966  -0.010  11.694  0.00  0.00     0.009 C 
ATOM     24  C27 ZIN A   1      21.097  -0.530  10.805  0.00  0.00     0.006 C 
ENDBRANCH  20  23
TORSDOF 2
ENDMDL
MODEL 5
REMARK VINA RESULT:      -7.8      2.305      7.246
REMARK  2 active torsions:
REMARK  status: ('A' for Active; 'I' for Inactive)
REMARK    1  A    between atoms: C3_3  and  O4_4 
REMARK    2  A    between atoms: C25_21  and  C26_22 
ROOT
ATOM      1  C1  ZIN A   1      20.218  -3.980  11.111  0.00  0.00     0.015 C 
ATOM      2  C2  ZIN A   1      19.298  -3.262  10.991  0.00  0.00    -0.078 C 
ATOM      3  C3  ZIN A   1      18.146  -2.363  10.841  0.00  0.00     0.128 C 
ATOM      4  C5  ZIN A   1      17.748  -2.235   9.347  0.00  0.00     0.052 C 
ATOM      5  C6  ZIN A   1      17.590  -0.714   9.059  0.00  0.00     0.010 C 
ATOM      6  C7  ZIN A   1      17.476  -0.126  10.472  0.00  0.00     0.002 C 
ATOM      7  C9  ZIN A   1      17.582   1.359  10.646  0.00  0.00    -0.005 C 
ATOM      8  C11 ZIN A   1      18.819   1.983  10.017  0.00  0.00     0.010 C 
ATOM      9  C12 ZIN A   1      18.695   3.513  10.115  0.00  0.00     0.035 C 
ATOM     10  C13 ZIN A   1      18.595   3.855  11.592  0.00  0.00    -0.072 C 
ATOM     11  C14 ZIN A   1      19.448   4.757  12.079  0.00  0.00     0.053 C 
ATOM     12  C15 ZIN A   1      19.377   5.127  13.497  0.00  0.00     0.149 C 
ATOM     13  O16 ZIN A   1      20.330   5.588  14.088  0.00  0.00    -0.293 OA
ATOM     14  C17 ZIN A   1      18.043   4.896  14.181  0.00  0.00     0.084 C 
ATOM     15  C18 ZIN A   1      17.646   3.444  13.904  0.00  0.00     0.017 C 
ATOM     16  C19 ZIN A   1      17.554   3.163  12.414  0.00  0.00     0.019 C 
ATOM     17  C21 ZIN A   1      17.533   1.663  12.154  0.00  0.00    -0.002 C 
ATOM     18  C23 ZIN A   1      18.633   0.918  12.895  0.00  0.00     0.006 C 
ATOM     19  C24 ZIN A   1      18.484  -0.601  12.705  0.00  0.00     0.014 C 
ATOM     20  C25 ZIN A   1      18.547  -0.927  11.233  0.00  0.00     0.006 C 
ENDROOT
BRANCH   3  21
ATOM     21  O4  ZIN A   1      17.043  -2.801  11.625  0.00  0.00    -0.377 OA
ATOM     22  H29 ZIN A   1      16.373  -2.120  11.773  0.00  0.00     0.211 HD
ENDBRANCH   3  21
BRANCH  20  23
ATOM     23  C26 ZIN A   1      19.964  -0.716  10.700  0.00  0.00     0.009 C 
ATOM     24  C27 ZIN A   1      20.864  -0.210  11.829  0.00  0.00     0.006 C 
ENDBRANCH  20  23
TORSDOF 2
ENDMDL
MODEL 6
REMARK VINA RESULT:      -7.7      3.294      8.369
REMARK  2 active torsions:
REMARK  status: ('A' for Active; 'I' for Inactive)
REMARK    1  A    between atoms: C3_3  and  O4_4 
REMARK    2  A    between atoms: C25_21  and  C26_22 
ROOT
ATOM      1  C1  ZIN A   1      18.221  -2.504  12.263  0.00  0.00     0.015 C 
ATOM      2  C2  ZIN A   1      17.794  -1.481  11.879  0.00  0.00    -0.078 C 
ATOM      3  C3  ZIN A   1      17.259  -0.200  11.398  0.00  0.00     0.128 C 
ATOM      4  C5  ZIN A   1      17.668   0.038   9.921  0.00  0.00     0.052 C 
ATOM      5  C6  ZIN A   1      18.228   1.488   9.845  0.00  0.00     0.010 C 
ATOM      6  C7  ZIN A   1      17.704   2.108  11.147  0.00  0.00     0.002 C 
ATOM      7  C9  ZIN A   1      18.254   3.430  11.588  0.00  0.00    -0.005 C 
ATOM      8  C11 ZIN A   1      19.772   3.492  11.662  0.00  0.00     0.010 C 
ATOM      9  C12 ZIN A   1      20.187   4.946  11.945  0.00  0.00     0.035 C 
ATOM     10  C13 ZIN A   1      19.554   5.336  13.271  0.00  0.00    -0.072 C 
ATOM     11  C14 ZIN A   1      20.351   5.834  14.216  0.00  0.00     0.053 C 
ATOM     12  C15 ZIN A   1      19.780   6.238  15.506  0.00  0.00     0.149 C 
ATOM     13  O16 ZIN A   1      20.449   6.294  16.515  0.00  0.00    -0.293 OA
ATOM     14  C17 ZIN A   1      18.301   6.577  15.503  0.00  0.00     0.084 C 
ATOM     15  C18 ZIN A   1      17.575   5.398  14.849  0.00  0.00     0.017 C 
ATOM     16  C19 ZIN A   1      18.081   5.139  13.441  0.00  0.00     0.019 C 
ATOM     17  C21 ZIN A   1      17.634   3.767  12.957  0.00  0.00    -0.002 C 
ATOM     18  C23 ZIN A   1      17.913   2.664  13.966  0.00  0.00     0.006 C 
ATOM     19  C24 ZIN A   1      17.323   1.326  13.486  0.00  0.00     0.014 C 
ATOM     20  C25 ZIN A   1      17.929   0.966  12.152  0.00  0.00     0.006 C 
ENDROOT
BRANCH   3  21
ATOM     21  O4  ZIN A   1      15.845  -0.140  11.550  0.00  0.00    -0.377 OA
ATOM     22  H29 ZIN A   1      15.549   0.508  12.204  0.00  0.00     0.211 HD
ENDBRANCH   3  21
BRANCH  20  23
ATOM     23  C26 ZIN A   1      19.399   0.578  12.321  0.00  0.00     0.009 C 
ATOM     24  C27 ZIN A   1      19.724   0.448  13.810  0.00  0.00     0.006 C 
ENDBRANCH  20  23
TORSDOF 2
ENDMDL
MODEL 7
REMARK VINA RESULT:      -7.6      2.820      5.004
REMARK  2 active torsions:
REMARK  status: ('A' for Active; 'I' for Inactive)
REMARK    1  A    between atoms: C3_3  and  O4_4 
REMARK    2  A    between atoms: C25_21  and  C26_22 
ROOT
ATOM      1  C1  ZIN A   1      17.823   1.951  18.608  0.00  0.00     0.015 C 
ATOM      2  C2  ZIN A   1      18.328   2.057  17.554  0.00  0.00    -0.078 C 
ATOM      3  C3  ZIN A   1      18.960   2.189  16.235  0.00  0.00     0.128 C 
ATOM      4  C5  ZIN A   1      18.338   3.375  15.452  0.00  0.00     0.052 C 
ATOM      5  C6  ZIN A   1      18.003   2.840  14.029  0.00  0.00     0.010 C 
ATOM      6  C7  ZIN A   1      18.837   1.554  13.961  0.00  0.00     0.002 C 
ATOM      7  C9  ZIN A   1      18.584   0.589  12.843  0.00  0.00    -0.005 C 
ATOM      8  C11 ZIN A   1      17.130   0.168  12.687  0.00  0.00     0.010 C 
ATOM      9  C12 ZIN A   1      17.000  -0.666  11.401  0.00  0.00     0.035 C 
ATOM     10  C13 ZIN A   1      17.909  -1.873  11.564  0.00  0.00    -0.072 C 
ATOM     11  C14 ZIN A   1      17.377  -3.080  11.372  0.00  0.00     0.053 C 
ATOM     12  C15 ZIN A   1      18.222  -4.273  11.504  0.00  0.00     0.149 C 
ATOM     13  O16 ZIN A   1      17.758  -5.363  11.757  0.00  0.00    -0.293 OA
ATOM     14  C17 ZIN A   1      19.712  -4.059  11.310  0.00  0.00     0.084 C 
ATOM     15  C18 ZIN A   1      20.121  -2.909  12.233  0.00  0.00     0.017 C 
ATOM     16  C19 ZIN A   1      19.341  -1.642  11.929  0.00  0.00     0.019 C 
ATOM     17  C21 ZIN A   1      19.479  -0.643  13.069  0.00  0.00    -0.002 C 
ATOM     18  C23 ZIN A   1      19.217  -1.262  14.434  0.00  0.00     0.006 C 
ATOM     19  C24 ZIN A   1      19.500  -0.248  15.555  0.00  0.00     0.014 C 
ATOM     20  C25 ZIN A   1      18.620   0.963  15.364  0.00  0.00     0.006 C 
ENDROOT
BRANCH   3  21
ATOM     21  O4  ZIN A   1      20.370   2.339  16.350  0.00  0.00    -0.377 OA
ATOM     22  H29 ZIN A   1      20.659   2.681  17.207  0.00  0.00     0.211 HD
ENDBRANCH   3  21
BRANCH  20  23
ATOM     23  C26 ZIN A   1      17.162   0.615  15.664  0.00  0.00     0.009 C 
ATOM     24  C27 ZIN A   1      17.099  -0.714  16.420  0.00  0.00     0.006 C 
ENDBRANCH  20  23
TORSDOF 2
ENDMDL
MODEL 8
REMARK VINA RESULT:      -7.6      2.861      4.444
REMARK  2 active torsions:
REMARK  status: ('A' for Active; 'I' for Inactive)
REMARK    1  A    between atoms: C3_3  and  O4_4 
REMARK    2  A    between atoms: C25_21  and  C26_22 
ROOT
ATOM      1  C1  ZIN A   1      17.325  -0.381  15.062  0.00  0.00     0.015 C 
ATOM      2  C2  ZIN A   1      18.231  -0.518  14.330  0.00  0.00    -0.078 C 
ATOM      3  C3  ZIN A   1      19.366  -0.690  13.413  0.00  0.00     0.128 C 
ATOM      4  C5  ZIN A   1      20.377   0.474  13.576  0.00  0.00     0.052 C 
ATOM      5  C6  ZIN A   1      20.700   0.985  12.142  0.00  0.00     0.010 C 
ATOM      6  C7  ZIN A   1      20.211  -0.175  11.266  0.00  0.00     0.002 C 
ATOM      7  C9  ZIN A   1      20.094   0.037   9.787  0.00  0.00    -0.005 C 
ATOM      8  C11 ZIN A   1      19.276   1.256   9.385  0.00  0.00     0.010 C 
ATOM      9  C12 ZIN A   1      19.401   1.446   7.864  0.00  0.00     0.035 C 
ATOM     10  C13 ZIN A   1      18.862   0.181   7.215  0.00  0.00    -0.072 C 
ATOM     11  C14 ZIN A   1      17.916   0.316   6.285  0.00  0.00     0.053 C 
ATOM     12  C15 ZIN A   1      17.377  -0.877   5.623  0.00  0.00     0.149 C 
ATOM     13  O16 ZIN A   1      16.280  -0.885   5.108  0.00  0.00    -0.293 OA
ATOM     14  C17 ZIN A   1      18.273  -2.102   5.624  0.00  0.00     0.084 C 
ATOM     15  C18 ZIN A   1      18.698  -2.342   7.074  0.00  0.00     0.017 C 
ATOM     16  C19 ZIN A   1      19.417  -1.136   7.655  0.00  0.00     0.019 C 
ATOM     17  C21 ZIN A   1      19.494  -1.240   9.171  0.00  0.00    -0.002 C 
ATOM     18  C23 ZIN A   1      18.155  -1.575   9.811  0.00  0.00     0.006 C 
ATOM     19  C24 ZIN A   1      18.316  -1.800  11.324  0.00  0.00     0.014 C 
ATOM     20  C25 ZIN A   1      18.887  -0.553  11.954  0.00  0.00     0.006 C 
ENDROOT
BRANCH   3  21
ATOM     21  O4  ZIN A   1      20.002  -1.948  13.608  0.00  0.00    -0.377 OA
ATOM     22  H29 ZIN A   1      20.812  -1.899  14.134  0.00  0.00     0.211 HD
ENDBRANCH   3  21
BRANCH  20  23
ATOM     23  C26 ZIN A   1      17.850   0.571  11.947  0.00  0.00     0.009 C 
ATOM     24  C27 ZIN A   1      16.501   0.018  11.483  0.00  0.00     0.006 C 
ENDBRANCH  20  23
TORSDOF 2
ENDMDL
MODEL 9
REMARK VINA RESULT:      -7.5      2.922      5.956
REMARK  2 active torsions:
REMARK  status: ('A' for Active; 'I' for Inactive)
REMARK    1  A    between atoms: C3_3  and  O4_4 
REMARK    2  A    between atoms: C25_21  and  C26_22 
ROOT
ATOM      1  C1  ZIN A   1      18.585  -2.604   5.613  0.00  0.00     0.015 C 
ATOM      2  C2  ZIN A   1      18.237  -1.615   6.140  0.00  0.00    -0.078 C 
ATOM      3  C3  ZIN A   1      17.801  -0.378   6.801  0.00  0.00     0.128 C 
ATOM      4  C5  ZIN A   1      18.582   0.840   6.242  0.00  0.00     0.052 C 
ATOM      5  C6  ZIN A   1      19.084   1.647   7.474  0.00  0.00     0.010 C 
ATOM      6  C7  ZIN A   1      18.205   1.096   8.605  0.00  0.00     0.002 C 
ATOM      7  C9  ZIN A   1      18.563   1.425  10.022  0.00  0.00    -0.005 C 
ATOM      8  C11 ZIN A   1      20.002   1.108  10.402  0.00  0.00     0.010 C 
ATOM      9  C12 ZIN A   1      20.268   1.665  11.810  0.00  0.00     0.035 C 
ATOM     10  C13 ZIN A   1      19.286   0.981  12.748  0.00  0.00    -0.072 C 
ATOM     11  C14 ZIN A   1      19.780   0.380  13.831  0.00  0.00     0.053 C 
ATOM     12  C15 ZIN A   1      18.868  -0.281  14.771  0.00  0.00     0.149 C 
ATOM     13  O16 ZIN A   1      19.238  -1.168  15.509  0.00  0.00    -0.293 OA
ATOM     14  C17 ZIN A   1      17.432   0.209  14.762  0.00  0.00     0.084 C 
ATOM     15  C18 ZIN A   1      16.956   0.165  13.308  0.00  0.00     0.017 C 
ATOM     16  C19 ZIN A   1      17.831   1.017  12.406  0.00  0.00     0.019 C 
ATOM     17  C21 ZIN A   1      17.586   0.672  10.943  0.00  0.00    -0.002 C 
ATOM     18  C23 ZIN A   1      17.626  -0.824  10.673  0.00  0.00     0.006 C 
ATOM     19  C24 ZIN A   1      17.240  -1.124   9.214  0.00  0.00     0.014 C 
ATOM     20  C25 ZIN A   1      18.196  -0.410   8.290  0.00  0.00     0.006 C 
ENDROOT
BRANCH   3  21
ATOM     21  O4  ZIN A   1      16.397  -0.187   6.666  0.00  0.00    -0.377 OA
ATOM     22  H29 ZIN A   1      16.153   0.478   6.008  0.00  0.00     0.211 HD
ENDBRANCH   3  21
BRANCH  20  23
ATOM     23  C26 ZIN A   1      19.581  -1.057   8.352  0.00  0.00     0.009 C 
ATOM     24  C27 ZIN A   1      19.493  -2.379   9.117  0.00  0.00     0.006 C 
ENDBRANCH  20  23
TORSDOF 2
ENDMDL
