MODEL 1
REMARK VINA RESULT:      -8.3      0.000      0.000
REMARK  5 active torsions:
REMARK  status: ('A' for Active; 'I' for Inactive)
REMARK    1  A    between atoms: N4_4  and  N5_5 
REMARK    2  A    between atoms: N5_5  and  C6_6 
REMARK    3  A    between atoms: C6_6  and  C7_7 
REMARK    4  A    between atoms: C10_10  and  C11_11 
REMARK    5  A    between atoms: C14_14  and  N15_15 
ROOT
ATOM      1  C7  ZIN A   1      18.644   2.395  12.080  0.00  0.00     0.095 A 
ATOM      2  C8  ZIN A   1      18.247   3.632  11.390  0.00  0.00     0.041 A 
ATOM      3  C9  ZIN A   1      18.148   3.318  10.073  0.00  0.00     0.041 A 
ATOM      4  C10 ZIN A   1      18.468   1.945   9.936  0.00  0.00     0.086 A 
ATOM      5  O20 ZIN A   1      18.761   1.431  11.142  0.00  0.00    -0.308 OA
ENDROOT
BRANCH   1   6
ATOM      6  C6  ZIN A   1      18.863   2.248  13.443  0.00  0.00     0.176 C 
BRANCH   6   7
ATOM      7  N5  ZIN A   1      18.201   1.321  14.127  0.00  0.00    -0.177 NA
BRANCH   7   8
ATOM      8  N4  ZIN A   1      18.545   1.045  15.338  0.00  0.00    -0.209 N 
ATOM      9  C3  ZIN A   1      19.093   1.982  16.333  0.00  0.00     0.261 A 
ATOM     10  C2  ZIN A   1      19.308   1.115  17.558  0.00  0.00     0.267 A 
ATOM     11  O1  ZIN A   1      19.749   1.463  18.633  0.00  0.00    -0.269 OA
ATOM     12  N23 ZIN A   1      18.911  -0.122  17.203  0.00  0.00    -0.155 NA
ATOM     13  C21 ZIN A   1      18.473  -0.157  15.939  0.00  0.00     0.368 A 
ATOM     14  O22 ZIN A   1      18.061  -1.160  15.395  0.00  0.00    -0.243 OA
ENDBRANCH   7   8
ENDBRANCH   6   7
ENDBRANCH   1   6
BRANCH   4  15
ATOM     15  C11 ZIN A   1      18.481   1.226   8.714  0.00  0.00    -0.002 A 
ATOM     16  C19 ZIN A   1      19.170   1.738   7.597  0.00  0.00     0.017 A 
ATOM     17  C18 ZIN A   1      19.180   1.031   6.423  0.00  0.00     0.037 A 
ATOM     18  C14 ZIN A   1      18.507  -0.177   6.328  0.00  0.00     0.102 A 
ATOM     19  C13 ZIN A   1      17.820  -0.688   7.420  0.00  0.00     0.037 A 
ATOM     20  C12 ZIN A   1      17.800  -0.002   8.607  0.00  0.00     0.017 A 
BRANCH  18  21
ATOM     21  N15 ZIN A   1      18.520  -0.927   5.052  0.00  0.00    -0.116 N 
ATOM     22  O16 ZIN A   1      17.391  -1.363   4.532  0.00  0.00    -0.532 OA
ATOM     23  O17 ZIN A   1      19.660  -1.160   4.437  0.00  0.00    -0.532 OA
ENDBRANCH  18  21
ENDBRANCH   4  15
TORSDOF 5
ENDMDL
MODEL 2
REMARK VINA RESULT:      -8.1      1.217      1.728
REMARK  5 active torsions:
REMARK  status: ('A' for Active; 'I' for Inactive)
REMARK    1  A    between atoms: N4_4  and  N5_5 
REMARK    2  A    between atoms: N5_5  and  C6_6 
REMARK    3  A    between atoms: C6_6  and  C7_7 
REMARK    4  A    between atoms: C10_10  and  C11_11 
REMARK    5  A    between atoms: C14_14  and  N15_15 
ROOT
ATOM      1  C7  ZIN A   1      18.028   2.644  12.284  0.00  0.00     0.095 A 
ATOM      2  C8  ZIN A   1      18.004   3.910  11.537  0.00  0.00     0.041 A 
ATOM      3  C9  ZIN A   1      18.104   3.581  10.225  0.00  0.00     0.041 A 
ATOM      4  C10 ZIN A   1      18.189   2.169  10.144  0.00  0.00     0.086 A 
ATOM      5  O20 ZIN A   1      18.145   1.646  11.380  0.00  0.00    -0.308 OA
ENDROOT
BRANCH   1   6
ATOM      6  C6  ZIN A   1      17.951   2.500  13.662  0.00  0.00     0.176 C 
BRANCH   6   7
ATOM      7  N5  ZIN A   1      18.885   3.036  14.440  0.00  0.00    -0.177 NA
BRANCH   7   8
ATOM      8  N4  ZIN A   1      19.099   2.554  15.617  0.00  0.00    -0.209 N 
ATOM      9  C3  ZIN A   1      18.883   1.164  16.052  0.00  0.00     0.261 A 
ATOM     10  C2  ZIN A   1      19.295   1.178  17.510  0.00  0.00     0.267 A 
ATOM     11  O1  ZIN A   1      19.285   0.244  18.283  0.00  0.00    -0.269 OA
ATOM     12  N23 ZIN A   1      19.671   2.445  17.770  0.00  0.00    -0.155 NA
ATOM     13  C21 ZIN A   1      19.562   3.224  16.688  0.00  0.00     0.368 A 
ATOM     14  O22 ZIN A   1      19.845   4.405  16.674  0.00  0.00    -0.243 OA
ENDBRANCH   7   8
ENDBRANCH   6   7
ENDBRANCH   1   6
BRANCH   4  15
ATOM     15  C11 ZIN A   1      18.305   1.424   8.944  0.00  0.00    -0.002 A 
ATOM     16  C19 ZIN A   1      19.061   1.927   7.867  0.00  0.00     0.017 A 
ATOM     17  C18 ZIN A   1      19.171   1.195   6.713  0.00  0.00     0.037 A 
ATOM     18  C14 ZIN A   1      18.532  -0.030   6.599  0.00  0.00     0.102 A 
ATOM     19  C13 ZIN A   1      17.780  -0.533   7.650  0.00  0.00     0.037 A 
ATOM     20  C12 ZIN A   1      17.660   0.178   8.816  0.00  0.00     0.017 A 
BRANCH  18  21
ATOM     21  N15 ZIN A   1      18.653  -0.808   5.345  0.00  0.00    -0.116 N 
ATOM     22  O16 ZIN A   1      17.594  -1.399   4.832  0.00  0.00    -0.532 OA
ATOM     23  O17 ZIN A   1      19.819  -0.909   4.743  0.00  0.00    -0.532 OA
ENDBRANCH  18  21
ENDBRANCH   4  15
TORSDOF 5
ENDMDL
MODEL 3
REMARK VINA RESULT:      -8.1      3.724      7.946
REMARK  5 active torsions:
REMARK  status: ('A' for Active; 'I' for Inactive)
REMARK    1  A    between atoms: N4_4  and  N5_5 
REMARK    2  A    between atoms: N5_5  and  C6_6 
REMARK    3  A    between atoms: C6_6  and  C7_7 
REMARK    4  A    between atoms: C10_10  and  C11_11 
REMARK    5  A    between atoms: C14_14  and  N15_15 
ROOT
ATOM      1  C7  ZIN A   1      19.216  -1.860   6.039  0.00  0.00     0.095 A 
ATOM      2  C8  ZIN A   1      19.222  -0.706   5.129  0.00  0.00     0.041 A 
ATOM      3  C9  ZIN A   1      18.969   0.386   5.895  0.00  0.00     0.041 A 
ATOM      4  C10 ZIN A   1      18.809  -0.058   7.231  0.00  0.00     0.086 A 
ATOM      5  O20 ZIN A   1      18.957  -1.392   7.280  0.00  0.00    -0.308 OA
ENDROOT
BRANCH   1   6
ATOM      6  C6  ZIN A   1      19.431  -3.186   5.688  0.00  0.00     0.176 C 
BRANCH   6   7
ATOM      7  N5  ZIN A   1      20.307  -3.919   6.366  0.00  0.00    -0.177 NA
BRANCH   7   8
ATOM      8  N4  ZIN A   1      19.895  -4.763   7.251  0.00  0.00    -0.209 N 
ATOM      9  C3  ZIN A   1      18.516  -4.918   7.743  0.00  0.00     0.261 A 
ATOM     10  C2  ZIN A   1      18.624  -6.041   8.756  0.00  0.00     0.267 A 
ATOM     11  O1  ZIN A   1      17.728  -6.515   9.422  0.00  0.00    -0.269 OA
ATOM     12  N23 ZIN A   1      19.923  -6.398   8.766  0.00  0.00    -0.155 NA
ATOM     13  C21 ZIN A   1      20.642  -5.671   7.904  0.00  0.00     0.368 A 
ATOM     14  O22 ZIN A   1      21.836  -5.812   7.732  0.00  0.00    -0.243 OA
ENDBRANCH   7   8
ENDBRANCH   6   7
ENDBRANCH   1   6
BRANCH   4  15
ATOM     15  C11 ZIN A   1      18.532   0.776   8.342  0.00  0.00    -0.002 A 
ATOM     16  C19 ZIN A   1      19.123   2.051   8.437  0.00  0.00     0.017 A 
ATOM     17  C18 ZIN A   1      18.843   2.852   9.514  0.00  0.00     0.037 A 
ATOM     18  C14 ZIN A   1      17.992   2.406  10.514  0.00  0.00     0.102 A 
ATOM     19  C13 ZIN A   1      17.408   1.151  10.434  0.00  0.00     0.037 A 
ATOM     20  C12 ZIN A   1      17.669   0.334   9.364  0.00  0.00     0.017 A 
BRANCH  18  21
ATOM     21  N15 ZIN A   1      17.703   3.278  11.675  0.00  0.00    -0.116 N 
ATOM     22  O16 ZIN A   1      16.701   4.132  11.624  0.00  0.00    -0.532 OA
ATOM     23  O17 ZIN A   1      18.447   3.200  12.758  0.00  0.00    -0.532 OA
ENDBRANCH  18  21
ENDBRANCH   4  15
TORSDOF 5
ENDMDL
MODEL 4
REMARK VINA RESULT:      -8.0      3.635      9.580
REMARK  5 active torsions:
REMARK  status: ('A' for Active; 'I' for Inactive)
REMARK    1  A    between atoms: N4_4  and  N5_5 
REMARK    2  A    between atoms: N5_5  and  C6_6 
REMARK    3  A    between atoms: C6_6  and  C7_7 
REMARK    4  A    between atoms: C10_10  and  C11_11 
REMARK    5  A    between atoms: C14_14  and  N15_15 
ROOT
ATOM      1  C7  ZIN A   1      18.994  -2.802  11.846  0.00  0.00     0.095 A 
ATOM      2  C8  ZIN A   1      17.768  -2.096  11.444  0.00  0.00     0.041 A 
ATOM      3  C9  ZIN A   1      17.462  -1.253  12.461  0.00  0.00     0.041 A 
ATOM      4  C10 ZIN A   1      18.449  -1.417  13.465  0.00  0.00     0.086 A 
ATOM      5  O20 ZIN A   1      19.338  -2.345  13.070  0.00  0.00    -0.308 OA
ENDROOT
BRANCH   1   6
ATOM      6  C6  ZIN A   1      19.669  -3.764  11.108  0.00  0.00     0.176 C 
BRANCH   6   7
ATOM      7  N5  ZIN A   1      19.015  -4.496  10.213  0.00  0.00    -0.177 NA
BRANCH   7   8
ATOM      8  N4  ZIN A   1      19.372  -4.472   8.974  0.00  0.00    -0.209 N 
ATOM      9  C3  ZIN A   1      19.100  -3.401   8.001  0.00  0.00     0.261 A 
ATOM     10  C2  ZIN A   1      19.744  -3.907   6.726  0.00  0.00     0.267 A 
ATOM     11  O1  ZIN A   1      19.773  -3.350   5.649  0.00  0.00    -0.269 OA
ATOM     12  N23 ZIN A   1      20.275  -5.105   7.036  0.00  0.00    -0.155 NA
ATOM     13  C21 ZIN A   1      20.064  -5.421   8.319  0.00  0.00     0.368 A 
ATOM     14  O22 ZIN A   1      20.451  -6.450   8.834  0.00  0.00    -0.243 OA
ENDBRANCH   7   8
ENDBRANCH   6   7
ENDBRANCH   1   6
BRANCH   4  15
ATOM     15  C11 ZIN A   1      18.490  -0.715  14.695  0.00  0.00    -0.002 A 
ATOM     16  C19 ZIN A   1      18.013  -1.321  15.874  0.00  0.00     0.017 A 
ATOM     17  C18 ZIN A   1      18.063  -0.634  17.059  0.00  0.00     0.037 A 
ATOM     18  C14 ZIN A   1      18.570   0.655  17.099  0.00  0.00     0.102 A 
ATOM     19  C13 ZIN A   1      19.039   1.264  15.944  0.00  0.00     0.037 A 
ATOM     20  C12 ZIN A   1      19.004   0.595  14.747  0.00  0.00     0.017 A 
BRANCH  18  21
ATOM     21  N15 ZIN A   1      18.613   1.389  18.384  0.00  0.00    -0.116 N 
ATOM     22  O16 ZIN A   1      17.549   1.422  19.160  0.00  0.00    -0.532 OA
ATOM     23  O17 ZIN A   1      19.715   2.009  18.752  0.00  0.00    -0.532 OA
ENDBRANCH  18  21
ENDBRANCH   4  15
TORSDOF 5
ENDMDL
MODEL 5
REMARK VINA RESULT:      -7.9      2.454      9.541
REMARK  5 active torsions:
REMARK  status: ('A' for Active; 'I' for Inactive)
REMARK    1  A    between atoms: N4_4  and  N5_5 
REMARK    2  A    between atoms: N5_5  and  C6_6 
REMARK    3  A    between atoms: C6_6  and  C7_7 
REMARK    4  A    between atoms: C10_10  and  C11_11 
REMARK    5  A    between atoms: C14_14  and  N15_15 
ROOT
ATOM      1  C7  ZIN A   1      19.405  -1.306  10.716  0.00  0.00     0.095 A 
ATOM      2  C8  ZIN A   1      19.383  -2.668  11.271  0.00  0.00     0.041 A 
ATOM      3  C9  ZIN A   1      19.280  -2.530  12.617  0.00  0.00     0.041 A 
ATOM      4  C10 ZIN A   1      19.239  -1.142  12.902  0.00  0.00     0.086 A 
ATOM      5  O20 ZIN A   1      19.319  -0.447  11.755  0.00  0.00    -0.308 OA
ENDROOT
BRANCH   1   6
ATOM      6  C6  ZIN A   1      19.501  -0.966   9.373  0.00  0.00     0.176 C 
BRANCH   6   7
ATOM      7  N5  ZIN A   1      18.891  -1.707   8.455  0.00  0.00    -0.177 NA
BRANCH   7   8
ATOM      8  N4  ZIN A   1      19.069  -1.456   7.202  0.00  0.00    -0.209 N 
ATOM      9  C3  ZIN A   1      18.687  -0.226   6.488  0.00  0.00     0.261 A 
ATOM     10  C2  ZIN A   1      19.131  -0.489   5.063  0.00  0.00     0.267 A 
ATOM     11  O1  ZIN A   1      19.020   0.255   4.112  0.00  0.00    -0.269 OA
ATOM     12  N23 ZIN A   1      19.672  -1.723   5.071  0.00  0.00    -0.155 NA
ATOM     13  C21 ZIN A   1      19.637  -2.268   6.293  0.00  0.00     0.368 A 
ATOM     14  O22 ZIN A   1      20.069  -3.374   6.552  0.00  0.00    -0.243 OA
ENDBRANCH   7   8
ENDBRANCH   6   7
ENDBRANCH   1   6
BRANCH   4  15
ATOM     15  C11 ZIN A   1      19.133  -0.576  14.196  0.00  0.00    -0.002 A 
ATOM     16  C19 ZIN A   1      18.811  -1.387  15.302  0.00  0.00     0.017 A 
ATOM     17  C18 ZIN A   1      18.716  -0.829  16.550  0.00  0.00     0.037 A 
ATOM     18  C14 ZIN A   1      18.926   0.530  16.726  0.00  0.00     0.102 A 
ATOM     19  C13 ZIN A   1      19.239   1.340  15.645  0.00  0.00     0.037 A 
ATOM     20  C12 ZIN A   1      19.344   0.804  14.387  0.00  0.00     0.017 A 
BRANCH  18  21
ATOM     21  N15 ZIN A   1      18.815   1.121  18.079  0.00  0.00    -0.116 N 
ATOM     22  O16 ZIN A   1      17.723   0.935  18.792  0.00  0.00    -0.532 OA
ATOM     23  O17 ZIN A   1      19.807   1.834  18.569  0.00  0.00    -0.532 OA
ENDBRANCH  18  21
ENDBRANCH   4  15
TORSDOF 5
ENDMDL
MODEL 6
REMARK VINA RESULT:      -7.9      2.290      9.130
REMARK  5 active torsions:
REMARK  status: ('A' for Active; 'I' for Inactive)
REMARK    1  A    between atoms: N4_4  and  N5_5 
REMARK    2  A    between atoms: N5_5  and  C6_6 
REMARK    3  A    between atoms: C6_6  and  C7_7 
REMARK    4  A    between atoms: C10_10  and  C11_11 
REMARK    5  A    between atoms: C14_14  and  N15_15 
ROOT
ATOM      1  C7  ZIN A   1      18.150  -1.022  10.628  0.00  0.00     0.095 A 
ATOM      2  C8  ZIN A   1      16.914  -0.231  10.722  0.00  0.00     0.041 A 
ATOM      3  C9  ZIN A   1      16.827   0.190  12.009  0.00  0.00     0.041 A 
ATOM      4  C10 ZIN A   1      17.958  -0.312  12.700  0.00  0.00     0.086 A 
ATOM      5  O20 ZIN A   1      18.717  -1.028  11.854  0.00  0.00    -0.308 OA
ENDROOT
BRANCH   1   6
ATOM      6  C6  ZIN A   1      18.640  -1.650   9.492  0.00  0.00     0.176 C 
BRANCH   6   7
ATOM      7  N5  ZIN A   1      19.598  -1.073   8.774  0.00  0.00    -0.177 NA
BRANCH   7   8
ATOM      8  N4  ZIN A   1      19.309  -0.496   7.657  0.00  0.00    -0.209 N 
ATOM      9  C3  ZIN A   1      19.152  -1.147   6.346  0.00  0.00     0.261 A 
ATOM     10  C2  ZIN A   1      18.820   0.003   5.415  0.00  0.00     0.267 A 
ATOM     11  O1  ZIN A   1      18.605  -0.058   4.223  0.00  0.00    -0.269 OA
ATOM     12  N23 ZIN A   1      18.818   1.107   6.187  0.00  0.00    -0.155 NA
ATOM     13  C21 ZIN A   1      19.092   0.817   7.464  0.00  0.00     0.368 A 
ATOM     14  O22 ZIN A   1      19.144   1.647   8.349  0.00  0.00    -0.243 OA
ENDBRANCH   7   8
ENDBRANCH   6   7
ENDBRANCH   1   6
BRANCH   4  15
ATOM     15  C11 ZIN A   1      18.242  -0.096  14.072  0.00  0.00    -0.002 A 
ATOM     16  C19 ZIN A   1      18.201   1.206  14.608  0.00  0.00     0.017 A 
ATOM     17  C18 ZIN A   1      18.472   1.403  15.937  0.00  0.00     0.037 A 
ATOM     18  C14 ZIN A   1      18.797   0.329  16.750  0.00  0.00     0.102 A 
ATOM     19  C13 ZIN A   1      18.845  -0.957  16.233  0.00  0.00     0.037 A 
ATOM     20  C12 ZIN A   1      18.573  -1.180  14.907  0.00  0.00     0.017 A 
BRANCH  18  21
ATOM     21  N15 ZIN A   1      19.093   0.555  18.183  0.00  0.00    -0.116 N 
ATOM     22  O16 ZIN A   1      18.549  -0.219  19.099  0.00  0.00    -0.532 OA
ATOM     23  O17 ZIN A   1      19.901   1.531  18.542  0.00  0.00    -0.532 OA
ENDBRANCH  18  21
ENDBRANCH   4  15
TORSDOF 5
ENDMDL
MODEL 7
REMARK VINA RESULT:      -7.9      1.868      2.245
REMARK  5 active torsions:
REMARK  status: ('A' for Active; 'I' for Inactive)
REMARK    1  A    between atoms: N4_4  and  N5_5 
REMARK    2  A    between atoms: N5_5  and  C6_6 
REMARK    3  A    between atoms: C6_6  and  C7_7 
REMARK    4  A    between atoms: C10_10  and  C11_11 
REMARK    5  A    between atoms: C14_14  and  N15_15 
ROOT
ATOM      1  C7  ZIN A   1      18.287   2.112  12.186  0.00  0.00     0.095 A 
ATOM      2  C8  ZIN A   1      17.908   3.378  11.543  0.00  0.00     0.041 A 
ATOM      3  C9  ZIN A   1      17.889   3.137  10.207  0.00  0.00     0.041 A 
ATOM      4  C10 ZIN A   1      18.242   1.778  10.014  0.00  0.00     0.086 A 
ATOM      5  O20 ZIN A   1      18.475   1.203  11.205  0.00  0.00    -0.308 OA
ENDROOT
BRANCH   1   6
ATOM      6  C6  ZIN A   1      18.431   1.893  13.549  0.00  0.00     0.176 C 
BRANCH   6   7
ATOM      7  N5  ZIN A   1      17.964   2.782  14.419  0.00  0.00    -0.177 NA
BRANCH   7   8
ATOM      8  N4  ZIN A   1      18.782   3.502  15.109  0.00  0.00    -0.209 N 
ATOM      9  C3  ZIN A   1      19.173   4.895  14.837  0.00  0.00     0.261 A 
ATOM     10  C2  ZIN A   1      20.143   5.218  15.956  0.00  0.00     0.267 A 
ATOM     11  O1  ZIN A   1      20.726   6.265  16.140  0.00  0.00    -0.269 OA
ATOM     12  N23 ZIN A   1      20.226   4.098  16.700  0.00  0.00    -0.155 NA
ATOM     13  C21 ZIN A   1      19.446   3.125  16.216  0.00  0.00     0.368 A 
ATOM     14  O22 ZIN A   1      19.350   2.023  16.718  0.00  0.00    -0.243 OA
ENDBRANCH   7   8
ENDBRANCH   6   7
ENDBRANCH   1   6
BRANCH   4  15
ATOM     15  C11 ZIN A   1      18.338   1.129   8.758  0.00  0.00    -0.002 A 
ATOM     16  C19 ZIN A   1      19.053   1.728   7.702  0.00  0.00     0.017 A 
ATOM     17  C18 ZIN A   1      19.144   1.088   6.494  0.00  0.00     0.037 A 
ATOM     18  C14 ZIN A   1      18.526  -0.139   6.304  0.00  0.00     0.102 A 
ATOM     19  C13 ZIN A   1      17.815  -0.736   7.335  0.00  0.00     0.037 A 
ATOM     20  C12 ZIN A   1      17.715  -0.118   8.554  0.00  0.00     0.017 A 
BRANCH  18  21
ATOM     21  N15 ZIN A   1      18.626  -0.817   4.992  0.00  0.00    -0.116 N 
ATOM     22  O16 ZIN A   1      17.533  -1.170   4.348  0.00  0.00    -0.532 OA
ATOM     23  O17 ZIN A   1      19.808  -1.068   4.469  0.00  0.00    -0.532 OA
ENDBRANCH  18  21
ENDBRANCH   4  15
TORSDOF 5
ENDMDL
MODEL 8
REMARK VINA RESULT:      -7.7      2.068      2.792
REMARK  5 active torsions:
REMARK  status: ('A' for Active; 'I' for Inactive)
REMARK    1  A    between atoms: N4_4  and  N5_5 
REMARK    2  A    between atoms: N5_5  and  C6_6 
REMARK    3  A    between atoms: C6_6  and  C7_7 
REMARK    4  A    between atoms: C10_10  and  C11_11 
REMARK    5  A    between atoms: C14_14  and  N15_15 
ROOT
ATOM      1  C7  ZIN A   1      19.079   3.964  11.711  0.00  0.00     0.095 A 
ATOM      2  C8  ZIN A   1      17.655   4.090  11.364  0.00  0.00     0.041 A 
ATOM      3  C9  ZIN A   1      17.437   3.238  10.331  0.00  0.00     0.041 A 
ATOM      4  C10 ZIN A   1      18.668   2.600  10.037  0.00  0.00     0.086 A 
ATOM      5  O20 ZIN A   1      19.618   3.056  10.869  0.00  0.00    -0.308 OA
ENDROOT
BRANCH   1   6
ATOM      6  C6  ZIN A   1      19.745   4.654  12.714  0.00  0.00     0.176 C 
BRANCH   6   7
ATOM      7  N5  ZIN A   1      19.110   4.973  13.836  0.00  0.00    -0.177 NA
BRANCH   7   8
ATOM      8  N4  ZIN A   1      19.282   4.263  14.899  0.00  0.00    -0.209 N 
ATOM      9  C3  ZIN A   1      18.703   2.937  15.174  0.00  0.00     0.261 A 
ATOM     10  C2  ZIN A   1      19.238   2.593  16.550  0.00  0.00     0.267 A 
ATOM     11  O1  ZIN A   1      19.023   1.585  17.189  0.00  0.00    -0.269 OA
ATOM     12  N23 ZIN A   1      19.999   3.643  16.918  0.00  0.00    -0.155 NA
ATOM     13  C21 ZIN A   1      20.024   4.589  15.973  0.00  0.00     0.368 A 
ATOM     14  O22 ZIN A   1      20.644   5.628  16.073  0.00  0.00    -0.243 OA
ENDBRANCH   7   8
ENDBRANCH   6   7
ENDBRANCH   1   6
BRANCH   4  15
ATOM     15  C11 ZIN A   1      18.865   1.633   9.019  0.00  0.00    -0.002 A 
ATOM     16  C19 ZIN A   1      19.077   0.282   9.356  0.00  0.00     0.017 A 
ATOM     17  C18 ZIN A   1      19.262  -0.645   8.363  0.00  0.00     0.037 A 
ATOM     18  C14 ZIN A   1      19.252  -0.256   7.033  0.00  0.00     0.102 A 
ATOM     19  C13 ZIN A   1      19.049   1.072   6.689  0.00  0.00     0.037 A 
ATOM     20  C12 ZIN A   1      18.857   2.017   7.664  0.00  0.00     0.017 A 
BRANCH  18  21
ATOM     21  N15 ZIN A   1      19.458  -1.266   5.970  0.00  0.00    -0.116 N 
ATOM     22  O16 ZIN A   1      19.674  -0.881   4.729  0.00  0.00    -0.532 OA
ATOM     23  O17 ZIN A   1      19.426  -2.548   6.265  0.00  0.00    -0.532 OA
ENDBRANCH  18  21
ENDBRANCH   4  15
TORSDOF 5
ENDMDL
MODEL 9
REMARK VINA RESULT:      -7.4      2.030      3.054
REMARK  5 active torsions:
REMARK  status: ('A' for Active; 'I' for Inactive)
REMARK    1  A    between atoms: N4_4  and  N5_5 
REMARK    2  A    between atoms: N5_5  and  C6_6 
REMARK    3  A    between atoms: C6_6  and  C7_7 
REMARK    4  A    between atoms: C10_10  and  C11_11 
REMARK    5  A    between atoms: C14_14  and  N15_15 
ROOT
ATOM      1  C7  ZIN A   1      19.231   3.889  14.597  0.00  0.00     0.095 A 
ATOM      2  C8  ZIN A   1      19.358   5.094  13.763  0.00  0.00     0.041 A 
ATOM      3  C9  ZIN A   1      19.364   4.667  12.475  0.00  0.00     0.041 A 
ATOM      4  C10 ZIN A   1      19.247   3.255  12.492  0.00  0.00     0.086 A 
ATOM      5  O20 ZIN A   1      19.174   2.827  13.763  0.00  0.00    -0.308 OA
ENDROOT
BRANCH   1   6
ATOM      6  C6  ZIN A   1      19.183   3.850  15.983  0.00  0.00     0.176 C 
BRANCH   6   7
ATOM      7  N5  ZIN A   1      18.324   3.043  16.597  0.00  0.00    -0.177 NA
BRANCH   7   8
ATOM      8  N4  ZIN A   1      18.699   1.869  16.977  0.00  0.00    -0.209 N 
ATOM      9  C3  ZIN A   1      18.531   0.609  16.234  0.00  0.00     0.261 A 
ATOM     10  C2  ZIN A   1      19.149  -0.429  17.149  0.00  0.00     0.267 A 
ATOM     11  O1  ZIN A   1      19.239  -1.622  16.949  0.00  0.00    -0.269 OA
ATOM     12  N23 ZIN A   1      19.574   0.248  18.234  0.00  0.00    -0.155 NA
ATOM     13  C21 ZIN A   1      19.319   1.558  18.129  0.00  0.00     0.368 A 
ATOM     14  O22 ZIN A   1      19.612   2.373  18.980  0.00  0.00    -0.243 OA
ENDBRANCH   7   8
ENDBRANCH   6   7
ENDBRANCH   1   6
BRANCH   4  15
ATOM     15  C11 ZIN A   1      19.214   2.423  11.345  0.00  0.00    -0.002 A 
ATOM     16  C19 ZIN A   1      18.896   2.964  10.085  0.00  0.00     0.017 A 
ATOM     17  C18 ZIN A   1      18.873   2.150   8.982  0.00  0.00     0.037 A 
ATOM     18  C14 ZIN A   1      19.150   0.798   9.105  0.00  0.00     0.102 A 
ATOM     19  C13 ZIN A   1      19.460   0.252  10.342  0.00  0.00     0.037 A 
ATOM     20  C12 ZIN A   1      19.494   1.047  11.459  0.00  0.00     0.017 A 
BRANCH  18  21
ATOM     21  N15 ZIN A   1      19.116  -0.072   7.907  0.00  0.00    -0.116 N 
ATOM     22  O16 ZIN A   1      19.628  -1.284   7.958  0.00  0.00    -0.532 OA
ATOM     23  O17 ZIN A   1      18.574   0.367   6.790  0.00  0.00    -0.532 OA
ENDBRANCH  18  21
ENDBRANCH   4  15
TORSDOF 5
ENDMDL
