MODEL 1
REMARK VINA RESULT:      -5.7      0.000      0.000
REMARK  0 active torsions:
REMARK  status: ('A' for Active; 'I' for Inactive)
ROOT
ATOM      1  C1  ZIN A   1      19.252   0.240   4.733  0.00  0.00     0.163 C 
ATOM      2  N2  ZIN A   1      19.188  -0.561   5.959  0.00  0.00    -0.287 N 
ATOM      3  C3  ZIN A   1      19.014   0.066   7.171  0.00  0.00     0.148 A 
ATOM      4  C4  ZIN A   1      18.954  -0.702   8.328  0.00  0.00     0.172 A 
ATOM      5  N5  ZIN A   1      18.781   0.147   9.370  0.00  0.00    -0.215 NA
ATOM      6  C6  ZIN A   1      18.731   1.369   8.920  0.00  0.00     0.178 A 
ATOM      7 Br7  ZIN A   1      18.502   2.915   9.983  0.00  0.00    -0.008 Br
ATOM      8  N8  ZIN A   1      18.873   1.360   7.562  0.00  0.00    -0.319 N 
ATOM      9  C9  ZIN A   1      19.080  -2.155   8.204  0.00  0.00     0.284 A 
ATOM     10  O10 ZIN A   1      19.034  -2.870   9.188  0.00  0.00    -0.265 OA
ATOM     11  N11 ZIN A   1      19.249  -2.685   6.973  0.00  0.00    -0.269 N 
ATOM     12  C12 ZIN A   1      19.377  -4.136   6.823  0.00  0.00     0.164 C 
ATOM     13  C13 ZIN A   1      19.295  -1.899   5.884  0.00  0.00     0.332 A 
ATOM     14  O14 ZIN A   1      19.448  -2.416   4.794  0.00  0.00    -0.246 OA
ATOM     15  H18 ZIN A   1      18.873   2.137   6.981  0.00  0.00     0.169 HD
ENDROOT
TORSDOF 0
ENDMDL
MODEL 2
REMARK VINA RESULT:      -5.6      7.080      9.251
REMARK  0 active torsions:
REMARK  status: ('A' for Active; 'I' for Inactive)
ROOT
ATOM      1  C1  ZIN A   1      19.676   4.178  16.641  0.00  0.00     0.163 C 
ATOM      2  N2  ZIN A   1      19.280   2.796  16.358  0.00  0.00    -0.287 N 
ATOM      3  C3  ZIN A   1      18.851   2.456  15.096  0.00  0.00     0.148 A 
ATOM      4  C4  ZIN A   1      18.478   1.143  14.837  0.00  0.00     0.172 A 
ATOM      5  N5  ZIN A   1      18.102   1.077  13.537  0.00  0.00    -0.215 NA
ATOM      6  C6  ZIN A   1      18.224   2.257  12.997  0.00  0.00     0.178 A 
ATOM      7 Br7  ZIN A   1      17.822   2.682  11.199  0.00  0.00    -0.008 Br
ATOM      8  N8  ZIN A   1      18.685   3.140  13.932  0.00  0.00    -0.319 N 
ATOM      9  C9  ZIN A   1      18.558   0.171  15.928  0.00  0.00     0.284 A 
ATOM     10  O10 ZIN A   1      18.242  -0.991  15.751  0.00  0.00    -0.265 OA
ATOM     11  N11 ZIN A   1      18.990   0.593  17.137  0.00  0.00    -0.269 N 
ATOM     12  C12 ZIN A   1      19.078  -0.361  18.245  0.00  0.00     0.164 C 
ATOM     13  C13 ZIN A   1      19.345   1.874  17.334  0.00  0.00     0.332 A 
ATOM     14  O14 ZIN A   1      19.728   2.212  18.438  0.00  0.00    -0.246 OA
ATOM     15  H18 ZIN A   1      18.862   4.082  13.790  0.00  0.00     0.169 HD
ENDROOT
TORSDOF 0
ENDMDL
MODEL 3
REMARK VINA RESULT:      -5.6      2.151      3.363
REMARK  0 active torsions:
REMARK  status: ('A' for Active; 'I' for Inactive)
ROOT
ATOM      1  C1  ZIN A   1      19.540  -4.292   6.596  0.00  0.00     0.163 C 
ATOM      2  N2  ZIN A   1      19.372  -2.858   6.844  0.00  0.00    -0.287 N 
ATOM      3  C3  ZIN A   1      19.265  -2.399   8.137  0.00  0.00     0.148 A 
ATOM      4  C4  ZIN A   1      19.107  -1.038   8.362  0.00  0.00     0.172 A 
ATOM      5  N5  ZIN A   1      19.027  -0.854   9.702  0.00  0.00    -0.215 NA
ATOM      6  C6  ZIN A   1      19.128  -2.010  10.297  0.00  0.00     0.178 A 
ATOM      7 Br7  ZIN A   1      19.074  -2.284  12.167  0.00  0.00    -0.008 Br
ATOM      8  N8  ZIN A   1      19.275  -2.993   9.360  0.00  0.00    -0.319 N 
ATOM      9  C9  ZIN A   1      19.061  -0.143   7.204  0.00  0.00     0.284 A 
ATOM     10  O10 ZIN A   1      18.923   1.058   7.350  0.00  0.00    -0.265 OA
ATOM     11  N11 ZIN A   1      19.174  -0.680   5.969  0.00  0.00    -0.269 N 
ATOM     12  C12 ZIN A   1      19.131   0.194   4.795  0.00  0.00     0.164 C 
ATOM     13  C13 ZIN A   1      19.331  -2.005   5.805  0.00  0.00     0.332 A 
ATOM     14  O14 ZIN A   1      19.429  -2.448   4.677  0.00  0.00    -0.246 OA
ATOM     15  H18 ZIN A   1      19.371  -3.941   9.536  0.00  0.00     0.169 HD
ENDROOT
TORSDOF 0
ENDMDL
MODEL 4
REMARK VINA RESULT:      -5.6      3.528      4.973
REMARK  0 active torsions:
REMARK  status: ('A' for Active; 'I' for Inactive)
ROOT
ATOM      1  C1  ZIN A   1      19.239  -0.870   7.597  0.00  0.00     0.163 C 
ATOM      2  N2  ZIN A   1      18.598  -0.402   8.829  0.00  0.00    -0.287 N 
ATOM      3  C3  ZIN A   1      18.130  -1.319   9.741  0.00  0.00     0.148 A 
ATOM      4  C4  ZIN A   1      17.524  -0.866  10.907  0.00  0.00     0.172 A 
ATOM      5  N5  ZIN A   1      17.158  -1.956  11.624  0.00  0.00    -0.215 NA
ATOM      6  C6  ZIN A   1      17.503  -3.031  10.972  0.00  0.00     0.178 A 
ATOM      7 Br7  ZIN A   1      17.208  -4.804  11.556  0.00  0.00    -0.008 Br
ATOM      8  N8  ZIN A   1      18.107  -2.678   9.799  0.00  0.00    -0.319 N 
ATOM      9  C9  ZIN A   1      17.411   0.578  11.114  0.00  0.00     0.284 A 
ATOM     10  O10 ZIN A   1      16.888   1.024  12.119  0.00  0.00    -0.265 OA
ATOM     11  N11 ZIN A   1      17.898   1.406  10.164  0.00  0.00    -0.269 N 
ATOM     12  C12 ZIN A   1      17.795   2.855  10.348  0.00  0.00     0.164 C 
ATOM     13  C13 ZIN A   1      18.480   0.918   9.056  0.00  0.00     0.332 A 
ATOM     14  O14 ZIN A   1      18.906   1.697   8.225  0.00  0.00    -0.246 OA
ATOM     15  H18 ZIN A   1      18.456  -3.286   9.130  0.00  0.00     0.169 HD
ENDROOT
TORSDOF 0
ENDMDL
MODEL 5
REMARK VINA RESULT:      -5.4      7.325      9.752
REMARK  0 active torsions:
REMARK  status: ('A' for Active; 'I' for Inactive)
ROOT
ATOM      1  C1  ZIN A   1      19.263  -0.508  18.005  0.00  0.00     0.163 C 
ATOM      2  N2  ZIN A   1      19.150   0.530  16.978  0.00  0.00    -0.287 N 
ATOM      3  C3  ZIN A   1      18.882   0.173  15.677  0.00  0.00     0.148 A 
ATOM      4  C4  ZIN A   1      18.776   1.165  14.709  0.00  0.00     0.172 A 
ATOM      5  N5  ZIN A   1      18.511   0.554  13.529  0.00  0.00    -0.215 NA
ATOM      6  C6  ZIN A   1      18.449  -0.733  13.720  0.00  0.00     0.178 A 
ATOM      7 Br7  ZIN A   1      18.104  -2.021  12.379  0.00  0.00    -0.008 Br
ATOM      8  N8  ZIN A   1      18.675  -1.010  15.038  0.00  0.00    -0.319 N 
ATOM      9  C9  ZIN A   1      18.957   2.558  15.121  0.00  0.00     0.284 A 
ATOM     10  O10 ZIN A   1      18.875   3.462  14.310  0.00  0.00    -0.265 OA
ATOM     11  N11 ZIN A   1      19.218   2.817  16.421  0.00  0.00    -0.269 N 
ATOM     12  C12 ZIN A   1      19.404   4.203  16.857  0.00  0.00     0.164 C 
ATOM     13  C13 ZIN A   1      19.305   1.822  17.319  0.00  0.00     0.332 A 
ATOM     14  O14 ZIN A   1      19.542   2.098  18.480  0.00  0.00    -0.246 OA
ATOM     15  H18 ZIN A   1      18.684  -1.890  15.445  0.00  0.00     0.169 HD
ENDROOT
TORSDOF 0
ENDMDL
MODEL 6
REMARK VINA RESULT:      -5.4      2.650      3.467
REMARK  0 active torsions:
REMARK  status: ('A' for Active; 'I' for Inactive)
ROOT
ATOM      1  C1  ZIN A   1      19.262   1.396   7.696  0.00  0.00     0.163 C 
ATOM      2  N2  ZIN A   1      18.642   0.801   8.883  0.00  0.00    -0.287 N 
ATOM      3  C3  ZIN A   1      18.122   1.618   9.860  0.00  0.00     0.148 A 
ATOM      4  C4  ZIN A   1      17.536   1.044  10.982  0.00  0.00     0.172 A 
ATOM      5  N5  ZIN A   1      17.109   2.053  11.778  0.00  0.00    -0.215 NA
ATOM      6  C6  ZIN A   1      17.397   3.192  11.214  0.00  0.00     0.178 A 
ATOM      7 Br7  ZIN A   1      17.007   4.897  11.932  0.00  0.00    -0.008 Br
ATOM      8  N8  ZIN A   1      18.026   2.964  10.023  0.00  0.00    -0.319 N 
ATOM      9  C9  ZIN A   1      17.497  -0.417  11.074  0.00  0.00     0.284 A 
ATOM     10  O10 ZIN A   1      16.994  -0.966  12.037  0.00  0.00    -0.265 OA
ATOM     11  N11 ZIN A   1      18.033  -1.141  10.067  0.00  0.00    -0.269 N 
ATOM     12  C12 ZIN A   1      18.007  -2.603  10.137  0.00  0.00     0.164 C 
ATOM     13  C13 ZIN A   1      18.584  -0.537   9.001  0.00  0.00     0.332 A 
ATOM     14  O14 ZIN A   1      19.055  -1.226   8.116  0.00  0.00    -0.246 OA
ATOM     15  H18 ZIN A   1      18.346   3.641   9.406  0.00  0.00     0.169 HD
ENDROOT
TORSDOF 0
ENDMDL
MODEL 7
REMARK VINA RESULT:      -5.4      6.296      7.853
REMARK  0 active torsions:
REMARK  status: ('A' for Active; 'I' for Inactive)
ROOT
ATOM      1  C1  ZIN A   1      16.936  -0.065  12.175  0.00  0.00     0.163 C 
ATOM      2  N2  ZIN A   1      17.568   1.124  12.753  0.00  0.00    -0.287 N 
ATOM      3  C3  ZIN A   1      18.042   1.081  14.044  0.00  0.00     0.148 A 
ATOM      4  C4  ZIN A   1      18.640   2.214  14.584  0.00  0.00     0.172 A 
ATOM      5  N5  ZIN A   1      19.015   1.910  15.850  0.00  0.00    -0.215 NA
ATOM      6  C6  ZIN A   1      18.685   0.676  16.108  0.00  0.00     0.178 A 
ATOM      7 Br7  ZIN A   1      18.994  -0.217  17.745  0.00  0.00    -0.008 Br
ATOM      8  N8  ZIN A   1      18.078   0.129  15.014  0.00  0.00    -0.319 N 
ATOM      9  C9  ZIN A   1      18.740   3.411  13.748  0.00  0.00     0.284 A 
ATOM     10  O10 ZIN A   1      19.255   4.428  14.176  0.00  0.00    -0.265 OA
ATOM     11  N11 ZIN A   1      18.246   3.363  12.491  0.00  0.00    -0.269 N 
ATOM     12  C12 ZIN A   1      18.333   4.549  11.636  0.00  0.00     0.164 C 
ATOM     13  C13 ZIN A   1      17.682   2.241  12.014  0.00  0.00     0.332 A 
ATOM     14  O14 ZIN A   1      17.250   2.240  10.877  0.00  0.00    -0.246 OA
ATOM     15  H18 ZIN A   1      17.737  -0.776  14.942  0.00  0.00     0.169 HD
ENDROOT
TORSDOF 0
ENDMDL
MODEL 8
REMARK VINA RESULT:      -5.3      1.770      3.253
REMARK  0 active torsions:
REMARK  status: ('A' for Active; 'I' for Inactive)
ROOT
ATOM      1  C1  ZIN A   1      19.257  -1.985  10.506  0.00  0.00     0.163 C 
ATOM      2  N2  ZIN A   1      19.172  -1.034   9.395  0.00  0.00    -0.287 N 
ATOM      3  C3  ZIN A   1      19.086   0.314   9.659  0.00  0.00     0.148 A 
ATOM      4  C4  ZIN A   1      19.007   1.208   8.598  0.00  0.00     0.172 A 
ATOM      5  N5  ZIN A   1      18.932   2.455   9.123  0.00  0.00    -0.215 NA
ATOM      6  C6  ZIN A   1      18.961   2.372  10.424  0.00  0.00     0.178 A 
ATOM      7 Br7  ZIN A   1      18.882   3.839  11.614  0.00  0.00    -0.008 Br
ATOM      8  N8  ZIN A   1      19.055   1.061  10.795  0.00  0.00    -0.319 N 
ATOM      9  C9  ZIN A   1      19.020   0.673   7.236  0.00  0.00     0.284 A 
ATOM     10  O10 ZIN A   1      18.953   1.416   6.274  0.00  0.00    -0.265 OA
ATOM     11  N11 ZIN A   1      19.107  -0.665   7.070  0.00  0.00    -0.269 N 
ATOM     12  C12 ZIN A   1      19.121  -1.225   5.717  0.00  0.00     0.164 C 
ATOM     13  C13 ZIN A   1      19.186  -1.488   8.130  0.00  0.00     0.332 A 
ATOM     14  O14 ZIN A   1      19.263  -2.686   7.937  0.00  0.00    -0.246 OA
ATOM     15  H18 ZIN A   1      19.094   0.725  11.703  0.00  0.00     0.169 HD
ENDROOT
TORSDOF 0
ENDMDL
MODEL 9
REMARK VINA RESULT:      -5.3      3.497      5.530
REMARK  0 active torsions:
REMARK  status: ('A' for Active; 'I' for Inactive)
ROOT
ATOM      1  C1  ZIN A   1      20.242  -1.290  11.090  0.00  0.00     0.163 C 
ATOM      2  N2  ZIN A   1      19.755   0.012  10.626  0.00  0.00    -0.287 N 
ATOM      3  C3  ZIN A   1      19.457   0.191   9.295  0.00  0.00     0.148 A 
ATOM      4  C4  ZIN A   1      18.996   1.429   8.865  0.00  0.00     0.172 A 
ATOM      5  N5  ZIN A   1      18.780   1.340   7.530  0.00  0.00    -0.215 NA
ATOM      6  C6  ZIN A   1      19.078   0.137   7.130  0.00  0.00     0.178 A 
ATOM      7 Br7  ZIN A   1      18.947  -0.486   5.349  0.00  0.00    -0.008 Br
ATOM      8  N8  ZIN A   1      19.503  -0.606   8.194  0.00  0.00    -0.319 N 
ATOM      9  C9  ZIN A   1      18.846   2.497   9.855  0.00  0.00     0.284 A 
ATOM     10  O10 ZIN A   1      18.445   3.598   9.526  0.00  0.00    -0.265 OA
ATOM     11  N11 ZIN A   1      19.162   2.232  11.141  0.00  0.00    -0.269 N 
ATOM     12  C12 ZIN A   1      19.021   3.284  12.150  0.00  0.00     0.164 C 
ATOM     13  C13 ZIN A   1      19.600   1.016  11.508  0.00  0.00     0.332 A 
ATOM     14  O14 ZIN A   1      19.874   0.819  12.676  0.00  0.00    -0.246 OA
ATOM     15  H18 ZIN A   1      19.785  -1.533   8.169  0.00  0.00     0.169 HD
ENDROOT
TORSDOF 0
ENDMDL
