MODEL 1
REMARK VINA RESULT:      -8.5      0.000      0.000
REMARK  10 active torsions:
REMARK  status: ('A' for Active; 'I' for Inactive)
REMARK    1  A    between atoms: C6_6  and  N7_7 
REMARK    2  A    between atoms: C13_13  and  C15_14 
REMARK    3  A    between atoms: C15_14  and  N16_15 
REMARK    4  A    between atoms: N16_15  and  C17_16 
REMARK    5  A    between atoms: C20_19  and  C21_20 
REMARK       I    between atoms: C21_20  and  N23_22 
REMARK    6  A    between atoms: N23_22  and  C24_23 
REMARK    7  A    between atoms: C24_23  and  C26_24 
REMARK    8  A    between atoms: C24_23  and  C31_29 
REMARK    9  A    between atoms: C26_24  and  C27_25 
REMARK   10  A    between atoms: C27_25  and  C28_26 
ROOT
ATOM      1  C17 RES d   1      19.238   2.266  10.432  0.00  0.00     0.028 A 
ATOM      2  C18 RES d   1      19.830   1.411  11.359  0.00  0.00     0.030 A 
ATOM      3  C19 RES d   1      19.500   1.504  12.692  0.00  0.00     0.019 A 
ATOM      4  C20 RES d   1      18.570   2.459  13.115  0.00  0.00     0.032 A 
ATOM      5  C34 RES d   1      17.978   3.315  12.182  0.00  0.00     0.019 A 
ATOM      6  C35 RES d   1      18.316   3.221  10.852  0.00  0.00     0.030 A 
ENDROOT
BRANCH   1   7
ATOM      7  N16 RES d   1      19.574   2.169   9.086  0.00  0.00    -0.388 N 
ATOM      8  H46 RES d   1      19.747   2.972   8.571  0.00  0.00     0.159 HD
BRANCH   7   9
ATOM      9  C15 RES d   1      19.667   0.854   8.448  0.00  0.00     0.146 C 
BRANCH   9  10
ATOM     10  C13 RES d   1      18.259   0.311   8.191  0.00  0.00     0.119 C 
ATOM     11  N2  RES d   1      18.102  -0.982   8.878  0.00  0.00    -0.370 N 
ATOM     12  C1  RES d   1      17.323  -1.083  10.115  0.00  0.00     0.150 C 
ATOM     13  C3  RES d   1      18.713  -2.123   8.314  0.00  0.00     0.148 A 
ATOM     14  C9  RES d   1      18.880  -3.291   9.065  0.00  0.00     0.314 A 
ATOM     15  C4  RES d   1      19.157  -2.096   6.999  0.00  0.00     0.175 A 
ATOM     16  N8  RES d   1      19.469  -4.356   8.478  0.00  0.00    -0.020 NA
ATOM     17  O10 RES d   1      18.501  -3.347  10.225  0.00  0.00    -0.263 OA
ATOM     18  C6  RES d   1      19.885  -4.281   7.185  0.00  0.00     0.725 A 
ATOM     19  N5  RES d   1      19.731  -3.185   6.473  0.00  0.00    -0.043 NA
ATOM     20  N11 RES d   1      19.005  -0.945   6.243  0.00  0.00    -0.370 N 
ATOM     21  C12 RES d   1      18.057   0.085   6.691  0.00  0.00     0.148 C 
ATOM     22  H41 RES d   1      19.519  -0.820   5.429  0.00  0.00     0.161 HD
BRANCH  18  23
ATOM     23  N7  RES d   1      20.479  -5.375   6.609  0.00  0.00    -0.231 N 
ATOM     24  H39 RES d   1      20.321  -5.576   5.672  0.00  0.00     0.174 HD
ATOM     25  H40 RES d   1      21.058  -5.947   7.137  0.00  0.00     0.174 HD
ENDBRANCH  18  23
ENDBRANCH   9  10
ENDBRANCH   7   9
ENDBRANCH   1   7
BRANCH   4  26
ATOM     26  C21 RES d   1      18.215   2.562  14.543  0.00  0.00     0.252 C 
ATOM     27  O22 RES d   1      17.658   3.559  14.961  0.00  0.00    -0.268 OA
ATOM     28  N23 RES d   1      18.507   1.550  15.385  0.00  0.00    -0.342 N 
ATOM     29  H49 RES d   1      18.952   0.755  15.051  0.00  0.00     0.163 HD
BRANCH  28  30
ATOM     30  C24 RES d   1      18.155   1.652  16.803  0.00  0.00     0.186 C 
BRANCH  30  31
ATOM     31  C26 RES d   1      17.614   0.307  17.292  0.00  0.00     0.046 C 
BRANCH  31  32
ATOM     32  C27 RES d   1      17.593  -0.688  16.130  0.00  0.00     0.116 C 
BRANCH  32  33
ATOM     33  C28 RES d   1      18.937  -1.358  16.016  0.00  0.00     0.172 C 
ATOM     34  O29 RES d   1      19.472  -1.824  17.008  0.00  0.00    -0.648 OA
ATOM     35  O30 RES d   1      19.491  -1.434  14.933  0.00  0.00    -0.648 OA
ENDBRANCH  32  33
ENDBRANCH  31  32
ENDBRANCH  30  31
BRANCH  30  36
ATOM     36  C31 RES d   1      19.380   2.020  17.600  0.00  0.00     0.196 C 
ATOM     37  O32 RES d   1      19.847   1.228  18.401  0.00  0.00    -0.646 OA
ATOM     38  O33 RES d   1      19.904   3.110  17.444  0.00  0.00    -0.646 OA
ENDBRANCH  30  36
ENDBRANCH  28  30
ENDBRANCH   4  26
TORSDOF 10
ENDMDL
MODEL 2
REMARK VINA RESULT:      -8.4      1.791      2.609
REMARK  10 active torsions:
REMARK  status: ('A' for Active; 'I' for Inactive)
REMARK    1  A    between atoms: C6_6  and  N7_7 
REMARK    2  A    between atoms: C13_13  and  C15_14 
REMARK    3  A    between atoms: C15_14  and  N16_15 
REMARK    4  A    between atoms: N16_15  and  C17_16 
REMARK    5  A    between atoms: C20_19  and  C21_20 
REMARK       I    between atoms: C21_20  and  N23_22 
REMARK    6  A    between atoms: N23_22  and  C24_23 
REMARK    7  A    between atoms: C24_23  and  C26_24 
REMARK    8  A    between atoms: C24_23  and  C31_29 
REMARK    9  A    between atoms: C26_24  and  C27_25 
REMARK   10  A    between atoms: C27_25  and  C28_26 
ROOT
ATOM      1  C17 RES d   1      18.989   2.645   9.695  0.00  0.00     0.028 A 
ATOM      2  C18 RES d   1      18.111   3.708   9.894  0.00  0.00     0.030 A 
ATOM      3  C19 RES d   1      17.912   4.210  11.159  0.00  0.00     0.019 A 
ATOM      4  C20 RES d   1      18.592   3.652  12.246  0.00  0.00     0.032 A 
ATOM      5  C34 RES d   1      19.473   2.586  12.043  0.00  0.00     0.019 A 
ATOM      6  C35 RES d   1      19.664   2.085  10.776  0.00  0.00     0.030 A 
ENDROOT
BRANCH   1   7
ATOM      7  N16 RES d   1      19.188   2.141   8.414  0.00  0.00    -0.388 N 
ATOM      8  H46 RES d   1      19.375   2.746   7.680  0.00  0.00     0.159 HD
BRANCH   7   9
ATOM      9  C15 RES d   1      19.117   0.699   8.176  0.00  0.00     0.146 C 
BRANCH   9  10
ATOM     10  C13 RES d   1      17.663   0.235   8.283  0.00  0.00     0.119 C 
ATOM     11  N2  RES d   1      17.516  -0.650   9.451  0.00  0.00    -0.370 N 
ATOM     12  C1  RES d   1      16.880  -0.169  10.680  0.00  0.00     0.150 C 
ATOM     13  C3  RES d   1      17.998  -1.974   9.357  0.00  0.00     0.148 A 
ATOM     14  C9  RES d   1      18.188  -2.751  10.505  0.00  0.00     0.314 A 
ATOM     15  C4  RES d   1      18.289  -2.523   8.116  0.00  0.00     0.175 A 
ATOM     16  N8  RES d   1      18.648  -4.012  10.361  0.00  0.00    -0.020 NA
ATOM     17  O10 RES d   1      17.942  -2.297  11.613  0.00  0.00    -0.263 OA
ATOM     18  C6  RES d   1      18.917  -4.506   9.122  0.00  0.00     0.725 A 
ATOM     19  N5  RES d   1      18.740  -3.780   8.038  0.00  0.00    -0.043 NA
ATOM     20  N11 RES d   1      18.113  -1.765   6.968  0.00  0.00    -0.370 N 
ATOM     21  C12 RES d   1      17.278  -0.557   7.030  0.00  0.00     0.148 C 
ATOM     22  H41 RES d   1      18.536  -2.029   6.136  0.00  0.00     0.161 HD
BRANCH  18  23
ATOM     23  N7  RES d   1      19.382  -5.790   9.000  0.00  0.00    -0.231 N 
ATOM     24  H39 RES d   1      19.379  -6.382   9.769  0.00  0.00     0.174 HD
ATOM     25  H40 RES d   1      19.713  -6.107   8.145  0.00  0.00     0.174 HD
ENDBRANCH  18  23
ENDBRANCH   9  10
ENDBRANCH   7   9
ENDBRANCH   1   7
BRANCH   4  26
ATOM     26  C21 RES d   1      18.380   4.188  13.604  0.00  0.00     0.252 C 
ATOM     27  O22 RES d   1      17.351   4.779  13.871  0.00  0.00    -0.268 OA
ATOM     28  N23 RES d   1      19.326   4.022  14.550  0.00  0.00    -0.342 N 
ATOM     29  H49 RES d   1      20.146   3.550  14.336  0.00  0.00     0.163 HD
BRANCH  28  30
ATOM     30  C24 RES d   1      19.116   4.553  15.898  0.00  0.00     0.186 C 
BRANCH  30  31
ATOM     31  C26 RES d   1      19.642   3.553  16.929  0.00  0.00     0.046 C 
BRANCH  31  32
ATOM     32  C27 RES d   1      19.158   2.147  16.568  0.00  0.00     0.116 C 
BRANCH  32  33
ATOM     33  C28 RES d   1      18.964   1.343  17.828  0.00  0.00     0.172 C 
ATOM     34  O29 RES d   1      17.869   0.871  18.087  0.00  0.00    -0.648 OA
ATOM     35  O30 RES d   1      19.899   1.164  18.588  0.00  0.00    -0.648 OA
ENDBRANCH  32  33
ENDBRANCH  31  32
ENDBRANCH  30  31
BRANCH  30  36
ATOM     36  C31 RES d   1      19.854   5.859  16.044  0.00  0.00     0.196 C 
ATOM     37  O32 RES d   1      19.253   6.864  16.386  0.00  0.00    -0.646 OA
ATOM     38  O33 RES d   1      21.052   5.911  15.822  0.00  0.00    -0.646 OA
ENDBRANCH  30  36
ENDBRANCH  28  30
ENDBRANCH   4  26
TORSDOF 10
ENDMDL
MODEL 3
REMARK VINA RESULT:      -8.4      1.571      2.309
REMARK  10 active torsions:
REMARK  status: ('A' for Active; 'I' for Inactive)
REMARK    1  A    between atoms: C6_6  and  N7_7 
REMARK    2  A    between atoms: C13_13  and  C15_14 
REMARK    3  A    between atoms: C15_14  and  N16_15 
REMARK    4  A    between atoms: N16_15  and  C17_16 
REMARK    5  A    between atoms: C20_19  and  C21_20 
REMARK       I    between atoms: C21_20  and  N23_22 
REMARK    6  A    between atoms: N23_22  and  C24_23 
REMARK    7  A    between atoms: C24_23  and  C26_24 
REMARK    8  A    between atoms: C24_23  and  C31_29 
REMARK    9  A    between atoms: C26_24  and  C27_25 
REMARK   10  A    between atoms: C27_25  and  C28_26 
ROOT
ATOM      1  C17 RES d   1      18.987   2.577   9.662  0.00  0.00     0.028 A 
ATOM      2  C18 RES d   1      18.037   3.571   9.888  0.00  0.00     0.030 A 
ATOM      3  C19 RES d   1      17.831   4.051  11.161  0.00  0.00     0.019 A 
ATOM      4  C20 RES d   1      18.575   3.539  12.228  0.00  0.00     0.032 A 
ATOM      5  C34 RES d   1      19.528   2.542  11.998  0.00  0.00     0.019 A 
ATOM      6  C35 RES d   1      19.725   2.062  10.724  0.00  0.00     0.030 A 
ENDROOT
BRANCH   1   7
ATOM      7  N16 RES d   1      19.193   2.095   8.374  0.00  0.00    -0.388 N 
ATOM      8  H46 RES d   1      19.320   2.716   7.640  0.00  0.00     0.159 HD
BRANCH   7   9
ATOM      9  C15 RES d   1      19.219   0.652   8.127  0.00  0.00     0.146 C 
BRANCH   9  10
ATOM     10  C13 RES d   1      17.837   0.060   8.414  0.00  0.00     0.119 C 
ATOM     11  N2  RES d   1      17.990  -1.190   9.176  0.00  0.00    -0.370 N 
ATOM     12  C1  RES d   1      17.704  -1.233  10.613  0.00  0.00     0.150 C 
ATOM     13  C3  RES d   1      18.414  -2.349   8.490  0.00  0.00     0.148 A 
ATOM     14  C9  RES d   1      18.888  -3.464   9.190  0.00  0.00     0.314 A 
ATOM     15  C4  RES d   1      18.364  -2.395   7.104  0.00  0.00     0.175 A 
ATOM     16  N8  RES d   1      19.278  -4.549   8.488  0.00  0.00    -0.020 NA
ATOM     17  O10 RES d   1      18.945  -3.456  10.411  0.00  0.00    -0.263 OA
ATOM     18  C6  RES d   1      19.208  -4.546   7.129  0.00  0.00     0.725 A 
ATOM     19  N5  RES d   1      18.763  -3.501   6.464  0.00  0.00    -0.043 NA
ATOM     20  N11 RES d   1      17.903  -1.298   6.394  0.00  0.00    -0.370 N 
ATOM     21  C12 RES d   1      17.129  -0.265   7.097  0.00  0.00     0.148 C 
ATOM     22  H41 RES d   1      18.091  -1.212   5.445  0.00  0.00     0.161 HD
BRANCH  18  23
ATOM     23  N7  RES d   1      19.609  -5.660   6.435  0.00  0.00    -0.231 N 
ATOM     24  H39 RES d   1      18.948  -6.225   6.003  0.00  0.00     0.174 HD
ATOM     25  H40 RES d   1      20.551  -5.881   6.376  0.00  0.00     0.174 HD
ENDBRANCH  18  23
ENDBRANCH   9  10
ENDBRANCH   7   9
ENDBRANCH   1   7
BRANCH   4  26
ATOM     26  C21 RES d   1      18.355   4.051  13.594  0.00  0.00     0.252 C 
ATOM     27  O22 RES d   1      17.281   4.533  13.898  0.00  0.00    -0.268 OA
ATOM     28  N23 RES d   1      19.346   3.984  14.506  0.00  0.00    -0.342 N 
ATOM     29  H49 RES d   1      20.202   3.600  14.264  0.00  0.00     0.163 HD
BRANCH  28  30
ATOM     30  C24 RES d   1      19.128   4.492  15.863  0.00  0.00     0.186 C 
BRANCH  30  31
ATOM     31  C26 RES d   1      19.617   3.459  16.879  0.00  0.00     0.046 C 
BRANCH  31  32
ATOM     32  C27 RES d   1      18.576   2.346  17.017  0.00  0.00     0.116 C 
BRANCH  32  33
ATOM     33  C28 RES d   1      19.238   1.100  17.544  0.00  0.00     0.172 C 
ATOM     34  O29 RES d   1      19.913   1.151  18.559  0.00  0.00    -0.648 OA
ATOM     35  O30 RES d   1      19.100   0.040  16.958  0.00  0.00    -0.648 OA
ENDBRANCH  32  33
ENDBRANCH  31  32
ENDBRANCH  30  31
BRANCH  30  36
ATOM     36  C31 RES d   1      19.892   5.778  16.046  0.00  0.00     0.196 C 
ATOM     37  O32 RES d   1      19.328   6.765  16.487  0.00  0.00    -0.646 OA
ATOM     38  O33 RES d   1      21.075   5.831  15.755  0.00  0.00    -0.646 OA
ENDBRANCH  30  36
ENDBRANCH  28  30
ENDBRANCH   4  26
TORSDOF 10
ENDMDL
MODEL 4
REMARK VINA RESULT:      -8.3      2.576      8.736
REMARK  10 active torsions:
REMARK  status: ('A' for Active; 'I' for Inactive)
REMARK    1  A    between atoms: C6_6  and  N7_7 
REMARK    2  A    between atoms: C13_13  and  C15_14 
REMARK    3  A    between atoms: C15_14  and  N16_15 
REMARK    4  A    between atoms: N16_15  and  C17_16 
REMARK    5  A    between atoms: C20_19  and  C21_20 
REMARK       I    between atoms: C21_20  and  N23_22 
REMARK    6  A    between atoms: N23_22  and  C24_23 
REMARK    7  A    between atoms: C24_23  and  C26_24 
REMARK    8  A    between atoms: C24_23  and  C31_29 
REMARK    9  A    between atoms: C26_24  and  C27_25 
REMARK   10  A    between atoms: C27_25  and  C28_26 
ROOT
ATOM      1  C17 RES d   1      18.206   1.515   9.161  0.00  0.00     0.028 A 
ATOM      2  C18 RES d   1      19.040   1.753   8.070  0.00  0.00     0.030 A 
ATOM      3  C19 RES d   1      19.263   0.762   7.143  0.00  0.00     0.019 A 
ATOM      4  C20 RES d   1      18.652  -0.487   7.297  0.00  0.00     0.032 A 
ATOM      5  C34 RES d   1      17.815  -0.723   8.392  0.00  0.00     0.019 A 
ATOM      6  C35 RES d   1      17.601   0.271   9.318  0.00  0.00     0.030 A 
ENDROOT
BRANCH   1   7
ATOM      7  N16 RES d   1      17.982   2.521  10.095  0.00  0.00    -0.388 N 
ATOM      8  H46 RES d   1      17.979   3.449   9.815  0.00  0.00     0.159 HD
BRANCH   7   9
ATOM      9  C15 RES d   1      17.752   2.177  11.499  0.00  0.00     0.146 C 
BRANCH   9  10
ATOM     10  C13 RES d   1      19.046   2.375  12.292  0.00  0.00     0.119 C 
ATOM     11  N2  RES d   1      19.537   1.068  12.761  0.00  0.00    -0.370 N 
ATOM     12  C1  RES d   1      20.679   0.420  12.111  0.00  0.00     0.150 C 
ATOM     13  C3  RES d   1      18.886   0.457  13.854  0.00  0.00     0.148 A 
ATOM     14  C9  RES d   1      19.080  -0.899  14.138  0.00  0.00     0.314 A 
ATOM     15  C4  RES d   1      18.041   1.202  14.667  0.00  0.00     0.175 A 
ATOM     16  N8  RES d   1      18.436  -1.435  15.197  0.00  0.00    -0.020 NA
ATOM     17  O10 RES d   1      19.816  -1.583  13.442  0.00  0.00    -0.263 OA
ATOM     18  C6  RES d   1      17.620  -0.663  15.964  0.00  0.00     0.725 A 
ATOM     19  N5  RES d   1      17.433   0.614  15.703  0.00  0.00    -0.043 NA
ATOM     20  N11 RES d   1      17.833   2.545  14.397  0.00  0.00    -0.370 N 
ATOM     21  C12 RES d   1      18.774   3.252  13.517  0.00  0.00     0.148 C 
ATOM     22  H41 RES d   1      17.075   3.012  14.784  0.00  0.00     0.161 HD
BRANCH  18  23
ATOM     23  N7  RES d   1      16.977  -1.228  17.036  0.00  0.00    -0.231 N 
ATOM     24  H39 RES d   1      16.789  -0.695  17.825  0.00  0.00     0.174 HD
ATOM     25  H40 RES d   1      16.711  -2.160  17.005  0.00  0.00     0.174 HD
ENDBRANCH  18  23
ENDBRANCH   9  10
ENDBRANCH   7   9
ENDBRANCH   1   7
BRANCH   4  26
ATOM     26  C21 RES d   1      18.890  -1.553   6.305  0.00  0.00     0.252 C 
ATOM     27  O22 RES d   1      19.673  -1.371   5.393  0.00  0.00    -0.268 OA
ATOM     28  N23 RES d   1      18.239  -2.729   6.410  0.00  0.00    -0.342 N 
ATOM     29  H49 RES d   1      17.614  -2.873   7.138  0.00  0.00     0.163 HD
BRANCH  28  30
ATOM     30  C24 RES d   1      18.474  -3.787   5.426  0.00  0.00     0.186 C 
BRANCH  30  31
ATOM     31  C26 RES d   1      18.721  -5.111   6.150  0.00  0.00     0.046 C 
BRANCH  31  32
ATOM     32  C27 RES d   1      20.037  -5.032   6.926  0.00  0.00     0.116 C 
BRANCH  32  33
ATOM     33  C28 RES d   1      19.769  -5.240   8.394  0.00  0.00     0.172 C 
ATOM     34  O29 RES d   1      19.386  -4.308   9.082  0.00  0.00    -0.648 OA
ATOM     35  O30 RES d   1      19.936  -6.338   8.895  0.00  0.00    -0.648 OA
ENDBRANCH  32  33
ENDBRANCH  31  32
ENDBRANCH  30  31
BRANCH  30  36
ATOM     36  C31 RES d   1      17.268  -3.920   4.532  0.00  0.00     0.196 C 
ATOM     37  O32 RES d   1      17.000  -3.037   3.736  0.00  0.00    -0.646 OA
ATOM     38  O33 RES d   1      16.561  -4.911   4.606  0.00  0.00    -0.646 OA
ENDBRANCH  30  36
ENDBRANCH  28  30
ENDBRANCH   4  26
TORSDOF 10
ENDMDL
MODEL 5
REMARK VINA RESULT:      -8.2      2.843      5.680
REMARK  10 active torsions:
REMARK  status: ('A' for Active; 'I' for Inactive)
REMARK    1  A    between atoms: C6_6  and  N7_7 
REMARK    2  A    between atoms: C13_13  and  C15_14 
REMARK    3  A    between atoms: C15_14  and  N16_15 
REMARK    4  A    between atoms: N16_15  and  C17_16 
REMARK    5  A    between atoms: C20_19  and  C21_20 
REMARK       I    between atoms: C21_20  and  N23_22 
REMARK    6  A    between atoms: N23_22  and  C24_23 
REMARK    7  A    between atoms: C24_23  and  C26_24 
REMARK    8  A    between atoms: C24_23  and  C31_29 
REMARK    9  A    between atoms: C26_24  and  C27_25 
REMARK   10  A    between atoms: C27_25  and  C28_26 
ROOT
ATOM      1  C17 RES d   1      18.960  -0.561  14.688  0.00  0.00     0.028 A 
ATOM      2  C18 RES d   1      19.421   0.741  14.502  0.00  0.00     0.030 A 
ATOM      3  C19 RES d   1      19.346   1.652  15.529  0.00  0.00     0.019 A 
ATOM      4  C20 RES d   1      18.806   1.271  16.762  0.00  0.00     0.032 A 
ATOM      5  C34 RES d   1      18.344  -0.036  16.946  0.00  0.00     0.019 A 
ATOM      6  C35 RES d   1      18.417  -0.941  15.912  0.00  0.00     0.030 A 
ENDROOT
BRANCH   1   7
ATOM      7  N16 RES d   1      19.038  -1.479  13.647  0.00  0.00    -0.388 N 
ATOM      8  H46 RES d   1      18.724  -2.388  13.779  0.00  0.00     0.159 HD
BRANCH   7   9
ATOM      9  C15 RES d   1      19.593  -1.076  12.354  0.00  0.00     0.146 C 
BRANCH   9  10
ATOM     10  C13 RES d   1      18.573  -1.363  11.249  0.00  0.00     0.119 C 
ATOM     11  N2  RES d   1      18.837  -0.482  10.099  0.00  0.00    -0.370 N 
ATOM     12  C1  RES d   1      19.478  -1.002   8.888  0.00  0.00     0.150 C 
ATOM     13  C3  RES d   1      18.454   0.874  10.188  0.00  0.00     0.148 A 
ATOM     14  C9  RES d   1      18.957   1.822   9.290  0.00  0.00     0.314 A 
ATOM     15  C4  RES d   1      17.566   1.284  11.174  0.00  0.00     0.175 A 
ATOM     16  N8  RES d   1      18.557   3.105   9.415  0.00  0.00    -0.020 NA
ATOM     17  O10 RES d   1      19.740   1.494   8.411  0.00  0.00    -0.263 OA
ATOM     18  C6  RES d   1      17.683   3.457  10.398  0.00  0.00     0.725 A 
ATOM     19  N5  RES d   1      17.206   2.570  11.246  0.00  0.00    -0.043 NA
ATOM     20  N11 RES d   1      17.063   0.359  12.076  0.00  0.00    -0.370 N 
ATOM     21  C12 RES d   1      17.160  -1.073  11.761  0.00  0.00     0.148 C 
ATOM     22  H41 RES d   1      16.653   0.655  12.904  0.00  0.00     0.161 HD
BRANCH  18  23
ATOM     23  N7  RES d   1      17.289   4.766  10.506  0.00  0.00    -0.231 N 
ATOM     24  H39 RES d   1      17.088   5.141  11.378  0.00  0.00     0.174 HD
ATOM     25  H40 RES d   1      17.213   5.317   9.712  0.00  0.00     0.174 HD
ENDBRANCH  18  23
ENDBRANCH   9  10
ENDBRANCH   7   9
ENDBRANCH   1   7
BRANCH   4  26
ATOM     26  C21 RES d   1      18.723   2.247  17.865  0.00  0.00     0.252 C 
ATOM     27  O22 RES d   1      19.492   2.169  18.804  0.00  0.00    -0.268 OA
ATOM     28  N23 RES d   1      17.795   3.224  17.833  0.00  0.00    -0.342 N 
ATOM     29  H49 RES d   1      17.182   3.285  17.084  0.00  0.00     0.163 HD
BRANCH  28  30
ATOM     30  C24 RES d   1      17.712   4.192  18.928  0.00  0.00     0.186 C 
BRANCH  30  31
ATOM     31  C26 RES d   1      17.753   5.611  18.359  0.00  0.00     0.046 C 
BRANCH  31  32
ATOM     32  C27 RES d   1      17.711   5.550  16.831  0.00  0.00     0.116 C 
BRANCH  32  33
ATOM     33  C28 RES d   1      19.066   5.903  16.275  0.00  0.00     0.172 C 
ATOM     34  O29 RES d   1      19.953   5.066  16.253  0.00  0.00    -0.648 OA
ATOM     35  O30 RES d   1      19.277   7.025  15.849  0.00  0.00    -0.648 OA
ENDBRANCH  32  33
ENDBRANCH  31  32
ENDBRANCH  30  31
BRANCH  30  36
ATOM     36  C31 RES d   1      16.423   3.990  19.682  0.00  0.00     0.196 C 
ATOM     37  O32 RES d   1      15.398   4.524  19.291  0.00  0.00    -0.646 OA
ATOM     38  O33 RES d   1      16.404   3.293  20.682  0.00  0.00    -0.646 OA
ENDBRANCH  30  36
ENDBRANCH  28  30
ENDBRANCH   4  26
TORSDOF 10
ENDMDL
MODEL 6
REMARK VINA RESULT:      -8.1      3.161      9.459
REMARK  10 active torsions:
REMARK  status: ('A' for Active; 'I' for Inactive)
REMARK    1  A    between atoms: C6_6  and  N7_7 
REMARK    2  A    between atoms: C13_13  and  C15_14 
REMARK    3  A    between atoms: C15_14  and  N16_15 
REMARK    4  A    between atoms: N16_15  and  C17_16 
REMARK    5  A    between atoms: C20_19  and  C21_20 
REMARK       I    between atoms: C21_20  and  N23_22 
REMARK    6  A    between atoms: N23_22  and  C24_23 
REMARK    7  A    between atoms: C24_23  and  C26_24 
REMARK    8  A    between atoms: C24_23  and  C31_29 
REMARK    9  A    between atoms: C26_24  and  C27_25 
REMARK   10  A    between atoms: C27_25  and  C28_26 
ROOT
ATOM      1  C17 RES d   1      19.221   1.177   8.013  0.00  0.00     0.028 A 
ATOM      2  C18 RES d   1      19.417  -0.111   8.508  0.00  0.00     0.030 A 
ATOM      3  C19 RES d   1      19.286  -1.197   7.675  0.00  0.00     0.019 A 
ATOM      4  C20 RES d   1      18.956  -1.009   6.329  0.00  0.00     0.032 A 
ATOM      5  C34 RES d   1      18.761   0.284   5.835  0.00  0.00     0.019 A 
ATOM      6  C35 RES d   1      18.887   1.367   6.675  0.00  0.00     0.030 A 
ENDROOT
BRANCH   1   7
ATOM      7  N16 RES d   1      19.354   2.272   8.859  0.00  0.00    -0.388 N 
ATOM      8  H46 RES d   1      19.517   3.153   8.487  0.00  0.00     0.159 HD
BRANCH   7   9
ATOM      9  C15 RES d   1      19.248   2.096  10.308  0.00  0.00     0.146 C 
BRANCH   9  10
ATOM     10  C13 RES d   1      17.780   2.197  10.729  0.00  0.00     0.119 C 
ATOM     11  N2  RES d   1      17.616   3.320  11.666  0.00  0.00    -0.370 N 
ATOM     12  C1  RES d   1      17.009   4.580  11.227  0.00  0.00     0.150 C 
ATOM     13  C3  RES d   1      18.052   3.154  12.999  0.00  0.00     0.148 A 
ATOM     14  C9  RES d   1      18.227   4.259  13.839  0.00  0.00     0.314 A 
ATOM     15  C4  RES d   1      18.312   1.884  13.493  0.00  0.00     0.175 A 
ATOM     16  N8  RES d   1      18.643   4.047  15.106  0.00  0.00    -0.020 NA
ATOM     17  O10 RES d   1      18.007   5.392  13.434  0.00  0.00    -0.263 OA
ATOM     18  C6  RES d   1      18.882   2.781  15.544  0.00  0.00     0.725 A 
ATOM     19  N5  RES d   1      18.720   1.737  14.759  0.00  0.00    -0.043 NA
ATOM     20  N11 RES d   1      18.149   0.778  12.673  0.00  0.00    -0.370 N 
ATOM     21  C12 RES d   1      17.357   0.911  11.442  0.00  0.00     0.148 C 
ATOM     22  H41 RES d   1      18.555  -0.072  12.908  0.00  0.00     0.161 HD
BRANCH  18  23
ATOM     23  N7  RES d   1      19.303   2.589  16.836  0.00  0.00    -0.231 N 
ATOM     24  H39 RES d   1      19.223   3.308  17.483  0.00  0.00     0.174 HD
ATOM     25  H40 RES d   1      19.679   1.736  17.101  0.00  0.00     0.174 HD
ENDBRANCH  18  23
ENDBRANCH   9  10
ENDBRANCH   7   9
ENDBRANCH   1   7
BRANCH   4  26
ATOM     26  C21 RES d   1      18.815  -2.172   5.433  0.00  0.00     0.252 C 
ATOM     27  O22 RES d   1      19.575  -2.313   4.495  0.00  0.00    -0.268 OA
ATOM     28  N23 RES d   1      17.843  -3.079   5.655  0.00  0.00    -0.342 N 
ATOM     29  H49 RES d   1      17.236  -2.966   6.403  0.00  0.00     0.163 HD
BRANCH  28  30
ATOM     30  C24 RES d   1      17.701  -4.234   4.765  0.00  0.00     0.186 C 
BRANCH  30  31
ATOM     31  C26 RES d   1      17.538  -5.505   5.601  0.00  0.00     0.046 C 
BRANCH  31  32
ATOM     32  C27 RES d   1      18.894  -5.909   6.185  0.00  0.00     0.116 C 
BRANCH  32  33
ATOM     33  C28 RES d   1      18.854  -5.778   7.686  0.00  0.00     0.172 C 
ATOM     34  O29 RES d   1      19.296  -6.672   8.388  0.00  0.00    -0.648 OA
ATOM     35  O30 RES d   1      18.380  -4.779   8.199  0.00  0.00    -0.648 OA
ENDBRANCH  32  33
ENDBRANCH  31  32
ENDBRANCH  30  31
BRANCH  30  36
ATOM     36  C31 RES d   1      16.489  -4.050   3.890  0.00  0.00     0.196 C 
ATOM     37  O32 RES d   1      16.538  -3.299   2.930  0.00  0.00    -0.646 OA
ATOM     38  O33 RES d   1      15.458  -4.651   4.141  0.00  0.00    -0.646 OA
ENDBRANCH  30  36
ENDBRANCH  28  30
ENDBRANCH   4  26
TORSDOF 10
ENDMDL
MODEL 7
REMARK VINA RESULT:      -8.0      3.088      9.235
REMARK  10 active torsions:
REMARK  status: ('A' for Active; 'I' for Inactive)
REMARK    1  A    between atoms: C6_6  and  N7_7 
REMARK    2  A    between atoms: C13_13  and  C15_14 
REMARK    3  A    between atoms: C15_14  and  N16_15 
REMARK    4  A    between atoms: N16_15  and  C17_16 
REMARK    5  A    between atoms: C20_19  and  C21_20 
REMARK       I    between atoms: C21_20  and  N23_22 
REMARK    6  A    between atoms: N23_22  and  C24_23 
REMARK    7  A    between atoms: C24_23  and  C26_24 
REMARK    8  A    between atoms: C24_23  and  C31_29 
REMARK    9  A    between atoms: C26_24  and  C27_25 
REMARK   10  A    between atoms: C27_25  and  C28_26 
ROOT
ATOM      1  C17 RES d   1      19.283   0.872   8.320  0.00  0.00     0.028 A 
ATOM      2  C18 RES d   1      18.972   1.230   7.010  0.00  0.00     0.030 A 
ATOM      3  C19 RES d   1      18.837   0.260   6.044  0.00  0.00     0.019 A 
ATOM      4  C20 RES d   1      19.013  -1.086   6.378  0.00  0.00     0.032 A 
ATOM      5  C34 RES d   1      19.323  -1.443   7.693  0.00  0.00     0.019 A 
ATOM      6  C35 RES d   1      19.463  -0.468   8.654  0.00  0.00     0.030 A 
ENDROOT
BRANCH   1   7
ATOM      7  N16 RES d   1      19.418   1.855   9.295  0.00  0.00    -0.388 N 
ATOM      8  H46 RES d   1      19.559   2.778   9.034  0.00  0.00     0.159 HD
BRANCH   7   9
ATOM      9  C15 RES d   1      19.346   1.496  10.712  0.00  0.00     0.146 C 
BRANCH   9  10
ATOM     10  C13 RES d   1      17.940   1.789  11.243  0.00  0.00     0.119 C 
ATOM     11  N2  RES d   1      18.030   2.243  12.640  0.00  0.00    -0.370 N 
ATOM     12  C1  RES d   1      17.860   3.658  12.981  0.00  0.00     0.150 C 
ATOM     13  C3  RES d   1      18.277   1.282  13.645  0.00  0.00     0.148 A 
ATOM     14  C9  RES d   1      18.693   1.672  14.923  0.00  0.00     0.314 A 
ATOM     15  C4  RES d   1      18.108  -0.068  13.374  0.00  0.00     0.175 A 
ATOM     16  N8  RES d   1      18.914   0.715  15.850  0.00  0.00    -0.020 NA
ATOM     17  O10 RES d   1      18.852   2.854  15.194  0.00  0.00    -0.263 OA
ATOM     18  C6  RES d   1      18.732  -0.596  15.535  0.00  0.00     0.725 A 
ATOM     19  N5  RES d   1      18.341  -0.970  14.335  0.00  0.00    -0.043 NA
ATOM     20  N11 RES d   1      17.703  -0.473  12.112  0.00  0.00    -0.370 N 
ATOM     21  C12 RES d   1      17.097   0.512  11.206  0.00  0.00     0.148 C 
ATOM     22  H41 RES d   1      17.819  -1.395  11.831  0.00  0.00     0.161 HD
BRANCH  18  23
ATOM     23  N7  RES d   1      18.961  -1.552  16.493  0.00  0.00    -0.231 N 
ATOM     24  H39 RES d   1      19.519  -1.344  17.260  0.00  0.00     0.174 HD
ATOM     25  H40 RES d   1      18.565  -2.432  16.404  0.00  0.00     0.174 HD
ENDBRANCH  18  23
ENDBRANCH   9  10
ENDBRANCH   7   9
ENDBRANCH   1   7
BRANCH   4  26
ATOM     26  C21 RES d   1      18.869  -2.128   5.343  0.00  0.00     0.252 C 
ATOM     27  O22 RES d   1      19.530  -2.068   4.324  0.00  0.00    -0.268 OA
ATOM     28  N23 RES d   1      18.006  -3.147   5.528  0.00  0.00    -0.342 N 
ATOM     29  H49 RES d   1      17.480  -3.194   6.341  0.00  0.00     0.163 HD
BRANCH  28  30
ATOM     30  C24 RES d   1      17.864  -4.182   4.501  0.00  0.00     0.186 C 
BRANCH  30  31
ATOM     31  C26 RES d   1      17.865  -5.561   5.163  0.00  0.00     0.046 C 
BRANCH  31  32
ATOM     32  C27 RES d   1      18.606  -5.485   6.500  0.00  0.00     0.116 C 
BRANCH  32  33
ATOM     33  C28 RES d   1      18.289  -6.709   7.320  0.00  0.00     0.172 C 
ATOM     34  O29 RES d   1      18.140  -7.788   6.772  0.00  0.00    -0.648 OA
ATOM     35  O30 RES d   1      18.182  -6.621   8.531  0.00  0.00    -0.648 OA
ENDBRANCH  32  33
ENDBRANCH  31  32
ENDBRANCH  30  31
BRANCH  30  36
ATOM     36  C31 RES d   1      16.566  -3.981   3.762  0.00  0.00     0.196 C 
ATOM     37  O32 RES d   1      15.549  -4.528   4.155  0.00  0.00    -0.646 OA
ATOM     38  O33 RES d   1      16.532  -3.272   2.771  0.00  0.00    -0.646 OA
ENDBRANCH  30  36
ENDBRANCH  28  30
ENDBRANCH   4  26
TORSDOF 10
ENDMDL
MODEL 8
REMARK VINA RESULT:      -8.0      3.445     10.012
REMARK  10 active torsions:
REMARK  status: ('A' for Active; 'I' for Inactive)
REMARK    1  A    between atoms: C6_6  and  N7_7 
REMARK    2  A    between atoms: C13_13  and  C15_14 
REMARK    3  A    between atoms: C15_14  and  N16_15 
REMARK    4  A    between atoms: N16_15  and  C17_16 
REMARK    5  A    between atoms: C20_19  and  C21_20 
REMARK       I    between atoms: C21_20  and  N23_22 
REMARK    6  A    between atoms: N23_22  and  C24_23 
REMARK    7  A    between atoms: C24_23  and  C26_24 
REMARK    8  A    between atoms: C24_23  and  C31_29 
REMARK    9  A    between atoms: C26_24  and  C27_25 
REMARK   10  A    between atoms: C27_25  and  C28_26 
ROOT
ATOM      1  C17 RES d   1      17.188  -0.691  11.404  0.00  0.00     0.028 A 
ATOM      2  C18 RES d   1      17.076   0.182  10.324  0.00  0.00     0.030 A 
ATOM      3  C19 RES d   1      17.481  -0.215   9.071  0.00  0.00     0.019 A 
ATOM      4  C20 RES d   1      18.007  -1.497   8.881  0.00  0.00     0.032 A 
ATOM      5  C34 RES d   1      18.118  -2.371   9.966  0.00  0.00     0.019 A 
ATOM      6  C35 RES d   1      17.717  -1.966  11.218  0.00  0.00     0.030 A 
ENDROOT
BRANCH   1   7
ATOM      7  N16 RES d   1      16.777  -0.286  12.669  0.00  0.00    -0.388 N 
ATOM      8  H46 RES d   1      16.095  -0.789  13.139  0.00  0.00     0.159 HD
BRANCH   7   9
ATOM      9  C15 RES d   1      17.375   0.897  13.289  0.00  0.00     0.146 C 
BRANCH   9  10
ATOM     10  C13 RES d   1      18.884   0.690  13.436  0.00  0.00     0.119 C 
ATOM     11  N2  RES d   1      19.168   0.073  14.742  0.00  0.00    -0.370 N 
ATOM     12  C1  RES d   1      19.517  -1.347  14.839  0.00  0.00     0.150 C 
ATOM     13  C3  RES d   1      19.103   0.881  15.897  0.00  0.00     0.148 A 
ATOM     14  C9  RES d   1      19.039   0.307  17.172  0.00  0.00     0.314 A 
ATOM     15  C4  RES d   1      19.105   2.265  15.780  0.00  0.00     0.175 A 
ATOM     16  N8  RES d   1      18.981   1.125  18.245  0.00  0.00    -0.020 NA
ATOM     17  O10 RES d   1      19.035  -0.907  17.309  0.00  0.00    -0.263 OA
ATOM     18  C6  RES d   1      18.987   2.475  18.078  0.00  0.00     0.725 A 
ATOM     19  N5  RES d   1      19.047   3.022  16.882  0.00  0.00    -0.043 NA
ATOM     20  N11 RES d   1      19.162   2.851  14.525  0.00  0.00    -0.370 N 
ATOM     21  C12 RES d   1      19.600   2.042  13.378  0.00  0.00     0.148 C 
ATOM     22  H41 RES d   1      18.916   3.782  14.406  0.00  0.00     0.161 HD
BRANCH  18  23
ATOM     23  N7  RES d   1      18.929   3.286  19.183  0.00  0.00    -0.231 N 
ATOM     24  H39 RES d   1      19.508   3.113  19.942  0.00  0.00     0.174 HD
ATOM     25  H40 RES d   1      18.310   4.032  19.204  0.00  0.00     0.174 HD
ENDBRANCH  18  23
ENDBRANCH   9  10
ENDBRANCH   7   9
ENDBRANCH   1   7
BRANCH   4  26
ATOM     26  C21 RES d   1      18.443  -1.925   7.538  0.00  0.00     0.252 C 
ATOM     27  O22 RES d   1      19.430  -2.624   7.414  0.00  0.00    -0.268 OA
ATOM     28  N23 RES d   1      17.748  -1.541   6.449  0.00  0.00    -0.342 N 
ATOM     29  H49 RES d   1      16.961  -0.983   6.549  0.00  0.00     0.163 HD
BRANCH  28  30
ATOM     30  C24 RES d   1      18.180  -1.965   5.116  0.00  0.00     0.186 C 
BRANCH  30  31
ATOM     31  C26 RES d   1      16.959  -2.357   4.284  0.00  0.00     0.046 C 
BRANCH  31  32
ATOM     32  C27 RES d   1      17.028  -3.848   3.945  0.00  0.00     0.116 C 
BRANCH  32  33
ATOM     33  C28 RES d   1      15.855  -4.221   3.076  0.00  0.00     0.172 C 
ATOM     34  O29 RES d   1      15.896  -4.012   1.875  0.00  0.00    -0.648 OA
ATOM     35  O30 RES d   1      14.866  -4.732   3.572  0.00  0.00    -0.648 OA
ENDBRANCH  32  33
ENDBRANCH  31  32
ENDBRANCH  30  31
BRANCH  30  36
ATOM     36  C31 RES d   1      18.907  -0.832   4.439  0.00  0.00     0.196 C 
ATOM     37  O32 RES d   1      20.108  -0.697   4.599  0.00  0.00    -0.646 OA
ATOM     38  O33 RES d   1      18.294  -0.051   3.731  0.00  0.00    -0.646 OA
ENDBRANCH  30  36
ENDBRANCH  28  30
ENDBRANCH   4  26
TORSDOF 10
ENDMDL
MODEL 9
REMARK VINA RESULT:      -7.9      2.605      4.852
REMARK  10 active torsions:
REMARK  status: ('A' for Active; 'I' for Inactive)
REMARK    1  A    between atoms: C6_6  and  N7_7 
REMARK    2  A    between atoms: C13_13  and  C15_14 
REMARK    3  A    between atoms: C15_14  and  N16_15 
REMARK    4  A    between atoms: N16_15  and  C17_16 
REMARK    5  A    between atoms: C20_19  and  C21_20 
REMARK       I    between atoms: C21_20  and  N23_22 
REMARK    6  A    between atoms: N23_22  and  C24_23 
REMARK    7  A    between atoms: C24_23  and  C26_24 
REMARK    8  A    between atoms: C24_23  and  C31_29 
REMARK    9  A    between atoms: C26_24  and  C27_25 
REMARK   10  A    between atoms: C27_25  and  C28_26 
ROOT
ATOM      1  C17 RES d   1      19.131  -0.788  14.634  0.00  0.00     0.028 A 
ATOM      2  C18 RES d   1      18.887  -1.157  15.956  0.00  0.00     0.030 A 
ATOM      3  C19 RES d   1      18.795  -0.195  16.934  0.00  0.00     0.019 A 
ATOM      4  C20 RES d   1      18.946   1.155  16.602  0.00  0.00     0.032 A 
ATOM      5  C34 RES d   1      19.190   1.523  15.276  0.00  0.00     0.019 A 
ATOM      6  C35 RES d   1      19.287   0.555  14.302  0.00  0.00     0.030 A 
ENDROOT
BRANCH   1   7
ATOM      7  N16 RES d   1      19.223  -1.763  13.648  0.00  0.00    -0.388 N 
ATOM      8  H46 RES d   1      19.342  -2.693  13.896  0.00  0.00     0.159 HD
BRANCH   7   9
ATOM      9  C15 RES d   1      19.139  -1.387  12.235  0.00  0.00     0.146 C 
BRANCH   9  10
ATOM     10  C13 RES d   1      17.728  -1.672  11.714  0.00  0.00     0.119 C 
ATOM     11  N2  RES d   1      17.815  -2.277  10.375  0.00  0.00    -0.370 N 
ATOM     12  C1  RES d   1      17.584  -3.711  10.184  0.00  0.00     0.150 C 
ATOM     13  C3  RES d   1      18.120  -1.442   9.278  0.00  0.00     0.148 A 
ATOM     14  C9  RES d   1      18.534  -1.985   8.056  0.00  0.00     0.314 A 
ATOM     15  C4  RES d   1      18.010  -0.063   9.400  0.00  0.00     0.175 A 
ATOM     16  N8  RES d   1      18.811  -1.144   7.037  0.00  0.00    -0.020 NA
ATOM     17  O10 RES d   1      18.641  -3.194   7.916  0.00  0.00    -0.263 OA
ATOM     18  C6  RES d   1      18.686   0.201   7.206  0.00  0.00     0.725 A 
ATOM     19  N5  RES d   1      18.297   0.718   8.352  0.00  0.00    -0.043 NA
ATOM     20  N11 RES d   1      17.607   0.492  10.604  0.00  0.00    -0.370 N 
ATOM     21  C12 RES d   1      16.944  -0.362  11.599  0.00  0.00     0.148 C 
ATOM     22  H41 RES d   1      17.762   1.433  10.787  0.00  0.00     0.161 HD
BRANCH  18  23
ATOM     23  N7  RES d   1      18.971   1.036   6.156  0.00  0.00    -0.231 N 
ATOM     24  H39 RES d   1      18.469   1.859   6.042  0.00  0.00     0.174 HD
ATOM     25  H40 RES d   1      19.675   0.806   5.531  0.00  0.00     0.174 HD
ENDBRANCH  18  23
ENDBRANCH   9  10
ENDBRANCH   7   9
ENDBRANCH   1   7
BRANCH   4  26
ATOM     26  C21 RES d   1      18.848   2.189  17.650  0.00  0.00     0.252 C 
ATOM     27  O22 RES d   1      19.568   2.133  18.629  0.00  0.00    -0.268 OA
ATOM     28  N23 RES d   1      17.962   3.196  17.522  0.00  0.00    -0.342 N 
ATOM     29  H49 RES d   1      17.388   3.240  16.742  0.00  0.00     0.163 HD
BRANCH  28  30
ATOM     30  C24 RES d   1      17.864   4.223  18.562  0.00  0.00     0.186 C 
BRANCH  30  31
ATOM     31  C26 RES d   1      17.949   5.608  17.921  0.00  0.00     0.046 C 
BRANCH  31  32
ATOM     32  C27 RES d   1      18.199   5.461  16.418  0.00  0.00     0.116 C 
BRANCH  32  33
ATOM     33  C28 RES d   1      18.847   6.715  15.891  0.00  0.00     0.172 C 
ATOM     34  O29 RES d   1      19.846   6.639  15.195  0.00  0.00    -0.648 OA
ATOM     35  O30 RES d   1      18.374   7.806  16.159  0.00  0.00    -0.648 OA
ENDBRANCH  32  33
ENDBRANCH  31  32
ENDBRANCH  30  31
BRANCH  30  36
ATOM     36  C31 RES d   1      16.549   4.084  19.284  0.00  0.00     0.196 C 
ATOM     37  O32 RES d   1      16.173   2.986  19.660  0.00  0.00    -0.646 OA
ATOM     38  O33 RES d   1      15.861   5.068  19.493  0.00  0.00    -0.646 OA
ENDBRANCH  30  36
ENDBRANCH  28  30
ENDBRANCH   4  26
TORSDOF 10
ENDMDL
