MODEL 1
REMARK VINA RESULT:      -8.4      0.000      0.000
REMARK  0 active torsions:
REMARK  status: ('A' for Active; 'I' for Inactive)
ROOT
ATOM      1  C1  ZIN A   1      19.135  -0.122   4.628  0.00  0.00     0.269 C 
ATOM      2  N2  ZIN A   1      19.226  -0.663   5.991  0.00  0.00    -0.072 N 
ATOM      3  H3  ZIN A   1      20.180  -0.923   6.192  0.00  0.00     0.279 HD
ATOM      4  C4  ZIN A   1      18.352  -1.842   6.118  0.00  0.00     0.249 C 
ATOM      5  C5  ZIN A   1      18.552  -2.433   7.510  0.00  0.00     0.125 C 
ATOM      6  N6  ZIN A   1      18.209  -1.445   8.551  0.00  0.00    -0.255 NA
ATOM      7  C7  ZIN A   1      18.441  -2.048   9.779  0.00  0.00     0.112 A 
ATOM      8  N8  ZIN A   1      19.217  -3.132   9.810  0.00  0.00    -0.248 NA
ATOM      9  C9  ZIN A   1      19.507  -3.741  10.943  0.00  0.00     0.118 A 
ATOM     10  C10 ZIN A   1      19.018  -3.278  12.148  0.00  0.00     0.020 A 
ATOM     11  C11 ZIN A   1      18.195  -2.159  12.155  0.00  0.00     0.012 A 
ATOM     12  C12 ZIN A   1      17.901  -1.558  10.945  0.00  0.00    -0.013 A 
ATOM     13  C13 ZIN A   1      16.962  -0.393  10.887  0.00  0.00     0.081 C 
ATOM     14  C14 ZIN A   1      17.623   0.853  10.383  0.00  0.00    -0.046 A 
ATOM     15  C15 ZIN A   1      17.348   2.004  11.127  0.00  0.00     0.008 A 
ATOM     16  C16 ZIN A   1      17.872   3.227  10.777  0.00  0.00     0.001 A 
ATOM     17  C17 ZIN A   1      18.686   3.319   9.663  0.00  0.00     0.001 A 
ATOM     18  C18 ZIN A   1      18.961   2.188   8.933  0.00  0.00     0.009 A 
ATOM     19  C19 ZIN A   1      18.439   0.938   9.290  0.00  0.00    -0.032 A 
ATOM     20  C20 ZIN A   1      18.885  -0.185   8.391  0.00  0.00     0.124 C 
ATOM     21  C22 ZIN A   1      18.776   0.344   6.954  0.00  0.00     0.259 C 
ENDROOT
TORSDOF 0
ENDMDL
MODEL 2
REMARK VINA RESULT:      -8.3      2.424      5.070
REMARK  0 active torsions:
REMARK  status: ('A' for Active; 'I' for Inactive)
ROOT
ATOM      1  C1  ZIN A   1      19.103   0.876  15.719  0.00  0.00     0.269 C 
ATOM      2  N2  ZIN A   1      18.750   0.555  14.329  0.00  0.00    -0.072 N 
ATOM      3  H3  ZIN A   1      17.909  -0.004  14.311  0.00  0.00     0.279 HD
ATOM      4  C4  ZIN A   1      19.853  -0.185  13.694  0.00  0.00     0.249 C 
ATOM      5  C5  ZIN A   1      19.409  -0.587  12.290  0.00  0.00     0.125 C 
ATOM      6  N6  ZIN A   1      19.080   0.605  11.485  0.00  0.00    -0.255 NA
ATOM      7  C7  ZIN A   1      18.663   0.155  10.240  0.00  0.00     0.112 A 
ATOM      8  N8  ZIN A   1      18.290  -1.120  10.126  0.00  0.00    -0.248 NA
ATOM      9  C9  ZIN A   1      17.853  -1.612   8.984  0.00  0.00     0.118 A 
ATOM     10  C10 ZIN A   1      17.763  -0.823   7.855  0.00  0.00     0.020 A 
ATOM     11  C11 ZIN A   1      18.156   0.507   7.930  0.00  0.00     0.012 A 
ATOM     12  C12 ZIN A   1      18.623   0.982   9.142  0.00  0.00    -0.013 A 
ATOM     13  C13 ZIN A   1      19.127   2.387   9.262  0.00  0.00     0.081 C 
ATOM     14  C14 ZIN A   1      18.313   3.209  10.215  0.00  0.00    -0.046 A 
ATOM     15  C15 ZIN A   1      17.968   4.479   9.745  0.00  0.00     0.008 A 
ATOM     16  C16 ZIN A   1      17.236   5.354  10.514  0.00  0.00     0.001 A 
ATOM     17  C17 ZIN A   1      16.836   4.968  11.780  0.00  0.00     0.001 A 
ATOM     18  C18 ZIN A   1      17.170   3.718  12.242  0.00  0.00     0.009 A 
ATOM     19  C19 ZIN A   1      17.907   2.819  11.460  0.00  0.00    -0.032 A 
ATOM     20  C20 ZIN A   1      18.140   1.487  12.124  0.00  0.00     0.124 C 
ATOM     21  C22 ZIN A   1      18.536   1.792  13.575  0.00  0.00     0.259 C 
ENDROOT
TORSDOF 0
ENDMDL
MODEL 3
REMARK VINA RESULT:      -8.2      3.380      6.404
REMARK  0 active torsions:
REMARK  status: ('A' for Active; 'I' for Inactive)
ROOT
ATOM      1  C1  ZIN A   1      17.372   6.068  14.640  0.00  0.00     0.269 C 
ATOM      2  N2  ZIN A   1      17.748   5.173  13.537  0.00  0.00    -0.072 N 
ATOM      3  H3  ZIN A   1      18.665   5.421  13.196  0.00  0.00     0.279 HD
ATOM      4  C4  ZIN A   1      16.765   5.286  12.447  0.00  0.00     0.249 C 
ATOM      5  C5  ZIN A   1      17.244   4.423  11.283  0.00  0.00     0.125 C 
ATOM      6  N6  ZIN A   1      17.370   3.013  11.697  0.00  0.00    -0.255 NA
ATOM      7  C7  ZIN A   1      17.832   2.304  10.597  0.00  0.00     0.112 A 
ATOM      8  N8  ZIN A   1      18.398   2.988   9.602  0.00  0.00    -0.248 NA
ATOM      9  C9  ZIN A   1      18.889   2.381   8.539  0.00  0.00     0.118 A 
ATOM     10  C10 ZIN A   1      18.836   1.008   8.413  0.00  0.00     0.020 A 
ATOM     11  C11 ZIN A   1      18.241   0.262   9.423  0.00  0.00     0.012 A 
ATOM     12  C12 ZIN A   1      17.725   0.935  10.514  0.00  0.00    -0.013 A 
ATOM     13  C13 ZIN A   1      17.009   0.187  11.596  0.00  0.00     0.081 C 
ATOM     14  C14 ZIN A   1      17.699   0.298  12.922  0.00  0.00    -0.046 A 
ATOM     15  C15 ZIN A   1      17.833  -0.910  13.614  0.00  0.00     0.008 A 
ATOM     16  C16 ZIN A   1      18.431  -0.965  14.851  0.00  0.00     0.001 A 
ATOM     17  C17 ZIN A   1      18.906   0.200  15.424  0.00  0.00     0.001 A 
ATOM     18  C18 ZIN A   1      18.780   1.387  14.744  0.00  0.00     0.009 A 
ATOM     19  C19 ZIN A   1      18.181   1.448  13.478  0.00  0.00    -0.032 A 
ATOM     20  C20 ZIN A   1      18.170   2.830  12.878  0.00  0.00     0.124 C 
ATOM     21  C22 ZIN A   1      17.754   3.786  14.005  0.00  0.00     0.259 C 
ENDROOT
TORSDOF 0
ENDMDL
MODEL 4
REMARK VINA RESULT:      -8.2      1.040      4.409
REMARK  0 active torsions:
REMARK  status: ('A' for Active; 'I' for Inactive)
ROOT
ATOM      1  C1  ZIN A   1      18.021  -3.919  11.787  0.00  0.00     0.269 C 
ATOM      2  N2  ZIN A   1      17.953  -3.249  10.481  0.00  0.00    -0.072 N 
ATOM      3  H3  ZIN A   1      17.068  -3.451  10.040  0.00  0.00     0.279 HD
ATOM      4  C4  ZIN A   1      19.055  -3.717   9.624  0.00  0.00     0.249 C 
ATOM      5  C5  ZIN A   1      18.891  -3.078   8.248  0.00  0.00     0.125 C 
ATOM      6  N6  ZIN A   1      18.928  -1.607   8.348  0.00  0.00    -0.255 NA
ATOM      7  C7  ZIN A   1      18.747  -1.105   7.066  0.00  0.00     0.112 A 
ATOM      8  N8  ZIN A   1      18.232  -1.916   6.142  0.00  0.00    -0.248 NA
ATOM      9  C9  ZIN A   1      18.002  -1.502   4.911  0.00  0.00     0.118 A 
ATOM     10  C10 ZIN A   1      18.286  -0.207   4.529  0.00  0.00     0.020 A 
ATOM     11  C11 ZIN A   1      18.837   0.664   5.461  0.00  0.00     0.012 A 
ATOM     12  C12 ZIN A   1      19.077   0.189   6.737  0.00  0.00    -0.013 A 
ATOM     13  C13 ZIN A   1      19.736   1.062   7.759  0.00  0.00     0.081 C 
ATOM     14  C14 ZIN A   1      18.852   1.330   8.939  0.00  0.00    -0.046 A 
ATOM     15  C15 ZIN A   1      18.808   2.667   9.346  0.00  0.00     0.008 A 
ATOM     16  C16 ZIN A   1      18.053   3.064  10.425  0.00  0.00     0.001 A 
ATOM     17  C17 ZIN A   1      17.323   2.120  11.123  0.00  0.00     0.001 A 
ATOM     18  C18 ZIN A   1      17.361   0.806  10.721  0.00  0.00     0.009 A 
ATOM     19  C19 ZIN A   1      18.120   0.397   9.617  0.00  0.00    -0.032 A 
ATOM     20  C20 ZIN A   1      18.002  -1.073   9.312  0.00  0.00     0.124 C 
ATOM     21  C22 ZIN A   1      18.096  -1.802  10.659  0.00  0.00     0.259 C 
ENDROOT
TORSDOF 0
ENDMDL
MODEL 5
REMARK VINA RESULT:      -8.1      2.050      3.472
REMARK  0 active torsions:
REMARK  status: ('A' for Active; 'I' for Inactive)
ROOT
ATOM      1  C1  ZIN A   1      19.282  -4.500   8.501  0.00  0.00     0.269 C 
ATOM      2  N2  ZIN A   1      19.241  -3.676   9.716  0.00  0.00    -0.072 N 
ATOM      3  H3  ZIN A   1      20.115  -3.760  10.215  0.00  0.00     0.279 HD
ATOM      4  C4  ZIN A   1      18.132  -4.116  10.579  0.00  0.00     0.249 C 
ATOM      5  C5  ZIN A   1      18.186  -3.308  11.872  0.00  0.00     0.125 C 
ATOM      6  N6  ZIN A   1      18.056  -1.865  11.591  0.00  0.00    -0.255 NA
ATOM      7  C7  ZIN A   1      18.140  -1.202  12.808  0.00  0.00     0.112 A 
ATOM      8  N8  ZIN A   1      18.663  -1.858  13.845  0.00  0.00    -0.248 NA
ATOM      9  C9  ZIN A   1      18.804  -1.284  15.023  0.00  0.00     0.118 A 
ATOM     10  C10 ZIN A   1      18.416   0.024  15.232  0.00  0.00     0.020 A 
ATOM     11  C11 ZIN A   1      17.855   0.735  14.179  0.00  0.00     0.012 A 
ATOM     12  C12 ZIN A   1      17.709   0.094  12.963  0.00  0.00    -0.013 A 
ATOM     13  C13 ZIN A   1      17.045   0.790  11.815  0.00  0.00     0.081 C 
ATOM     14  C14 ZIN A   1      17.966   0.978  10.648  0.00  0.00    -0.046 A 
ATOM     15  C15 ZIN A   1      17.940   2.257  10.083  0.00  0.00     0.008 A 
ATOM     16  C16 ZIN A   1      18.719   2.575   8.995  0.00  0.00     0.001 A 
ATOM     17  C17 ZIN A   1      19.543   1.610   8.448  0.00  0.00     0.001 A 
ATOM     18  C18 ZIN A   1      19.573   0.354   9.005  0.00  0.00     0.009 A 
ATOM     19  C19 ZIN A   1      18.790   0.026  10.120  0.00  0.00    -0.032 A 
ATOM     20  C20 ZIN A   1      18.990  -1.385  10.607  0.00  0.00     0.124 C 
ATOM     21  C22 ZIN A   1      19.011  -2.275   9.357  0.00  0.00     0.259 C 
ENDROOT
TORSDOF 0
ENDMDL
MODEL 6
REMARK VINA RESULT:      -8.0      4.372      6.767
REMARK  0 active torsions:
REMARK  status: ('A' for Active; 'I' for Inactive)
ROOT
ATOM      1  C1  ZIN A   1      17.744   5.533  17.012  0.00  0.00     0.269 C 
ATOM      2  N2  ZIN A   1      17.885   4.232  16.343  0.00  0.00    -0.072 N 
ATOM      3  H3  ZIN A   1      17.095   3.645  16.568  0.00  0.00     0.279 HD
ATOM      4  C4  ZIN A   1      19.131   3.581  16.781  0.00  0.00     0.249 C 
ATOM      5  C5  ZIN A   1      19.190   2.194  16.145  0.00  0.00     0.125 C 
ATOM      6  N6  ZIN A   1      19.170   2.294  14.673  0.00  0.00    -0.255 NA
ATOM      7  C7  ZIN A   1      19.201   0.998  14.175  0.00  0.00     0.112 A 
ATOM      8  N8  ZIN A   1      18.875   0.002  14.999  0.00  0.00    -0.248 NA
ATOM      9  C9  ZIN A   1      18.850  -1.251  14.590  0.00  0.00     0.118 A 
ATOM     10  C10 ZIN A   1      19.162  -1.583  13.287  0.00  0.00     0.020 A 
ATOM     11  C11 ZIN A   1      19.521  -0.574  12.403  0.00  0.00     0.012 A 
ATOM     12  C12 ZIN A   1      19.549   0.726  12.873  0.00  0.00    -0.013 A 
ATOM     13  C13 ZIN A   1      19.998   1.844  11.983  0.00  0.00     0.081 C 
ATOM     14  C14 ZIN A   1      18.916   2.853  11.740  0.00  0.00    -0.046 A 
ATOM     15  C15 ZIN A   1      18.768   3.240  10.405  0.00  0.00     0.008 A 
ATOM     16  C16 ZIN A   1      17.827   4.171  10.029  0.00  0.00     0.001 A 
ATOM     17  C17 ZIN A   1      17.013   4.736  10.993  0.00  0.00     0.001 A 
ATOM     18  C18 ZIN A   1      17.154   4.352  12.305  0.00  0.00     0.009 A 
ATOM     19  C19 ZIN A   1      18.103   3.397  12.693  0.00  0.00    -0.032 A 
ATOM     20  C20 ZIN A   1      18.079   3.081  14.165  0.00  0.00     0.124 C 
ATOM     21  C22 ZIN A   1      17.957   4.427  14.893  0.00  0.00     0.259 C 
ENDROOT
TORSDOF 0
ENDMDL
MODEL 7
REMARK VINA RESULT:      -8.0      1.548      4.661
REMARK  0 active torsions:
REMARK  status: ('A' for Active; 'I' for Inactive)
ROOT
ATOM      1  C1  ZIN A   1      19.467  -5.725   9.170  0.00  0.00     0.269 C 
ATOM      2  N2  ZIN A   1      19.559  -4.277   9.405  0.00  0.00    -0.072 N 
ATOM      3  H3  ZIN A   1      20.508  -4.030   9.643  0.00  0.00     0.279 HD
ATOM      4  C4  ZIN A   1      18.654  -3.893  10.502  0.00  0.00     0.249 C 
ATOM      5  C5  ZIN A   1      18.853  -2.406  10.783  0.00  0.00     0.125 C 
ATOM      6  N6  ZIN A   1      18.550  -1.604   9.582  0.00  0.00    -0.255 NA
ATOM      7  C7  ZIN A   1      18.779  -0.275   9.911  0.00  0.00     0.112 A 
ATOM      8  N8  ZIN A   1      19.524  -0.013  10.986  0.00  0.00    -0.248 NA
ATOM      9  C9  ZIN A   1      19.811   1.223  11.342  0.00  0.00     0.118 A 
ATOM     10  C10 ZIN A   1      19.348   2.301  10.615  0.00  0.00     0.020 A 
ATOM     11  C11 ZIN A   1      18.557   2.070   9.497  0.00  0.00     0.012 A 
ATOM     12  C12 ZIN A   1      18.267   0.760   9.164  0.00  0.00    -0.013 A 
ATOM     13  C13 ZIN A   1      17.359   0.455   8.012  0.00  0.00     0.081 C 
ATOM     14  C14 ZIN A   1      18.050  -0.312   6.925  0.00  0.00    -0.046 A 
ATOM     15  C15 ZIN A   1      17.816   0.167   5.632  0.00  0.00     0.008 A 
ATOM     16  C16 ZIN A   1      18.370  -0.443   4.531  0.00  0.00     0.001 A 
ATOM     17  C17 ZIN A   1      19.173  -1.555   4.707  0.00  0.00     0.001 A 
ATOM     18  C18 ZIN A   1      19.408  -2.024   5.977  0.00  0.00     0.009 A 
ATOM     19  C19 ZIN A   1      18.855  -1.401   7.104  0.00  0.00    -0.032 A 
ATOM     20  C20 ZIN A   1      19.259  -2.037   8.408  0.00  0.00     0.124 C 
ATOM     21  C22 ZIN A   1      19.148  -3.554   8.200  0.00  0.00     0.259 C 
ENDROOT
TORSDOF 0
ENDMDL
MODEL 8
REMARK VINA RESULT:      -7.9      2.855      6.532
REMARK  0 active torsions:
REMARK  status: ('A' for Active; 'I' for Inactive)
ROOT
ATOM      1  C1  ZIN A   1      18.828  -1.163  16.752  0.00  0.00     0.269 C 
ATOM      2  N2  ZIN A   1      18.912  -0.424  15.485  0.00  0.00    -0.072 N 
ATOM      3  H3  ZIN A   1      19.789   0.074  15.439  0.00  0.00     0.279 HD
ATOM      4  C4  ZIN A   1      17.794   0.530  15.391  0.00  0.00     0.249 C 
ATOM      5  C5  ZIN A   1      17.973   1.348  14.115  0.00  0.00     0.125 C 
ATOM      6  N6  ZIN A   1      17.981   0.470  12.929  0.00  0.00    -0.255 NA
ATOM      7  C7  ZIN A   1      18.173   1.282  11.820  0.00  0.00     0.112 A 
ATOM      8  N8  ZIN A   1      18.661   2.508  12.017  0.00  0.00    -0.248 NA
ATOM      9  C9  ZIN A   1      18.900   3.325  11.010  0.00  0.00     0.118 A 
ATOM     10  C10 ZIN A   1      18.653   2.943   9.707  0.00  0.00     0.020 A 
ATOM     11  C11 ZIN A   1      18.132   1.679   9.463  0.00  0.00     0.012 A 
ATOM     12  C12 ZIN A   1      17.881   0.857  10.546  0.00  0.00    -0.013 A 
ATOM     13  C13 ZIN A   1      17.252  -0.488  10.345  0.00  0.00     0.081 C 
ATOM     14  C14 ZIN A   1      18.147  -1.610  10.777  0.00  0.00    -0.046 A 
ATOM     15  C15 ZIN A   1      18.232  -2.671   9.872  0.00  0.00     0.008 A 
ATOM     16  C16 ZIN A   1      19.002  -3.780  10.138  0.00  0.00     0.001 A 
ATOM     17  C17 ZIN A   1      19.705  -3.845  11.326  0.00  0.00     0.001 A 
ATOM     18  C18 ZIN A   1      19.627  -2.800  12.215  0.00  0.00     0.009 A 
ATOM     19  C19 ZIN A   1      18.852  -1.664  11.946  0.00  0.00    -0.032 A 
ATOM     20  C20 ZIN A   1      18.925  -0.612  13.022  0.00  0.00     0.124 C 
ATOM     21  C22 ZIN A   1      18.813  -1.356  14.360  0.00  0.00     0.259 C 
ENDROOT
TORSDOF 0
ENDMDL
MODEL 9
REMARK VINA RESULT:      -7.8      3.579      5.739
REMARK  0 active torsions:
REMARK  status: ('A' for Active; 'I' for Inactive)
ROOT
ATOM      1  C1  ZIN A   1      16.816   5.755  12.090  0.00  0.00     0.269 C 
ATOM      2  N2  ZIN A   1      17.047   4.429  12.678  0.00  0.00    -0.072 N 
ATOM      3  H3  ZIN A   1      16.166   4.020  12.954  0.00  0.00     0.279 HD
ATOM      4  C4  ZIN A   1      17.926   4.552  13.853  0.00  0.00     0.249 C 
ATOM      5  C5  ZIN A   1      18.058   3.174  14.494  0.00  0.00     0.125 C 
ATOM      6  N6  ZIN A   1      18.634   2.207  13.539  0.00  0.00    -0.255 NA
ATOM      7  C7  ZIN A   1      18.697   0.981  14.187  0.00  0.00     0.112 A 
ATOM      8  N8  ZIN A   1      17.951   0.808  15.279  0.00  0.00    -0.248 NA
ATOM      9  C9  ZIN A   1      17.933  -0.338  15.929  0.00  0.00     0.118 A 
ATOM     10  C10 ZIN A   1      18.690  -1.411  15.504  0.00  0.00     0.020 A 
ATOM     11  C11 ZIN A   1      19.491  -1.266  14.378  0.00  0.00     0.012 A 
ATOM     12  C12 ZIN A   1      19.493  -0.044  13.732  0.00  0.00    -0.013 A 
ATOM     13  C13 ZIN A   1      20.392   0.190  12.558  0.00  0.00     0.081 C 
ATOM     14  C14 ZIN A   1      19.630   0.481  11.301  0.00  0.00    -0.046 A 
ATOM     15  C15 ZIN A   1      20.070  -0.219  10.174  0.00  0.00     0.008 A 
ATOM     16  C16 ZIN A   1      19.478  -0.045   8.945  0.00  0.00     0.001 A 
ATOM     17  C17 ZIN A   1      18.427   0.844   8.821  0.00  0.00     0.001 A 
ATOM     18  C18 ZIN A   1      17.989   1.530   9.929  0.00  0.00     0.009 A 
ATOM     19  C19 ZIN A   1      18.582   1.349  11.186  0.00  0.00    -0.032 A 
ATOM     20  C20 ZIN A   1      17.939   2.159  12.281  0.00  0.00     0.124 C 
ATOM     21  C22 ZIN A   1      17.709   3.562  11.701  0.00  0.00     0.259 C 
ENDROOT
TORSDOF 0
ENDMDL
