MODEL 1
REMARK VINA RESULT:      -8.2      0.000      0.000
REMARK  2 active torsions:
REMARK  status: ('A' for Active; 'I' for Inactive)
REMARK    1  A    between atoms: N7_7  and  C8_8 
REMARK    2  A    between atoms: C8_8  and  C9_9 
ROOT
ATOM      1  C9  ZIN A   1      18.748   1.868  10.662  0.00  0.00     0.079 C 
ATOM      2  C11 ZIN A   1      19.449   0.672  11.302  0.00  0.00     0.020 C 
ATOM      3  C12 ZIN A   1      18.835  -0.641  10.800  0.00  0.00     0.059 C 
ATOM      4  C13 ZIN A   1      18.916  -0.649   9.292  0.00  0.00     0.026 A 
ATOM      5  C14 ZIN A   1      18.944   0.528   8.550  0.00  0.00     0.045 A 
ATOM      6  C15 ZIN A   1      19.031   0.133   7.154  0.00  0.00     0.007 A 
ATOM      7  C16 ZIN A   1      19.095   0.856   5.964  0.00  0.00     0.015 A 
ATOM      8  C17 ZIN A   1      19.171   0.124   4.790  0.00  0.00     0.001 A 
ATOM      9  C18 ZIN A   1      19.185  -1.260   4.792  0.00  0.00     0.002 A 
ATOM     10  C19 ZIN A   1      19.123  -1.996   5.963  0.00  0.00     0.030 A 
ATOM     11  C20 ZIN A   1      19.046  -1.284   7.158  0.00  0.00     0.045 A 
ATOM     12  N21 ZIN A   1      18.972  -1.703   8.461  0.00  0.00    -0.353 N 
ATOM     13  C22 ZIN A   1      18.955  -3.105   8.888  0.00  0.00     0.156 C 
ATOM     14  C23 ZIN A   1      18.890   1.805   9.157  0.00  0.00     0.168 C 
ATOM     15  O24 ZIN A   1      18.950   2.819   8.491  0.00  0.00    -0.292 OA
ENDROOT
BRANCH   1  16
ATOM     16  C8  ZIN A   1      19.380   3.163  11.177  0.00  0.00     0.142 C 
BRANCH  16  17
ATOM     17  N7  ZIN A   1      18.510   3.762  12.192  0.00  0.00    -0.345 N 
ATOM     18  C2  ZIN A   1      17.474   4.598  11.967  0.00  0.00     0.079 A 
ATOM     19  C1  ZIN A   1      17.007   5.074  10.615  0.00  0.00     0.089 C 
ATOM     20  N3  ZIN A   1      16.939   4.920  13.113  0.00  0.00    -0.355 N 
ATOM     21  H4  ZIN A   1      16.176   5.507  13.231  0.00  0.00     0.166 HD
ATOM     22  C5  ZIN A   1      17.612   4.311  14.101  0.00  0.00     0.106 A 
ATOM     23  C6  ZIN A   1      18.601   3.585  13.546  0.00  0.00     0.109 A 
ENDBRANCH  16  17
ENDBRANCH   1  16
TORSDOF 2
ENDMDL
MODEL 2
REMARK VINA RESULT:      -8.0      2.622      3.336
REMARK  2 active torsions:
REMARK  status: ('A' for Active; 'I' for Inactive)
REMARK    1  A    between atoms: N7_7  and  C8_8 
REMARK    2  A    between atoms: C8_8  and  C9_9 
ROOT
ATOM      1  C9  ZIN A   1      18.913  -0.994  12.405  0.00  0.00     0.079 C 
ATOM      2  C11 ZIN A   1      19.623  -2.312  12.101  0.00  0.00     0.020 C 
ATOM      3  C12 ZIN A   1      18.958  -3.017  10.912  0.00  0.00     0.059 C 
ATOM      4  C13 ZIN A   1      18.959  -2.063   9.742  0.00  0.00     0.026 A 
ATOM      5  C14 ZIN A   1      18.971  -0.683   9.916  0.00  0.00     0.045 A 
ATOM      6  C15 ZIN A   1      18.977  -0.099   8.586  0.00  0.00     0.007 A 
ATOM      7  C16 ZIN A   1      18.992   1.216   8.124  0.00  0.00     0.015 A 
ATOM      8  C17 ZIN A   1      18.993   1.399   6.752  0.00  0.00     0.001 A 
ATOM      9  C18 ZIN A   1      18.979   0.329   5.873  0.00  0.00     0.002 A 
ATOM     10  C19 ZIN A   1      18.964  -0.984   6.311  0.00  0.00     0.030 A 
ATOM     11  C20 ZIN A   1      18.964  -1.195   7.687  0.00  0.00     0.045 A 
ATOM     12  N21 ZIN A   1      18.950  -2.348   8.429  0.00  0.00    -0.353 N 
ATOM     13  C22 ZIN A   1      18.928  -3.702   7.868  0.00  0.00     0.156 C 
ATOM     14  C23 ZIN A   1      18.974  -0.084  11.198  0.00  0.00     0.168 C 
ATOM     15  O24 ZIN A   1      19.019   1.123  11.326  0.00  0.00    -0.292 OA
ENDROOT
BRANCH   1  16
ATOM     16  C8  ZIN A   1      19.596  -0.311  13.591  0.00  0.00     0.142 C 
BRANCH  16  17
ATOM     17  N7  ZIN A   1      18.658  -0.224  14.713  0.00  0.00    -0.345 N 
ATOM     18  C2  ZIN A   1      17.975   0.873  15.104  0.00  0.00     0.079 A 
ATOM     19  C1  ZIN A   1      18.044   2.230  14.451  0.00  0.00     0.089 C 
ATOM     20  N3  ZIN A   1      17.241   0.563  16.137  0.00  0.00    -0.355 N 
ATOM     21  H4  ZIN A   1      16.651   1.171  16.609  0.00  0.00     0.166 HD
ATOM     22  C5  ZIN A   1      17.431  -0.729  16.442  0.00  0.00     0.106 A 
ATOM     23  C6  ZIN A   1      18.317  -1.239  15.566  0.00  0.00     0.109 A 
ENDBRANCH  16  17
ENDBRANCH   1  16
TORSDOF 2
ENDMDL
MODEL 3
REMARK VINA RESULT:      -7.8      1.431      1.724
REMARK  2 active torsions:
REMARK  status: ('A' for Active; 'I' for Inactive)
REMARK    1  A    between atoms: N7_7  and  C8_8 
REMARK    2  A    between atoms: C8_8  and  C9_9 
ROOT
ATOM      1  C9  ZIN A   1      19.215   0.343  11.163  0.00  0.00     0.079 C 
ATOM      2  C11 ZIN A   1      19.939  -0.992  11.329  0.00  0.00     0.020 C 
ATOM      3  C12 ZIN A   1      19.244  -2.084  10.507  0.00  0.00     0.059 C 
ATOM      4  C13 ZIN A   1      19.184  -1.622   9.071  0.00  0.00     0.026 A 
ATOM      5  C14 ZIN A   1      19.176  -0.273   8.731  0.00  0.00     0.045 A 
ATOM      6  C15 ZIN A   1      19.121  -0.214   7.280  0.00  0.00     0.007 A 
ATOM      7  C16 ZIN A   1      19.094   0.843   6.372  0.00  0.00     0.015 A 
ATOM      8  C17 ZIN A   1      19.040   0.513   5.028  0.00  0.00     0.001 A 
ATOM      9  C18 ZIN A   1      19.015  -0.803   4.599  0.00  0.00     0.002 A 
ATOM     10  C19 ZIN A   1      19.041  -1.867   5.485  0.00  0.00     0.030 A 
ATOM     11  C20 ZIN A   1      19.096  -1.562   6.843  0.00  0.00     0.045 A 
ATOM     12  N21 ZIN A   1      19.132  -2.366   7.953  0.00  0.00    -0.353 N 
ATOM     13  C22 ZIN A   1      19.115  -3.831   7.924  0.00  0.00     0.156 C 
ATOM     14  C23 ZIN A   1      19.214   0.752   9.706  0.00  0.00     0.168 C 
ATOM     15  O24 ZIN A   1      19.241   1.923   9.384  0.00  0.00    -0.292 OA
ENDROOT
BRANCH   1  16
ATOM     16  C8  ZIN A   1      19.929   1.415  11.989  0.00  0.00     0.142 C 
BRANCH  16  17
ATOM     17  N7  ZIN A   1      19.177   1.663  13.221  0.00  0.00    -0.345 N 
ATOM     18  C2  ZIN A   1      18.205   2.585  13.395  0.00  0.00     0.079 A 
ATOM     19  C1  ZIN A   1      17.700   3.538  12.342  0.00  0.00     0.089 C 
ATOM     20  N3  ZIN A   1      17.771   2.509  14.624  0.00  0.00    -0.355 N 
ATOM     21  H4  ZIN A   1      17.070   3.059  15.006  0.00  0.00     0.166 HD
ATOM     22  C5  ZIN A   1      18.447   1.550  15.272  0.00  0.00     0.106 A 
ATOM     23  C6  ZIN A   1      19.334   1.011  14.414  0.00  0.00     0.109 A 
ENDBRANCH  16  17
ENDBRANCH   1  16
TORSDOF 2
ENDMDL
MODEL 4
REMARK VINA RESULT:      -7.8      2.989      7.539
REMARK  2 active torsions:
REMARK  status: ('A' for Active; 'I' for Inactive)
REMARK    1  A    between atoms: N7_7  and  C8_8 
REMARK    2  A    between atoms: C8_8  and  C9_9 
ROOT
ATOM      1  C9  ZIN A   1      19.025   0.573  10.888  0.00  0.00     0.079 C 
ATOM      2  C11 ZIN A   1      19.644   1.950  11.127  0.00  0.00     0.020 C 
ATOM      3  C12 ZIN A   1      18.905   2.681  12.255  0.00  0.00     0.059 C 
ATOM      4  C13 ZIN A   1      18.936   1.800  13.482  0.00  0.00     0.026 A 
ATOM      5  C14 ZIN A   1      19.039   0.416  13.392  0.00  0.00     0.045 A 
ATOM      6  C15 ZIN A   1      19.047  -0.086  14.756  0.00  0.00     0.007 A 
ATOM      7  C16 ZIN A   1      19.132  -1.368  15.297  0.00  0.00     0.015 A 
ATOM      8  C17 ZIN A   1      19.109  -1.468  16.678  0.00  0.00     0.001 A 
ATOM      9  C18 ZIN A   1      19.006  -0.351  17.489  0.00  0.00     0.002 A 
ATOM     10  C19 ZIN A   1      18.920   0.931  16.971  0.00  0.00     0.030 A 
ATOM     11  C20 ZIN A   1      18.942   1.059  15.585  0.00  0.00     0.045 A 
ATOM     12  N21 ZIN A   1      18.875   2.162  14.774  0.00  0.00    -0.353 N 
ATOM     13  C22 ZIN A   1      18.754   3.542  15.250  0.00  0.00     0.156 C 
ATOM     14  C23 ZIN A   1      19.112  -0.258  12.150  0.00  0.00     0.168 C 
ATOM     15  O24 ZIN A   1      19.236  -1.465  12.097  0.00  0.00    -0.292 OA
ENDROOT
BRANCH   1  16
ATOM     16  C8  ZIN A   1      19.780  -0.135   9.762  0.00  0.00     0.142 C 
BRANCH  16  17
ATOM     17  N7  ZIN A   1      18.912  -0.251   8.588  0.00  0.00    -0.345 N 
ATOM     18  C2  ZIN A   1      18.149  -1.315   8.258  0.00  0.00     0.079 A 
ATOM     19  C1  ZIN A   1      18.040  -2.597   9.045  0.00  0.00     0.089 C 
ATOM     20  N3  ZIN A   1      17.516  -1.049   7.148  0.00  0.00    -0.355 N 
ATOM     21  H4  ZIN A   1      16.899  -1.646   6.697  0.00  0.00     0.166 HD
ATOM     22  C5  ZIN A   1      17.853   0.181   6.732  0.00  0.00     0.106 A 
ATOM     23  C6  ZIN A   1      18.728   0.696   7.617  0.00  0.00     0.109 A 
ENDBRANCH  16  17
ENDBRANCH   1  16
TORSDOF 2
ENDMDL
MODEL 5
REMARK VINA RESULT:      -7.7      2.350      7.081
REMARK  2 active torsions:
REMARK  status: ('A' for Active; 'I' for Inactive)
REMARK    1  A    between atoms: N7_7  and  C8_8 
REMARK    2  A    between atoms: C8_8  and  C9_9 
ROOT
ATOM      1  C9  ZIN A   1      18.493  -2.594  10.004  0.00  0.00     0.079 C 
ATOM      2  C11 ZIN A   1      17.541  -2.836  11.174  0.00  0.00     0.020 C 
ATOM      3  C12 ZIN A   1      17.951  -1.988  12.384  0.00  0.00     0.059 C 
ATOM      4  C13 ZIN A   1      17.995  -0.543  11.949  0.00  0.00     0.026 A 
ATOM      5  C14 ZIN A   1      18.237  -0.178  10.628  0.00  0.00     0.045 A 
ATOM      6  C15 ZIN A   1      18.196   1.274  10.587  0.00  0.00     0.007 A 
ATOM      7  C16 ZIN A   1      18.360   2.202   9.560  0.00  0.00     0.015 A 
ATOM      8  C17 ZIN A   1      18.251   3.539   9.900  0.00  0.00     0.001 A 
ATOM      9  C18 ZIN A   1      17.992   3.944  11.198  0.00  0.00     0.002 A 
ATOM     10  C19 ZIN A   1      17.827   3.039  12.233  0.00  0.00     0.030 A 
ATOM     11  C20 ZIN A   1      17.931   1.687  11.917  0.00  0.00     0.045 A 
ATOM     12  N21 ZIN A   1      17.822   0.562  12.694  0.00  0.00    -0.353 N 
ATOM     13  C22 ZIN A   1      17.555   0.565  14.135  0.00  0.00     0.156 C 
ATOM     14  C23 ZIN A   1      18.467  -1.134   9.610  0.00  0.00     0.168 C 
ATOM     15  O24 ZIN A   1      18.642  -0.793   8.458  0.00  0.00    -0.292 OA
ENDROOT
BRANCH   1  16
ATOM     16  C8  ZIN A   1      18.060  -3.449   8.811  0.00  0.00     0.142 C 
BRANCH  16  17
ATOM     17  N7  ZIN A   1      19.204  -4.223   8.324  0.00  0.00    -0.345 N 
ATOM     18  C2  ZIN A   1      19.793  -4.107   7.114  0.00  0.00     0.079 A 
ATOM     19  C1  ZIN A   1      19.386  -3.146   6.027  0.00  0.00     0.089 C 
ATOM     20  N3  ZIN A   1      20.778  -4.961   7.044  0.00  0.00    -0.355 N 
ATOM     21  H4  ZIN A   1      21.366  -5.078   6.282  0.00  0.00     0.166 HD
ATOM     22  C5  ZIN A   1      20.849  -5.649   8.193  0.00  0.00     0.106 A 
ATOM     23  C6  ZIN A   1      19.871  -5.205   9.006  0.00  0.00     0.109 A 
ENDBRANCH  16  17
ENDBRANCH   1  16
TORSDOF 2
ENDMDL
MODEL 6
REMARK VINA RESULT:      -7.5      2.197      4.124
REMARK  2 active torsions:
REMARK  status: ('A' for Active; 'I' for Inactive)
REMARK    1  A    between atoms: N7_7  and  C8_8 
REMARK    2  A    between atoms: C8_8  and  C9_9 
ROOT
ATOM      1  C9  ZIN A   1      18.297   0.377  10.522  0.00  0.00     0.079 C 
ATOM      2  C11 ZIN A   1      18.314   0.530   9.002  0.00  0.00     0.020 C 
ATOM      3  C12 ZIN A   1      19.225  -0.528   8.367  0.00  0.00     0.059 C 
ATOM      4  C13 ZIN A   1      18.747  -1.888   8.817  0.00  0.00     0.026 A 
ATOM      5  C14 ZIN A   1      18.067  -2.070  10.017  0.00  0.00     0.045 A 
ATOM      6  C15 ZIN A   1      17.764  -3.488  10.109  0.00  0.00     0.007 A 
ATOM      7  C16 ZIN A   1      17.106  -4.260  11.064  0.00  0.00     0.015 A 
ATOM      8  C17 ZIN A   1      17.002  -5.617  10.810  0.00  0.00     0.001 A 
ATOM      9  C18 ZIN A   1      17.524  -6.187   9.662  0.00  0.00     0.002 A 
ATOM     10  C19 ZIN A   1      18.180  -5.438   8.700  0.00  0.00     0.030 A 
ATOM     11  C20 ZIN A   1      18.298  -4.070   8.932  0.00  0.00     0.045 A 
ATOM     12  N21 ZIN A   1      18.879  -3.071   8.193  0.00  0.00    -0.353 N 
ATOM     13  C22 ZIN A   1      19.550  -3.266   6.906  0.00  0.00     0.156 C 
ATOM     14  C23 ZIN A   1      17.788  -0.997  10.897  0.00  0.00     0.168 C 
ATOM     15  O24 ZIN A   1      17.163  -1.174  11.923  0.00  0.00    -0.292 OA
ENDROOT
BRANCH   1  16
ATOM     16  C8  ZIN A   1      17.380   1.441  11.129  0.00  0.00     0.142 C 
BRANCH  16  17
ATOM     17  N7  ZIN A   1      18.190   2.450  11.816  0.00  0.00    -0.345 N 
ATOM     18  C2  ZIN A   1      18.524   2.456  13.124  0.00  0.00     0.079 A 
ATOM     19  C1  ZIN A   1      18.127   1.412  14.137  0.00  0.00     0.089 C 
ATOM     20  N3  ZIN A   1      19.252   3.512  13.366  0.00  0.00    -0.355 N 
ATOM     21  H4  ZIN A   1      19.625   3.751  14.229  0.00  0.00     0.166 HD
ATOM     22  C5  ZIN A   1      19.403   4.213  12.233  0.00  0.00     0.106 A 
ATOM     23  C6  ZIN A   1      18.744   3.568  11.252  0.00  0.00     0.109 A 
ENDBRANCH  16  17
ENDBRANCH   1  16
TORSDOF 2
ENDMDL
MODEL 7
REMARK VINA RESULT:      -7.5      2.455      7.499
REMARK  2 active torsions:
REMARK  status: ('A' for Active; 'I' for Inactive)
REMARK    1  A    between atoms: N7_7  and  C8_8 
REMARK    2  A    between atoms: C8_8  and  C9_9 
ROOT
ATOM      1  C9  ZIN A   1      18.334  -0.096  12.326  0.00  0.00     0.079 C 
ATOM      2  C11 ZIN A   1      18.373  -0.425  13.817  0.00  0.00     0.020 C 
ATOM      3  C12 ZIN A   1      19.249   0.587  14.567  0.00  0.00     0.059 C 
ATOM      4  C13 ZIN A   1      18.715   1.970  14.282  0.00  0.00     0.026 A 
ATOM      5  C14 ZIN A   1      18.016   2.264  13.116  0.00  0.00     0.045 A 
ATOM      6  C15 ZIN A   1      17.657   3.670  13.193  0.00  0.00     0.007 A 
ATOM      7  C16 ZIN A   1      16.960   4.523  12.339  0.00  0.00     0.015 A 
ATOM      8  C17 ZIN A   1      16.807   5.835  12.752  0.00  0.00     0.001 A 
ATOM      9  C18 ZIN A   1      17.318   6.287  13.956  0.00  0.00     0.002 A 
ATOM     10  C19 ZIN A   1      18.014   5.457  14.819  0.00  0.00     0.030 A 
ATOM     11  C20 ZIN A   1      18.182   4.131  14.427  0.00  0.00     0.045 A 
ATOM     12  N21 ZIN A   1      18.808   3.076  15.040  0.00  0.00    -0.353 N 
ATOM     13  C22 ZIN A   1      19.485   3.145  16.337  0.00  0.00     0.156 C 
ATOM     14  C23 ZIN A   1      17.769   1.292  12.118  0.00  0.00     0.168 C 
ATOM     15  O24 ZIN A   1      17.126   1.563  11.123  0.00  0.00    -0.292 OA
ENDROOT
BRANCH   1  16
ATOM     16  C8  ZIN A   1      17.453  -1.116  11.603  0.00  0.00     0.142 C 
BRANCH  16  17
ATOM     17  N7  ZIN A   1      18.186  -1.676  10.465  0.00  0.00    -0.345 N 
ATOM     18  C2  ZIN A   1      19.070  -2.696  10.505  0.00  0.00     0.079 A 
ATOM     19  C1  ZIN A   1      19.470  -3.464  11.738  0.00  0.00     0.089 C 
ATOM     20  N3  ZIN A   1      19.515  -2.912   9.296  0.00  0.00    -0.355 N 
ATOM     21  H4  ZIN A   1      20.159  -3.593   9.049  0.00  0.00     0.166 HD
ATOM     22  C5  ZIN A   1      18.941  -2.042   8.453  0.00  0.00     0.106 A 
ATOM     23  C6  ZIN A   1      18.108  -1.258   9.164  0.00  0.00     0.109 A 
ENDBRANCH  16  17
ENDBRANCH   1  16
TORSDOF 2
ENDMDL
MODEL 8
REMARK VINA RESULT:      -7.4      2.624      3.313
REMARK  2 active torsions:
REMARK  status: ('A' for Active; 'I' for Inactive)
REMARK    1  A    between atoms: N7_7  and  C8_8 
REMARK    2  A    between atoms: C8_8  and  C9_9 
ROOT
ATOM      1  C9  ZIN A   1      17.081  -0.768  11.044  0.00  0.00     0.079 C 
ATOM      2  C11 ZIN A   1      17.962  -1.993  11.290  0.00  0.00     0.020 C 
ATOM      3  C12 ZIN A   1      17.803  -3.005  10.149  0.00  0.00     0.059 C 
ATOM      4  C13 ZIN A   1      18.121  -2.302   8.852  0.00  0.00     0.026 A 
ATOM      5  C14 ZIN A   1      17.956  -0.929   8.698  0.00  0.00     0.045 A 
ATOM      6  C15 ZIN A   1      18.364  -0.614   7.340  0.00  0.00     0.007 A 
ATOM      7  C16 ZIN A   1      18.423   0.576   6.616  0.00  0.00     0.015 A 
ATOM      8  C17 ZIN A   1      18.875   0.493   5.310  0.00  0.00     0.001 A 
ATOM      9  C18 ZIN A   1      19.252  -0.711   4.743  0.00  0.00     0.002 A 
ATOM     10  C19 ZIN A   1      19.200  -1.904   5.444  0.00  0.00     0.030 A 
ATOM     11  C20 ZIN A   1      18.750  -1.848   6.760  0.00  0.00     0.045 A 
ATOM     12  N21 ZIN A   1      18.583  -2.828   7.705  0.00  0.00    -0.353 N 
ATOM     13  C22 ZIN A   1      18.867  -4.250   7.493  0.00  0.00     0.156 C 
ATOM     14  C23 ZIN A   1      17.471  -0.105   9.742  0.00  0.00     0.168 C 
ATOM     15  O24 ZIN A   1      17.368   1.097   9.596  0.00  0.00    -0.292 OA
ENDROOT
BRANCH   1  16
ATOM     16  C8  ZIN A   1      17.260   0.225  12.194  0.00  0.00     0.142 C 
BRANCH  16  17
ATOM     17  N7  ZIN A   1      18.668   0.259  12.596  0.00  0.00    -0.345 N 
ATOM     18  C2  ZIN A   1      19.187  -0.236  13.741  0.00  0.00     0.079 A 
ATOM     19  C1  ZIN A   1      18.409  -0.929  14.830  0.00  0.00     0.089 C 
ATOM     20  N3  ZIN A   1      20.474  -0.021  13.745  0.00  0.00    -0.355 N 
ATOM     21  H4  ZIN A   1      21.084  -0.282  14.452  0.00  0.00     0.166 HD
ATOM     22  C5  ZIN A   1      20.819   0.617  12.617  0.00  0.00     0.106 A 
ATOM     23  C6  ZIN A   1      19.703   0.805  11.886  0.00  0.00     0.109 A 
ENDBRANCH  16  17
ENDBRANCH   1  16
TORSDOF 2
ENDMDL
MODEL 9
REMARK VINA RESULT:      -7.4      2.567      4.575
REMARK  2 active torsions:
REMARK  status: ('A' for Active; 'I' for Inactive)
REMARK    1  A    between atoms: N7_7  and  C8_8 
REMARK    2  A    between atoms: C8_8  and  C9_9 
ROOT
ATOM      1  C9  ZIN A   1      18.695   3.102  12.931  0.00  0.00     0.079 C 
ATOM      2  C11 ZIN A   1      17.608   3.329  11.882  0.00  0.00     0.020 C 
ATOM      3  C12 ZIN A   1      18.033   2.738  10.532  0.00  0.00     0.059 C 
ATOM      4  C13 ZIN A   1      18.354   1.277  10.741  0.00  0.00     0.026 A 
ATOM      5  C14 ZIN A   1      18.779   0.785  11.971  0.00  0.00     0.045 A 
ATOM      6  C15 ZIN A   1      18.981  -0.643  11.796  0.00  0.00     0.007 A 
ATOM      7  C16 ZIN A   1      19.392  -1.658  12.659  0.00  0.00     0.015 A 
ATOM      8  C17 ZIN A   1      19.472  -2.935  12.130  0.00  0.00     0.001 A 
ATOM      9  C18 ZIN A   1      19.159  -3.199  10.808  0.00  0.00     0.002 A 
ATOM     10  C19 ZIN A   1      18.749  -2.206   9.935  0.00  0.00     0.030 A 
ATOM     11  C20 ZIN A   1      18.659  -0.912  10.442  0.00  0.00     0.045 A 
ATOM     12  N21 ZIN A   1      18.294   0.271   9.853  0.00  0.00    -0.353 N 
ATOM     13  C22 ZIN A   1      17.893   0.417   8.451  0.00  0.00     0.156 C 
ATOM     14  C23 ZIN A   1      18.946   1.620  13.102  0.00  0.00     0.168 C 
ATOM     15  O24 ZIN A   1      19.285   1.162  14.175  0.00  0.00    -0.292 OA
ENDROOT
BRANCH   1  16
ATOM     16  C8  ZIN A   1      18.245   3.697  14.266  0.00  0.00     0.142 C 
BRANCH  16  17
ATOM     17  N7  ZIN A   1      19.333   4.496  14.837  0.00  0.00    -0.345 N 
ATOM     18  C2  ZIN A   1      19.873   4.352  16.066  0.00  0.00     0.079 A 
ATOM     19  C1  ZIN A   1      19.460   3.329  17.093  0.00  0.00     0.089 C 
ATOM     20  N3  ZIN A   1      20.816   5.242  16.216  0.00  0.00    -0.355 N 
ATOM     21  H4  ZIN A   1      21.364   5.350  17.008  0.00  0.00     0.166 HD
ATOM     22  C5  ZIN A   1      20.907   5.980  15.100  0.00  0.00     0.106 A 
ATOM     23  C6  ZIN A   1      19.986   5.532  14.226  0.00  0.00     0.109 A 
ENDBRANCH  16  17
ENDBRANCH   1  16
TORSDOF 2
ENDMDL
