MODEL 1
REMARK VINA RESULT:      -8.9      0.000      0.000
REMARK  6 active torsions:
REMARK  status: ('A' for Active; 'I' for Inactive)
REMARK    1  A    between atoms: C5_5  and  C6_6 
REMARK    2  A    between atoms: C6_6  and  C14_14 
REMARK    3  A    between atoms: C7_7  and  C8_8 
REMARK    4  A    between atoms: C8_8  and  N9_9 
REMARK    5  A    between atoms: C18_18  and  C19_19 
REMARK    6  A    between atoms: C20_20  and  C21_21 
ROOT
ATOM      1  C6  <0> d   1      18.154  -1.026  11.199  0.00  0.00     0.001 C 
ATOM      2  C7  <0> d   1      17.702  -2.166  10.662  0.00  0.00     0.018 C 
ENDROOT
BRANCH   1   3
ATOM      3  C5  <0> d   1      18.342  -0.921  12.666  0.00  0.00    -0.024 A 
ATOM      4  C4  <0> d   1      19.443  -1.521  13.276  0.00  0.00     0.013 A 
ATOM      5  C3  <0> d   1      19.612  -1.421  14.642  0.00  0.00     0.007 A 
ATOM      6  C2  <0> d   1      18.692  -0.725  15.405  0.00  0.00    -0.062 A 
ATOM      7  C1  <0> d   1      18.883  -0.619  16.897  0.00  0.00     0.048 C 
ATOM      8  C26 <0> d   1      17.595  -0.131  14.807  0.00  0.00     0.007 A 
ATOM      9  C25 <0> d   1      17.419  -0.222  13.441  0.00  0.00     0.013 A 
ENDBRANCH   1   3
BRANCH   1  10
ATOM     10  C14 <0> d   1      18.467   0.131  10.326  0.00  0.00     0.068 A 
ATOM     11  N24 <0> d   1      18.520  -0.034   9.014  0.00  0.00    -0.248 NA
ATOM     12  C18 <0> d   1      18.791   0.979   8.197  0.00  0.00     0.057 A 
ATOM     13  C17 <0> d   1      19.042   2.255   8.706  0.00  0.00     0.031 A 
ATOM     14  C16 <0> d   1      18.998   2.459  10.076  0.00  0.00     0.005 A 
ATOM     15  C15 <0> d   1      18.707   1.382  10.898  0.00  0.00     0.032 A 
BRANCH  12  16
ATOM     16  C19 <0> d   1      18.835   0.750   6.742  0.00  0.00     0.038 C 
ATOM     17  C20 <0> d   1      19.106  -0.479   6.259  0.00  0.00     0.086 C 
BRANCH  17  18
ATOM     18  C21 <0> d   1      19.149  -0.705   4.816  0.00  0.00     0.198 C 
ATOM     19  O22 <0> d   1      19.727  -1.687   4.367  0.00  0.00    -0.645 OA
ATOM     20  O23 <0> d   1      18.607   0.087   4.055  0.00  0.00    -0.645 OA
ENDBRANCH  17  18
ENDBRANCH  12  16
ENDBRANCH   1  10
BRANCH   2  21
ATOM     21  C8  <0> d   1      17.384  -3.342  11.548  0.00  0.00     0.300 C 
BRANCH  21  22
ATOM     22  N9  <0> d   1      17.937  -4.566  10.954  0.00  0.00     0.091 N 
ATOM     23  C13 <0> d   1      19.415  -4.541  10.966  0.00  0.00     0.273 C 
ATOM     24  C12 <0> d   1      19.890  -5.269   9.694  0.00  0.00     0.032 C 
ATOM     25  C11 <0> d   1      18.594  -5.676   8.955  0.00  0.00     0.032 C 
ATOM     26  C10 <0> d   1      17.546  -4.690   9.527  0.00  0.00     0.273 C 
ENDBRANCH  21  22
ENDBRANCH   2  21
TORSDOF 6
ENDMDL
MODEL 2
REMARK VINA RESULT:      -8.7      4.552      7.205
REMARK  6 active torsions:
REMARK  status: ('A' for Active; 'I' for Inactive)
REMARK    1  A    between atoms: C5_5  and  C6_6 
REMARK    2  A    between atoms: C6_6  and  C14_14 
REMARK    3  A    between atoms: C7_7  and  C8_8 
REMARK    4  A    between atoms: C8_8  and  N9_9 
REMARK    5  A    between atoms: C18_18  and  C19_19 
REMARK    6  A    between atoms: C20_20  and  C21_21 
ROOT
ATOM      1  C6  <0> d   1      18.961   1.604  10.626  0.00  0.00     0.001 C 
ATOM      2  C7  <0> d   1      19.862   0.927  11.348  0.00  0.00     0.018 C 
ENDROOT
BRANCH   1   3
ATOM      3  C5  <0> d   1      18.627   1.160   9.250  0.00  0.00    -0.024 A 
ATOM      4  C4  <0> d   1      19.368   1.628   8.166  0.00  0.00     0.013 A 
ATOM      5  C3  <0> d   1      19.052   1.212   6.888  0.00  0.00     0.007 A 
ATOM      6  C2  <0> d   1      18.005   0.333   6.683  0.00  0.00    -0.062 A 
ATOM      7  C1  <0> d   1      17.665  -0.117   5.285  0.00  0.00     0.048 C 
ATOM      8  C26 <0> d   1      17.263  -0.130   7.755  0.00  0.00     0.007 A 
ATOM      9  C25 <0> d   1      17.572   0.275   9.037  0.00  0.00     0.013 A 
ENDBRANCH   1   3
BRANCH   1  10
ATOM     10  C14 <0> d   1      18.296   2.798  11.201  0.00  0.00     0.068 A 
ATOM     11  N24 <0> d   1      18.389   3.037  12.500  0.00  0.00    -0.248 NA
ATOM     12  C18 <0> d   1      17.813   4.099  13.053  0.00  0.00     0.057 A 
ATOM     13  C17 <0> d   1      17.076   4.995  12.275  0.00  0.00     0.031 A 
ATOM     14  C16 <0> d   1      16.955   4.769  10.914  0.00  0.00     0.005 A 
ATOM     15  C15 <0> d   1      17.573   3.655  10.368  0.00  0.00     0.032 A 
BRANCH  12  16
ATOM     16  C19 <0> d   1      17.947   4.329  14.502  0.00  0.00     0.038 C 
ATOM     17  C20 <0> d   1      18.893   3.674  15.206  0.00  0.00     0.086 C 
BRANCH  17  18
ATOM     18  C21 <0> d   1      19.026   3.902  16.643  0.00  0.00     0.198 C 
ATOM     19  O22 <0> d   1      19.864   3.282  17.286  0.00  0.00    -0.645 OA
ATOM     20  O23 <0> d   1      18.300   4.714  17.205  0.00  0.00    -0.645 OA
ENDBRANCH  17  18
ENDBRANCH  12  16
ENDBRANCH   1  10
BRANCH   2  21
ATOM     21  C8  <0> d   1      20.538  -0.286  10.764  0.00  0.00     0.300 C 
BRANCH  21  22
ATOM     22  N9  <0> d   1      20.085  -1.489  11.474  0.00  0.00     0.091 N 
ATOM     23  C13 <0> d   1      19.289  -2.361  10.585  0.00  0.00     0.273 C 
ATOM     24  C12 <0> d   1      18.205  -3.026  11.455  0.00  0.00     0.032 C 
ATOM     25  C11 <0> d   1      18.421  -2.453  12.875  0.00  0.00     0.032 C 
ATOM     26  C10 <0> d   1      19.188  -1.135  12.603  0.00  0.00     0.273 C 
ENDBRANCH  21  22
ENDBRANCH   2  21
TORSDOF 6
ENDMDL
MODEL 3
REMARK VINA RESULT:      -8.6      3.174      5.750
REMARK  6 active torsions:
REMARK  status: ('A' for Active; 'I' for Inactive)
REMARK    1  A    between atoms: C5_5  and  C6_6 
REMARK    2  A    between atoms: C6_6  and  C14_14 
REMARK    3  A    between atoms: C7_7  and  C8_8 
REMARK    4  A    between atoms: C8_8  and  N9_9 
REMARK    5  A    between atoms: C18_18  and  C19_19 
REMARK    6  A    between atoms: C20_20  and  C21_21 
ROOT
ATOM      1  C6  <0> d   1      19.251  -0.831  11.722  0.00  0.00     0.001 C 
ATOM      2  C7  <0> d   1      19.658  -0.412  12.926  0.00  0.00     0.018 C 
ENDROOT
BRANCH   1   3
ATOM      3  C5  <0> d   1      18.800  -2.231  11.536  0.00  0.00    -0.024 A 
ATOM      4  C4  <0> d   1      19.735  -3.257  11.405  0.00  0.00     0.013 A 
ATOM      5  C3  <0> d   1      19.308  -4.558  11.232  0.00  0.00     0.007 A 
ATOM      6  C2  <0> d   1      17.956  -4.845  11.190  0.00  0.00    -0.062 A 
ATOM      7  C1  <0> d   1      17.497  -6.268  11.000  0.00  0.00     0.048 C 
ATOM      8  C26 <0> d   1      17.023  -3.831  11.314  0.00  0.00     0.007 A 
ATOM      9  C25 <0> d   1      17.439  -2.527  11.492  0.00  0.00     0.013 A 
ENDBRANCH   1   3
BRANCH   1  10
ATOM     10  C14 <0> d   1      19.252   0.106  10.572  0.00  0.00     0.068 A 
ATOM     11  N24 <0> d   1      18.757   1.325  10.721  0.00  0.00    -0.248 NA
ATOM     12  C18 <0> d   1      18.745   2.196   9.717  0.00  0.00     0.057 A 
ATOM     13  C17 <0> d   1      19.247   1.843   8.463  0.00  0.00     0.031 A 
ATOM     14  C16 <0> d   1      19.767   0.573   8.274  0.00  0.00     0.005 A 
ATOM     15  C15 <0> d   1      19.770  -0.308   9.343  0.00  0.00     0.032 A 
BRANCH  12  16
ATOM     16  C19 <0> d   1      18.189   3.544   9.929  0.00  0.00     0.038 C 
ATOM     17  C20 <0> d   1      17.427   3.798  11.012  0.00  0.00     0.086 C 
BRANCH  17  18
ATOM     18  C21 <0> d   1      16.876   5.135  11.222  0.00  0.00     0.198 C 
ATOM     19  O22 <0> d   1      17.067   6.014  10.390  0.00  0.00    -0.645 OA
ATOM     20  O23 <0> d   1      16.224   5.379  12.230  0.00  0.00    -0.645 OA
ENDBRANCH  17  18
ENDBRANCH  12  16
ENDBRANCH   1  10
BRANCH   2  21
ATOM     21  C8  <0> d   1      19.658  -1.363  14.094  0.00  0.00     0.300 C 
BRANCH  21  22
ATOM     22  N9  <0> d   1      18.395  -1.234  14.832  0.00  0.00     0.091 N 
ATOM     23  C13 <0> d   1      17.938   0.171  14.858  0.00  0.00     0.273 C 
ATOM     24  C12 <0> d   1      17.241   0.395  16.214  0.00  0.00     0.032 C 
ATOM     25  C11 <0> d   1      17.362  -0.956  16.957  0.00  0.00     0.032 C 
ATOM     26  C10 <0> d   1      18.565  -1.631  16.253  0.00  0.00     0.273 C 
ENDBRANCH  21  22
ENDBRANCH   2  21
TORSDOF 6
ENDMDL
MODEL 4
REMARK VINA RESULT:      -8.6      1.622      4.681
REMARK  6 active torsions:
REMARK  status: ('A' for Active; 'I' for Inactive)
REMARK    1  A    between atoms: C5_5  and  C6_6 
REMARK    2  A    between atoms: C6_6  and  C14_14 
REMARK    3  A    between atoms: C7_7  and  C8_8 
REMARK    4  A    between atoms: C8_8  and  N9_9 
REMARK    5  A    between atoms: C18_18  and  C19_19 
REMARK    6  A    between atoms: C20_20  and  C21_21 
ROOT
ATOM      1  C6  <0> d   1      18.957  -0.194  11.574  0.00  0.00     0.001 C 
ATOM      2  C7  <0> d   1      19.552   0.912  11.111  0.00  0.00     0.018 C 
ENDROOT
BRANCH   1   3
ATOM      3  C5  <0> d   1      18.652  -0.323  13.020  0.00  0.00    -0.024 A 
ATOM      4  C4  <0> d   1      19.434  -1.147  13.828  0.00  0.00     0.013 A 
ATOM      5  C3  <0> d   1      19.146  -1.264  15.173  0.00  0.00     0.007 A 
ATOM      6  C2  <0> d   1      18.084  -0.565  15.718  0.00  0.00    -0.062 A 
ATOM      7  C1  <0> d   1      17.774  -0.698  17.187  0.00  0.00     0.048 C 
ATOM      8  C26 <0> d   1      17.301   0.250  14.920  0.00  0.00     0.007 A 
ATOM      9  C25 <0> d   1      17.584   0.378  13.575  0.00  0.00     0.013 A 
ENDBRANCH   1   3
BRANCH   1  10
ATOM     10  C14 <0> d   1      18.601  -1.290  10.640  0.00  0.00     0.068 A 
ATOM     11  N24 <0> d   1      19.019  -1.242   9.385  0.00  0.00    -0.248 NA
ATOM     12  C18 <0> d   1      18.728  -2.207   8.519  0.00  0.00     0.057 A 
ATOM     13  C17 <0> d   1      17.954  -3.302   8.909  0.00  0.00     0.031 A 
ATOM     14  C16 <0> d   1      17.496  -3.378  10.215  0.00  0.00     0.005 A 
ATOM     15  C15 <0> d   1      17.824  -2.358  11.093  0.00  0.00     0.032 A 
BRANCH  12  16
ATOM     16  C19 <0> d   1      19.219  -2.115   7.133  0.00  0.00     0.038 C 
ATOM     17  C20 <0> d   1      18.876  -1.063   6.363  0.00  0.00     0.086 C 
BRANCH  17  18
ATOM     18  C21 <0> d   1      19.363  -0.973   4.988  0.00  0.00     0.198 C 
ATOM     19  O22 <0> d   1      19.656  -1.992   4.374  0.00  0.00    -0.645 OA
ATOM     20  O23 <0> d   1      19.481   0.121   4.449  0.00  0.00    -0.645 OA
ENDBRANCH  17  18
ENDBRANCH  12  16
ENDBRANCH   1  10
BRANCH   2  21
ATOM     21  C8  <0> d   1      19.913   2.026  12.059  0.00  0.00     0.300 C 
BRANCH  21  22
ATOM     22  N9  <0> d   1      19.363   3.293  11.559  0.00  0.00     0.091 N 
ATOM     23  C13 <0> d   1      18.304   3.801  12.456  0.00  0.00     0.273 C 
ATOM     24  C12 <0> d   1      17.259   4.504  11.568  0.00  0.00     0.032 C 
ATOM     25  C11 <0> d   1      17.779   4.334  10.122  0.00  0.00     0.032 C 
ATOM     26  C10 <0> d   1      18.718   3.107  10.234  0.00  0.00     0.273 C 
ENDBRANCH  21  22
ENDBRANCH   2  21
TORSDOF 6
ENDMDL
MODEL 5
REMARK VINA RESULT:      -8.6      1.586      4.542
REMARK  6 active torsions:
REMARK  status: ('A' for Active; 'I' for Inactive)
REMARK    1  A    between atoms: C5_5  and  C6_6 
REMARK    2  A    between atoms: C6_6  and  C14_14 
REMARK    3  A    between atoms: C7_7  and  C8_8 
REMARK    4  A    between atoms: C8_8  and  N9_9 
REMARK    5  A    between atoms: C18_18  and  C19_19 
REMARK    6  A    between atoms: C20_20  and  C21_21 
ROOT
ATOM      1  C6  <0> d   1      19.134  -0.654  11.856  0.00  0.00     0.001 C 
ATOM      2  C7  <0> d   1      19.500  -0.355  13.108  0.00  0.00     0.018 C 
ENDROOT
BRANCH   1   3
ATOM      3  C5  <0> d   1      18.770  -2.047  11.502  0.00  0.00    -0.024 A 
ATOM      4  C4  <0> d   1      19.762  -2.963  11.155  0.00  0.00     0.013 A 
ATOM      5  C3  <0> d   1      19.416  -4.258  10.825  0.00  0.00     0.007 A 
ATOM      6  C2  <0> d   1      18.089  -4.648  10.839  0.00  0.00    -0.062 A 
ATOM      7  C1  <0> d   1      17.719  -6.063  10.478  0.00  0.00     0.048 C 
ATOM      8  C26 <0> d   1      17.100  -3.742  11.178  0.00  0.00     0.007 A 
ATOM      9  C25 <0> d   1      17.434  -2.446  11.514  0.00  0.00     0.013 A 
ENDBRANCH   1   3
BRANCH   1  10
ATOM     10  C14 <0> d   1      19.093   0.409  10.822  0.00  0.00     0.068 A 
ATOM     11  N24 <0> d   1      19.059   0.076   9.542  0.00  0.00    -0.248 NA
ATOM     12  C18 <0> d   1      19.015   0.997   8.585  0.00  0.00     0.057 A 
ATOM     13  C17 <0> d   1      19.017   2.356   8.907  0.00  0.00     0.031 A 
ATOM     14  C16 <0> d   1      19.058   2.737  10.239  0.00  0.00     0.005 A 
ATOM     15  C15 <0> d   1      19.096   1.750  11.210  0.00  0.00     0.032 A 
BRANCH  12  16
ATOM     16  C19 <0> d   1      18.972   0.581   7.173  0.00  0.00     0.038 C 
ATOM     17  C20 <0> d   1      18.878  -0.727   6.857  0.00  0.00     0.086 C 
BRANCH  17  18
ATOM     18  C21 <0> d   1      18.836  -1.139   5.456  0.00  0.00     0.198 C 
ATOM     19  O22 <0> d   1      17.774  -1.482   4.950  0.00  0.00    -0.645 OA
ATOM     20  O23 <0> d   1      19.862  -1.143   4.785  0.00  0.00    -0.645 OA
ENDBRANCH  17  18
ENDBRANCH  12  16
ENDBRANCH   1  10
BRANCH   2  21
ATOM     21  C8  <0> d   1      19.543  -1.434  14.159  0.00  0.00     0.300 C 
BRANCH  21  22
ATOM     22  N9  <0> d   1      19.229  -0.854  15.471  0.00  0.00     0.091 N 
ATOM     23  C13 <0> d   1      18.070  -1.532  16.087  0.00  0.00     0.273 C 
ATOM     24  C12 <0> d   1      17.294  -0.467  16.886  0.00  0.00     0.032 C 
ATOM     25  C11 <0> d   1      18.069   0.852  16.655  0.00  0.00     0.032 C 
ATOM     26  C10 <0> d   1      18.842   0.574  15.342  0.00  0.00     0.273 C 
ENDBRANCH  21  22
ENDBRANCH   2  21
TORSDOF 6
ENDMDL
MODEL 6
REMARK VINA RESULT:      -8.5      4.720      8.666
REMARK  6 active torsions:
REMARK  status: ('A' for Active; 'I' for Inactive)
REMARK    1  A    between atoms: C5_5  and  C6_6 
REMARK    2  A    between atoms: C6_6  and  C14_14 
REMARK    3  A    between atoms: C7_7  and  C8_8 
REMARK    4  A    between atoms: C8_8  and  N9_9 
REMARK    5  A    between atoms: C18_18  and  C19_19 
REMARK    6  A    between atoms: C20_20  and  C21_21 
ROOT
ATOM      1  C6  <0> d   1      18.116   1.208  11.306  0.00  0.00     0.001 C 
ATOM      2  C7  <0> d   1      17.772   2.411  11.780  0.00  0.00     0.018 C 
ENDROOT
BRANCH   1   3
ATOM      3  C5  <0> d   1      18.210   0.986   9.842  0.00  0.00    -0.024 A 
ATOM      4  C4  <0> d   1      19.234   1.582   9.109  0.00  0.00     0.013 A 
ATOM      5  C3  <0> d   1      19.315   1.374   7.747  0.00  0.00     0.007 A 
ATOM      6  C2  <0> d   1      18.383   0.574   7.110  0.00  0.00    -0.062 A 
ATOM      7  C1  <0> d   1      18.477   0.350   5.623  0.00  0.00     0.048 C 
ATOM      8  C26 <0> d   1      17.361  -0.016   7.832  0.00  0.00     0.007 A 
ATOM      9  C25 <0> d   1      17.273   0.183   9.195  0.00  0.00     0.013 A 
ENDBRANCH   1   3
BRANCH   1  10
ATOM     10  C14 <0> d   1      18.405   0.096  12.244  0.00  0.00     0.068 A 
ATOM     11  N24 <0> d   1      18.263   0.285  13.546  0.00  0.00    -0.248 NA
ATOM     12  C18 <0> d   1      18.505  -0.687  14.420  0.00  0.00     0.057 A 
ATOM     13  C17 <0> d   1      18.933  -1.944  13.984  0.00  0.00     0.031 A 
ATOM     14  C16 <0> d   1      19.096  -2.171  12.627  0.00  0.00     0.005 A 
ATOM     15  C15 <0> d   1      18.828  -1.137  11.744  0.00  0.00     0.032 A 
BRANCH  12  16
ATOM     16  C19 <0> d   1      18.329  -0.434  15.860  0.00  0.00     0.038 C 
ATOM     17  C20 <0> d   1      19.232   0.311  16.531  0.00  0.00     0.086 C 
BRANCH  17  18
ATOM     18  C21 <0> d   1      19.056   0.561  17.959  0.00  0.00     0.198 C 
ATOM     19  O22 <0> d   1      18.215  -0.065  18.593  0.00  0.00    -0.645 OA
ATOM     20  O23 <0> d   1      19.749   1.399  18.525  0.00  0.00    -0.645 OA
ENDBRANCH  17  18
ENDBRANCH  12  16
ENDBRANCH   1  10
BRANCH   2  21
ATOM     21  C8  <0> d   1      17.478   3.541  10.828  0.00  0.00     0.300 C 
BRANCH  21  22
ATOM     22  N9  <0> d   1      17.622   4.823  11.530  0.00  0.00     0.091 N 
ATOM     23  C13 <0> d   1      18.635   4.731  12.602  0.00  0.00     0.273 C 
ATOM     24  C12 <0> d   1      18.164   5.644  13.750  0.00  0.00     0.032 C 
ATOM     25  C11 <0> d   1      16.814   6.228  13.271  0.00  0.00     0.032 C 
ATOM     26  C10 <0> d   1      16.354   5.206  12.203  0.00  0.00     0.273 C 
ENDBRANCH  21  22
ENDBRANCH   2  21
TORSDOF 6
ENDMDL
MODEL 7
REMARK VINA RESULT:      -8.3      1.879      5.165
REMARK  6 active torsions:
REMARK  status: ('A' for Active; 'I' for Inactive)
REMARK    1  A    between atoms: C5_5  and  C6_6 
REMARK    2  A    between atoms: C6_6  and  C14_14 
REMARK    3  A    between atoms: C7_7  and  C8_8 
REMARK    4  A    between atoms: C8_8  and  N9_9 
REMARK    5  A    between atoms: C18_18  and  C19_19 
REMARK    6  A    between atoms: C20_20  and  C21_21 
ROOT
ATOM      1  C6  <0> d   1      18.820  -0.491  11.647  0.00  0.00     0.001 C 
ATOM      2  C7  <0> d   1      19.388  -0.709  12.839  0.00  0.00     0.018 C 
ENDROOT
BRANCH   1   3
ATOM      3  C5  <0> d   1      18.537   0.896  11.203  0.00  0.00    -0.024 A 
ATOM      4  C4  <0> d   1      17.515   1.628  11.806  0.00  0.00     0.013 A 
ATOM      5  C3  <0> d   1      17.256   2.918  11.388  0.00  0.00     0.007 A 
ATOM      6  C2  <0> d   1      18.007   3.483  10.374  0.00  0.00    -0.062 A 
ATOM      7  C1  <0> d   1      17.718   4.892   9.923  0.00  0.00     0.048 C 
ATOM      8  C26 <0> d   1      19.019   2.760   9.769  0.00  0.00     0.007 A 
ATOM      9  C25 <0> d   1      19.290   1.471  10.182  0.00  0.00     0.013 A 
ENDBRANCH   1   3
BRANCH   1  10
ATOM     10  C14 <0> d   1      18.475  -1.635  10.769  0.00  0.00     0.068 A 
ATOM     11  N24 <0> d   1      18.942  -1.675   9.531  0.00  0.00    -0.248 NA
ATOM     12  C18 <0> d   1      18.661  -2.685   8.715  0.00  0.00     0.057 A 
ATOM     13  C17 <0> d   1      17.848  -3.738   9.141  0.00  0.00     0.031 A 
ATOM     14  C16 <0> d   1      17.339  -3.722  10.429  0.00  0.00     0.005 A 
ATOM     15  C15 <0> d   1      17.657  -2.657  11.256  0.00  0.00     0.032 A 
BRANCH  12  16
ATOM     16  C19 <0> d   1      19.207  -2.690   7.346  0.00  0.00     0.038 C 
ATOM     17  C20 <0> d   1      18.692  -1.867   6.411  0.00  0.00     0.086 C 
BRANCH  17  18
ATOM     18  C21 <0> d   1      19.234  -1.873   5.054  0.00  0.00     0.198 C 
ATOM     19  O22 <0> d   1      19.918  -0.935   4.663  0.00  0.00    -0.645 OA
ATOM     20  O23 <0> d   1      19.004  -2.816   4.305  0.00  0.00    -0.645 OA
ENDBRANCH  17  18
ENDBRANCH  12  16
ENDBRANCH   1  10
BRANCH   2  21
ATOM     21  C8  <0> d   1      19.739   0.452  13.732  0.00  0.00     0.300 C 
BRANCH  21  22
ATOM     22  N9  <0> d   1      19.249   0.192  15.091  0.00  0.00     0.091 N 
ATOM     23  C13 <0> d   1      19.203  -1.259  15.370  0.00  0.00     0.273 C 
ATOM     24  C12 <0> d   1      17.993  -1.505  16.290  0.00  0.00     0.032 C 
ATOM     25  C11 <0> d   1      17.345  -0.114  16.485  0.00  0.00     0.032 C 
ATOM     26  C10 <0> d   1      17.856   0.680  15.257  0.00  0.00     0.273 C 
ENDBRANCH  21  22
ENDBRANCH   2  21
TORSDOF 6
ENDMDL
MODEL 8
REMARK VINA RESULT:      -8.2      2.873      3.804
REMARK  6 active torsions:
REMARK  status: ('A' for Active; 'I' for Inactive)
REMARK    1  A    between atoms: C5_5  and  C6_6 
REMARK    2  A    between atoms: C6_6  and  C14_14 
REMARK    3  A    between atoms: C7_7  and  C8_8 
REMARK    4  A    between atoms: C8_8  and  N9_9 
REMARK    5  A    between atoms: C18_18  and  C19_19 
REMARK    6  A    between atoms: C20_20  and  C21_21 
ROOT
ATOM      1  C6  <0> d   1      18.226  -1.180  11.281  0.00  0.00     0.001 C 
ATOM      2  C7  <0> d   1      17.746  -2.356  10.859  0.00  0.00     0.018 C 
ENDROOT
BRANCH   1   3
ATOM      3  C5  <0> d   1      18.394  -0.924  12.732  0.00  0.00    -0.024 A 
ATOM      4  C4  <0> d   1      19.457  -1.501  13.425  0.00  0.00     0.013 A 
ATOM      5  C3  <0> d   1      19.607  -1.261  14.776  0.00  0.00     0.007 A 
ATOM      6  C2  <0> d   1      18.707  -0.449  15.441  0.00  0.00    -0.062 A 
ATOM      7  C1  <0> d   1      18.877  -0.190  16.916  0.00  0.00     0.048 C 
ATOM      8  C26 <0> d   1      17.647   0.122  14.759  0.00  0.00     0.007 A 
ATOM      9  C25 <0> d   1      17.489  -0.108  13.408  0.00  0.00     0.013 A 
ENDBRANCH   1   3
BRANCH   1  10
ATOM     10  C14 <0> d   1      18.589  -0.132  10.296  0.00  0.00     0.068 A 
ATOM     11  N24 <0> d   1      18.201   1.118  10.498  0.00  0.00    -0.248 NA
ATOM     12  C18 <0> d   1      18.511   2.087   9.643  0.00  0.00     0.057 A 
ATOM     13  C17 <0> d   1      19.251   1.810   8.491  0.00  0.00     0.031 A 
ATOM     14  C16 <0> d   1      19.667   0.511   8.250  0.00  0.00     0.005 A 
ATOM     15  C15 <0> d   1      19.332  -0.474   9.165  0.00  0.00     0.032 A 
BRANCH  12  16
ATOM     16  C19 <0> d   1      18.063   3.465   9.910  0.00  0.00     0.038 C 
ATOM     17  C20 <0> d   1      17.377   3.746  11.036  0.00  0.00     0.086 C 
BRANCH  17  18
ATOM     18  C21 <0> d   1      16.933   5.113  11.300  0.00  0.00     0.198 C 
ATOM     19  O22 <0> d   1      17.024   5.966  10.426  0.00  0.00    -0.645 OA
ATOM     20  O23 <0> d   1      16.470   5.407  12.396  0.00  0.00    -0.645 OA
ENDBRANCH  17  18
ENDBRANCH  12  16
ENDBRANCH   1  10
BRANCH   2  21
ATOM     21  C8  <0> d   1      17.377  -3.421  11.858  0.00  0.00     0.300 C 
BRANCH  21  22
ATOM     22  N9  <0> d   1      17.709  -4.743  11.311  0.00  0.00     0.091 N 
ATOM     23  C13 <0> d   1      18.947  -4.688  10.505  0.00  0.00     0.273 C 
ATOM     24  C12 <0> d   1      18.782  -5.696   9.353  0.00  0.00     0.032 C 
ATOM     25  C11 <0> d   1      17.369  -6.297   9.542  0.00  0.00     0.032 C 
ATOM     26  C10 <0> d   1      16.647  -5.220  10.390  0.00  0.00     0.273 C 
ENDBRANCH  21  22
ENDBRANCH   2  21
TORSDOF 6
ENDMDL
MODEL 9
REMARK VINA RESULT:      -8.2      4.510      7.038
REMARK  6 active torsions:
REMARK  status: ('A' for Active; 'I' for Inactive)
REMARK    1  A    between atoms: C5_5  and  C6_6 
REMARK    2  A    between atoms: C6_6  and  C14_14 
REMARK    3  A    between atoms: C7_7  and  C8_8 
REMARK    4  A    between atoms: C8_8  and  N9_9 
REMARK    5  A    between atoms: C18_18  and  C19_19 
REMARK    6  A    between atoms: C20_20  and  C21_21 
ROOT
ATOM      1  C6  <0> d   1      18.841   0.356  11.607  0.00  0.00     0.001 C 
ATOM      2  C7  <0> d   1      19.258  -0.780  12.178  0.00  0.00     0.018 C 
ENDROOT
BRANCH   1   3
ATOM      3  C5  <0> d   1      18.666   0.425  10.136  0.00  0.00    -0.024 A 
ATOM      4  C4  <0> d   1      19.614   1.075   9.347  0.00  0.00     0.013 A 
ATOM      5  C3  <0> d   1      19.444   1.137   7.979  0.00  0.00     0.007 A 
ATOM      6  C2  <0> d   1      18.337   0.554   7.390  0.00  0.00    -0.062 A 
ATOM      7  C1  <0> d   1      18.158   0.626   5.895  0.00  0.00     0.048 C 
ATOM      8  C26 <0> d   1      17.390  -0.088   8.167  0.00  0.00     0.007 A 
ATOM      9  C25 <0> d   1      17.551  -0.159   9.536  0.00  0.00     0.013 A 
ENDBRANCH   1   3
BRANCH   1  10
ATOM     10  C14 <0> d   1      18.555   1.546  12.444  0.00  0.00     0.068 A 
ATOM     11  N24 <0> d   1      18.826   1.515  13.740  0.00  0.00    -0.248 NA
ATOM     12  C18 <0> d   1      18.590   2.562  14.523  0.00  0.00     0.057 A 
ATOM     13  C17 <0> d   1      18.033   3.731  13.999  0.00  0.00     0.031 A 
ATOM     14  C16 <0> d   1      17.733   3.792  12.648  0.00  0.00     0.005 A 
ATOM     15  C15 <0> d   1      17.998   2.684  11.859  0.00  0.00     0.032 A 
BRANCH  12  16
ATOM     16  C19 <0> d   1      18.913   2.486  15.959  0.00  0.00     0.038 C 
ATOM     17  C20 <0> d   1      18.934   1.291  16.584  0.00  0.00     0.086 C 
BRANCH  17  18
ATOM     18  C21 <0> d   1      19.254   1.216  18.007  0.00  0.00     0.198 C 
ATOM     19  O22 <0> d   1      19.152   0.150  18.603  0.00  0.00    -0.645 OA
ATOM     20  O23 <0> d   1      19.625   2.218  18.607  0.00  0.00    -0.645 OA
ENDBRANCH  17  18
ENDBRANCH  12  16
ENDBRANCH   1  10
BRANCH   2  21
ATOM     21  C8  <0> d   1      19.549  -1.989  11.329  0.00  0.00     0.300 C 
BRANCH  21  22
ATOM     22  N9  <0> d   1      18.784  -3.137  11.830  0.00  0.00     0.091 N 
ATOM     23  C13 <0> d   1      19.373  -4.411  11.368  0.00  0.00     0.273 C 
ATOM     24  C12 <0> d   1      18.209  -5.395  11.144  0.00  0.00     0.032 C 
ATOM     25  C11 <0> d   1      16.932  -4.589  11.478  0.00  0.00     0.032 C 
ATOM     26  C10 <0> d   1      17.394  -3.121  11.306  0.00  0.00     0.273 C 
ENDBRANCH  21  22
ENDBRANCH   2  21
TORSDOF 6
ENDMDL
