MODEL 1
REMARK VINA RESULT:      -8.4      0.000      0.000
REMARK  9 active torsions:
REMARK  status: ('A' for Active; 'I' for Inactive)
REMARK    1  A    between atoms: C3_3  and  C4_4 
REMARK    2  A    between atoms: C7_7  and  O8_8 
REMARK    3  A    between atoms: N11_11  and  C12_12 
REMARK    4  A    between atoms: C12_12  and  C13_13 
REMARK    5  A    between atoms: C16_16  and  O17_17 
REMARK    6  A    between atoms: O17_17  and  C18_18 
REMARK    7  A    between atoms: C18_18  and  C19_19 
REMARK    8  A    between atoms: C19_19  and  N20_20 
REMARK    9  A    between atoms: C33_33  and  O34_34 
ROOT
ATOM      1  C1  <0> d   1      17.159   3.344  10.745  0.00  0.00     0.051 C 
ATOM      2  C2  <0> d   1      18.054   2.302  11.362  0.00  0.00    -0.022 A 
ATOM      3  C3  <0> d   1      18.719   1.318  10.705  0.00  0.00     0.052 A 
ATOM      4  N11 <0> d   1      19.433   0.563  11.606  0.00  0.00    -0.341 N 
ATOM      5  C30 <0> d   1      19.240   1.053  12.882  0.00  0.00     0.046 A 
ATOM      6  C31 <0> d   1      19.718   0.670  14.130  0.00  0.00     0.033 A 
ATOM      7  C32 <0> d   1      19.342   1.368  15.256  0.00  0.00     0.039 A 
ATOM      8  C33 <0> d   1      18.484   2.459  15.161  0.00  0.00     0.066 A 
ATOM      9  C35 <0> d   1      17.999   2.858  13.931  0.00  0.00     0.051 A 
ATOM     10  C36 <0> d   1      18.377   2.160  12.780  0.00  0.00     0.002 A 
ENDROOT
BRANCH   4  11
ATOM     11  C12 <0> d   1      20.273  -0.587  11.264  0.00  0.00     0.168 C 
BRANCH  11  12
ATOM     12  C13 <0> d   1      19.475  -1.856  11.420  0.00  0.00    -0.040 A 
ATOM     13  C29 <0> d   1      20.107  -3.083  11.335  0.00  0.00     0.011 A 
ATOM     14  C28 <0> d   1      19.378  -4.248  11.483  0.00  0.00     0.037 A 
ATOM     15  C16 <0> d   1      18.011  -4.185  11.707  0.00  0.00     0.068 A 
ATOM     16  C15 <0> d   1      17.378  -2.952  11.785  0.00  0.00     0.037 A 
ATOM     17  C14 <0> d   1      18.112  -1.791  11.642  0.00  0.00     0.011 A 
BRANCH  15  18
ATOM     18  O17 <0> d   1      17.291  -5.330  11.847  0.00  0.00    -0.350 OA
BRANCH  18  19
ATOM     19  C18 <0> d   1      17.295  -6.238  10.743  0.00  0.00     0.203 C 
BRANCH  19  20
ATOM     20  C19 <0> d   1      16.428  -5.674   9.617  0.00  0.00     0.261 C 
BRANCH  20  21
ATOM     21  N20 <0> d   1      17.134  -5.821   8.335  0.00  0.00    -0.069 N 
ATOM     22  H21 <0> d   1      16.648  -6.509   7.779  0.00  0.00     0.280 HD
ATOM     23  C27 <0> d   1      18.502  -6.314   8.605  0.00  0.00     0.235 C 
ATOM     24  C26 <0> d   1      19.433  -6.132   7.438  0.00  0.00     0.028 C 
ATOM     25  C25 <0> d   1      20.193  -4.801   7.632  0.00  0.00     0.002 C 
ATOM     26  C24 <0> d   1      19.379  -3.647   7.276  0.00  0.00     0.002 C 
ATOM     27  C23 <0> d   1      18.108  -3.540   8.145  0.00  0.00     0.028 C 
ATOM     28  C22 <0> d   1      17.097  -4.526   7.625  0.00  0.00     0.235 C 
ENDBRANCH  20  21
ENDBRANCH  19  20
ENDBRANCH  18  19
ENDBRANCH  15  18
ENDBRANCH  11  12
ENDBRANCH   4  11
BRANCH   3  29
ATOM     29  C4  <0> d   1      18.681   1.091   9.245  0.00  0.00    -0.009 A 
ATOM     30  C10 <0> d   1      19.594   1.740   8.412  0.00  0.00     0.016 A 
ATOM     31  C9  <0> d   1      19.558   1.524   7.051  0.00  0.00     0.037 A 
ATOM     32  C7  <0> d   1      18.609   0.669   6.507  0.00  0.00     0.065 A 
ATOM     33  C6  <0> d   1      17.695   0.024   7.331  0.00  0.00     0.037 A 
ATOM     34  C5  <0> d   1      17.728   0.232   8.694  0.00  0.00     0.016 A 
BRANCH  32  35
ATOM     35  O8  <0> d   1      18.573   0.461   5.165  0.00  0.00    -0.361 OA
ATOM     36  H42 <0> d   1      17.872   0.948   4.710  0.00  0.00     0.217 HD
ENDBRANCH  32  35
ENDBRANCH   3  29
BRANCH   8  37
ATOM     37  O34 <0> d   1      18.123   3.137  16.283  0.00  0.00    -0.361 OA
ATOM     38  H69 <0> d   1      18.325   4.082  16.254  0.00  0.00     0.217 HD
ENDBRANCH   8  37
TORSDOF 9
ENDMDL
MODEL 2
REMARK VINA RESULT:      -8.3      1.634      5.128
REMARK  9 active torsions:
REMARK  status: ('A' for Active; 'I' for Inactive)
REMARK    1  A    between atoms: C3_3  and  C4_4 
REMARK    2  A    between atoms: C7_7  and  O8_8 
REMARK    3  A    between atoms: N11_11  and  C12_12 
REMARK    4  A    between atoms: C12_12  and  C13_13 
REMARK    5  A    between atoms: C16_16  and  O17_17 
REMARK    6  A    between atoms: O17_17  and  C18_18 
REMARK    7  A    between atoms: C18_18  and  C19_19 
REMARK    8  A    between atoms: C19_19  and  N20_20 
REMARK    9  A    between atoms: C33_33  and  O34_34 
ROOT
ATOM      1  C1  <0> d   1      17.509   3.092  12.608  0.00  0.00     0.051 C 
ATOM      2  C2  <0> d   1      18.264   1.854  12.205  0.00  0.00    -0.022 A 
ATOM      3  C3  <0> d   1      18.686   0.861  13.028  0.00  0.00     0.052 A 
ATOM      4  N11 <0> d   1      19.339  -0.101  12.294  0.00  0.00    -0.341 N 
ATOM      5  C30 <0> d   1      19.352   0.258  10.961  0.00  0.00     0.046 A 
ATOM      6  C31 <0> d   1      19.869  -0.344   9.820  0.00  0.00     0.033 A 
ATOM      7  C32 <0> d   1      19.725   0.266   8.593  0.00  0.00     0.039 A 
ATOM      8  C33 <0> d   1      19.064   1.485   8.481  0.00  0.00     0.066 A 
ATOM      9  C35 <0> d   1      18.541   2.100   9.601  0.00  0.00     0.051 A 
ATOM     10  C36 <0> d   1      18.677   1.488  10.851  0.00  0.00     0.002 A 
ENDROOT
BRANCH   4  11
ATOM     11  C12 <0> d   1      19.932  -1.323  12.843  0.00  0.00     0.168 C 
BRANCH  11  12
ATOM     12  C13 <0> d   1      19.317  -2.524  12.174  0.00  0.00    -0.040 A 
ATOM     13  C29 <0> d   1      17.941  -2.639  12.092  0.00  0.00     0.011 A 
ATOM     14  C28 <0> d   1      17.374  -3.738  11.475  0.00  0.00     0.037 A 
ATOM     15  C16 <0> d   1      18.186  -4.730  10.946  0.00  0.00     0.068 A 
ATOM     16  C15 <0> d   1      19.566  -4.616  11.035  0.00  0.00     0.037 A 
ATOM     17  C14 <0> d   1      20.128  -3.513  11.649  0.00  0.00     0.011 A 
BRANCH  15  18
ATOM     18  O17 <0> d   1      17.630  -5.815  10.343  0.00  0.00    -0.350 OA
BRANCH  18  19
ATOM     19  C18 <0> d   1      16.875  -5.580   9.153  0.00  0.00     0.203 C 
BRANCH  19  20
ATOM     20  C19 <0> d   1      17.829  -5.428   7.967  0.00  0.00     0.261 C 
BRANCH  20  21
ATOM     21  N20 <0> d   1      17.391  -4.303   7.128  0.00  0.00    -0.069 N 
ATOM     22  H21 <0> d   1      16.404  -4.156   7.278  0.00  0.00     0.280 HD
ATOM     23  C27 <0> d   1      17.605  -4.662   5.709  0.00  0.00     0.235 C 
ATOM     24  C26 <0> d   1      17.569  -3.472   4.789  0.00  0.00     0.028 C 
ATOM     25  C25 <0> d   1      19.019  -2.985   4.576  0.00  0.00     0.002 C 
ATOM     26  C24 <0> d   1      19.509  -2.208   5.706  0.00  0.00     0.002 C 
ATOM     27  C23 <0> d   1      19.525  -3.028   7.014  0.00  0.00     0.028 C 
ATOM     28  C22 <0> d   1      18.120  -3.088   7.550  0.00  0.00     0.235 C 
ENDBRANCH  20  21
ENDBRANCH  19  20
ENDBRANCH  18  19
ENDBRANCH  15  18
ENDBRANCH  11  12
ENDBRANCH   4  11
BRANCH   3  29
ATOM     29  C4  <0> d   1      18.476   0.820  14.491  0.00  0.00    -0.009 A 
ATOM     30  C10 <0> d   1      19.221   1.651  15.329  0.00  0.00     0.016 A 
ATOM     31  C9  <0> d   1      19.020   1.613  16.692  0.00  0.00     0.037 A 
ATOM     32  C7  <0> d   1      18.082   0.743  17.233  0.00  0.00     0.065 A 
ATOM     33  C6  <0> d   1      17.341  -0.089  16.403  0.00  0.00     0.037 A 
ATOM     34  C5  <0> d   1      17.534  -0.053  15.039  0.00  0.00     0.016 A 
BRANCH  32  35
ATOM     35  O8  <0> d   1      17.889   0.705  18.577  0.00  0.00    -0.361 OA
ATOM     36  H42 <0> d   1      18.323  -0.040  19.016  0.00  0.00     0.217 HD
ENDBRANCH  32  35
ENDBRANCH   3  29
BRANCH   8  37
ATOM     37  O34 <0> d   1      18.931   2.074   7.262  0.00  0.00    -0.361 OA
ATOM     38  H69 <0> d   1      18.499   2.938   7.288  0.00  0.00     0.217 HD
ENDBRANCH   8  37
TORSDOF 9
ENDMDL
MODEL 3
REMARK VINA RESULT:      -8.2      2.786      7.908
REMARK  9 active torsions:
REMARK  status: ('A' for Active; 'I' for Inactive)
REMARK    1  A    between atoms: C3_3  and  C4_4 
REMARK    2  A    between atoms: C7_7  and  O8_8 
REMARK    3  A    between atoms: N11_11  and  C12_12 
REMARK    4  A    between atoms: C12_12  and  C13_13 
REMARK    5  A    between atoms: C16_16  and  O17_17 
REMARK    6  A    between atoms: O17_17  and  C18_18 
REMARK    7  A    between atoms: C18_18  and  C19_19 
REMARK    8  A    between atoms: C19_19  and  N20_20 
REMARK    9  A    between atoms: C33_33  and  O34_34 
ROOT
ATOM      1  C1  <0> d   1      17.233  -0.625   8.115  0.00  0.00     0.051 C 
ATOM      2  C2  <0> d   1      18.112  -0.912   9.304  0.00  0.00    -0.022 A 
ATOM      3  C3  <0> d   1      18.588  -0.005  10.194  0.00  0.00     0.052 A 
ATOM      4  N11 <0> d   1      19.355  -0.644  11.140  0.00  0.00    -0.341 N 
ATOM      5  C30 <0> d   1      19.389  -1.999  10.874  0.00  0.00     0.046 A 
ATOM      6  C31 <0> d   1      20.005  -3.074  11.503  0.00  0.00     0.033 A 
ATOM      7  C32 <0> d   1      19.857  -4.347  10.995  0.00  0.00     0.039 A 
ATOM      8  C33 <0> d   1      19.095  -4.570   9.852  0.00  0.00     0.066 A 
ATOM      9  C35 <0> d   1      18.473  -3.515   9.213  0.00  0.00     0.051 A 
ATOM     10  C36 <0> d   1      18.612  -2.221   9.722  0.00  0.00     0.002 A 
ENDROOT
BRANCH   4  11
ATOM     11  C12 <0> d   1      20.032   0.012  12.261  0.00  0.00     0.168 C 
BRANCH  11  12
ATOM     12  C13 <0> d   1      19.211  -0.158  13.512  0.00  0.00    -0.040 A 
ATOM     13  C29 <0> d   1      19.539  -1.145  14.424  0.00  0.00     0.011 A 
ATOM     14  C28 <0> d   1      18.792  -1.300  15.575  0.00  0.00     0.037 A 
ATOM     15  C16 <0> d   1      17.705  -0.472  15.811  0.00  0.00     0.068 A 
ATOM     16  C15 <0> d   1      17.374   0.514  14.893  0.00  0.00     0.037 A 
ATOM     17  C14 <0> d   1      18.128   0.669  13.746  0.00  0.00     0.011 A 
BRANCH  15  18
ATOM     18  O17 <0> d   1      16.964  -0.626  16.941  0.00  0.00    -0.350 OA
BRANCH  18  19
ATOM     19  C18 <0> d   1      16.950   0.466  17.862  0.00  0.00     0.203 C 
BRANCH  19  20
ATOM     20  C19 <0> d   1      18.290   0.532  18.595  0.00  0.00     0.261 C 
BRANCH  20  21
ATOM     21  N20 <0> d   1      18.535   1.911  19.044  0.00  0.00    -0.069 N 
ATOM     22  H21 <0> d   1      18.812   1.887  20.015  0.00  0.00     0.280 HD
ATOM     23  C27 <0> d   1      17.273   2.674  18.932  0.00  0.00     0.235 C 
ATOM     24  C26 <0> d   1      17.480   4.163  18.984  0.00  0.00     0.028 C 
ATOM     25  C25 <0> d   1      17.578   4.685  17.533  0.00  0.00     0.002 C 
ATOM     26  C24 <0> d   1      18.888   4.434  16.946  0.00  0.00     0.002 C 
ATOM     27  C23 <0> d   1      19.217   2.928  16.878  0.00  0.00     0.028 C 
ATOM     28  C22 <0> d   1      19.645   2.476  18.249  0.00  0.00     0.235 C 
ENDBRANCH  20  21
ENDBRANCH  19  20
ENDBRANCH  18  19
ENDBRANCH  15  18
ENDBRANCH  11  12
ENDBRANCH   4  11
BRANCH   3  29
ATOM     29  C4  <0> d   1      18.322   1.449  10.153  0.00  0.00    -0.009 A 
ATOM     30  C10 <0> d   1      17.477   2.033  11.097  0.00  0.00     0.016 A 
ATOM     31  C9  <0> d   1      17.234   3.390  11.059  0.00  0.00     0.037 A 
ATOM     32  C7  <0> d   1      17.822   4.174  10.075  0.00  0.00     0.065 A 
ATOM     33  C6  <0> d   1      18.661   3.596   9.130  0.00  0.00     0.037 A 
ATOM     34  C5  <0> d   1      18.912   2.241   9.166  0.00  0.00     0.016 A 
BRANCH  32  35
ATOM     35  O8  <0> d   1      17.578   5.510  10.036  0.00  0.00    -0.361 OA
ATOM     36  H42 <0> d   1      17.536   5.927  10.908  0.00  0.00     0.217 HD
ENDBRANCH  32  35
ENDBRANCH   3  29
BRANCH   8  37
ATOM     37  O34 <0> d   1      18.960  -5.832   9.364  0.00  0.00    -0.361 OA
ATOM     38  H69 <0> d   1      18.366  -5.898   8.603  0.00  0.00     0.217 HD
ENDBRANCH   8  37
TORSDOF 9
ENDMDL
MODEL 4
REMARK VINA RESULT:      -8.1      2.290      3.570
REMARK  9 active torsions:
REMARK  status: ('A' for Active; 'I' for Inactive)
REMARK    1  A    between atoms: C3_3  and  C4_4 
REMARK    2  A    between atoms: C7_7  and  O8_8 
REMARK    3  A    between atoms: N11_11  and  C12_12 
REMARK    4  A    between atoms: C12_12  and  C13_13 
REMARK    5  A    between atoms: C16_16  and  O17_17 
REMARK    6  A    between atoms: O17_17  and  C18_18 
REMARK    7  A    between atoms: C18_18  and  C19_19 
REMARK    8  A    between atoms: C19_19  and  N20_20 
REMARK    9  A    between atoms: C33_33  and  O34_34 
ROOT
ATOM      1  C1  <0> d   1      19.394   3.899  15.159  0.00  0.00     0.051 C 
ATOM      2  C2  <0> d   1      18.788   2.563  14.817  0.00  0.00    -0.022 A 
ATOM      3  C3  <0> d   1      18.182   2.227  13.650  0.00  0.00     0.052 A 
ATOM      4  N11 <0> d   1      17.755   0.921  13.712  0.00  0.00    -0.341 N 
ATOM      5  C30 <0> d   1      18.083   0.381  14.940  0.00  0.00     0.046 A 
ATOM      6  C31 <0> d   1      17.888  -0.872  15.509  0.00  0.00     0.033 A 
ATOM      7  C32 <0> d   1      18.336  -1.126  16.787  0.00  0.00     0.039 A 
ATOM      8  C33 <0> d   1      18.985  -0.138  17.520  0.00  0.00     0.066 A 
ATOM      9  C35 <0> d   1      19.191   1.113  16.973  0.00  0.00     0.051 A 
ATOM     10  C36 <0> d   1      18.745   1.381  15.676  0.00  0.00     0.002 A 
ENDROOT
BRANCH   4  11
ATOM     11  C12 <0> d   1      17.058   0.210  12.638  0.00  0.00     0.168 C 
BRANCH  11  12
ATOM     12  C13 <0> d   1      17.875  -0.983  12.212  0.00  0.00    -0.040 A 
ATOM     13  C29 <0> d   1      19.167  -0.805  11.752  0.00  0.00     0.011 A 
ATOM     14  C28 <0> d   1      19.920  -1.897  11.366  0.00  0.00     0.037 A 
ATOM     15  C16 <0> d   1      19.376  -3.171  11.432  0.00  0.00     0.068 A 
ATOM     16  C15 <0> d   1      18.077  -3.346  11.889  0.00  0.00     0.037 A 
ATOM     17  C14 <0> d   1      17.330  -2.251  12.278  0.00  0.00     0.011 A 
BRANCH  15  18
ATOM     18  O17 <0> d   1      20.113  -4.247  11.047  0.00  0.00    -0.350 OA
BRANCH  18  19
ATOM     19  C18 <0> d   1      19.548  -5.096  10.046  0.00  0.00     0.203 C 
BRANCH  19  20
ATOM     20  C19 <0> d   1      20.116  -4.717   8.677  0.00  0.00     0.261 C 
BRANCH  20  21
ATOM     21  N20 <0> d   1      19.011  -4.427   7.752  0.00  0.00    -0.069 N 
ATOM     22  H21 <0> d   1      18.319  -5.157   7.841  0.00  0.00     0.280 HD
ATOM     23  C27 <0> d   1      19.537  -4.441   6.370  0.00  0.00     0.235 C 
ATOM     24  C26 <0> d   1      18.613  -3.784   5.382  0.00  0.00     0.028 C 
ATOM     25  C25 <0> d   1      19.052  -2.312   5.219  0.00  0.00     0.002 C 
ATOM     26  C24 <0> d   1      18.604  -1.478   6.326  0.00  0.00     0.002 C 
ATOM     27  C23 <0> d   1      19.184  -1.946   7.679  0.00  0.00     0.028 C 
ATOM     28  C22 <0> d   1      18.395  -3.142   8.141  0.00  0.00     0.235 C 
ENDBRANCH  20  21
ENDBRANCH  19  20
ENDBRANCH  18  19
ENDBRANCH  15  18
ENDBRANCH  11  12
ENDBRANCH   4  11
BRANCH   3  29
ATOM     29  C4  <0> d   1      18.006   3.127  12.491  0.00  0.00    -0.009 A 
ATOM     30  C10 <0> d   1      18.688   2.874  11.299  0.00  0.00     0.016 A 
ATOM     31  C9  <0> d   1      18.519   3.712  10.218  0.00  0.00     0.037 A 
ATOM     32  C7  <0> d   1      17.680   4.814  10.317  0.00  0.00     0.065 A 
ATOM     33  C6  <0> d   1      17.003   5.073  11.502  0.00  0.00     0.037 A 
ATOM     34  C5  <0> d   1      17.163   4.235  12.585  0.00  0.00     0.016 A 
BRANCH  32  35
ATOM     35  O8  <0> d   1      17.519   5.642   9.252  0.00  0.00    -0.361 OA
ATOM     36  H42 <0> d   1      17.652   5.212   8.395  0.00  0.00     0.217 HD
ENDBRANCH  32  35
ENDBRANCH   3  29
BRANCH   8  37
ATOM     37  O34 <0> d   1      19.421  -0.406  18.781  0.00  0.00    -0.361 OA
ATOM     38  H69 <0> d   1      18.950   0.081  19.471  0.00  0.00     0.217 HD
ENDBRANCH   8  37
TORSDOF 9
ENDMDL
MODEL 5
REMARK VINA RESULT:      -8.1      3.073      9.184
REMARK  9 active torsions:
REMARK  status: ('A' for Active; 'I' for Inactive)
REMARK    1  A    between atoms: C3_3  and  C4_4 
REMARK    2  A    between atoms: C7_7  and  O8_8 
REMARK    3  A    between atoms: N11_11  and  C12_12 
REMARK    4  A    between atoms: C12_12  and  C13_13 
REMARK    5  A    between atoms: C16_16  and  O17_17 
REMARK    6  A    between atoms: O17_17  and  C18_18 
REMARK    7  A    between atoms: C18_18  and  C19_19 
REMARK    8  A    between atoms: C19_19  and  N20_20 
REMARK    9  A    between atoms: C33_33  and  O34_34 
ROOT
ATOM      1  C1  <0> d   1      17.367  -1.918  10.556  0.00  0.00     0.051 C 
ATOM      2  C2  <0> d   1      18.002  -0.664  10.013  0.00  0.00    -0.022 A 
ATOM      3  C3  <0> d   1      18.582   0.325  10.738  0.00  0.00     0.052 A 
ATOM      4  N11 <0> d   1      19.050   1.304   9.891  0.00  0.00    -0.341 N 
ATOM      5  C30 <0> d   1      18.775   0.959   8.583  0.00  0.00     0.046 A 
ATOM      6  C31 <0> d   1      19.025   1.579   7.365  0.00  0.00     0.033 A 
ATOM      7  C32 <0> d   1      18.622   0.980   6.191  0.00  0.00     0.039 A 
ATOM      8  C33 <0> d   1      17.965  -0.246   6.209  0.00  0.00     0.066 A 
ATOM      9  C35 <0> d   1      17.708  -0.881   7.409  0.00  0.00     0.051 A 
ATOM     10  C36 <0> d   1      18.116  -0.285   8.606  0.00  0.00     0.002 A 
ENDROOT
BRANCH   4  11
ATOM     11  C12 <0> d   1      19.736   2.527  10.314  0.00  0.00     0.168 C 
BRANCH  11  12
ATOM     12  C13 <0> d   1      18.772   3.409  11.064  0.00  0.00    -0.040 A 
ATOM     13  C29 <0> d   1      19.073   3.823  12.349  0.00  0.00     0.011 A 
ATOM     14  C28 <0> d   1      18.193   4.637  13.037  0.00  0.00     0.037 A 
ATOM     15  C16 <0> d   1      17.004   5.030  12.442  0.00  0.00     0.068 A 
ATOM     16  C15 <0> d   1      16.702   4.608  11.155  0.00  0.00     0.037 A 
ATOM     17  C14 <0> d   1      17.587   3.799  10.469  0.00  0.00     0.011 A 
BRANCH  15  18
ATOM     18  O17 <0> d   1      16.134   5.826  13.119  0.00  0.00    -0.350 OA
BRANCH  18  19
ATOM     19  C18 <0> d   1      16.687   6.699  14.106  0.00  0.00     0.203 C 
BRANCH  19  20
ATOM     20  C19 <0> d   1      16.327   6.184  15.501  0.00  0.00     0.261 C 
BRANCH  20  21
ATOM     21  N20 <0> d   1      17.504   6.280  16.377  0.00  0.00    -0.069 N 
ATOM     22  H21 <0> d   1      17.404   7.099  16.959  0.00  0.00     0.280 HD
ATOM     23  C27 <0> d   1      18.707   6.445  15.533  0.00  0.00     0.235 C 
ATOM     24  C26 <0> d   1      19.987   6.164  16.272  0.00  0.00     0.028 C 
ATOM     25  C25 <0> d   1      20.374   4.690  16.020  0.00  0.00     0.002 C 
ATOM     26  C24 <0> d   1      19.596   3.769  16.837  0.00  0.00     0.002 C 
ATOM     27  C23 <0> d   1      18.083   3.866  16.545  0.00  0.00     0.028 C 
ATOM     28  C22 <0> d   1      17.545   5.085  17.245  0.00  0.00     0.235 C 
ENDBRANCH  20  21
ENDBRANCH  19  20
ENDBRANCH  18  19
ENDBRANCH  15  18
ENDBRANCH  11  12
ENDBRANCH   4  11
BRANCH   3  29
ATOM     29  C4  <0> d   1      18.695   0.348  12.211  0.00  0.00    -0.009 A 
ATOM     30  C10 <0> d   1      19.922   0.084  12.824  0.00  0.00     0.016 A 
ATOM     31  C9  <0> d   1      20.024   0.110  14.198  0.00  0.00     0.037 A 
ATOM     32  C7  <0> d   1      18.907   0.389  14.975  0.00  0.00     0.065 A 
ATOM     33  C6  <0> d   1      17.684   0.648  14.370  0.00  0.00     0.037 A 
ATOM     34  C5  <0> d   1      17.575   0.629  12.995  0.00  0.00     0.016 A 
BRANCH  32  35
ATOM     35  O8  <0> d   1      19.010   0.410  16.329  0.00  0.00    -0.361 OA
ATOM     36  H42 <0> d   1      18.503  -0.284  16.773  0.00  0.00     0.217 HD
ENDBRANCH  32  35
ENDBRANCH   3  29
BRANCH   8  37
ATOM     37  O34 <0> d   1      17.574  -0.823   5.041  0.00  0.00    -0.361 OA
ATOM     38  H69 <0> d   1      17.612  -1.789   5.048  0.00  0.00     0.217 HD
ENDBRANCH   8  37
TORSDOF 9
ENDMDL
MODEL 6
REMARK VINA RESULT:      -8.0      2.721      7.912
REMARK  9 active torsions:
REMARK  status: ('A' for Active; 'I' for Inactive)
REMARK    1  A    between atoms: C3_3  and  C4_4 
REMARK    2  A    between atoms: C7_7  and  O8_8 
REMARK    3  A    between atoms: N11_11  and  C12_12 
REMARK    4  A    between atoms: C12_12  and  C13_13 
REMARK    5  A    between atoms: C16_16  and  O17_17 
REMARK    6  A    between atoms: O17_17  and  C18_18 
REMARK    7  A    between atoms: C18_18  and  C19_19 
REMARK    8  A    between atoms: C19_19  and  N20_20 
REMARK    9  A    between atoms: C33_33  and  O34_34 
ROOT
ATOM      1  C1  <0> d   1      17.554  -2.995  10.941  0.00  0.00     0.051 C 
ATOM      2  C2  <0> d   1      18.222  -1.694  11.301  0.00  0.00    -0.022 A 
ATOM      3  C3  <0> d   1      18.595  -0.713  10.440  0.00  0.00     0.052 A 
ATOM      4  N11 <0> d   1      19.174   0.320  11.141  0.00  0.00    -0.341 N 
ATOM      5  C30 <0> d   1      19.186   0.020  12.488  0.00  0.00     0.046 A 
ATOM      6  C31 <0> d   1      19.645   0.703  13.609  0.00  0.00     0.033 A 
ATOM      7  C32 <0> d   1      19.519   0.138  14.859  0.00  0.00     0.039 A 
ATOM      8  C33 <0> d   1      18.935  -1.115  15.016  0.00  0.00     0.066 A 
ATOM      9  C35 <0> d   1      18.470  -1.809  13.916  0.00  0.00     0.051 A 
ATOM     10  C36 <0> d   1      18.589  -1.245  12.643  0.00  0.00     0.002 A 
ENDROOT
BRANCH   4  11
ATOM     11  C12 <0> d   1      19.698   1.552  10.546  0.00  0.00     0.168 C 
BRANCH  11  12
ATOM     12  C13 <0> d   1      18.994   2.739  11.150  0.00  0.00    -0.040 A 
ATOM     13  C29 <0> d   1      17.632   2.897  10.972  0.00  0.00     0.011 A 
ATOM     14  C28 <0> d   1      16.983   3.983  11.529  0.00  0.00     0.037 A 
ATOM     15  C16 <0> d   1      17.701   4.919  12.258  0.00  0.00     0.068 A 
ATOM     16  C15 <0> d   1      19.069   4.761  12.430  0.00  0.00     0.037 A 
ATOM     17  C14 <0> d   1      19.712   3.672  11.876  0.00  0.00     0.011 A 
BRANCH  15  18
ATOM     18  O17 <0> d   1      17.066   5.991  12.802  0.00  0.00    -0.350 OA
BRANCH  18  19
ATOM     19  C18 <0> d   1      17.552   6.464  14.060  0.00  0.00     0.203 C 
BRANCH  19  20
ATOM     20  C19 <0> d   1      17.132   5.494  15.166  0.00  0.00     0.261 C 
BRANCH  20  21
ATOM     21  N20 <0> d   1      18.300   5.163  15.995  0.00  0.00    -0.069 N 
ATOM     22  H21 <0> d   1      19.109   5.630  15.612  0.00  0.00     0.280 HD
ATOM     23  C27 <0> d   1      18.525   3.702  15.931  0.00  0.00     0.235 C 
ATOM     24  C26 <0> d   1      19.425   3.197  17.025  0.00  0.00     0.028 C 
ATOM     25  C25 <0> d   1      18.537   2.710  18.191  0.00  0.00     0.002 C 
ATOM     26  C24 <0> d   1      18.033   3.815  18.996  0.00  0.00     0.002 C 
ATOM     27  C23 <0> d   1      17.157   4.783  18.172  0.00  0.00     0.028 C 
ATOM     28  C22 <0> d   1      18.066   5.669  17.364  0.00  0.00     0.235 C 
ENDBRANCH  20  21
ENDBRANCH  19  20
ENDBRANCH  18  19
ENDBRANCH  15  18
ENDBRANCH  11  12
ENDBRANCH   4  11
BRANCH   3  29
ATOM     29  C4  <0> d   1      18.407  -0.749   8.975  0.00  0.00    -0.009 A 
ATOM     30  C10 <0> d   1      19.308  -1.449   8.170  0.00  0.00     0.016 A 
ATOM     31  C9  <0> d   1      19.128  -1.484   6.804  0.00  0.00     0.037 A 
ATOM     32  C7  <0> d   1      18.056  -0.815   6.226  0.00  0.00     0.065 A 
ATOM     33  C6  <0> d   1      17.160  -0.113   7.022  0.00  0.00     0.037 A 
ATOM     34  C5  <0> d   1      17.331  -0.079   8.390  0.00  0.00     0.016 A 
BRANCH  32  35
ATOM     35  O8  <0> d   1      17.884  -0.847   4.879  0.00  0.00    -0.361 OA
ATOM     36  H42 <0> d   1      17.398  -0.089   4.527  0.00  0.00     0.217 HD
ENDBRANCH  32  35
ENDBRANCH   3  29
BRANCH   8  37
ATOM     37  O34 <0> d   1      18.818  -1.658  16.258  0.00  0.00    -0.361 OA
ATOM     38  H69 <0> d   1      17.905  -1.752  16.562  0.00  0.00     0.217 HD
ENDBRANCH   8  37
TORSDOF 9
ENDMDL
MODEL 7
REMARK VINA RESULT:      -8.0      3.380      9.877
REMARK  9 active torsions:
REMARK  status: ('A' for Active; 'I' for Inactive)
REMARK    1  A    between atoms: C3_3  and  C4_4 
REMARK    2  A    between atoms: C7_7  and  O8_8 
REMARK    3  A    between atoms: N11_11  and  C12_12 
REMARK    4  A    between atoms: C12_12  and  C13_13 
REMARK    5  A    between atoms: C16_16  and  O17_17 
REMARK    6  A    between atoms: O17_17  and  C18_18 
REMARK    7  A    between atoms: C18_18  and  C19_19 
REMARK    8  A    between atoms: C19_19  and  N20_20 
REMARK    9  A    between atoms: C33_33  and  O34_34 
ROOT
ATOM      1  C1  <0> d   1      17.224  -1.945  11.018  0.00  0.00     0.051 C 
ATOM      2  C2  <0> d   1      17.978  -0.679  10.710  0.00  0.00    -0.022 A 
ATOM      3  C3  <0> d   1      18.566   0.150  11.610  0.00  0.00     0.052 A 
ATOM      4  N11 <0> d   1      19.159   1.201  10.950  0.00  0.00    -0.341 N 
ATOM      5  C30 <0> d   1      18.961   1.070   9.590  0.00  0.00     0.046 A 
ATOM      6  C31 <0> d   1      19.341   1.839   8.496  0.00  0.00     0.033 A 
ATOM      7  C32 <0> d   1      18.990   1.447   7.223  0.00  0.00     0.039 A 
ATOM      8  C33 <0> d   1      18.254   0.284   7.016  0.00  0.00     0.066 A 
ATOM      9  C35 <0> d   1      17.867  -0.495   8.089  0.00  0.00     0.051 A 
ATOM     10  C36 <0> d   1      18.222  -0.110   9.385  0.00  0.00     0.002 A 
ENDROOT
BRANCH   4  11
ATOM     11  C12 <0> d   1      19.890   2.296  11.594  0.00  0.00     0.168 C 
BRANCH  11  12
ATOM     12  C13 <0> d   1      18.914   3.344  12.063  0.00  0.00    -0.040 A 
ATOM     13  C29 <0> d   1      17.842   3.695  11.264  0.00  0.00     0.011 A 
ATOM     14  C28 <0> d   1      16.943   4.652  11.695  0.00  0.00     0.037 A 
ATOM     15  C16 <0> d   1      17.123   5.267  12.925  0.00  0.00     0.068 A 
ATOM     16  C15 <0> d   1      18.204   4.917  13.722  0.00  0.00     0.037 A 
ATOM     17  C14 <0> d   1      19.096   3.956  13.289  0.00  0.00     0.011 A 
BRANCH  15  18
ATOM     18  O17 <0> d   1      16.243   6.213  13.348  0.00  0.00    -0.350 OA
BRANCH  18  19
ATOM     19  C18 <0> d   1      15.225   5.792  14.258  0.00  0.00     0.203 C 
BRANCH  19  20
ATOM     20  C19 <0> d   1      15.287   6.648  15.524  0.00  0.00     0.261 C 
BRANCH  20  21
ATOM     21  N20 <0> d   1      15.633   5.798  16.673  0.00  0.00    -0.069 N 
ATOM     22  H21 <0> d   1      15.448   4.837  16.428  0.00  0.00     0.280 HD
ATOM     23  C27 <0> d   1      14.766   6.170  17.812  0.00  0.00     0.235 C 
ATOM     24  C26 <0> d   1      15.277   5.660  19.131  0.00  0.00     0.028 C 
ATOM     25  C25 <0> d   1      16.114   6.780  19.787  0.00  0.00     0.002 C 
ATOM     26  C24 <0> d   1      17.448   6.880  19.209  0.00  0.00     0.002 C 
ATOM     27  C23 <0> d   1      17.406   7.210  17.701  0.00  0.00     0.028 C 
ATOM     28  C22 <0> d   1      17.077   5.947  16.951  0.00  0.00     0.235 C 
ENDBRANCH  20  21
ENDBRANCH  19  20
ENDBRANCH  18  19
ENDBRANCH  15  18
ENDBRANCH  11  12
ENDBRANCH   4  11
BRANCH   3  29
ATOM     29  C4  <0> d   1      18.570  -0.048  13.074  0.00  0.00    -0.009 A 
ATOM     30  C10 <0> d   1      19.522  -0.880  13.666  0.00  0.00     0.016 A 
ATOM     31  C9  <0> d   1      19.525  -1.059  15.033  0.00  0.00     0.037 A 
ATOM     32  C7  <0> d   1      18.576  -0.421  15.821  0.00  0.00     0.065 A 
ATOM     33  C6  <0> d   1      17.624   0.404  15.236  0.00  0.00     0.037 A 
ATOM     34  C5  <0> d   1      17.618   0.592  13.870  0.00  0.00     0.016 A 
BRANCH  32  35
ATOM     35  O8  <0> d   1      18.578  -0.603  17.167  0.00  0.00    -0.361 OA
ATOM     36  H42 <0> d   1      17.751  -0.349  17.600  0.00  0.00     0.217 HD
ENDBRANCH  32  35
ENDBRANCH   3  29
BRANCH   8  37
ATOM     37  O34 <0> d   1      17.915  -0.088   5.753  0.00  0.00    -0.361 OA
ATOM     38  H69 <0> d   1      17.395  -0.901   5.708  0.00  0.00     0.217 HD
ENDBRANCH   8  37
TORSDOF 9
ENDMDL
MODEL 8
REMARK VINA RESULT:      -7.7      2.265      4.028
REMARK  9 active torsions:
REMARK  status: ('A' for Active; 'I' for Inactive)
REMARK    1  A    between atoms: C3_3  and  C4_4 
REMARK    2  A    between atoms: C7_7  and  O8_8 
REMARK    3  A    between atoms: N11_11  and  C12_12 
REMARK    4  A    between atoms: C12_12  and  C13_13 
REMARK    5  A    between atoms: C16_16  and  O17_17 
REMARK    6  A    between atoms: O17_17  and  C18_18 
REMARK    7  A    between atoms: C18_18  and  C19_19 
REMARK    8  A    between atoms: C19_19  and  N20_20 
REMARK    9  A    between atoms: C33_33  and  O34_34 
ROOT
ATOM      1  C1  <0> d   1      19.654   3.752  15.121  0.00  0.00     0.051 C 
ATOM      2  C2  <0> d   1      18.851   2.499  14.890  0.00  0.00    -0.022 A 
ATOM      3  C3  <0> d   1      18.100   2.211  13.797  0.00  0.00     0.052 A 
ATOM      4  N11 <0> d   1      17.516   0.975  13.951  0.00  0.00    -0.341 N 
ATOM      5  C30 <0> d   1      17.885   0.433  15.166  0.00  0.00     0.046 A 
ATOM      6  C31 <0> d   1      17.583  -0.766  15.801  0.00  0.00     0.033 A 
ATOM      7  C32 <0> d   1      18.113  -1.039  17.044  0.00  0.00     0.039 A 
ATOM      8  C33 <0> d   1      18.950  -0.125  17.675  0.00  0.00     0.066 A 
ATOM      9  C35 <0> d   1      19.264   1.071  17.060  0.00  0.00     0.051 A 
ATOM     10  C36 <0> d   1      18.736   1.358  15.798  0.00  0.00     0.002 A 
ENDROOT
BRANCH   4  11
ATOM     11  C12 <0> d   1      16.635   0.332  12.973  0.00  0.00     0.168 C 
BRANCH  11  12
ATOM     12  C13 <0> d   1      17.467  -0.287  11.880  0.00  0.00    -0.040 A 
ATOM     13  C29 <0> d   1      17.021  -0.255  10.571  0.00  0.00     0.011 A 
ATOM     14  C28 <0> d   1      17.784  -0.817   9.566  0.00  0.00     0.037 A 
ATOM     15  C16 <0> d   1      18.993  -1.424   9.873  0.00  0.00     0.068 A 
ATOM     16  C15 <0> d   1      19.436  -1.460  11.187  0.00  0.00     0.037 A 
ATOM     17  C14 <0> d   1      18.672  -0.891  12.188  0.00  0.00     0.011 A 
BRANCH  15  18
ATOM     18  O17 <0> d   1      19.743  -1.983   8.886  0.00  0.00    -0.350 OA
BRANCH  18  19
ATOM     19  C18 <0> d   1      19.042  -2.520   7.763  0.00  0.00     0.203 C 
BRANCH  19  20
ATOM     20  C19 <0> d   1      19.625  -3.887   7.403  0.00  0.00     0.261 C 
BRANCH  20  21
ATOM     21  N20 <0> d   1      18.704  -4.944   7.846  0.00  0.00    -0.069 N 
ATOM     22  H21 <0> d   1      18.536  -5.568   7.071  0.00  0.00     0.280 HD
ATOM     23  C27 <0> d   1      17.422  -4.319   8.235  0.00  0.00     0.235 C 
ATOM     24  C26 <0> d   1      16.551  -5.226   9.060  0.00  0.00     0.028 C 
ATOM     25  C25 <0> d   1      16.813  -4.917  10.551  0.00  0.00     0.002 C 
ATOM     26  C24 <0> d   1      18.049  -5.522  11.029  0.00  0.00     0.002 C 
ATOM     27  C23 <0> d   1      19.286  -5.002  10.265  0.00  0.00     0.028 C 
ATOM     28  C22 <0> d   1      19.349  -5.706   8.936  0.00  0.00     0.235 C 
ENDBRANCH  20  21
ENDBRANCH  19  20
ENDBRANCH  18  19
ENDBRANCH  15  18
ENDBRANCH  11  12
ENDBRANCH   4  11
BRANCH   3  29
ATOM     29  C4  <0> d   1      17.934   3.092  12.622  0.00  0.00    -0.009 A 
ATOM     30  C10 <0> d   1      18.663   2.848  11.456  0.00  0.00     0.016 A 
ATOM     31  C9  <0> d   1      18.503   3.669  10.360  0.00  0.00     0.037 A 
ATOM     32  C7  <0> d   1      17.626   4.744  10.418  0.00  0.00     0.065 A 
ATOM     33  C6  <0> d   1      16.902   4.993  11.577  0.00  0.00     0.037 A 
ATOM     34  C5  <0> d   1      17.053   4.173  12.675  0.00  0.00     0.016 A 
BRANCH  32  35
ATOM     35  O8  <0> d   1      17.474   5.554   9.338  0.00  0.00    -0.361 OA
ATOM     36  H42 <0> d   1      18.070   5.348   8.605  0.00  0.00     0.217 HD
ENDBRANCH  32  35
ENDBRANCH   3  29
BRANCH   8  37
ATOM     37  O34 <0> d   1      19.463  -0.411  18.901  0.00  0.00    -0.361 OA
ATOM     38  H69 <0> d   1      19.432   0.329  19.523  0.00  0.00     0.217 HD
ENDBRANCH   8  37
TORSDOF 9
ENDMDL
MODEL 9
REMARK VINA RESULT:      -7.5      2.372      7.273
REMARK  9 active torsions:
REMARK  status: ('A' for Active; 'I' for Inactive)
REMARK    1  A    between atoms: C3_3  and  C4_4 
REMARK    2  A    between atoms: C7_7  and  O8_8 
REMARK    3  A    between atoms: N11_11  and  C12_12 
REMARK    4  A    between atoms: C12_12  and  C13_13 
REMARK    5  A    between atoms: C16_16  and  O17_17 
REMARK    6  A    between atoms: O17_17  and  C18_18 
REMARK    7  A    between atoms: C18_18  and  C19_19 
REMARK    8  A    between atoms: C19_19  and  N20_20 
REMARK    9  A    between atoms: C33_33  and  O34_34 
ROOT
ATOM      1  C1  <0> d   1      15.884  -6.668   7.301  0.00  0.00     0.051 C 
ATOM      2  C2  <0> d   1      16.939  -5.706   7.779  0.00  0.00    -0.022 A 
ATOM      3  C3  <0> d   1      17.646  -4.837   7.012  0.00  0.00     0.052 A 
ATOM      4  N11 <0> d   1      18.516  -4.126   7.805  0.00  0.00    -0.341 N 
ATOM      5  C30 <0> d   1      18.386  -4.528   9.119  0.00  0.00     0.046 A 
ATOM      6  C31 <0> d   1      19.012  -4.140  10.297  0.00  0.00     0.033 A 
ATOM      7  C32 <0> d   1      18.665  -4.735  11.491  0.00  0.00     0.039 A 
ATOM      8  C33 <0> d   1      17.689  -5.726  11.531  0.00  0.00     0.066 A 
ATOM      9  C35 <0> d   1      17.053  -6.125  10.372  0.00  0.00     0.051 A 
ATOM     10  C36 <0> d   1      17.393  -5.525   9.156  0.00  0.00     0.002 A 
ENDROOT
BRANCH   4  11
ATOM     11  C12 <0> d   1      19.442  -3.096   7.326  0.00  0.00     0.168 C 
BRANCH  11  12
ATOM     12  C13 <0> d   1      19.043  -1.759   7.895  0.00  0.00    -0.040 A 
ATOM     13  C29 <0> d   1      17.823  -1.202   7.559  0.00  0.00     0.011 A 
ATOM     14  C28 <0> d   1      17.453   0.022   8.084  0.00  0.00     0.037 A 
ATOM     15  C16 <0> d   1      18.311   0.695   8.940  0.00  0.00     0.068 A 
ATOM     16  C15 <0> d   1      19.537   0.137   9.271  0.00  0.00     0.037 A 
ATOM     17  C14 <0> d   1      19.900  -1.089   8.748  0.00  0.00     0.011 A 
BRANCH  15  18
ATOM     18  O17 <0> d   1      17.951   1.902   9.453  0.00  0.00    -0.350 OA
BRANCH  18  19
ATOM     19  C18 <0> d   1      18.712   2.390  10.560  0.00  0.00     0.203 C 
BRANCH  19  20
ATOM     20  C19 <0> d   1      17.786   2.616  11.756  0.00  0.00     0.261 C 
BRANCH  20  21
ATOM     21  N20 <0> d   1      18.283   1.854  12.911  0.00  0.00    -0.069 N 
ATOM     22  H21 <0> d   1      18.401   2.488  13.686  0.00  0.00     0.280 HD
ATOM     23  C27 <0> d   1      19.601   1.280  12.565  0.00  0.00     0.235 C 
ATOM     24  C26 <0> d   1      20.026   0.177  13.495  0.00  0.00     0.028 C 
ATOM     25  C25 <0> d   1      19.606  -1.170  12.867  0.00  0.00     0.002 C 
ATOM     26  C24 <0> d   1      18.187  -1.443  13.048  0.00  0.00     0.002 C 
ATOM     27  C23 <0> d   1      17.297  -0.370  12.384  0.00  0.00     0.028 C 
ATOM     28  C22 <0> d   1      17.271   0.841  13.278  0.00  0.00     0.235 C 
ENDBRANCH  20  21
ENDBRANCH  19  20
ENDBRANCH  18  19
ENDBRANCH  15  18
ENDBRANCH  11  12
ENDBRANCH   4  11
BRANCH   3  29
ATOM     29  C4  <0> d   1      17.503  -4.680   5.549  0.00  0.00    -0.009 A 
ATOM     30  C10 <0> d   1      17.017  -3.485   5.018  0.00  0.00     0.016 A 
ATOM     31  C9  <0> d   1      16.888  -3.340   3.653  0.00  0.00     0.037 A 
ATOM     32  C7  <0> d   1      17.232  -4.386   2.807  0.00  0.00     0.065 A 
ATOM     33  C6  <0> d   1      17.712  -5.580   3.332  0.00  0.00     0.037 A 
ATOM     34  C5  <0> d   1      17.848  -5.730   4.695  0.00  0.00     0.016 A 
BRANCH  32  35
ATOM     35  O8  <0> d   1      17.100  -4.243   1.462  0.00  0.00    -0.361 OA
ATOM     36  H42 <0> d   1      16.587  -4.947   1.040  0.00  0.00     0.217 HD
ENDBRANCH  32  35
ENDBRANCH   3  29
BRANCH   8  37
ATOM     37  O34 <0> d   1      17.359  -6.303  12.718  0.00  0.00    -0.361 OA
ATOM     38  H69 <0> d   1      17.278  -7.266  12.677  0.00  0.00     0.217 HD
ENDBRANCH   8  37
TORSDOF 9
ENDMDL
