MODEL 1
REMARK VINA RESULT:      -7.1      0.000      0.000
REMARK  5 active torsions:
REMARK  status: ('A' for Active; 'I' for Inactive)
REMARK    1  A    between atoms: N10_10  and  C11_11 
REMARK    2  A    between atoms: C14_13  and  C16_14 
REMARK    3  A    between atoms: C16_14  and  O17_15 
REMARK    4  A    between atoms: C18_16  and  O20_17 
REMARK    5  A    between atoms: C21_18  and  O23_19 
ROOT
ATOM      1  C11 <0> d   1      19.143  -1.139   9.931  0.00  0.00     0.262 C 
ATOM      2  O13 <0> d   1      17.822  -1.039  10.506  0.00  0.00    -0.353 OA
ATOM      3  C14 <0> d   1      17.986  -1.020  11.935  0.00  0.00     0.179 C 
ATOM      4  C18 <0> d   1      19.387  -0.448  12.226  0.00  0.00     0.182 C 
ATOM      5  C21 <0> d   1      20.000  -0.206  10.824  0.00  0.00     0.198 C 
ENDROOT
BRANCH   1   6
ATOM      6  N10 <0> d   1      19.139  -0.665   8.545  0.00  0.00    -0.294 N 
ATOM      7  C6  <0> d   1      19.248  -1.442   7.424  0.00  0.00     0.169 A 
ATOM      8  N5  <0> d   1      19.388  -2.758   7.207  0.00  0.00    -0.221 NA
ATOM      9  C7  <0> d   1      19.195  -0.564   6.337  0.00  0.00     0.174 A 
ATOM     10  C4  <0> d   1      19.469  -3.238   5.997  0.00  0.00     0.239 A 
ATOM     11  N3  <0> d   1      19.418  -2.442   4.899  0.00  0.00    -0.201 NA
ATOM     12  C2  <0> d   1      19.279  -1.105   5.029  0.00  0.00     0.300 A 
ATOM     13  O1  <0> d   1      19.231  -0.382   4.049  0.00  0.00    -0.263 OA
ATOM     14  N8  <0> d   1      19.052   0.686   6.835  0.00  0.00    -0.234 NA
ATOM     15  C9  <0> d   1      19.016   0.629   8.136  0.00  0.00     0.214 A 
ENDBRANCH   1   6
BRANCH   5  16
ATOM     16  O23 <0> d   1      21.378  -0.589  10.796  0.00  0.00    -0.388 OA
ATOM     17  H30 <0> d   1      21.974   0.110  10.495  0.00  0.00     0.210 HD
ENDBRANCH   5  16
BRANCH   4  18
ATOM     18  O20 <0> d   1      20.171  -1.393  12.958  0.00  0.00    -0.390 OA
ATOM     19  H29 <0> d   1      19.930  -1.463  13.892  0.00  0.00     0.210 HD
ENDBRANCH   4  18
BRANCH   3  20
ATOM     20  C16 <0> d   1      16.915  -0.131  12.569  0.00  0.00     0.198 C 
BRANCH  20  21
ATOM     21  O17 <0> d   1      15.907   0.165  11.599  0.00  0.00    -0.398 OA
ATOM     22  H28 <0> d   1      16.076  -0.221  10.727  0.00  0.00     0.209 HD
ENDBRANCH  20  21
ENDBRANCH   3  20
TORSDOF 5
ENDMDL
MODEL 2
REMARK VINA RESULT:      -6.8      4.842      8.207
REMARK  5 active torsions:
REMARK  status: ('A' for Active; 'I' for Inactive)
REMARK    1  A    between atoms: N10_10  and  C11_11 
REMARK    2  A    between atoms: C14_13  and  C16_14 
REMARK    3  A    between atoms: C16_14  and  O17_15 
REMARK    4  A    between atoms: C18_16  and  O20_17 
REMARK    5  A    between atoms: C21_18  and  O23_19 
ROOT
ATOM      1  C11 <0> d   1      18.307   0.893  13.107  0.00  0.00     0.262 C 
ATOM      2  O13 <0> d   1      19.288  -0.088  12.709  0.00  0.00    -0.353 OA
ATOM      3  C14 <0> d   1      19.213  -0.202  11.278  0.00  0.00     0.179 C 
ATOM      4  C18 <0> d   1      18.683   1.140  10.740  0.00  0.00     0.182 C 
ATOM      5  C21 <0> d   1      18.419   1.985  12.012  0.00  0.00     0.198 C 
ENDROOT
BRANCH   1   6
ATOM      6  N10 <0> d   1      18.634   1.447  14.423  0.00  0.00    -0.294 N 
ATOM      7  C6  <0> d   1      18.824   0.735  15.576  0.00  0.00     0.169 A 
ATOM      8  N5  <0> d   1      18.780  -0.568  15.889  0.00  0.00    -0.221 NA
ATOM      9  C7  <0> d   1      19.115   1.676  16.569  0.00  0.00     0.174 A 
ATOM     10  C4  <0> d   1      19.010  -0.978  17.105  0.00  0.00     0.239 A 
ATOM     11  N3  <0> d   1      19.304  -0.119  18.114  0.00  0.00    -0.201 NA
ATOM     12  C2  <0> d   1      19.368   1.210  17.884  0.00  0.00     0.300 A 
ATOM     13  O1  <0> d   1      19.631   1.990  18.783  0.00  0.00    -0.263 OA
ATOM     14  N8  <0> d   1      19.095   2.896  15.986  0.00  0.00    -0.234 NA
ATOM     15  C9  <0> d   1      18.815   2.765  14.720  0.00  0.00     0.214 A 
ENDBRANCH   1   6
BRANCH   5  16
ATOM     16  O23 <0> d   1      17.201   2.723  11.892  0.00  0.00    -0.388 OA
ATOM     17  H30 <0> d   1      16.584   2.586  12.625  0.00  0.00     0.210 HD
ENDBRANCH   5  16
BRANCH   4  18
ATOM     18  O20 <0> d   1      17.468   0.943  10.011  0.00  0.00    -0.390 OA
ATOM     19  H29 <0> d   1      17.332   1.580   9.296  0.00  0.00     0.210 HD
ENDBRANCH   4  18
BRANCH   3  20
ATOM     20  C16 <0> d   1      20.603  -0.484  10.706  0.00  0.00     0.198 C 
BRANCH  20  21
ATOM     21  O17 <0> d   1      21.597   0.025  11.598  0.00  0.00    -0.398 OA
ATOM     22  H28 <0> d   1      21.361   0.869  12.009  0.00  0.00     0.209 HD
ENDBRANCH  20  21
ENDBRANCH   3  20
TORSDOF 5
ENDMDL
MODEL 3
REMARK VINA RESULT:      -6.7      2.114      3.405
REMARK  5 active torsions:
REMARK  status: ('A' for Active; 'I' for Inactive)
REMARK    1  A    between atoms: N10_10  and  C11_11 
REMARK    2  A    between atoms: C14_13  and  C16_14 
REMARK    3  A    between atoms: C16_14  and  O17_15 
REMARK    4  A    between atoms: C18_16  and  O20_17 
REMARK    5  A    between atoms: C21_18  and  O23_19 
ROOT
ATOM      1  C11 <0> d   1      18.258   1.127   9.340  0.00  0.00     0.262 C 
ATOM      2  O13 <0> d   1      19.433   1.940   9.550  0.00  0.00    -0.353 OA
ATOM      3  C14 <0> d   1      19.137   2.834  10.637  0.00  0.00     0.179 C 
ATOM      4  C18 <0> d   1      18.070   2.151  11.513  0.00  0.00     0.182 C 
ATOM      5  C21 <0> d   1      17.764   0.822  10.777  0.00  0.00     0.198 C 
ENDROOT
BRANCH   1   6
ATOM      6  N10 <0> d   1      18.606  -0.111   8.640  0.00  0.00    -0.294 N 
ATOM      7  C6  <0> d   1      18.899  -0.234   7.310  0.00  0.00     0.169 A 
ATOM      8  N5  <0> d   1      18.964   0.626   6.282  0.00  0.00    -0.221 NA
ATOM      9  C7  <0> d   1      19.168  -1.589   7.094  0.00  0.00     0.174 A 
ATOM     10  C4  <0> d   1      19.279   0.223   5.083  0.00  0.00     0.239 A 
ATOM     11  N3  <0> d   1      19.557  -1.076   4.807  0.00  0.00    -0.201 NA
ATOM     12  C2  <0> d   1      19.514  -2.007   5.785  0.00  0.00     0.300 A 
ATOM     13  O1  <0> d   1      19.763  -3.177   5.547  0.00  0.00    -0.263 OA
ATOM     14  N8  <0> d   1      19.033  -2.220   8.283  0.00  0.00    -0.234 NA
ATOM     15  C9  <0> d   1      18.705  -1.351   9.197  0.00  0.00     0.214 A 
ENDBRANCH   1   6
BRANCH   5  16
ATOM     16  O23 <0> d   1      16.363   0.540  10.792  0.00  0.00    -0.388 OA
ATOM     17  H30 <0> d   1      16.006   0.366  11.674  0.00  0.00     0.210 HD
ENDBRANCH   5  16
BRANCH   4  18
ATOM     18  O20 <0> d   1      16.893   2.960  11.591  0.00  0.00    -0.390 OA
ATOM     19  H29 <0> d   1      17.037   3.823  12.002  0.00  0.00     0.210 HD
ENDBRANCH   4  18
BRANCH   3  20
ATOM     20  C16 <0> d   1      20.402   3.091  11.457  0.00  0.00     0.198 C 
BRANCH  20  21
ATOM     21  O17 <0> d   1      20.959   1.844  11.877  0.00  0.00    -0.398 OA
ATOM     22  H28 <0> d   1      20.544   1.474  12.669  0.00  0.00     0.209 HD
ENDBRANCH  20  21
ENDBRANCH   3  20
TORSDOF 5
ENDMDL
MODEL 4
REMARK VINA RESULT:      -6.7      1.190      2.149
REMARK  5 active torsions:
REMARK  status: ('A' for Active; 'I' for Inactive)
REMARK    1  A    between atoms: N10_10  and  C11_11 
REMARK    2  A    between atoms: C14_13  and  C16_14 
REMARK    3  A    between atoms: C16_14  and  O17_15 
REMARK    4  A    between atoms: C18_16  and  O20_17 
REMARK    5  A    between atoms: C21_18  and  O23_19 
ROOT
ATOM      1  C11 <0> d   1      18.606  -2.286  10.118  0.00  0.00     0.262 C 
ATOM      2  O13 <0> d   1      17.471  -1.434  10.382  0.00  0.00    -0.353 OA
ATOM      3  C14 <0> d   1      17.547  -1.047  11.765  0.00  0.00     0.179 C 
ATOM      4  C18 <0> d   1      19.032  -1.101  12.173  0.00  0.00     0.182 C 
ATOM      5  C21 <0> d   1      19.759  -1.608  10.902  0.00  0.00     0.198 C 
ENDROOT
BRANCH   1   6
ATOM      6  N10 <0> d   1      18.906  -2.317   8.685  0.00  0.00    -0.294 N 
ATOM      7  C6  <0> d   1      18.934  -1.241   7.840  0.00  0.00     0.169 A 
ATOM      8  N5  <0> d   1      18.720   0.074   7.992  0.00  0.00    -0.221 NA
ATOM      9  C7  <0> d   1      19.264  -1.747   6.579  0.00  0.00     0.174 A 
ATOM     10  C4  <0> d   1      18.819   0.895   6.984  0.00  0.00     0.239 A 
ATOM     11  N3  <0> d   1      19.141   0.471   5.736  0.00  0.00    -0.201 NA
ATOM     12  C2  <0> d   1      19.373  -0.838   5.496  0.00  0.00     0.300 A 
ATOM     13  O1  <0> d   1      19.663  -1.229   4.379  0.00  0.00    -0.263 OA
ATOM     14  N8  <0> d   1      19.424  -3.084   6.710  0.00  0.00    -0.234 NA
ATOM     15  C9  <0> d   1      19.217  -3.423   7.951  0.00  0.00     0.214 A 
ENDBRANCH   1   6
BRANCH   5  16
ATOM     16  O23 <0> d   1      20.778  -2.552  11.239  0.00  0.00    -0.388 OA
ATOM     17  H30 <0> d   1      21.156  -2.425  12.121  0.00  0.00     0.210 HD
ENDBRANCH   5  16
BRANCH   4  18
ATOM     18  O20 <0> d   1      19.221  -2.016  13.255  0.00  0.00    -0.390 OA
ATOM     19  H29 <0> d   1      19.849  -1.710  13.923  0.00  0.00     0.210 HD
ENDBRANCH   4  18
BRANCH   3  20
ATOM     20  C16 <0> d   1      17.008   0.374  11.937  0.00  0.00     0.198 C 
BRANCH  20  21
ATOM     21  O17 <0> d   1      17.071   1.062  10.686  0.00  0.00    -0.398 OA
ATOM     22  H28 <0> d   1      16.360   0.828  10.072  0.00  0.00     0.209 HD
ENDBRANCH  20  21
ENDBRANCH   3  20
TORSDOF 5
ENDMDL
MODEL 5
REMARK VINA RESULT:      -6.7      3.102      3.592
REMARK  5 active torsions:
REMARK  status: ('A' for Active; 'I' for Inactive)
REMARK    1  A    between atoms: N10_10  and  C11_11 
REMARK    2  A    between atoms: C14_13  and  C16_14 
REMARK    3  A    between atoms: C16_14  and  O17_15 
REMARK    4  A    between atoms: C18_16  and  O20_17 
REMARK    5  A    between atoms: C21_18  and  O23_19 
ROOT
ATOM      1  C11 <0> d   1      18.604   2.013  10.896  0.00  0.00     0.262 C 
ATOM      2  O13 <0> d   1      17.375   2.770  10.873  0.00  0.00    -0.353 OA
ATOM      3  C14 <0> d   1      17.466   3.752  11.920  0.00  0.00     0.179 C 
ATOM      4  C18 <0> d   1      18.963   4.042  12.146  0.00  0.00     0.182 C 
ATOM      5  C21 <0> d   1      19.689   3.087  11.165  0.00  0.00     0.198 C 
ENDROOT
BRANCH   1   6
ATOM      6  N10 <0> d   1      18.833   1.360   9.605  0.00  0.00    -0.294 N 
ATOM      7  C6  <0> d   1      18.850   0.013   9.371  0.00  0.00     0.169 A 
ATOM      8  N5  <0> d   1      18.689  -1.073  10.141  0.00  0.00    -0.221 NA
ATOM      9  C7  <0> d   1      19.101  -0.141   8.004  0.00  0.00     0.174 A 
ATOM     10  C4  <0> d   1      18.757  -2.274   9.638  0.00  0.00     0.239 A 
ATOM     11  N3  <0> d   1      18.992  -2.493   8.320  0.00  0.00    -0.201 NA
ATOM     12  C2  <0> d   1      19.166  -1.454   7.474  0.00  0.00     0.300 A 
ATOM     13  O1  <0> d   1      19.377  -1.640   6.288  0.00  0.00    -0.263 OA
ATOM     14  N8  <0> d   1      19.219   1.098   7.475  0.00  0.00    -0.234 NA
ATOM     15  C9  <0> d   1      19.058   1.986   8.415  0.00  0.00     0.214 A 
ENDBRANCH   1   6
BRANCH   5  16
ATOM     16  O23 <0> d   1      20.846   2.510  11.776  0.00  0.00    -0.388 OA
ATOM     17  H30 <0> d   1      21.259   1.810  11.252  0.00  0.00     0.210 HD
ENDBRANCH   5  16
BRANCH   4  18
ATOM     18  O20 <0> d   1      19.331   3.746  13.495  0.00  0.00    -0.390 OA
ATOM     19  H29 <0> d   1      18.637   3.932  14.142  0.00  0.00     0.210 HD
ENDBRANCH   4  18
BRANCH   3  20
ATOM     20  C16 <0> d   1      16.743   5.031  11.496  0.00  0.00     0.198 C 
BRANCH  20  21
ATOM     21  O17 <0> d   1      17.099   5.356  10.151  0.00  0.00    -0.398 OA
ATOM     22  H28 <0> d   1      16.999   6.294   9.933  0.00  0.00     0.209 HD
ENDBRANCH  20  21
ENDBRANCH   3  20
TORSDOF 5
ENDMDL
MODEL 6
REMARK VINA RESULT:      -6.6      4.588      7.416
REMARK  5 active torsions:
REMARK  status: ('A' for Active; 'I' for Inactive)
REMARK    1  A    between atoms: N10_10  and  C11_11 
REMARK    2  A    between atoms: C14_13  and  C16_14 
REMARK    3  A    between atoms: C16_14  and  O17_15 
REMARK    4  A    between atoms: C18_16  and  O20_17 
REMARK    5  A    between atoms: C21_18  and  O23_19 
ROOT
ATOM      1  C11 <0> d   1      19.336   1.032  12.374  0.00  0.00     0.262 C 
ATOM      2  O13 <0> d   1      18.180   0.324  11.878  0.00  0.00    -0.353 OA
ATOM      3  C14 <0> d   1      18.611  -0.440  10.739  0.00  0.00     0.179 C 
ATOM      4  C18 <0> d   1      20.113  -0.729  10.924  0.00  0.00     0.182 C 
ATOM      5  C21 <0> d   1      20.481  -0.005  12.244  0.00  0.00     0.198 C 
ENDROOT
BRANCH   1   6
ATOM      6  N10 <0> d   1      19.145   1.415  13.775  0.00  0.00    -0.294 N 
ATOM      7  C6  <0> d   1      19.073   0.565  14.844  0.00  0.00     0.169 A 
ATOM      8  N5  <0> d   1      19.137  -0.767  14.987  0.00  0.00    -0.221 NA
ATOM      9  C7  <0> d   1      18.888   1.373  15.971  0.00  0.00     0.174 A 
ATOM     10  C4  <0> d   1      19.036  -1.326  16.160  0.00  0.00     0.239 A 
ATOM     11  N3  <0> d   1      18.861  -0.601  17.294  0.00  0.00    -0.201 NA
ATOM     12  C2  <0> d   1      18.786   0.747  17.239  0.00  0.00     0.300 A 
ATOM     13  O1  <0> d   1      18.630   1.408  18.251  0.00  0.00    -0.263 OA
ATOM     14  N8  <0> d   1      18.861   2.656  15.546  0.00  0.00    -0.234 NA
ATOM     15  C9  <0> d   1      19.015   2.685  14.253  0.00  0.00     0.214 A 
ENDBRANCH   1   6
BRANCH   5  16
ATOM     16  O23 <0> d   1      21.752   0.641  12.135  0.00  0.00    -0.388 OA
ATOM     17  H30 <0> d   1      21.697   1.583  11.921  0.00  0.00     0.210 HD
ENDBRANCH   5  16
BRANCH   4  18
ATOM     18  O20 <0> d   1      20.865  -0.191   9.833  0.00  0.00    -0.390 OA
ATOM     19  H29 <0> d   1      20.650  -0.584   8.977  0.00  0.00     0.210 HD
ENDBRANCH   4  18
BRANCH   3  20
ATOM     20  C16 <0> d   1      17.830  -1.753  10.668  0.00  0.00     0.198 C 
BRANCH  20  21
ATOM     21  O17 <0> d   1      16.990  -1.870  11.818  0.00  0.00    -0.398 OA
ATOM     22  H28 <0> d   1      16.084  -2.145  11.617  0.00  0.00     0.209 HD
ENDBRANCH  20  21
ENDBRANCH   3  20
TORSDOF 5
ENDMDL
MODEL 7
REMARK VINA RESULT:      -6.6      1.326      2.420
REMARK  5 active torsions:
REMARK  status: ('A' for Active; 'I' for Inactive)
REMARK    1  A    between atoms: N10_10  and  C11_11 
REMARK    2  A    between atoms: C14_13  and  C16_14 
REMARK    3  A    between atoms: C16_14  and  O17_15 
REMARK    4  A    between atoms: C18_16  and  O20_17 
REMARK    5  A    between atoms: C21_18  and  O23_19 
ROOT
ATOM      1  C11 <0> d   1      18.886  -0.116  10.195  0.00  0.00     0.262 C 
ATOM      2  O13 <0> d   1      19.829  -1.137  10.585  0.00  0.00    -0.353 OA
ATOM      3  C14 <0> d   1      19.354  -1.699  11.820  0.00  0.00     0.179 C 
ATOM      4  C18 <0> d   1      17.825  -1.509  11.851  0.00  0.00     0.182 C 
ATOM      5  C21 <0> d   1      17.510  -0.739  10.543  0.00  0.00     0.198 C 
ENDROOT
BRANCH   1   6
ATOM      6  N10 <0> d   1      18.981   0.153   8.758  0.00  0.00    -0.294 N 
ATOM      7  C6  <0> d   1      19.154  -0.777   7.771  0.00  0.00     0.169 A 
ATOM      8  N5  <0> d   1      19.288  -2.112   7.755  0.00  0.00    -0.221 NA
ATOM      9  C7  <0> d   1      19.186  -0.065   6.568  0.00  0.00     0.174 A 
ATOM     10  C4  <0> d   1      19.442  -2.761   6.635  0.00  0.00     0.239 A 
ATOM     11  N3  <0> d   1      19.476  -2.132   5.433  0.00  0.00    -0.201 NA
ATOM     12  C2  <0> d   1      19.349  -0.789   5.360  0.00  0.00     0.300 A 
ATOM     13  O1  <0> d   1      19.377  -0.215   4.285  0.00  0.00    -0.263 OA
ATOM     14  N8  <0> d   1      19.029   1.244   6.871  0.00  0.00    -0.234 NA
ATOM     15  C9  <0> d   1      18.905   1.376   8.161  0.00  0.00     0.214 A 
ENDBRANCH   1   6
BRANCH   5  16
ATOM     16  O23 <0> d   1      16.528   0.274  10.771  0.00  0.00    -0.388 OA
ATOM     17  H30 <0> d   1      15.668   0.086  10.369  0.00  0.00     0.210 HD
ENDBRANCH   5  16
BRANCH   4  18
ATOM     18  O20 <0> d   1      17.440  -0.735  12.990  0.00  0.00    -0.390 OA
ATOM     19  H29 <0> d   1      16.554  -0.938  13.321  0.00  0.00     0.210 HD
ENDBRANCH   4  18
BRANCH   3  20
ATOM     20  C16 <0> d   1      19.697  -3.188  11.880  0.00  0.00     0.198 C 
BRANCH  20  21
ATOM     21  O17 <0> d   1      21.060  -3.378  11.493  0.00  0.00    -0.398 OA
ATOM     22  H28 <0> d   1      21.695  -3.244  12.212  0.00  0.00     0.209 HD
ENDBRANCH  20  21
ENDBRANCH   3  20
TORSDOF 5
ENDMDL
MODEL 8
REMARK VINA RESULT:      -6.6      3.295      4.796
REMARK  5 active torsions:
REMARK  status: ('A' for Active; 'I' for Inactive)
REMARK    1  A    between atoms: N10_10  and  C11_11 
REMARK    2  A    between atoms: C14_13  and  C16_14 
REMARK    3  A    between atoms: C16_14  and  O17_15 
REMARK    4  A    between atoms: C18_16  and  O20_17 
REMARK    5  A    between atoms: C21_18  and  O23_19 
ROOT
ATOM      1  C11 <0> d   1      18.485  -2.121  10.121  0.00  0.00     0.262 C 
ATOM      2  O13 <0> d   1      17.414  -3.065   9.909  0.00  0.00    -0.353 OA
ATOM      3  C14 <0> d   1      17.995  -4.379   9.958  0.00  0.00     0.179 C 
ATOM      4  C18 <0> d   1      19.257  -4.289  10.838  0.00  0.00     0.182 C 
ATOM      5  C21 <0> d   1      19.347  -2.790  11.223  0.00  0.00     0.198 C 
ENDROOT
BRANCH   1   6
ATOM      6  N10 <0> d   1      17.957  -0.837  10.589  0.00  0.00    -0.294 N 
ATOM      7  C6  <0> d   1      18.282   0.398  10.098  0.00  0.00     0.169 A 
ATOM      8  N5  <0> d   1      19.105   0.836   9.134  0.00  0.00    -0.221 NA
ATOM      9  C7  <0> d   1      17.538   1.319  10.843  0.00  0.00     0.174 A 
ATOM     10  C4  <0> d   1      19.221   2.108   8.872  0.00  0.00     0.239 A 
ATOM     11  N3  <0> d   1      18.524   3.053   9.552  0.00  0.00    -0.201 NA
ATOM     12  C2  <0> d   1      17.674   2.697  10.539  0.00  0.00     0.300 A 
ATOM     13  O1  <0> d   1      17.043   3.538  11.156  0.00  0.00    -0.263 OA
ATOM     14  N8  <0> d   1      16.803   0.615  11.734  0.00  0.00    -0.234 NA
ATOM     15  C9  <0> d   1      17.045  -0.656  11.585  0.00  0.00     0.214 A 
ENDBRANCH   1   6
BRANCH   5  16
ATOM     16  O23 <0> d   1      20.699  -2.330  11.170  0.00  0.00    -0.388 OA
ATOM     17  H30 <0> d   1      21.357  -3.039  11.181  0.00  0.00     0.210 HD
ENDBRANCH   5  16
BRANCH   4  18
ATOM     18  O20 <0> d   1      20.414  -4.684  10.097  0.00  0.00    -0.390 OA
ATOM     19  H29 <0> d   1      20.803  -3.973   9.569  0.00  0.00     0.210 HD
ENDBRANCH   4  18
BRANCH   3  20
ATOM     20  C16 <0> d   1      16.999  -5.365  10.571  0.00  0.00     0.198 C 
BRANCH  20  21
ATOM     21  O17 <0> d   1      16.019  -4.646  11.322  0.00  0.00    -0.398 OA
ATOM     22  H28 <0> d   1      15.659  -5.140  12.073  0.00  0.00     0.209 HD
ENDBRANCH  20  21
ENDBRANCH   3  20
TORSDOF 5
ENDMDL
MODEL 9
REMARK VINA RESULT:      -6.5      2.608      3.557
REMARK  5 active torsions:
REMARK  status: ('A' for Active; 'I' for Inactive)
REMARK    1  A    between atoms: N10_10  and  C11_11 
REMARK    2  A    between atoms: C14_13  and  C16_14 
REMARK    3  A    between atoms: C16_14  and  O17_15 
REMARK    4  A    between atoms: C18_16  and  O20_17 
REMARK    5  A    between atoms: C21_18  and  O23_19 
ROOT
ATOM      1  C11 <0> d   1      19.681  -1.639  11.586  0.00  0.00     0.262 C 
ATOM      2  O13 <0> d   1      18.349  -1.111  11.763  0.00  0.00    -0.353 OA
ATOM      3  C14 <0> d   1      18.480   0.310  11.937  0.00  0.00     0.179 C 
ATOM      4  C18 <0> d   1      19.776   0.741  11.224  0.00  0.00     0.182 C 
ATOM      5  C21 <0> d   1      20.375  -0.584  10.689  0.00  0.00     0.198 C 
ENDROOT
BRANCH   1   6
ATOM      6  N10 <0> d   1      19.635  -2.940  10.913  0.00  0.00    -0.294 N 
ATOM      7  C6  <0> d   1      19.192  -3.177   9.641  0.00  0.00     0.169 A 
ATOM      8  N5  <0> d   1      18.692  -2.405   8.665  0.00  0.00    -0.221 NA
ATOM      9  C7  <0> d   1      19.335  -4.552   9.430  0.00  0.00     0.174 A 
ATOM     10  C4  <0> d   1      18.341  -2.912   7.516  0.00  0.00     0.239 A 
ATOM     11  N3  <0> d   1      18.460  -4.236   7.244  0.00  0.00    -0.201 NA
ATOM     12  C2  <0> d   1      18.954  -5.084   8.173  0.00  0.00     0.300 A 
ATOM     13  O1  <0> d   1      19.065  -6.275   7.938  0.00  0.00    -0.263 OA
ATOM     14  N8  <0> d   1      19.855  -5.080  10.562  0.00  0.00    -0.234 NA
ATOM     15  C9  <0> d   1      20.036  -4.132  11.436  0.00  0.00     0.214 A 
ENDBRANCH   1   6
BRANCH   5  16
ATOM     16  O23 <0> d   1      21.794  -0.610  10.865  0.00  0.00    -0.388 OA
ATOM     17  H30 <0> d   1      22.257  -1.185  10.239  0.00  0.00     0.210 HD
ENDBRANCH   5  16
BRANCH   4  18
ATOM     18  O20 <0> d   1      20.675   1.358  12.149  0.00  0.00    -0.390 OA
ATOM     19  H29 <0> d   1      20.261   1.621  12.983  0.00  0.00     0.210 HD
ENDBRANCH   4  18
BRANCH   3  20
ATOM     20  C16 <0> d   1      17.278   1.023  11.315  0.00  0.00     0.198 C 
BRANCH  20  21
ATOM     21  O17 <0> d   1      16.126   0.182  11.406  0.00  0.00    -0.398 OA
ATOM     22  H28 <0> d   1      15.289   0.644  11.255  0.00  0.00     0.209 HD
ENDBRANCH  20  21
ENDBRANCH   3  20
TORSDOF 5
ENDMDL
