MODEL 1
REMARK VINA RESULT:      -9.0      0.000      0.000
REMARK  7 active torsions:
REMARK  status: ('A' for Active; 'I' for Inactive)
REMARK    1  A    between atoms: C2_2  and  C4_3 
REMARK    2  A    between atoms: C2_2  and  C17_16 
REMARK    3  A    between atoms: C6_5  and  C7_6 
REMARK    4  A    between atoms: C17_16  and  O18_17 
REMARK    5  A    between atoms: C17_16  and  C19_18 
REMARK    6  A    between atoms: C17_16  and  C25_24 
REMARK    7  A    between atoms: C19_18  and  N20_19 
ROOT
ATOM      1  C7  ZIN A   1      18.511  -0.206  14.009  0.00  0.00    -0.007 A 
ATOM      2  C8  ZIN A   1      18.790   1.146  14.206  0.00  0.00     0.015 A 
ATOM      3  C9  ZIN A   1      19.063   1.615  15.466  0.00  0.00     0.023 A 
ATOM      4  C10 ZIN A   1      19.061   0.736  16.553  0.00  0.00     0.044 A 
ATOM      5  C11 ZIN A   1      19.345   1.223  17.870  0.00  0.00     0.099 C 
ATOM      6  N12 ZIN A   1      19.570   1.609  18.914  0.00  0.00    -0.191 NA
ATOM      7  C13 ZIN A   1      18.781  -0.620  16.355  0.00  0.00     0.023 A 
ATOM      8  C14 ZIN A   1      18.502  -1.084  15.095  0.00  0.00     0.015 A 
ENDROOT
BRANCH   1   9
ATOM      9  C6  ZIN A   1      18.217  -0.711  12.648  0.00  0.00     0.074 A 
ATOM     10  N5  ZIN A   1      18.085   0.086  11.596  0.00  0.00    -0.244 NA
ATOM     11  C4  ZIN A   1      17.829  -0.473  10.465  0.00  0.00     0.082 A 
ATOM     12  S16 ZIN A   1      17.718  -2.169  10.645  0.00  0.00    -0.084 SA
ATOM     13  C15 ZIN A   1      18.058  -2.022  12.368  0.00  0.00     0.084 A 
BRANCH  11  14
ATOM     14  C2  ZIN A   1      17.646   0.265   9.164  0.00  0.00     0.082 C 
ATOM     15  C1  ZIN A   1      16.778  -0.570   8.221  0.00  0.00     0.020 C 
BRANCH  14  16
ATOM     16  C17 ZIN A   1      19.012   0.509   8.519  0.00  0.00     0.115 C 
BRANCH  16  17
ATOM     17  O18 ZIN A   1      20.040   0.023   9.384  0.00  0.00    -0.382 OA
ATOM     18  H41 ZIN A   1      20.638   0.710   9.708  0.00  0.00     0.211 HD
ENDBRANCH  16  17
BRANCH  16  19
ATOM     19  C19 ZIN A   1      19.206   2.009   8.287  0.00  0.00     0.196 C 
BRANCH  19  20
ATOM     20  N20 ZIN A   1      19.075   2.720   9.561  0.00  0.00    -0.259 N 
ATOM     21  N24 ZIN A   1      19.946   2.645  10.661  0.00  0.00    -0.165 NA
ATOM     22  C23 ZIN A   1      19.461   3.436  11.581  0.00  0.00     0.256 A 
ATOM     23  N22 ZIN A   1      18.340   3.992  11.127  0.00  0.00    -0.234 NA
ATOM     24  C21 ZIN A   1      18.095   3.571   9.912  0.00  0.00     0.230 A 
ENDBRANCH  19  20
ENDBRANCH  16  19
BRANCH  16  25
ATOM     25  C25 ZIN A   1      19.081  -0.216   7.200  0.00  0.00     0.020 A 
ATOM     26  C31 ZIN A   1      19.390  -1.565   7.165  0.00  0.00     0.126 A 
ATOM     27  C30 ZIN A   1      19.449  -2.232   5.953  0.00  0.00     0.046 A 
ATOM     28  F32 ZIN A   1      19.624  -2.234   8.316  0.00  0.00    -0.205 F 
ATOM     29  C29 ZIN A   1      19.209  -1.548   4.777  0.00  0.00     0.045 A 
ATOM     30  C27 ZIN A   1      18.905  -0.198   4.810  0.00  0.00     0.117 A 
ATOM     31  C26 ZIN A   1      18.843   0.468   6.023  0.00  0.00     0.055 A 
ATOM     32  F28 ZIN A   1      18.672   0.470   3.659  0.00  0.00    -0.206 F 
ENDBRANCH  16  25
ENDBRANCH  14  16
ENDBRANCH  11  14
ENDBRANCH   1   9
TORSDOF 7
ENDMDL
MODEL 2
REMARK VINA RESULT:      -8.9      4.181      7.342
REMARK  7 active torsions:
REMARK  status: ('A' for Active; 'I' for Inactive)
REMARK    1  A    between atoms: C2_2  and  C4_3 
REMARK    2  A    between atoms: C2_2  and  C17_16 
REMARK    3  A    between atoms: C6_5  and  C7_6 
REMARK    4  A    between atoms: C17_16  and  O18_17 
REMARK    5  A    between atoms: C17_16  and  C19_18 
REMARK    6  A    between atoms: C17_16  and  C25_24 
REMARK    7  A    between atoms: C19_18  and  N20_19 
ROOT
ATOM      1  C7  ZIN A   1      17.540  -5.304   9.431  0.00  0.00    -0.007 A 
ATOM      2  C8  ZIN A   1      16.172  -5.081   9.271  0.00  0.00     0.015 A 
ATOM      3  C9  ZIN A   1      15.416  -5.955   8.532  0.00  0.00     0.023 A 
ATOM      4  C10 ZIN A   1      16.018  -7.068   7.937  0.00  0.00     0.044 A 
ATOM      5  C11 ZIN A   1      15.230  -7.981   7.165  0.00  0.00     0.099 C 
ATOM      6  N12 ZIN A   1      14.606  -8.705   6.552  0.00  0.00    -0.191 NA
ATOM      7  C13 ZIN A   1      17.389  -7.290   8.098  0.00  0.00     0.023 A 
ATOM      8  C14 ZIN A   1      18.143  -6.412   8.833  0.00  0.00     0.015 A 
ENDROOT
BRANCH   1   9
ATOM      9  C6  ZIN A   1      18.356  -4.359  10.230  0.00  0.00     0.074 A 
ATOM     10  N5  ZIN A   1      17.983  -3.110  10.470  0.00  0.00    -0.244 NA
ATOM     11  C4  ZIN A   1      18.779  -2.386  11.178  0.00  0.00     0.082 A 
ATOM     12  S16 ZIN A   1      20.165  -3.281  11.627  0.00  0.00    -0.084 SA
ATOM     13  C15 ZIN A   1      19.544  -4.694  10.777  0.00  0.00     0.084 A 
BRANCH  11  14
ATOM     14  C2  ZIN A   1      18.527  -0.948  11.554  0.00  0.00     0.082 C 
ATOM     15  C1  ZIN A   1      17.153  -0.827  12.214  0.00  0.00     0.020 C 
BRANCH  14  16
ATOM     16  C17 ZIN A   1      18.569  -0.077  10.296  0.00  0.00     0.115 C 
BRANCH  16  17
ATOM     17  O18 ZIN A   1      17.376  -0.282   9.536  0.00  0.00    -0.382 OA
ATOM     18  H41 ZIN A   1      17.258   0.349   8.813  0.00  0.00     0.211 HD
ENDBRANCH  16  17
BRANCH  16  19
ATOM     19  C19 ZIN A   1      19.786  -0.460   9.451  0.00  0.00     0.196 C 
BRANCH  19  20
ATOM     20  N20 ZIN A   1      19.383  -0.593   8.049  0.00  0.00    -0.259 N 
ATOM     21  N24 ZIN A   1      18.955   0.436   7.194  0.00  0.00    -0.165 NA
ATOM     22  C23 ZIN A   1      18.698  -0.117   6.037  0.00  0.00     0.256 A 
ATOM     23  N22 ZIN A   1      18.932  -1.425   6.122  0.00  0.00    -0.234 NA
ATOM     24  C21 ZIN A   1      19.344  -1.726   7.326  0.00  0.00     0.230 A 
ENDBRANCH  19  20
ENDBRANCH  16  19
BRANCH  16  25
ATOM     25  C25 ZIN A   1      18.669   1.373  10.693  0.00  0.00     0.020 A 
ATOM     26  C31 ZIN A   1      19.723   1.805  11.480  0.00  0.00     0.126 A 
ATOM     27  C30 ZIN A   1      19.818   3.138  11.840  0.00  0.00     0.046 A 
ATOM     28  F32 ZIN A   1      20.666   0.927  11.888  0.00  0.00    -0.205 F 
ATOM     29  C29 ZIN A   1      18.855   4.036  11.423  0.00  0.00     0.045 A 
ATOM     30  C27 ZIN A   1      17.798   3.604  10.640  0.00  0.00     0.117 A 
ATOM     31  C26 ZIN A   1      17.705   2.271  10.277  0.00  0.00     0.055 A 
ATOM     32  F28 ZIN A   1      16.856   4.483  10.233  0.00  0.00    -0.206 F 
ENDBRANCH  16  25
ENDBRANCH  14  16
ENDBRANCH  11  14
ENDBRANCH   1   9
TORSDOF 7
ENDMDL
MODEL 3
REMARK VINA RESULT:      -8.7      3.342      5.958
REMARK  7 active torsions:
REMARK  status: ('A' for Active; 'I' for Inactive)
REMARK    1  A    between atoms: C2_2  and  C4_3 
REMARK    2  A    between atoms: C2_2  and  C17_16 
REMARK    3  A    between atoms: C6_5  and  C7_6 
REMARK    4  A    between atoms: C17_16  and  O18_17 
REMARK    5  A    between atoms: C17_16  and  C19_18 
REMARK    6  A    between atoms: C17_16  and  C25_24 
REMARK    7  A    between atoms: C19_18  and  N20_19 
ROOT
ATOM      1  C7  ZIN A   1      18.504  -4.253   9.927  0.00  0.00    -0.007 A 
ATOM      2  C8  ZIN A   1      19.566  -5.110   9.635  0.00  0.00     0.015 A 
ATOM      3  C9  ZIN A   1      19.370  -6.191   8.814  0.00  0.00     0.023 A 
ATOM      4  C10 ZIN A   1      18.105  -6.435   8.271  0.00  0.00     0.044 A 
ATOM      5  C11 ZIN A   1      17.899  -7.563   7.414  0.00  0.00     0.099 C 
ATOM      6  N12 ZIN A   1      17.734  -8.458   6.734  0.00  0.00    -0.191 NA
ATOM      7  C13 ZIN A   1      17.042  -5.576   8.565  0.00  0.00     0.023 A 
ATOM      8  C14 ZIN A   1      17.239  -4.499   9.391  0.00  0.00     0.015 A 
ENDROOT
BRANCH   1   9
ATOM      9  C6  ZIN A   1      18.717  -3.086  10.814  0.00  0.00     0.074 A 
ATOM     10  N5  ZIN A   1      19.337  -1.982  10.418  0.00  0.00    -0.244 NA
ATOM     11  C4  ZIN A   1      19.460  -1.036  11.282  0.00  0.00     0.082 A 
ATOM     12  S16 ZIN A   1      18.762  -1.491  12.775  0.00  0.00    -0.084 SA
ATOM     13  C15 ZIN A   1      18.298  -3.050  12.097  0.00  0.00     0.084 A 
BRANCH  11  14
ATOM     14  C2  ZIN A   1      20.131   0.287  11.017  0.00  0.00     0.082 C 
ATOM     15  C1  ZIN A   1      20.763   0.807  12.310  0.00  0.00     0.020 C 
BRANCH  14  16
ATOM     16  C17 ZIN A   1      19.094   1.294  10.515  0.00  0.00     0.115 C 
BRANCH  16  17
ATOM     17  O18 ZIN A   1      19.679   2.596  10.466  0.00  0.00    -0.382 OA
ATOM     18  H41 ZIN A   1      20.411   2.675   9.838  0.00  0.00     0.211 HD
ENDBRANCH  16  17
BRANCH  16  19
ATOM     19  C19 ZIN A   1      17.895   1.308  11.466  0.00  0.00     0.196 C 
BRANCH  19  20
ATOM     20  N20 ZIN A   1      17.605   2.687  11.864  0.00  0.00    -0.259 N 
ATOM     21  N24 ZIN A   1      17.013   3.686  11.074  0.00  0.00    -0.165 NA
ATOM     22  C23 ZIN A   1      16.937   4.760  11.815  0.00  0.00     0.256 A 
ATOM     23  N22 ZIN A   1      17.453   4.495  13.014  0.00  0.00    -0.234 NA
ATOM     24  C21 ZIN A   1      17.859   3.252  13.058  0.00  0.00     0.230 A 
ENDBRANCH  19  20
ENDBRANCH  16  19
BRANCH  16  25
ATOM     25  C25 ZIN A   1      18.635   0.897   9.136  0.00  0.00     0.020 A 
ATOM     26  C31 ZIN A   1      17.456   0.189   8.975  0.00  0.00     0.126 A 
ATOM     27  C30 ZIN A   1      17.032  -0.172   7.707  0.00  0.00     0.046 A 
ATOM     28  F32 ZIN A   1      16.713  -0.141  10.054  0.00  0.00    -0.205 F 
ATOM     29  C29 ZIN A   1      17.791   0.166   6.603  0.00  0.00     0.045 A 
ATOM     30  C27 ZIN A   1      18.973   0.869   6.764  0.00  0.00     0.117 A 
ATOM     31  C26 ZIN A   1      19.395   1.233   8.031  0.00  0.00     0.055 A 
ATOM     32  F28 ZIN A   1      19.715   1.198   5.684  0.00  0.00    -0.206 F 
ENDBRANCH  16  25
ENDBRANCH  14  16
ENDBRANCH  11  14
ENDBRANCH   1   9
TORSDOF 7
ENDMDL
MODEL 4
REMARK VINA RESULT:      -8.6      4.161      5.579
REMARK  7 active torsions:
REMARK  status: ('A' for Active; 'I' for Inactive)
REMARK    1  A    between atoms: C2_2  and  C4_3 
REMARK    2  A    between atoms: C2_2  and  C17_16 
REMARK    3  A    between atoms: C6_5  and  C7_6 
REMARK    4  A    between atoms: C17_16  and  O18_17 
REMARK    5  A    between atoms: C17_16  and  C19_18 
REMARK    6  A    between atoms: C17_16  and  C25_24 
REMARK    7  A    between atoms: C19_18  and  N20_19 
ROOT
ATOM      1  C7  ZIN A   1      16.519   5.718  14.906  0.00  0.00    -0.007 A 
ATOM      2  C8  ZIN A   1      16.695   5.880  16.280  0.00  0.00     0.015 A 
ATOM      3  C9  ZIN A   1      15.630   6.225  17.073  0.00  0.00     0.023 A 
ATOM      4  C10 ZIN A   1      14.368   6.417  16.502  0.00  0.00     0.044 A 
ATOM      5  C11 ZIN A   1      13.255   6.778  17.328  0.00  0.00     0.099 C 
ATOM      6  N12 ZIN A   1      12.373   7.064  17.983  0.00  0.00    -0.191 NA
ATOM      7  C13 ZIN A   1      14.193   6.255  15.124  0.00  0.00     0.023 A 
ATOM      8  C14 ZIN A   1      15.261   5.915  14.334  0.00  0.00     0.015 A 
ENDROOT
BRANCH   1   9
ATOM      9  C6  ZIN A   1      17.670   5.345  14.050  0.00  0.00     0.074 A 
ATOM     10  N5  ZIN A   1      17.534   4.692  12.904  0.00  0.00    -0.244 NA
ATOM     11  C4  ZIN A   1      18.611   4.425  12.251  0.00  0.00     0.082 A 
ATOM     12  S16 ZIN A   1      19.982   5.010  13.087  0.00  0.00    -0.084 SA
ATOM     13  C15 ZIN A   1      18.948   5.640  14.368  0.00  0.00     0.084 A 
BRANCH  11  14
ATOM     14  C2  ZIN A   1      18.658   3.693  10.934  0.00  0.00     0.082 C 
ATOM     15  C1  ZIN A   1      17.664   4.330   9.961  0.00  0.00     0.020 C 
BRANCH  14  16
ATOM     16  C17 ZIN A   1      18.287   2.224  11.153  0.00  0.00     0.115 C 
BRANCH  16  17
ATOM     17  O18 ZIN A   1      17.016   2.146  11.801  0.00  0.00    -0.382 OA
ATOM     18  H41 ZIN A   1      16.358   2.762  11.451  0.00  0.00     0.211 HD
ENDBRANCH  16  17
BRANCH  16  19
ATOM     19  C19 ZIN A   1      19.349   1.556  12.029  0.00  0.00     0.196 C 
BRANCH  19  20
ATOM     20  N20 ZIN A   1      18.699   0.890  13.160  0.00  0.00    -0.259 N 
ATOM     21  N24 ZIN A   1      18.137   1.506  14.291  0.00  0.00    -0.165 NA
ATOM     22  C23 ZIN A   1      17.665   0.549  15.047  0.00  0.00     0.256 A 
ATOM     23  N22 ZIN A   1      17.907  -0.622  14.462  0.00  0.00    -0.234 NA
ATOM     24  C21 ZIN A   1      18.528  -0.433  13.327  0.00  0.00     0.230 A 
ENDBRANCH  19  20
ENDBRANCH  16  19
BRANCH  16  25
ATOM     25  C25 ZIN A   1      18.218   1.520   9.823  0.00  0.00     0.020 A 
ATOM     26  C31 ZIN A   1      17.363   0.444   9.652  0.00  0.00     0.126 A 
ATOM     27  C30 ZIN A   1      17.296  -0.200   8.428  0.00  0.00     0.046 A 
ATOM     28  F32 ZIN A   1      16.586   0.029  10.676  0.00  0.00    -0.205 F 
ATOM     29  C29 ZIN A   1      18.090   0.224   7.380  0.00  0.00     0.045 A 
ATOM     30  C27 ZIN A   1      18.949   1.297   7.552  0.00  0.00     0.117 A 
ATOM     31  C26 ZIN A   1      19.013   1.943   8.775  0.00  0.00     0.055 A 
ATOM     32  F28 ZIN A   1      19.726   1.710   6.527  0.00  0.00    -0.206 F 
ENDBRANCH  16  25
ENDBRANCH  14  16
ENDBRANCH  11  14
ENDBRANCH   1   9
TORSDOF 7
ENDMDL
MODEL 5
REMARK VINA RESULT:      -8.5      3.397      5.974
REMARK  7 active torsions:
REMARK  status: ('A' for Active; 'I' for Inactive)
REMARK    1  A    between atoms: C2_2  and  C4_3 
REMARK    2  A    between atoms: C2_2  and  C17_16 
REMARK    3  A    between atoms: C6_5  and  C7_6 
REMARK    4  A    between atoms: C17_16  and  O18_17 
REMARK    5  A    between atoms: C17_16  and  C19_18 
REMARK    6  A    between atoms: C17_16  and  C25_24 
REMARK    7  A    between atoms: C19_18  and  N20_19 
ROOT
ATOM      1  C7  ZIN A   1      18.270   4.998  13.089  0.00  0.00    -0.007 A 
ATOM      2  C8  ZIN A   1      19.359   5.349  13.887  0.00  0.00     0.015 A 
ATOM      3  C9  ZIN A   1      19.258   6.398  14.765  0.00  0.00     0.023 A 
ATOM      4  C10 ZIN A   1      18.062   7.116  14.859  0.00  0.00     0.044 A 
ATOM      5  C11 ZIN A   1      17.954   8.212  15.775  0.00  0.00     0.099 C 
ATOM      6  N12 ZIN A   1      17.869   9.081  16.501  0.00  0.00    -0.191 NA
ATOM      7  C13 ZIN A   1      16.971   6.764  14.058  0.00  0.00     0.023 A 
ATOM      8  C14 ZIN A   1      17.077   5.719  13.177  0.00  0.00     0.015 A 
ENDROOT
BRANCH   1   9
ATOM      9  C6  ZIN A   1      18.381   3.865  12.140  0.00  0.00     0.074 A 
ATOM     10  N5  ZIN A   1      19.057   2.758  12.416  0.00  0.00    -0.244 NA
ATOM     11  C4  ZIN A   1      19.080   1.844  11.509  0.00  0.00     0.082 A 
ATOM     12  S16 ZIN A   1      18.193   2.339  10.134  0.00  0.00    -0.084 SA
ATOM     13  C15 ZIN A   1      17.803   3.867  10.921  0.00  0.00     0.084 A 
BRANCH  11  14
ATOM     14  C2  ZIN A   1      19.793   0.522  11.640  0.00  0.00     0.082 C 
ATOM     15  C1  ZIN A   1      19.859  -0.159  10.272  0.00  0.00     0.020 C 
BRANCH  14  16
ATOM     16  C17 ZIN A   1      19.032  -0.373  12.620  0.00  0.00     0.115 C 
BRANCH  16  17
ATOM     17  O18 ZIN A   1      17.783   0.235  12.950  0.00  0.00    -0.382 OA
ATOM     18  H41 ZIN A   1      17.209  -0.318  13.498  0.00  0.00     0.211 HD
ENDBRANCH  16  17
BRANCH  16  19
ATOM     19  C19 ZIN A   1      19.863  -0.557  13.892  0.00  0.00     0.196 C 
BRANCH  19  20
ATOM     20  N20 ZIN A   1      18.997  -0.417  15.065  0.00  0.00    -0.259 N 
ATOM     21  N24 ZIN A   1      18.532   0.782  15.630  0.00  0.00    -0.165 NA
ATOM     22  C23 ZIN A   1      17.790   0.454  16.655  0.00  0.00     0.256 A 
ATOM     23  N22 ZIN A   1      17.772  -0.872  16.768  0.00  0.00    -0.234 NA
ATOM     24  C21 ZIN A   1      18.492  -1.409  15.818  0.00  0.00     0.230 A 
ENDBRANCH  19  20
ENDBRANCH  16  19
BRANCH  16  25
ATOM     25  C25 ZIN A   1      18.785  -1.717  11.984  0.00  0.00     0.020 A 
ATOM     26  C31 ZIN A   1      17.627  -1.937  11.257  0.00  0.00     0.126 A 
ATOM     27  C30 ZIN A   1      17.402  -3.169  10.669  0.00  0.00     0.046 A 
ATOM     28  F32 ZIN A   1      16.722  -0.944  11.112  0.00  0.00    -0.205 F 
ATOM     29  C29 ZIN A   1      18.328  -4.184  10.816  0.00  0.00     0.045 A 
ATOM     30  C27 ZIN A   1      19.483  -3.967  11.548  0.00  0.00     0.117 A 
ATOM     31  C26 ZIN A   1      19.710  -2.732  12.133  0.00  0.00     0.055 A 
ATOM     32  F28 ZIN A   1      20.388  -4.960  11.692  0.00  0.00    -0.206 F 
ENDBRANCH  16  25
ENDBRANCH  14  16
ENDBRANCH  11  14
ENDBRANCH   1   9
TORSDOF 7
ENDMDL
MODEL 6
REMARK VINA RESULT:      -8.3      3.340      5.610
REMARK  7 active torsions:
REMARK  status: ('A' for Active; 'I' for Inactive)
REMARK    1  A    between atoms: C2_2  and  C4_3 
REMARK    2  A    between atoms: C2_2  and  C17_16 
REMARK    3  A    between atoms: C6_5  and  C7_6 
REMARK    4  A    between atoms: C17_16  and  O18_17 
REMARK    5  A    between atoms: C17_16  and  C19_18 
REMARK    6  A    between atoms: C17_16  and  C25_24 
REMARK    7  A    between atoms: C19_18  and  N20_19 
ROOT
ATOM      1  C7  ZIN A   1      17.299   4.388  12.987  0.00  0.00    -0.007 A 
ATOM      2  C8  ZIN A   1      16.336   5.387  12.840  0.00  0.00     0.015 A 
ATOM      3  C9  ZIN A   1      15.917   6.104  13.932  0.00  0.00     0.023 A 
ATOM      4  C10 ZIN A   1      16.455   5.831  15.193  0.00  0.00     0.044 A 
ATOM      5  C11 ZIN A   1      16.019   6.578  16.335  0.00  0.00     0.099 C 
ATOM      6  N12 ZIN A   1      15.673   7.170  17.240  0.00  0.00    -0.191 NA
ATOM      7  C13 ZIN A   1      17.420   4.830  15.339  0.00  0.00     0.023 A 
ATOM      8  C14 ZIN A   1      17.832   4.111  14.247  0.00  0.00     0.015 A 
ENDROOT
BRANCH   1   9
ATOM      9  C6  ZIN A   1      17.750   3.615  11.806  0.00  0.00     0.074 A 
ATOM     10  N5  ZIN A   1      17.820   2.291  11.796  0.00  0.00    -0.244 NA
ATOM     11  C4  ZIN A   1      18.229   1.734  10.709  0.00  0.00     0.082 A 
ATOM     12  S16 ZIN A   1      18.590   2.915   9.528  0.00  0.00    -0.084 SA
ATOM     13  C15 ZIN A   1      18.127   4.195  10.647  0.00  0.00     0.084 A 
BRANCH  11  14
ATOM     14  C2  ZIN A   1      18.373   0.247  10.508  0.00  0.00     0.082 C 
ATOM     15  C1  ZIN A   1      17.349  -0.230   9.477  0.00  0.00     0.020 C 
BRANCH  14  16
ATOM     16  C17 ZIN A   1      18.135  -0.473  11.836  0.00  0.00     0.115 C 
BRANCH  16  17
ATOM     17  O18 ZIN A   1      16.772  -0.306  12.231  0.00  0.00    -0.382 OA
ATOM     18  H41 ZIN A   1      16.602  -0.520  13.159  0.00  0.00     0.211 HD
ENDBRANCH  16  17
BRANCH  16  19
ATOM     19  C19 ZIN A   1      19.053   0.116  12.908  0.00  0.00     0.196 C 
BRANCH  19  20
ATOM     20  N20 ZIN A   1      18.514  -0.189  14.235  0.00  0.00    -0.259 N 
ATOM     21  N24 ZIN A   1      17.498   0.505  14.912  0.00  0.00    -0.165 NA
ATOM     22  C23 ZIN A   1      17.325  -0.100  16.058  0.00  0.00     0.256 A 
ATOM     23  N22 ZIN A   1      18.176  -1.121  16.140  0.00  0.00    -0.234 NA
ATOM     24  C21 ZIN A   1      18.897  -1.187  15.051  0.00  0.00     0.230 A 
ENDBRANCH  19  20
ENDBRANCH  16  19
BRANCH  16  25
ATOM     25  C25 ZIN A   1      18.433  -1.941  11.672  0.00  0.00     0.020 A 
ATOM     26  C31 ZIN A   1      19.705  -2.354  11.309  0.00  0.00     0.126 A 
ATOM     27  C30 ZIN A   1      19.980  -3.703  11.164  0.00  0.00     0.046 A 
ATOM     28  F32 ZIN A   1      20.679  -1.440  11.108  0.00  0.00    -0.205 F 
ATOM     29  C29 ZIN A   1      18.984  -4.637  11.370  0.00  0.00     0.045 A 
ATOM     30  C27 ZIN A   1      17.711  -4.225  11.728  0.00  0.00     0.117 A 
ATOM     31  C26 ZIN A   1      17.437  -2.876  11.878  0.00  0.00     0.055 A 
ATOM     32  F28 ZIN A   1      16.737  -5.140  11.929  0.00  0.00    -0.206 F 
ENDBRANCH  16  25
ENDBRANCH  14  16
ENDBRANCH  11  14
ENDBRANCH   1   9
TORSDOF 7
ENDMDL
MODEL 7
REMARK VINA RESULT:      -8.2      3.129      7.601
REMARK  7 active torsions:
REMARK  status: ('A' for Active; 'I' for Inactive)
REMARK    1  A    between atoms: C2_2  and  C4_3 
REMARK    2  A    between atoms: C2_2  and  C17_16 
REMARK    3  A    between atoms: C6_5  and  C7_6 
REMARK    4  A    between atoms: C17_16  and  O18_17 
REMARK    5  A    between atoms: C17_16  and  C19_18 
REMARK    6  A    between atoms: C17_16  and  C25_24 
REMARK    7  A    between atoms: C19_18  and  N20_19 
ROOT
ATOM      1  C7  ZIN A   1      19.075  -1.672   8.339  0.00  0.00    -0.007 A 
ATOM      2  C8  ZIN A   1      18.918  -2.777   9.176  0.00  0.00     0.015 A 
ATOM      3  C9  ZIN A   1      18.865  -4.040   8.643  0.00  0.00     0.023 A 
ATOM      4  C10 ZIN A   1      18.968  -4.218   7.261  0.00  0.00     0.044 A 
ATOM      5  C11 ZIN A   1      18.912  -5.537   6.703  0.00  0.00     0.099 C 
ATOM      6  N12 ZIN A   1      18.868  -6.581   6.260  0.00  0.00    -0.191 NA
ATOM      7  C13 ZIN A   1      19.125  -3.110   6.423  0.00  0.00     0.023 A 
ATOM      8  C14 ZIN A   1      19.172  -1.849   6.958  0.00  0.00     0.015 A 
ENDROOT
BRANCH   1   9
ATOM      9  C6  ZIN A   1      19.132  -0.308   8.916  0.00  0.00     0.074 A 
ATOM     10  N5  ZIN A   1      19.393  -0.077  10.195  0.00  0.00    -0.244 NA
ATOM     11  C4  ZIN A   1      19.414   1.153  10.576  0.00  0.00     0.082 A 
ATOM     12  S16 ZIN A   1      19.079   2.195   9.263  0.00  0.00    -0.084 SA
ATOM     13  C15 ZIN A   1      18.924   0.808   8.186  0.00  0.00     0.084 A 
BRANCH  11  14
ATOM     14  C2  ZIN A   1      19.692   1.611  11.985  0.00  0.00     0.082 C 
ATOM     15  C1  ZIN A   1      20.696   0.663  12.642  0.00  0.00     0.020 C 
BRANCH  14  16
ATOM     16  C17 ZIN A   1      18.389   1.611  12.788  0.00  0.00     0.115 C 
BRANCH  16  17
ATOM     17  O18 ZIN A   1      17.310   1.207  11.943  0.00  0.00    -0.382 OA
ATOM     18  H41 ZIN A   1      17.578   0.990  11.040  0.00  0.00     0.211 HD
ENDBRANCH  16  17
BRANCH  16  19
ATOM     19  C19 ZIN A   1      18.120   3.018  13.324  0.00  0.00     0.196 C 
BRANCH  19  20
ATOM     20  N20 ZIN A   1      17.798   3.912  12.208  0.00  0.00    -0.259 N 
ATOM     21  N24 ZIN A   1      16.660   3.858  11.387  0.00  0.00    -0.165 NA
ATOM     22  C23 ZIN A   1      16.769   4.835  10.525  0.00  0.00     0.256 A 
ATOM     23  N22 ZIN A   1      17.908   5.487  10.753  0.00  0.00    -0.234 NA
ATOM     24  C21 ZIN A   1      18.537   4.943  11.763  0.00  0.00     0.230 A 
ENDBRANCH  19  20
ENDBRANCH  16  19
BRANCH  16  25
ATOM     25  C25 ZIN A   1      18.511   0.649  13.942  0.00  0.00     0.020 A 
ATOM     26  C31 ZIN A   1      18.225  -0.694  13.758  0.00  0.00     0.126 A 
ATOM     27  C30 ZIN A   1      18.342  -1.577  14.817  0.00  0.00     0.046 A 
ATOM     28  F32 ZIN A   1      17.844  -1.143  12.543  0.00  0.00    -0.205 F 
ATOM     29  C29 ZIN A   1      18.733  -1.118  16.060  0.00  0.00     0.045 A 
ATOM     30  C27 ZIN A   1      19.013   0.225  16.246  0.00  0.00     0.117 A 
ATOM     31  C26 ZIN A   1      18.900   1.108  15.186  0.00  0.00     0.055 A 
ATOM     32  F28 ZIN A   1      19.394   0.674  17.462  0.00  0.00    -0.206 F 
ENDBRANCH  16  25
ENDBRANCH  14  16
ENDBRANCH  11  14
ENDBRANCH   1   9
TORSDOF 7
ENDMDL
MODEL 8
REMARK VINA RESULT:      -8.1      3.749      6.811
REMARK  7 active torsions:
REMARK  status: ('A' for Active; 'I' for Inactive)
REMARK    1  A    between atoms: C2_2  and  C4_3 
REMARK    2  A    between atoms: C2_2  and  C17_16 
REMARK    3  A    between atoms: C6_5  and  C7_6 
REMARK    4  A    between atoms: C17_16  and  O18_17 
REMARK    5  A    between atoms: C17_16  and  C19_18 
REMARK    6  A    between atoms: C17_16  and  C25_24 
REMARK    7  A    between atoms: C19_18  and  N20_19 
ROOT
ATOM      1  C7  ZIN A   1      17.952   5.300  13.189  0.00  0.00    -0.007 A 
ATOM      2  C8  ZIN A   1      16.785   6.051  13.332  0.00  0.00     0.015 A 
ATOM      3  C9  ZIN A   1      16.734   7.072  14.246  0.00  0.00     0.023 A 
ATOM      4  C10 ZIN A   1      17.852   7.359  15.035  0.00  0.00     0.044 A 
ATOM      5  C11 ZIN A   1      17.800   8.425  15.990  0.00  0.00     0.099 C 
ATOM      6  N12 ZIN A   1      17.760   9.270  16.748  0.00  0.00    -0.191 NA
ATOM      7  C13 ZIN A   1      19.021   6.606  14.891  0.00  0.00     0.023 A 
ATOM      8  C14 ZIN A   1      19.067   5.581  13.981  0.00  0.00     0.015 A 
ENDROOT
BRANCH   1   9
ATOM      9  C6  ZIN A   1      18.007   4.196  12.201  0.00  0.00     0.074 A 
ATOM     10  N5  ZIN A   1      18.005   2.917  12.549  0.00  0.00    -0.244 NA
ATOM     11  C4  ZIN A   1      18.055   2.051  11.598  0.00  0.00     0.082 A 
ATOM     12  S16 ZIN A   1      18.119   2.830  10.078  0.00  0.00    -0.084 SA
ATOM     13  C15 ZIN A   1      18.062   4.404  10.869  0.00  0.00     0.084 A 
BRANCH  11  14
ATOM     14  C2  ZIN A   1      18.062   0.556  11.796  0.00  0.00     0.082 C 
ATOM     15  C1  ZIN A   1      16.874   0.152  12.670  0.00  0.00     0.020 C 
BRANCH  14  16
ATOM     16  C17 ZIN A   1      19.365   0.139  12.481  0.00  0.00     0.115 C 
BRANCH  16  17
ATOM     17  O18 ZIN A   1      20.343   1.167  12.313  0.00  0.00    -0.382 OA
ATOM     18  H41 ZIN A   1      20.905   1.305  13.088  0.00  0.00     0.211 HD
ENDBRANCH  16  17
BRANCH  16  19
ATOM     19  C19 ZIN A   1      19.877  -1.160  11.854  0.00  0.00     0.196 C 
BRANCH  19  20
ATOM     20  N20 ZIN A   1      19.576  -1.161  10.421  0.00  0.00    -0.259 N 
ATOM     21  N24 ZIN A   1      20.082  -0.279   9.453  0.00  0.00    -0.165 NA
ATOM     22  C23 ZIN A   1      19.561  -0.634   8.308  0.00  0.00     0.256 A 
ATOM     23  N22 ZIN A   1      18.755  -1.676   8.504  0.00  0.00    -0.234 NA
ATOM     24  C21 ZIN A   1      18.755  -2.004   9.771  0.00  0.00     0.230 A 
ENDBRANCH  19  20
ENDBRANCH  16  19
BRANCH  16  25
ATOM     25  C25 ZIN A   1      19.112  -0.080  13.951  0.00  0.00     0.020 A 
ATOM     26  C31 ZIN A   1      18.668  -1.311  14.402  0.00  0.00     0.126 A 
ATOM     27  C30 ZIN A   1      18.441  -1.513  15.753  0.00  0.00     0.046 A 
ATOM     28  F32 ZIN A   1      18.466  -2.319  13.526  0.00  0.00    -0.205 F 
ATOM     29  C29 ZIN A   1      18.647  -0.482  16.649  0.00  0.00     0.045 A 
ATOM     30  C27 ZIN A   1      19.086   0.751  16.198  0.00  0.00     0.117 A 
ATOM     31  C26 ZIN A   1      19.317   0.952  14.848  0.00  0.00     0.055 A 
ATOM     32  F28 ZIN A   1      19.287   1.758  17.075  0.00  0.00    -0.206 F 
ENDBRANCH  16  25
ENDBRANCH  14  16
ENDBRANCH  11  14
ENDBRANCH   1   9
TORSDOF 7
ENDMDL
MODEL 9
REMARK VINA RESULT:      -8.1      2.995      5.285
REMARK  7 active torsions:
REMARK  status: ('A' for Active; 'I' for Inactive)
REMARK    1  A    between atoms: C2_2  and  C4_3 
REMARK    2  A    between atoms: C2_2  and  C17_16 
REMARK    3  A    between atoms: C6_5  and  C7_6 
REMARK    4  A    between atoms: C17_16  and  O18_17 
REMARK    5  A    between atoms: C17_16  and  C19_18 
REMARK    6  A    between atoms: C17_16  and  C25_24 
REMARK    7  A    between atoms: C19_18  and  N20_19 
ROOT
ATOM      1  C7  ZIN A   1      18.896   3.709  12.143  0.00  0.00    -0.007 A 
ATOM      2  C8  ZIN A   1      19.997   4.530  12.391  0.00  0.00     0.015 A 
ATOM      3  C9  ZIN A   1      19.937   5.477  13.381  0.00  0.00     0.023 A 
ATOM      4  C10 ZIN A   1      18.772   5.620  14.140  0.00  0.00     0.044 A 
ATOM      5  C11 ZIN A   1      18.707   6.610  15.175  0.00  0.00     0.099 C 
ATOM      6  N12 ZIN A   1      18.656   7.394  15.994  0.00  0.00    -0.191 NA
ATOM      7  C13 ZIN A   1      17.669   4.798  13.890  0.00  0.00     0.023 A 
ATOM      8  C14 ZIN A   1      17.730   3.856  12.896  0.00  0.00     0.015 A 
ENDROOT
BRANCH   1   9
ATOM      9  C6  ZIN A   1      18.962   2.686  11.073  0.00  0.00     0.074 A 
ATOM     10  N5  ZIN A   1      19.291   1.422  11.303  0.00  0.00    -0.244 NA
ATOM     11  C4  ZIN A   1      19.313   0.628  10.290  0.00  0.00     0.082 A 
ATOM     12  S16 ZIN A   1      18.897   1.467   8.860  0.00  0.00    -0.084 SA
ATOM     13  C15 ZIN A   1      18.693   2.957   9.778  0.00  0.00     0.084 A 
BRANCH  11  14
ATOM     14  C2  ZIN A   1      19.662  -0.837  10.354  0.00  0.00     0.082 C 
ATOM     15  C1  ZIN A   1      19.174  -1.534   9.083  0.00  0.00     0.020 C 
BRANCH  14  16
ATOM     16  C17 ZIN A   1      18.987  -1.469  11.573  0.00  0.00     0.115 C 
BRANCH  16  17
ATOM     17  O18 ZIN A   1      17.777  -0.768  11.865  0.00  0.00    -0.382 OA
ATOM     18  H41 ZIN A   1      17.840  -0.174  12.626  0.00  0.00     0.211 HD
ENDBRANCH  16  17
BRANCH  16  19
ATOM     19  C19 ZIN A   1      19.928  -1.386  12.777  0.00  0.00     0.196 C 
BRANCH  19  20
ATOM     20  N20 ZIN A   1      19.230  -0.756  13.900  0.00  0.00    -0.259 N 
ATOM     21  N24 ZIN A   1      18.141  -1.281  14.616  0.00  0.00    -0.165 NA
ATOM     22  C23 ZIN A   1      17.831  -0.401  15.531  0.00  0.00     0.256 A 
ATOM     23  N22 ZIN A   1      18.652   0.642  15.423  0.00  0.00    -0.234 NA
ATOM     24  C21 ZIN A   1      19.499   0.442  14.447  0.00  0.00     0.230 A 
ENDBRANCH  19  20
ENDBRANCH  16  19
BRANCH  16  25
ATOM     25  C25 ZIN A   1      18.673  -2.913  11.281  0.00  0.00     0.020 A 
ATOM     26  C31 ZIN A   1      19.692  -3.851  11.247  0.00  0.00     0.126 A 
ATOM     27  C30 ZIN A   1      19.403  -5.179  10.984  0.00  0.00     0.046 A 
ATOM     28  F32 ZIN A   1      20.967  -3.472  11.482  0.00  0.00    -0.205 F 
ATOM     29  C29 ZIN A   1      18.099  -5.567  10.744  0.00  0.00     0.045 A 
ATOM     30  C27 ZIN A   1      17.080  -4.629  10.772  0.00  0.00     0.117 A 
ATOM     31  C26 ZIN A   1      17.369  -3.302  11.040  0.00  0.00     0.055 A 
ATOM     32  F28 ZIN A   1      15.805  -5.010  10.537  0.00  0.00    -0.206 F 
ENDBRANCH  16  25
ENDBRANCH  14  16
ENDBRANCH  11  14
ENDBRANCH   1   9
TORSDOF 7
ENDMDL
