MODEL 1
REMARK VINA RESULT:      -8.2      0.000      0.000
REMARK  7 active torsions:
REMARK  status: ('A' for Active; 'I' for Inactive)
REMARK    1  A    between atoms: C4_4  and  C6_5 
REMARK    2  A    between atoms: C10_9  and  C12_10 
REMARK    3  A    between atoms: C12_10  and  O14_12 
REMARK    4  A    between atoms: O14_12  and  C15_13 
REMARK    5  A    between atoms: C15_13  and  C16_14 
REMARK    6  A    between atoms: C20_18  and  O21_19 
REMARK    7  A    between atoms: O21_19  and  C22_20 
ROOT
ATOM      1  C16 <0> d   1      18.143   0.664   7.450  0.00  0.00    -0.031 A 
ATOM      2  C17 <0> d   1      19.077   1.638   7.751  0.00  0.00     0.009 A 
ATOM      3  C18 <0> d   1      19.259   2.044   9.062  0.00  0.00     0.003 A 
ATOM      4  C19 <0> d   1      18.507   1.476  10.072  0.00  0.00     0.037 A 
ATOM      5  C20 <0> d   1      17.568   0.498   9.771  0.00  0.00     0.076 A 
ATOM      6  C28 <0> d   1      17.385   0.097   8.456  0.00  0.00     0.046 A 
ENDROOT
BRANCH   1   7
ATOM      7  C15 <0> d   1      17.948   0.225   6.021  0.00  0.00     0.217 C 
BRANCH   7   8
ATOM      8  O14 <0> d   1      17.927  -1.225   5.960  0.00  0.00    -0.317 OA
BRANCH   8   9
ATOM      9  C12 <0> d   1      19.110  -1.847   5.839  0.00  0.00     0.264 C 
ATOM     10  O13 <0> d   1      19.860  -1.550   4.939  0.00  0.00    -0.265 OA
BRANCH   9  11
ATOM     11  C10 <0> d   1      19.504  -2.915   6.827  0.00  0.00     0.102 A 
ATOM     12  C2  <0> d   1      19.083  -4.353   6.519  0.00  0.00    -0.027 A 
ATOM     13  C1  <0> d   1      20.041  -5.474   6.927  0.00  0.00     0.016 C 
ATOM     14  C3  <0> d   1      18.293  -4.598   5.231  0.00  0.00     0.016 C 
ATOM     15  C4  <0> d   1      18.387  -3.575   7.638  0.00  0.00     0.034 A 
BRANCH  15  16
ATOM     16  C6  <0> d   1      18.699  -3.971   9.058  0.00  0.00     0.016 C 
ATOM     17  C7  <0> d   1      17.828  -4.667   9.752  0.00  0.00     0.100 C 
ATOM     18 Cl8  <0> d   1      16.318  -5.132   9.032  0.00  0.00    -0.071 Cl
ATOM     19 Cl9  <0> d   1      18.187  -5.123  11.388  0.00  0.00    -0.071 Cl
ENDBRANCH  15  16
ENDBRANCH   9  11
ENDBRANCH   8   9
ENDBRANCH   7   8
ENDBRANCH   1   7
BRANCH   5  20
ATOM     20  O21 <0> d   1      16.827  -0.061  10.763  0.00  0.00    -0.311 OA
BRANCH  20  21
ATOM     21  C22 <0> d   1      17.475  -0.482  11.882  0.00  0.00     0.076 A 
ATOM     22  C27 <0> d   1      17.268   0.168  13.090  0.00  0.00     0.037 A 
ATOM     23  C26 <0> d   1      17.923  -0.265  14.227  0.00  0.00     0.003 A 
ATOM     24  C25 <0> d   1      18.794  -1.337  14.158  0.00  0.00     0.000 A 
ATOM     25  C24 <0> d   1      19.006  -1.982  12.954  0.00  0.00     0.003 A 
ATOM     26  C23 <0> d   1      18.349  -1.556  11.816  0.00  0.00     0.037 A 
ENDBRANCH  20  21
ENDBRANCH   5  20
TORSDOF 7
ENDMDL
MODEL 2
REMARK VINA RESULT:      -8.1      3.868      7.470
REMARK  7 active torsions:
REMARK  status: ('A' for Active; 'I' for Inactive)
REMARK    1  A    between atoms: C4_4  and  C6_5 
REMARK    2  A    between atoms: C10_9  and  C12_10 
REMARK    3  A    between atoms: C12_10  and  O14_12 
REMARK    4  A    between atoms: O14_12  and  C15_13 
REMARK    5  A    between atoms: C15_13  and  C16_14 
REMARK    6  A    between atoms: C20_18  and  O21_19 
REMARK    7  A    between atoms: O21_19  and  C22_20 
ROOT
ATOM      1  C16 <0> d   1      19.125   1.086  15.154  0.00  0.00    -0.031 A 
ATOM      2  C17 <0> d   1      18.827   0.171  16.146  0.00  0.00     0.009 A 
ATOM      3  C18 <0> d   1      18.823  -1.183  15.862  0.00  0.00     0.003 A 
ATOM      4  C19 <0> d   1      19.116  -1.623  14.586  0.00  0.00     0.037 A 
ATOM      5  C20 <0> d   1      19.415  -0.706  13.588  0.00  0.00     0.076 A 
ATOM      6  C28 <0> d   1      19.414   0.652  13.875  0.00  0.00     0.046 A 
ENDROOT
BRANCH   1   7
ATOM      7  C15 <0> d   1      19.129   2.561  15.467  0.00  0.00     0.217 C 
BRANCH   7   8
ATOM      8  O14 <0> d   1      18.235   3.252  14.554  0.00  0.00    -0.317 OA
BRANCH   8   9
ATOM      9  C12 <0> d   1      18.792   4.124  13.700  0.00  0.00     0.264 C 
ATOM     10  O13 <0> d   1      19.388   5.088  14.123  0.00  0.00    -0.265 OA
BRANCH   9  11
ATOM     11  C10 <0> d   1      18.675   3.904  12.214  0.00  0.00     0.102 A 
ATOM     12  C2  <0> d   1      17.449   4.485  11.507  0.00  0.00    -0.027 A 
ATOM     13  C1  <0> d   1      17.637   5.012  10.084  0.00  0.00     0.016 C 
ATOM     14  C3  <0> d   1      16.434   5.245  12.363  0.00  0.00     0.016 C 
ATOM     15  C4  <0> d   1      17.564   2.974  11.722  0.00  0.00     0.034 A 
BRANCH  15  16
ATOM     16  C6  <0> d   1      17.855   2.120  10.515  0.00  0.00     0.016 C 
ATOM     17  C7  <0> d   1      17.400   0.890  10.457  0.00  0.00     0.100 C 
ATOM     18 Cl8  <0> d   1      16.462   0.248  11.769  0.00  0.00    -0.071 Cl
ATOM     19 Cl9  <0> d   1      17.735  -0.095   9.066  0.00  0.00    -0.071 Cl
ENDBRANCH  15  16
ENDBRANCH   9  11
ENDBRANCH   8   9
ENDBRANCH   7   8
ENDBRANCH   1   7
BRANCH   5  20
ATOM     20  O21 <0> d   1      19.703  -1.136  12.332  0.00  0.00    -0.311 OA
BRANCH  20  21
ATOM     21  C22 <0> d   1      19.251  -2.363  11.960  0.00  0.00     0.076 A 
ATOM     22  C27 <0> d   1      20.153  -3.374  11.662  0.00  0.00     0.037 A 
ATOM     23  C26 <0> d   1      19.691  -4.622  11.290  0.00  0.00     0.003 A 
ATOM     24  C25 <0> d   1      18.331  -4.859  11.202  0.00  0.00     0.000 A 
ATOM     25  C24 <0> d   1      17.431  -3.851  11.492  0.00  0.00     0.003 A 
ATOM     26  C23 <0> d   1      17.888  -2.604  11.871  0.00  0.00     0.037 A 
ENDBRANCH  20  21
ENDBRANCH   5  20
TORSDOF 7
ENDMDL
MODEL 3
REMARK VINA RESULT:      -8.1      3.334      7.635
REMARK  7 active torsions:
REMARK  status: ('A' for Active; 'I' for Inactive)
REMARK    1  A    between atoms: C4_4  and  C6_5 
REMARK    2  A    between atoms: C10_9  and  C12_10 
REMARK    3  A    between atoms: C12_10  and  O14_12 
REMARK    4  A    between atoms: O14_12  and  C15_13 
REMARK    5  A    between atoms: C15_13  and  C16_14 
REMARK    6  A    between atoms: C20_18  and  O21_19 
REMARK    7  A    between atoms: O21_19  and  C22_20 
ROOT
ATOM      1  C16 <0> d   1      18.354   4.166  13.028  0.00  0.00    -0.031 A 
ATOM      2  C17 <0> d   1      17.282   4.877  12.521  0.00  0.00     0.009 A 
ATOM      3  C18 <0> d   1      16.971   4.798  11.175  0.00  0.00     0.003 A 
ATOM      4  C19 <0> d   1      17.731   4.008  10.335  0.00  0.00     0.037 A 
ATOM      5  C20 <0> d   1      18.808   3.293  10.842  0.00  0.00     0.076 A 
ATOM      6  C28 <0> d   1      19.120   3.378  12.191  0.00  0.00     0.046 A 
ENDROOT
BRANCH   1   7
ATOM      7  C15 <0> d   1      18.690   4.255  14.495  0.00  0.00     0.217 C 
BRANCH   7   8
ATOM      8  O14 <0> d   1      19.223   2.982  14.947  0.00  0.00    -0.317 OA
BRANCH   8   9
ATOM      9  C12 <0> d   1      18.531   2.335  15.897  0.00  0.00     0.264 C 
ATOM     10  O13 <0> d   1      18.350   2.855  16.974  0.00  0.00    -0.265 OA
BRANCH   9  11
ATOM     11  C10 <0> d   1      17.979   0.960  15.623  0.00  0.00     0.102 A 
ATOM     12  C2  <0> d   1      18.346  -0.157  16.602  0.00  0.00    -0.027 A 
ATOM     13  C1  <0> d   1      17.289  -1.227  16.883  0.00  0.00     0.016 C 
ATOM     14  C3  <0> d   1      19.245   0.207  17.785  0.00  0.00     0.016 C 
ATOM     15  C4  <0> d   1      18.970  -0.129  15.205  0.00  0.00     0.034 A 
BRANCH  15  16
ATOM     16  C6  <0> d   1      18.495  -1.157  14.211  0.00  0.00     0.016 C 
ATOM     17  C7  <0> d   1      18.965  -1.150  12.985  0.00  0.00     0.100 C 
ATOM     18 Cl8  <0> d   1      20.135   0.042  12.510  0.00  0.00    -0.071 Cl
ATOM     19 Cl9  <0> d   1      18.419  -2.334  11.838  0.00  0.00    -0.071 Cl
ENDBRANCH  15  16
ENDBRANCH   9  11
ENDBRANCH   8   9
ENDBRANCH   7   8
ENDBRANCH   1   7
BRANCH   5  20
ATOM     20  O21 <0> d   1      19.557   2.515  10.017  0.00  0.00    -0.311 OA
BRANCH  20  21
ATOM     21  C22 <0> d   1      18.908   1.660   9.184  0.00  0.00     0.076 A 
ATOM     22  C27 <0> d   1      17.985   0.759   9.696  0.00  0.00     0.037 A 
ATOM     23  C26 <0> d   1      17.322  -0.106   8.846  0.00  0.00     0.003 A 
ATOM     24  C25 <0> d   1      17.588  -0.082   7.489  0.00  0.00     0.000 A 
ATOM     25  C24 <0> d   1      18.512   0.810   6.979  0.00  0.00     0.003 A 
ATOM     26  C23 <0> d   1      19.172   1.680   7.823  0.00  0.00     0.037 A 
ENDBRANCH  20  21
ENDBRANCH   5  20
TORSDOF 7
ENDMDL
MODEL 4
REMARK VINA RESULT:      -8.0      2.124      3.190
REMARK  7 active torsions:
REMARK  status: ('A' for Active; 'I' for Inactive)
REMARK    1  A    between atoms: C4_4  and  C6_5 
REMARK    2  A    between atoms: C10_9  and  C12_10 
REMARK    3  A    between atoms: C12_10  and  O14_12 
REMARK    4  A    between atoms: O14_12  and  C15_13 
REMARK    5  A    between atoms: C15_13  and  C16_14 
REMARK    6  A    between atoms: C20_18  and  O21_19 
REMARK    7  A    between atoms: O21_19  and  C22_20 
ROOT
ATOM      1  C16 <0> d   1      18.381   0.721   7.744  0.00  0.00    -0.031 A 
ATOM      2  C17 <0> d   1      17.505  -0.113   8.414  0.00  0.00     0.009 A 
ATOM      3  C18 <0> d   1      17.236   0.098   9.755  0.00  0.00     0.003 A 
ATOM      4  C19 <0> d   1      17.842   1.142  10.426  0.00  0.00     0.037 A 
ATOM      5  C20 <0> d   1      18.722   1.981   9.755  0.00  0.00     0.076 A 
ATOM      6  C28 <0> d   1      18.993   1.764   8.412  0.00  0.00     0.046 A 
ENDROOT
BRANCH   1   7
ATOM      7  C15 <0> d   1      18.673   0.488   6.283  0.00  0.00     0.217 C 
BRANCH   7   8
ATOM      8  O14 <0> d   1      18.245  -0.848   5.912  0.00  0.00    -0.317 OA
BRANCH   8   9
ATOM      9  C12 <0> d   1      19.208  -1.740   5.633  0.00  0.00     0.264 C 
ATOM     10  O13 <0> d   1      19.738  -1.737   4.546  0.00  0.00    -0.265 OA
BRANCH   9  11
ATOM     11  C10 <0> d   1      19.629  -2.746   6.673  0.00  0.00     0.102 A 
ATOM     12  C2  <0> d   1      19.135  -4.185   6.507  0.00  0.00    -0.027 A 
ATOM     13  C1  <0> d   1      20.076  -5.310   6.940  0.00  0.00     0.016 C 
ATOM     14  C3  <0> d   1      18.251  -4.493   5.297  0.00  0.00     0.016 C 
ATOM     15  C4  <0> d   1      18.545  -3.295   7.604  0.00  0.00     0.034 A 
BRANCH  15  16
ATOM     16  C6  <0> d   1      18.938  -3.595   9.028  0.00  0.00     0.016 C 
ATOM     17  C7  <0> d   1      18.121  -4.266   9.807  0.00  0.00     0.100 C 
ATOM     18 Cl8  <0> d   1      16.589  -4.809   9.195  0.00  0.00    -0.071 Cl
ATOM     19 Cl9  <0> d   1      18.573  -4.612  11.448  0.00  0.00    -0.071 Cl
ENDBRANCH  15  16
ENDBRANCH   9  11
ENDBRANCH   8   9
ENDBRANCH   7   8
ENDBRANCH   1   7
BRANCH   5  20
ATOM     20  O21 <0> d   1      19.319   3.008  10.414  0.00  0.00    -0.311 OA
BRANCH  20  21
ATOM     21  C22 <0> d   1      18.528   3.850  11.131  0.00  0.00     0.076 A 
ATOM     22  C27 <0> d   1      17.543   4.589  10.493  0.00  0.00     0.037 A 
ATOM     23  C26 <0> d   1      16.737   5.440  11.224  0.00  0.00     0.003 A 
ATOM     24  C25 <0> d   1      16.922   5.565  12.590  0.00  0.00     0.000 A 
ATOM     25  C24 <0> d   1      17.907   4.834  13.226  0.00  0.00     0.003 A 
ATOM     26  C23 <0> d   1      18.711   3.978  12.499  0.00  0.00     0.037 A 
ENDBRANCH  20  21
ENDBRANCH   5  20
TORSDOF 7
ENDMDL
MODEL 5
REMARK VINA RESULT:      -7.9      2.898      7.202
REMARK  7 active torsions:
REMARK  status: ('A' for Active; 'I' for Inactive)
REMARK    1  A    between atoms: C4_4  and  C6_5 
REMARK    2  A    between atoms: C10_9  and  C12_10 
REMARK    3  A    between atoms: C12_10  and  O14_12 
REMARK    4  A    between atoms: O14_12  and  C15_13 
REMARK    5  A    between atoms: C15_13  and  C16_14 
REMARK    6  A    between atoms: C20_18  and  O21_19 
REMARK    7  A    between atoms: O21_19  and  C22_20 
ROOT
ATOM      1  C16 <0> d   1      17.521   0.687  10.437  0.00  0.00    -0.031 A 
ATOM      2  C17 <0> d   1      17.752   2.049  10.392  0.00  0.00     0.009 A 
ATOM      3  C18 <0> d   1      18.653   2.570   9.480  0.00  0.00     0.003 A 
ATOM      4  C19 <0> d   1      19.323   1.729   8.613  0.00  0.00     0.037 A 
ATOM      5  C20 <0> d   1      19.093   0.361   8.657  0.00  0.00     0.076 A 
ATOM      6  C28 <0> d   1      18.193  -0.159   9.575  0.00  0.00     0.046 A 
ENDROOT
BRANCH   1   7
ATOM      7  C15 <0> d   1      16.539   0.123  11.432  0.00  0.00     0.217 C 
BRANCH   7   8
ATOM      8  O14 <0> d   1      17.046  -1.134  11.953  0.00  0.00    -0.317 OA
BRANCH   8   9
ATOM      9  C12 <0> d   1      17.904  -1.065  12.982  0.00  0.00     0.264 C 
ATOM     10  O13 <0> d   1      18.634  -1.998  13.225  0.00  0.00    -0.265 OA
BRANCH   9  11
ATOM     11  C10 <0> d   1      17.960   0.176  13.835  0.00  0.00     0.102 A 
ATOM     12  C2  <0> d   1      19.200   1.065  13.712  0.00  0.00    -0.027 A 
ATOM     13  C1  <0> d   1      19.003   2.576  13.845  0.00  0.00     0.016 C 
ATOM     14  C3  <0> d   1      20.289   0.625  12.731  0.00  0.00     0.016 C 
ATOM     15  C4  <0> d   1      18.992   0.211  14.965  0.00  0.00     0.034 A 
BRANCH  15  16
ATOM     16  C6  <0> d   1      18.608   0.925  16.236  0.00  0.00     0.016 C 
ATOM     17  C7  <0> d   1      17.826   0.333  17.110  0.00  0.00     0.100 C 
ATOM     18 Cl8  <0> d   1      17.238  -1.271  16.803  0.00  0.00    -0.071 Cl
ATOM     19 Cl9  <0> d   1      17.383   1.155  18.574  0.00  0.00    -0.071 Cl
ENDBRANCH  15  16
ENDBRANCH   9  11
ENDBRANCH   8   9
ENDBRANCH   7   8
ENDBRANCH   1   7
BRANCH   5  20
ATOM     20  O21 <0> d   1      19.752  -0.467   7.805  0.00  0.00    -0.311 OA
BRANCH  20  21
ATOM     21  C22 <0> d   1      19.113  -0.851   6.668  0.00  0.00     0.076 A 
ATOM     22  C27 <0> d   1      18.768  -2.181   6.480  0.00  0.00     0.037 A 
ATOM     23  C26 <0> d   1      18.114  -2.568   5.326  0.00  0.00     0.003 A 
ATOM     24  C25 <0> d   1      17.814  -1.631   4.353  0.00  0.00     0.000 A 
ATOM     25  C24 <0> d   1      18.163  -0.306   4.536  0.00  0.00     0.003 A 
ATOM     26  C23 <0> d   1      18.812   0.086   5.691  0.00  0.00     0.037 A 
ENDBRANCH  20  21
ENDBRANCH   5  20
TORSDOF 7
ENDMDL
MODEL 6
REMARK VINA RESULT:      -7.9      3.781      7.152
REMARK  7 active torsions:
REMARK  status: ('A' for Active; 'I' for Inactive)
REMARK    1  A    between atoms: C4_4  and  C6_5 
REMARK    2  A    between atoms: C10_9  and  C12_10 
REMARK    3  A    between atoms: C12_10  and  O14_12 
REMARK    4  A    between atoms: O14_12  and  C15_13 
REMARK    5  A    between atoms: C15_13  and  C16_14 
REMARK    6  A    between atoms: C20_18  and  O21_19 
REMARK    7  A    between atoms: O21_19  and  C22_20 
ROOT
ATOM      1  C16 <0> d   1      18.525   2.157   9.996  0.00  0.00    -0.031 A 
ATOM      2  C17 <0> d   1      18.925   1.904   8.697  0.00  0.00     0.009 A 
ATOM      3  C18 <0> d   1      19.611   0.740   8.397  0.00  0.00     0.003 A 
ATOM      4  C19 <0> d   1      19.897  -0.171   9.394  0.00  0.00     0.037 A 
ATOM      5  C20 <0> d   1      19.495   0.081  10.699  0.00  0.00     0.076 A 
ATOM      6  C28 <0> d   1      18.812   1.251  10.998  0.00  0.00     0.046 A 
ENDROOT
BRANCH   1   7
ATOM      7  C15 <0> d   1      17.778   3.426  10.319  0.00  0.00     0.217 C 
BRANCH   7   8
ATOM      8  O14 <0> d   1      17.097   3.275  11.592  0.00  0.00    -0.317 OA
BRANCH   8   9
ATOM      9  C12 <0> d   1      17.086   4.341  12.408  0.00  0.00     0.264 C 
ATOM     10  O13 <0> d   1      16.618   5.388  12.028  0.00  0.00    -0.265 OA
BRANCH   9  11
ATOM     11  C10 <0> d   1      17.658   4.232  13.798  0.00  0.00     0.102 A 
ATOM     12  C2  <0> d   1      19.150   4.524  13.973  0.00  0.00    -0.027 A 
ATOM     13  C1  <0> d   1      19.589   5.208  15.269  0.00  0.00     0.016 C 
ATOM     14  C3  <0> d   1      19.948   4.903  12.724  0.00  0.00     0.016 C 
ATOM     15  C4  <0> d   1      18.634   3.086  14.073  0.00  0.00     0.034 A 
BRANCH  15  16
ATOM     16  C6  <0> d   1      18.597   2.454  15.440  0.00  0.00     0.016 C 
ATOM     17  C7  <0> d   1      18.155   1.226  15.584  0.00  0.00     0.100 C 
ATOM     18 Cl8  <0> d   1      17.614   0.330  14.198  0.00  0.00    -0.071 Cl
ATOM     19 Cl9  <0> d   1      18.111   0.497  17.159  0.00  0.00    -0.071 Cl
ENDBRANCH  15  16
ENDBRANCH   9  11
ENDBRANCH   8   9
ENDBRANCH   7   8
ENDBRANCH   1   7
BRANCH   5  20
ATOM     20  O21 <0> d   1      19.776  -0.814  11.682  0.00  0.00    -0.311 OA
BRANCH  20  21
ATOM     21  C22 <0> d   1      19.239  -2.059  11.582  0.00  0.00     0.076 A 
ATOM     22  C27 <0> d   1      20.068  -3.169  11.516  0.00  0.00     0.037 A 
ATOM     23  C26 <0> d   1      19.520  -4.434  11.420  0.00  0.00     0.003 A 
ATOM     24  C25 <0> d   1      18.147  -4.592  11.377  0.00  0.00     0.000 A 
ATOM     25  C24 <0> d   1      17.319  -3.486  11.437  0.00  0.00     0.003 A 
ATOM     26  C23 <0> d   1      17.863  -2.220  11.539  0.00  0.00     0.037 A 
ENDBRANCH  20  21
ENDBRANCH   5  20
TORSDOF 7
ENDMDL
MODEL 7
REMARK VINA RESULT:      -7.8      2.987      6.065
REMARK  7 active torsions:
REMARK  status: ('A' for Active; 'I' for Inactive)
REMARK    1  A    between atoms: C4_4  and  C6_5 
REMARK    2  A    between atoms: C10_9  and  C12_10 
REMARK    3  A    between atoms: C12_10  and  O14_12 
REMARK    4  A    between atoms: O14_12  and  C15_13 
REMARK    5  A    between atoms: C15_13  and  C16_14 
REMARK    6  A    between atoms: C20_18  and  O21_19 
REMARK    7  A    between atoms: O21_19  and  C22_20 
ROOT
ATOM      1  C16 <0> d   1      19.090   0.577   9.093  0.00  0.00    -0.031 A 
ATOM      2  C17 <0> d   1      18.599   1.053   7.891  0.00  0.00     0.009 A 
ATOM      3  C18 <0> d   1      18.341   0.178   6.851  0.00  0.00     0.003 A 
ATOM      4  C19 <0> d   1      18.574  -1.174   7.012  0.00  0.00     0.037 A 
ATOM      5  C20 <0> d   1      19.067  -1.654   8.217  0.00  0.00     0.076 A 
ATOM      6  C28 <0> d   1      19.329  -0.774   9.256  0.00  0.00     0.046 A 
ENDROOT
BRANCH   1   7
ATOM      7  C15 <0> d   1      19.370   1.534  10.224  0.00  0.00     0.217 C 
BRANCH   7   8
ATOM      8  O14 <0> d   1      18.120   1.914  10.856  0.00  0.00    -0.317 OA
BRANCH   8   9
ATOM      9  C12 <0> d   1      18.126   2.041  12.191  0.00  0.00     0.264 C 
ATOM     10  O13 <0> d   1      17.549   2.966  12.714  0.00  0.00    -0.265 OA
BRANCH   9  11
ATOM     11  C10 <0> d   1      18.853   1.031  13.041  0.00  0.00     0.102 A 
ATOM     12  C2  <0> d   1      18.290  -0.391  13.087  0.00  0.00    -0.027 A 
ATOM     13  C1  <0> d   1      19.289  -1.544  13.189  0.00  0.00     0.016 C 
ATOM     14  C3  <0> d   1      17.031  -0.679  12.267  0.00  0.00     0.016 C 
ATOM     15  C4  <0> d   1      18.146   0.529  14.302  0.00  0.00     0.034 A 
BRANCH  15  16
ATOM     16  C6  <0> d   1      19.001   0.229  15.506  0.00  0.00     0.016 C 
ATOM     17  C7  <0> d   1      18.439  -0.134  16.636  0.00  0.00     0.100 C 
ATOM     18 Cl8  <0> d   1      16.711  -0.270  16.741  0.00  0.00    -0.071 Cl
ATOM     19 Cl9  <0> d   1      19.423  -0.480  18.024  0.00  0.00    -0.071 Cl
ENDBRANCH  15  16
ENDBRANCH   9  11
ENDBRANCH   8   9
ENDBRANCH   7   8
ENDBRANCH   1   7
BRANCH   5  20
ATOM     20  O21 <0> d   1      19.297  -2.984   8.376  0.00  0.00    -0.311 OA
BRANCH  20  21
ATOM     21  C22 <0> d   1      18.827  -3.581   9.504  0.00  0.00     0.076 A 
ATOM     22  C27 <0> d   1      19.713  -4.127  10.421  0.00  0.00     0.037 A 
ATOM     23  C26 <0> d   1      19.233  -4.728  11.569  0.00  0.00     0.003 A 
ATOM     24  C25 <0> d   1      17.870  -4.798  11.796  0.00  0.00     0.000 A 
ATOM     25  C24 <0> d   1      16.986  -4.261  10.879  0.00  0.00     0.003 A 
ATOM     26  C23 <0> d   1      17.462  -3.653   9.734  0.00  0.00     0.037 A 
ENDBRANCH  20  21
ENDBRANCH   5  20
TORSDOF 7
ENDMDL
MODEL 8
REMARK VINA RESULT:      -7.8      2.246      4.368
REMARK  7 active torsions:
REMARK  status: ('A' for Active; 'I' for Inactive)
REMARK    1  A    between atoms: C4_4  and  C6_5 
REMARK    2  A    between atoms: C10_9  and  C12_10 
REMARK    3  A    between atoms: C12_10  and  O14_12 
REMARK    4  A    between atoms: O14_12  and  C15_13 
REMARK    5  A    between atoms: C15_13  and  C16_14 
REMARK    6  A    between atoms: C20_18  and  O21_19 
REMARK    7  A    between atoms: O21_19  and  C22_20 
ROOT
ATOM      1  C16 <0> d   1      19.238  -2.391   6.335  0.00  0.00    -0.031 A 
ATOM      2  C17 <0> d   1      18.673  -2.348   5.074  0.00  0.00     0.009 A 
ATOM      3  C18 <0> d   1      18.219  -1.146   4.559  0.00  0.00     0.003 A 
ATOM      4  C19 <0> d   1      18.331   0.012   5.303  0.00  0.00     0.037 A 
ATOM      5  C20 <0> d   1      18.898  -0.030   6.569  0.00  0.00     0.076 A 
ATOM      6  C28 <0> d   1      19.347  -1.237   7.086  0.00  0.00     0.046 A 
ENDROOT
BRANCH   1   7
ATOM      7  C15 <0> d   1      19.731  -3.702   6.894  0.00  0.00     0.217 C 
BRANCH   7   8
ATOM      8  O14 <0> d   1      18.859  -4.125   7.975  0.00  0.00    -0.317 OA
BRANCH   8   9
ATOM      9  C12 <0> d   1      19.366  -4.995   8.861  0.00  0.00     0.264 C 
ATOM     10  O13 <0> d   1      20.085  -5.892   8.486  0.00  0.00    -0.265 OA
BRANCH   9  11
ATOM     11  C10 <0> d   1      19.040  -4.855  10.326  0.00  0.00     0.102 A 
ATOM     12  C2  <0> d   1      17.611  -5.179  10.767  0.00  0.00    -0.027 A 
ATOM     13  C1  <0> d   1      17.425  -5.831  12.138  0.00  0.00     0.016 C 
ATOM     14  C3  <0> d   1      16.621  -5.621   9.687  0.00  0.00     0.016 C 
ATOM     15  C4  <0> d   1      18.091  -3.726  10.734  0.00  0.00     0.034 A 
BRANCH  15  16
ATOM     16  C6  <0> d   1      18.344  -3.048  12.056  0.00  0.00     0.016 C 
ATOM     17  C7  <0> d   1      19.215  -2.068  12.134  0.00  0.00     0.100 C 
ATOM     18 Cl8  <0> d   1      20.072  -1.552  10.715  0.00  0.00    -0.071 Cl
ATOM     19 Cl9  <0> d   1      19.508  -1.286  13.657  0.00  0.00    -0.071 Cl
ENDBRANCH  15  16
ENDBRANCH   9  11
ENDBRANCH   8   9
ENDBRANCH   7   8
ENDBRANCH   1   7
BRANCH   5  20
ATOM     20  O21 <0> d   1      19.008   1.108   7.303  0.00  0.00    -0.311 OA
BRANCH  20  21
ATOM     21  C22 <0> d   1      18.531   1.094   8.576  0.00  0.00     0.076 A 
ATOM     22  C27 <0> d   1      17.472   0.263   8.912  0.00  0.00     0.037 A 
ATOM     23  C26 <0> d   1      16.992   0.246  10.207  0.00  0.00     0.003 A 
ATOM     24  C25 <0> d   1      17.559   1.067  11.166  0.00  0.00     0.000 A 
ATOM     25  C24 <0> d   1      18.610   1.901  10.832  0.00  0.00     0.003 A 
ATOM     26  C23 <0> d   1      19.096   1.916   9.539  0.00  0.00     0.037 A 
ENDBRANCH  20  21
ENDBRANCH   5  20
TORSDOF 7
ENDMDL
MODEL 9
REMARK VINA RESULT:      -7.8      1.464      5.530
REMARK  7 active torsions:
REMARK  status: ('A' for Active; 'I' for Inactive)
REMARK    1  A    between atoms: C4_4  and  C6_5 
REMARK    2  A    between atoms: C10_9  and  C12_10 
REMARK    3  A    between atoms: C12_10  and  O14_12 
REMARK    4  A    between atoms: O14_12  and  C15_13 
REMARK    5  A    between atoms: C15_13  and  C16_14 
REMARK    6  A    between atoms: C20_18  and  O21_19 
REMARK    7  A    between atoms: O21_19  and  C22_20 
ROOT
ATOM      1  C16 <0> d   1      18.724   0.225   7.305  0.00  0.00    -0.031 A 
ATOM      2  C17 <0> d   1      19.176   0.901   6.186  0.00  0.00     0.009 A 
ATOM      3  C18 <0> d   1      19.252   0.251   4.967  0.00  0.00     0.003 A 
ATOM      4  C19 <0> d   1      18.878  -1.075   4.866  0.00  0.00     0.037 A 
ATOM      5  C20 <0> d   1      18.425  -1.755   5.988  0.00  0.00     0.076 A 
ATOM      6  C28 <0> d   1      18.353  -1.102   7.210  0.00  0.00     0.046 A 
ENDROOT
BRANCH   1   7
ATOM      7  C15 <0> d   1      18.642   0.937   8.632  0.00  0.00     0.217 C 
BRANCH   7   8
ATOM      8  O14 <0> d   1      17.431   0.533   9.323  0.00  0.00    -0.317 OA
BRANCH   8   9
ATOM      9  C12 <0> d   1      17.377   0.764  10.643  0.00  0.00     0.264 C 
ATOM     10  O13 <0> d   1      17.367   1.900  11.058  0.00  0.00    -0.265 OA
BRANCH   9  11
ATOM     11  C10 <0> d   1      17.328  -0.391  11.610  0.00  0.00     0.102 A 
ATOM     12  C2  <0> d   1      18.621  -0.756  12.342  0.00  0.00    -0.027 A 
ATOM     13  C1  <0> d   1      18.501  -1.258  13.782  0.00  0.00     0.016 C 
ATOM     14  C3  <0> d   1      19.866   0.080  12.037  0.00  0.00     0.016 C 
ATOM     15  C4  <0> d   1      18.090  -1.663  11.230  0.00  0.00     0.034 A 
BRANCH  15  16
ATOM     16  C6  <0> d   1      17.487  -2.983  11.639  0.00  0.00     0.016 C 
ATOM     17  C7  <0> d   1      18.252  -4.043  11.762  0.00  0.00     0.100 C 
ATOM     18 Cl8  <0> d   1      19.957  -3.924  11.458  0.00  0.00    -0.071 Cl
ATOM     19 Cl9  <0> d   1      17.558  -5.564  12.233  0.00  0.00    -0.071 Cl
ENDBRANCH  15  16
ENDBRANCH   9  11
ENDBRANCH   8   9
ENDBRANCH   7   8
ENDBRANCH   1   7
BRANCH   5  20
ATOM     20  O21 <0> d   1      18.057  -3.060   5.890  0.00  0.00    -0.311 OA
BRANCH  20  21
ATOM     21  C22 <0> d   1      18.648  -3.953   6.728  0.00  0.00     0.076 A 
ATOM     22  C27 <0> d   1      20.002  -4.226   6.608  0.00  0.00     0.037 A 
ATOM     23  C26 <0> d   1      20.601  -5.130   7.464  0.00  0.00     0.003 A 
ATOM     24  C25 <0> d   1      19.848  -5.772   8.431  0.00  0.00     0.000 A 
ATOM     25  C24 <0> d   1      18.497  -5.506   8.547  0.00  0.00     0.003 A 
ATOM     26  C23 <0> d   1      17.895  -4.598   7.697  0.00  0.00     0.037 A 
ENDBRANCH  20  21
ENDBRANCH   5  20
TORSDOF 7
ENDMDL
