MODEL 1
REMARK VINA RESULT:      -9.3      0.000      0.000
REMARK  4 active torsions:
REMARK  status: ('A' for Active; 'I' for Inactive)
REMARK    1  A    between atoms: C6_6  and  C7_7 
REMARK    2  A    between atoms: C7_7  and  C8_8 
REMARK    3  A    between atoms: C8_8  and  N9_9 
REMARK    4  A    between atoms: N12_12  and  C13_13 
ROOT
ATOM      1  N9  ZIN A   1      17.822   0.822   9.771  0.00  0.00     0.091 N 
ATOM      2  C10 ZIN A   1      19.239   0.932  10.148  0.00  0.00     0.287 C 
ATOM      3  C11 ZIN A   1      19.348   1.597  11.522  0.00  0.00     0.127 C 
ATOM      4  N12 ZIN A   1      18.604   0.804  12.509  0.00  0.00    -0.263 NA
ATOM      5  C22 ZIN A   1      17.188   0.695  12.133  0.00  0.00     0.127 C 
ATOM      6  C23 ZIN A   1      17.078   0.029  10.759  0.00  0.00     0.287 C 
ENDROOT
BRANCH   1   7
ATOM      7  C8  ZIN A   1      17.678   0.257   8.424  0.00  0.00     0.277 C 
BRANCH   7   8
ATOM      8  C7  ZIN A   1      19.058  -0.098   7.869  0.00  0.00     0.070 C 
BRANCH   8   9
ATOM      9  C6  ZIN A   1      19.000  -1.448   7.202  0.00  0.00    -0.034 A 
ATOM     10  C5  ZIN A   1      18.766  -2.585   7.957  0.00  0.00     0.018 A 
ATOM     11  C4  ZIN A   1      18.714  -3.816   7.345  0.00  0.00    -0.022 A 
ATOM     12  C3  ZIN A   1      18.483  -5.216   7.869  0.00  0.00     0.144 A 
ATOM     13  C27 ZIN A   1      18.895  -3.939   5.973  0.00  0.00     0.043 A 
ATOM     14  C2  ZIN A   1      18.560  -6.088   6.635  0.00  0.00     0.226 A 
ATOM     15  O1  ZIN A   1      18.430  -7.294   6.596  0.00  0.00    -0.273 OA
ATOM     16  N28 ZIN A   1      18.804  -5.278   5.591  0.00  0.00    -0.326 N 
ATOM     17  H49 ZIN A   1      18.904  -5.587   4.678  0.00  0.00     0.169 HD
ATOM     18  C26 ZIN A   1      19.130  -2.791   5.219  0.00  0.00     0.054 A 
ATOM     19  C24 ZIN A   1      19.182  -1.556   5.835  0.00  0.00     0.042 A 
ATOM     20 Cl25 ZIN A   1      19.477  -0.130   4.889  0.00  0.00    -0.084 Cl
ENDBRANCH   8   9
ENDBRANCH   7   8
ENDBRANCH   1   7
BRANCH   4  21
ATOM     21  C13 ZIN A   1      18.741   1.342  13.790  0.00  0.00     0.125 A 
ATOM     22  C21 ZIN A   1      18.840   0.483  14.961  0.00  0.00     0.024 A 
ATOM     23  C16 ZIN A   1      18.976   1.236  16.142  0.00  0.00     0.037 A 
ATOM     24  C20 ZIN A   1      18.835  -0.922  15.069  0.00  0.00     0.016 A 
ATOM     25  S15 ZIN A   1      18.953   2.926  15.635  0.00  0.00     0.013 SA
ATOM     26  C17 ZIN A   1      19.091   0.611  17.376  0.00  0.00     0.021 A 
ATOM     27  N14 ZIN A   1      18.781   2.619  13.978  0.00  0.00    -0.198 NA
ATOM     28  C18 ZIN A   1      19.075  -0.764  17.448  0.00  0.00     0.001 A 
ATOM     29  C19 ZIN A   1      18.947  -1.519  16.287  0.00  0.00     0.001 A 
ENDBRANCH   4  21
TORSDOF 4
ENDMDL
MODEL 2
REMARK VINA RESULT:      -9.1      5.072     10.061
REMARK  4 active torsions:
REMARK  status: ('A' for Active; 'I' for Inactive)
REMARK    1  A    between atoms: C6_6  and  C7_7 
REMARK    2  A    between atoms: C7_7  and  C8_8 
REMARK    3  A    between atoms: C8_8  and  N9_9 
REMARK    4  A    between atoms: N12_12  and  C13_13 
ROOT
ATOM      1  N9  ZIN A   1      17.920  -0.785  13.142  0.00  0.00     0.091 N 
ATOM      2  C10 ZIN A   1      19.335  -0.715  12.746  0.00  0.00     0.287 C 
ATOM      3  C11 ZIN A   1      19.528  -1.461  11.424  0.00  0.00     0.127 C 
ATOM      4  N12 ZIN A   1      18.666  -0.862  10.395  0.00  0.00    -0.263 NA
ATOM      5  C22 ZIN A   1      17.253  -0.933  10.791  0.00  0.00     0.127 C 
ATOM      6  C23 ZIN A   1      17.059  -0.187  12.113  0.00  0.00     0.287 C 
ENDROOT
BRANCH   1   7
ATOM      7  C8  ZIN A   1      17.707  -0.145  14.446  0.00  0.00     0.277 C 
BRANCH   7   8
ATOM      8  C7  ZIN A   1      19.058   0.123  15.110  0.00  0.00     0.070 C 
BRANCH   8   9
ATOM      9  C6  ZIN A   1      19.053   1.500  15.723  0.00  0.00    -0.034 A 
ATOM     10  C5  ZIN A   1      18.884   2.616  14.921  0.00  0.00     0.018 A 
ATOM     11  C4  ZIN A   1      18.880   3.871  15.484  0.00  0.00    -0.022 A 
ATOM     12  C3  ZIN A   1      18.722   5.258  14.903  0.00  0.00     0.144 A 
ATOM     13  C27 ZIN A   1      19.043   4.039  16.853  0.00  0.00     0.043 A 
ATOM     14  C2  ZIN A   1      18.820   6.174  16.104  0.00  0.00     0.226 A 
ATOM     15  O1  ZIN A   1      18.746   7.385  16.094  0.00  0.00    -0.273 OA
ATOM     16  N28 ZIN A   1      19.008   5.395  17.182  0.00  0.00    -0.326 N 
ATOM     17  H49 ZIN A   1      19.108   5.735  18.084  0.00  0.00     0.169 HD
ATOM     18  C26 ZIN A   1      19.212   2.913  17.656  0.00  0.00     0.054 A 
ATOM     19  C24 ZIN A   1      19.216   1.653  17.089  0.00  0.00     0.042 A 
ATOM     20 Cl25 ZIN A   1      19.429   0.254  18.094  0.00  0.00    -0.084 Cl
ENDBRANCH   8   9
ENDBRANCH   7   8
ENDBRANCH   1   7
BRANCH   4  21
ATOM     21  C13 ZIN A   1      18.870  -1.471   9.156  0.00  0.00     0.125 A 
ATOM     22  C21 ZIN A   1      18.939  -0.685   7.933  0.00  0.00     0.024 A 
ATOM     23  C16 ZIN A   1      19.154  -1.502   6.806  0.00  0.00     0.037 A 
ATOM     24  C20 ZIN A   1      18.843   0.707   7.732  0.00  0.00     0.016 A 
ATOM     25  S15 ZIN A   1      19.231  -3.153   7.424  0.00  0.00     0.013 SA
ATOM     26  C17 ZIN A   1      19.255  -0.950   5.537  0.00  0.00     0.021 A 
ATOM     27  N14 ZIN A   1      18.999  -2.752   9.052  0.00  0.00    -0.198 NA
ATOM     28  C18 ZIN A   1      19.150   0.413   5.374  0.00  0.00     0.001 A 
ATOM     29  C19 ZIN A   1      18.944   1.230   6.480  0.00  0.00     0.001 A 
ENDBRANCH   4  21
TORSDOF 4
ENDMDL
MODEL 3
REMARK VINA RESULT:      -8.9      4.578      9.430
REMARK  4 active torsions:
REMARK  status: ('A' for Active; 'I' for Inactive)
REMARK    1  A    between atoms: C6_6  and  C7_7 
REMARK    2  A    between atoms: C7_7  and  C8_8 
REMARK    3  A    between atoms: C8_8  and  N9_9 
REMARK    4  A    between atoms: N12_12  and  C13_13 
ROOT
ATOM      1  N9  ZIN A   1      18.744  -1.301  12.585  0.00  0.00     0.091 N 
ATOM      2  C10 ZIN A   1      19.760  -0.568  11.815  0.00  0.00     0.287 C 
ATOM      3  C11 ZIN A   1      19.999  -1.281  10.483  0.00  0.00     0.127 C 
ATOM      4  N12 ZIN A   1      18.735  -1.360   9.738  0.00  0.00    -0.263 NA
ATOM      5  C22 ZIN A   1      17.720  -2.093  10.507  0.00  0.00     0.127 C 
ATOM      6  C23 ZIN A   1      17.480  -1.379  11.840  0.00  0.00     0.287 C 
ENDROOT
BRANCH   1   7
ATOM      7  C8  ZIN A   1      18.541  -0.689  13.904  0.00  0.00     0.277 C 
BRANCH   7   8
ATOM      8  C7  ZIN A   1      17.424   0.351  13.819  0.00  0.00     0.070 C 
BRANCH   8   9
ATOM      9  C6  ZIN A   1      18.015   1.734  13.920  0.00  0.00    -0.034 A 
ATOM     10  C5  ZIN A   1      18.531   2.182  15.124  0.00  0.00     0.018 A 
ATOM     11  C4  ZIN A   1      19.070   3.445  15.212  0.00  0.00    -0.022 A 
ATOM     12  C3  ZIN A   1      19.699   4.217  16.350  0.00  0.00     0.144 A 
ATOM     13  C27 ZIN A   1      19.105   4.284  14.106  0.00  0.00     0.043 A 
ATOM     14  C2  ZIN A   1      20.069   5.548  15.731  0.00  0.00     0.226 A 
ATOM     15  O1  ZIN A   1      20.604   6.479  16.294  0.00  0.00    -0.273 OA
ATOM     16  N28 ZIN A   1      19.690   5.505  14.443  0.00  0.00    -0.326 N 
ATOM     17  H49 ZIN A   1      19.809   6.238  13.819  0.00  0.00     0.169 HD
ATOM     18  C26 ZIN A   1      18.584   3.827  12.896  0.00  0.00     0.054 A 
ATOM     19  C24 ZIN A   1      18.044   2.559  12.809  0.00  0.00     0.042 A 
ATOM     20 Cl25 ZIN A   1      17.396   1.998  11.300  0.00  0.00    -0.084 Cl
ENDBRANCH   8   9
ENDBRANCH   7   8
ENDBRANCH   1   7
BRANCH   4  21
ATOM     21  C13 ZIN A   1      18.928  -1.941   8.484  0.00  0.00     0.125 A 
ATOM     22  C21 ZIN A   1      18.986  -1.128   7.279  0.00  0.00     0.024 A 
ATOM     23  C16 ZIN A   1      19.192  -1.919   6.132  0.00  0.00     0.037 A 
ATOM     24  C20 ZIN A   1      18.886   0.268   7.109  0.00  0.00     0.016 A 
ATOM     25  S15 ZIN A   1      19.276  -3.583   6.712  0.00  0.00     0.013 SA
ATOM     26  C17 ZIN A   1      19.282  -1.339   4.874  0.00  0.00     0.021 A 
ATOM     27  N14 ZIN A   1      19.058  -3.219   8.351  0.00  0.00    -0.198 NA
ATOM     28  C18 ZIN A   1      19.174   0.027   4.743  0.00  0.00     0.001 A 
ATOM     29  C19 ZIN A   1      18.977   0.819   5.868  0.00  0.00     0.001 A 
ENDBRANCH   4  21
TORSDOF 4
ENDMDL
MODEL 4
REMARK VINA RESULT:      -8.6      4.755      9.854
REMARK  4 active torsions:
REMARK  status: ('A' for Active; 'I' for Inactive)
REMARK    1  A    between atoms: C6_6  and  C7_7 
REMARK    2  A    between atoms: C7_7  and  C8_8 
REMARK    3  A    between atoms: C8_8  and  N9_9 
REMARK    4  A    between atoms: N12_12  and  C13_13 
ROOT
ATOM      1  N9  ZIN A   1      18.982  -0.541  12.240  0.00  0.00     0.091 N 
ATOM      2  C10 ZIN A   1      17.697  -0.793  11.571  0.00  0.00     0.287 C 
ATOM      3  C11 ZIN A   1      17.741  -0.217  10.154  0.00  0.00     0.127 C 
ATOM      4  N12 ZIN A   1      18.848  -0.833   9.411  0.00  0.00    -0.263 NA
ATOM      5  C22 ZIN A   1      20.132  -0.579  10.079  0.00  0.00     0.127 C 
ATOM      6  C23 ZIN A   1      20.089  -1.157  11.496  0.00  0.00     0.287 C 
ENDROOT
BRANCH   1   7
ATOM      7  C8  ZIN A   1      18.953  -1.014  13.630  0.00  0.00     0.277 C 
BRANCH   7   8
ATOM      8  C7  ZIN A   1      17.797  -0.343  14.374  0.00  0.00     0.070 C 
BRANCH   8   9
ATOM      9  C6  ZIN A   1      18.315   0.851  15.134  0.00  0.00    -0.034 A 
ATOM     10  C5  ZIN A   1      18.373   2.092  14.522  0.00  0.00     0.018 A 
ATOM     11  C4  ZIN A   1      18.846   3.179  15.219  0.00  0.00    -0.022 A 
ATOM     12  C3  ZIN A   1      19.034   4.634  14.851  0.00  0.00     0.144 A 
ATOM     13  C27 ZIN A   1      19.269   3.053  16.536  0.00  0.00     0.043 A 
ATOM     14  C2  ZIN A   1      19.600   5.261  16.107  0.00  0.00     0.226 A 
ATOM     15  O1  ZIN A   1      19.903   6.426  16.257  0.00  0.00    -0.273 OA
ATOM     16  N28 ZIN A   1      19.708   4.285  17.024  0.00  0.00    -0.326 N 
ATOM     17  H49 ZIN A   1      20.049   4.421  17.921  0.00  0.00     0.169 HD
ATOM     18  C26 ZIN A   1      19.208   1.802  17.147  0.00  0.00     0.054 A 
ATOM     19  C24 ZIN A   1      18.733   0.711  16.446  0.00  0.00     0.042 A 
ATOM     20 Cl25 ZIN A   1      18.660  -0.844  17.213  0.00  0.00    -0.084 Cl
ENDBRANCH   8   9
ENDBRANCH   7   8
ENDBRANCH   1   7
BRANCH   4  21
ATOM     21  C13 ZIN A   1      18.874  -0.383   8.090  0.00  0.00     0.125 A 
ATOM     22  C21 ZIN A   1      18.943  -1.319   6.977  0.00  0.00     0.024 A 
ATOM     23  C16 ZIN A   1      18.954  -0.648   5.739  0.00  0.00     0.037 A 
ATOM     24  C20 ZIN A   1      18.980  -2.728   6.966  0.00  0.00     0.016 A 
ATOM     25  S15 ZIN A   1      18.889   1.071   6.129  0.00  0.00     0.013 SA
ATOM     26  C17 ZIN A   1      19.012  -1.356   4.547  0.00  0.00     0.021 A 
ATOM     27  N14 ZIN A   1      18.844   0.877   7.811  0.00  0.00    -0.198 NA
ATOM     28  C18 ZIN A   1      19.054  -2.732   4.571  0.00  0.00     0.001 A 
ATOM     29  C19 ZIN A   1      19.037  -3.405   5.787  0.00  0.00     0.001 A 
ENDBRANCH   4  21
TORSDOF 4
ENDMDL
MODEL 5
REMARK VINA RESULT:      -8.5      2.197      2.813
REMARK  4 active torsions:
REMARK  status: ('A' for Active; 'I' for Inactive)
REMARK    1  A    between atoms: C6_6  and  C7_7 
REMARK    2  A    between atoms: C7_7  and  C8_8 
REMARK    3  A    between atoms: C8_8  and  N9_9 
REMARK    4  A    between atoms: N12_12  and  C13_13 
ROOT
ATOM      1  N9  ZIN A   1      18.473   2.316  10.885  0.00  0.00     0.091 N 
ATOM      2  C10 ZIN A   1      18.361   1.084  11.680  0.00  0.00     0.287 C 
ATOM      3  C11 ZIN A   1      18.906   1.337  13.088  0.00  0.00     0.127 C 
ATOM      4  N12 ZIN A   1      18.153   2.433  13.712  0.00  0.00    -0.263 NA
ATOM      5  C22 ZIN A   1      18.266   3.664  12.918  0.00  0.00     0.127 C 
ATOM      6  C23 ZIN A   1      17.720   3.412  11.511  0.00  0.00     0.287 C 
ENDROOT
BRANCH   1   7
ATOM      7  C8  ZIN A   1      18.029   2.092   9.504  0.00  0.00     0.277 C 
BRANCH   7   8
ATOM      8  C7  ZIN A   1      19.240   1.777   8.623  0.00  0.00     0.070 C 
BRANCH   8   9
ATOM      9  C6  ZIN A   1      18.984   0.507   7.853  0.00  0.00    -0.034 A 
ATOM     10  C5  ZIN A   1      18.252   0.544   6.678  0.00  0.00     0.018 A 
ATOM     11  C4  ZIN A   1      18.020  -0.618   5.978  0.00  0.00    -0.022 A 
ATOM     12  C3  ZIN A   1      17.278  -0.913   4.694  0.00  0.00     0.144 A 
ATOM     13  C27 ZIN A   1      18.512  -1.834   6.433  0.00  0.00     0.043 A 
ATOM     14  C2  ZIN A   1      17.428  -2.409   4.519  0.00  0.00     0.226 A 
ATOM     15  O1  ZIN A   1      16.981  -3.076   3.609  0.00  0.00    -0.273 OA
ATOM     16  N28 ZIN A   1      18.145  -2.861   5.561  0.00  0.00    -0.326 N 
ATOM     17  H49 ZIN A   1      18.381  -3.792   5.692  0.00  0.00     0.169 HD
ATOM     18  C26 ZIN A   1      19.248  -1.865   7.615  0.00  0.00     0.054 A 
ATOM     19  C24 ZIN A   1      19.480  -0.698   8.317  0.00  0.00     0.042 A 
ATOM     20 Cl25 ZIN A   1      20.397  -0.744   9.791  0.00  0.00    -0.084 Cl
ENDBRANCH   8   9
ENDBRANCH   7   8
ENDBRANCH   1   7
BRANCH   4  21
ATOM     21  C13 ZIN A   1      18.575   2.644  15.026  0.00  0.00     0.125 A 
ATOM     22  C21 ZIN A   1      18.617   1.553  15.988  0.00  0.00     0.024 A 
ATOM     23  C16 ZIN A   1      19.077   1.991  17.245  0.00  0.00     0.037 A 
ATOM     24  C20 ZIN A   1      18.297   0.188  15.840  0.00  0.00     0.016 A 
ATOM     25  S15 ZIN A   1      19.385   3.718  17.063  0.00  0.00     0.013 SA
ATOM     26  C17 ZIN A   1      19.197   1.105  18.306  0.00  0.00     0.021 A 
ATOM     27  N14 ZIN A   1      18.937   3.815  15.433  0.00  0.00    -0.198 NA
ATOM     28  C18 ZIN A   1      18.869  -0.220  18.130  0.00  0.00     0.001 A 
ATOM     29  C19 ZIN A   1      18.421  -0.666  16.892  0.00  0.00     0.001 A 
ENDBRANCH   4  21
TORSDOF 4
ENDMDL
MODEL 6
REMARK VINA RESULT:      -8.5      4.757      8.934
REMARK  4 active torsions:
REMARK  status: ('A' for Active; 'I' for Inactive)
REMARK    1  A    between atoms: C6_6  and  C7_7 
REMARK    2  A    between atoms: C7_7  and  C8_8 
REMARK    3  A    between atoms: C8_8  and  N9_9 
REMARK    4  A    between atoms: N12_12  and  C13_13 
ROOT
ATOM      1  N9  ZIN A   1      19.121   1.945  10.517  0.00  0.00     0.091 N 
ATOM      2  C10 ZIN A   1      17.744   1.493  10.267  0.00  0.00     0.287 C 
ATOM      3  C11 ZIN A   1      17.775   0.202   9.446  0.00  0.00     0.127 C 
ATOM      4  N12 ZIN A   1      18.538  -0.821  10.175  0.00  0.00    -0.263 NA
ATOM      5  C22 ZIN A   1      19.914  -0.370  10.423  0.00  0.00     0.127 C 
ATOM      6  C23 ZIN A   1      19.884   0.921  11.245  0.00  0.00     0.287 C 
ENDROOT
BRANCH   1   7
ATOM      7  C8  ZIN A   1      19.133   3.223  11.238  0.00  0.00     0.277 C 
BRANCH   7   8
ATOM      8  C7  ZIN A   1      17.784   3.432  11.930  0.00  0.00     0.070 C 
BRANCH   8   9
ATOM      9  C6  ZIN A   1      18.004   3.642  13.406  0.00  0.00    -0.034 A 
ATOM     10  C5  ZIN A   1      18.561   2.634  14.175  0.00  0.00     0.018 A 
ATOM     11  C4  ZIN A   1      18.759   2.830  15.523  0.00  0.00    -0.022 A 
ATOM     12  C3  ZIN A   1      19.330   1.954  16.615  0.00  0.00     0.144 A 
ATOM     13  C27 ZIN A   1      18.407   4.029  16.129  0.00  0.00     0.043 A 
ATOM     14  C2  ZIN A   1      19.243   2.813  17.858  0.00  0.00     0.226 A 
ATOM     15  O1  ZIN A   1      19.596   2.500  18.976  0.00  0.00    -0.273 OA
ATOM     16  N28 ZIN A   1      18.698   3.985  17.493  0.00  0.00    -0.326 N 
ATOM     17  H49 ZIN A   1      18.527   4.717  18.106  0.00  0.00     0.169 HD
ATOM     18  C26 ZIN A   1      17.847   5.039  15.350  0.00  0.00     0.054 A 
ATOM     19  C24 ZIN A   1      17.648   4.842  13.997  0.00  0.00     0.042 A 
ATOM     20 Cl25 ZIN A   1      16.949   6.105  13.033  0.00  0.00    -0.084 Cl
ENDBRANCH   8   9
ENDBRANCH   7   8
ENDBRANCH   1   7
BRANCH   4  21
ATOM     21  C13 ZIN A   1      18.526  -2.037   9.488  0.00  0.00     0.125 A 
ATOM     22  C21 ZIN A   1      18.091  -3.264  10.138  0.00  0.00     0.024 A 
ATOM     23  C16 ZIN A   1      18.156  -4.363   9.260  0.00  0.00     0.037 A 
ATOM     24  C20 ZIN A   1      17.622  -3.491  11.448  0.00  0.00     0.016 A 
ATOM     25  S15 ZIN A   1      18.766  -3.718   7.736  0.00  0.00     0.013 SA
ATOM     26  C17 ZIN A   1      17.780  -5.632   9.680  0.00  0.00     0.021 A 
ATOM     27  N14 ZIN A   1      18.905  -2.113   8.256  0.00  0.00    -0.198 NA
ATOM     28  C18 ZIN A   1      17.333  -5.820  10.968  0.00  0.00     0.001 A 
ATOM     29  C19 ZIN A   1      17.258  -4.742  11.842  0.00  0.00     0.001 A 
ENDBRANCH   4  21
TORSDOF 4
ENDMDL
MODEL 7
REMARK VINA RESULT:      -8.3      4.858     10.123
REMARK  4 active torsions:
REMARK  status: ('A' for Active; 'I' for Inactive)
REMARK    1  A    between atoms: C6_6  and  C7_7 
REMARK    2  A    between atoms: C7_7  and  C8_8 
REMARK    3  A    between atoms: C8_8  and  N9_9 
REMARK    4  A    between atoms: N12_12  and  C13_13 
ROOT
ATOM      1  N9  ZIN A   1      18.699   0.822  11.543  0.00  0.00     0.091 N 
ATOM      2  C10 ZIN A   1      17.510   0.031  11.192  0.00  0.00     0.287 C 
ATOM      3  C11 ZIN A   1      17.667  -0.519   9.772  0.00  0.00     0.127 C 
ATOM      4  N12 ZIN A   1      18.883  -1.341   9.700  0.00  0.00    -0.263 NA
ATOM      5  C22 ZIN A   1      20.071  -0.550  10.049  0.00  0.00     0.127 C 
ATOM      6  C23 ZIN A   1      19.915  -0.001  11.469  0.00  0.00     0.287 C 
ENDROOT
BRANCH   1   7
ATOM      7  C8  ZIN A   1      18.553   1.430  12.871  0.00  0.00     0.277 C 
BRANCH   7   8
ATOM      8  C7  ZIN A   1      19.502   0.743  13.854  0.00  0.00     0.070 C 
BRANCH   8   9
ATOM      9  C6  ZIN A   1      19.126   1.120  15.264  0.00  0.00    -0.034 A 
ATOM     10  C5  ZIN A   1      19.002   2.454  15.616  0.00  0.00     0.018 A 
ATOM     11  C4  ZIN A   1      18.658   2.795  16.903  0.00  0.00    -0.022 A 
ATOM     12  C3  ZIN A   1      18.447   4.123  17.594  0.00  0.00     0.144 A 
ATOM     13  C27 ZIN A   1      18.432   1.816  17.863  0.00  0.00     0.043 A 
ATOM     14  C2  ZIN A   1      18.086   3.746  19.014  0.00  0.00     0.226 A 
ATOM     15  O1  ZIN A   1      17.832   4.512  19.920  0.00  0.00    -0.273 OA
ATOM     16  N28 ZIN A   1      18.104   2.405  19.086  0.00  0.00    -0.326 N 
ATOM     17  H49 ZIN A   1      17.911   1.903  19.893  0.00  0.00     0.169 HD
ATOM     18  C26 ZIN A   1      18.557   0.476  17.503  0.00  0.00     0.054 A 
ATOM     19  C24 ZIN A   1      18.902   0.136  16.210  0.00  0.00     0.042 A 
ATOM     20 Cl25 ZIN A   1      19.058  -1.536  15.769  0.00  0.00    -0.084 Cl
ENDBRANCH   8   9
ENDBRANCH   7   8
ENDBRANCH   1   7
BRANCH   4  21
ATOM     21  C13 ZIN A   1      19.021  -1.919   8.436  0.00  0.00     0.125 A 
ATOM     22  C21 ZIN A   1      19.043  -1.102   7.233  0.00  0.00     0.024 A 
ATOM     23  C16 ZIN A   1      19.194  -1.891   6.077  0.00  0.00     0.037 A 
ATOM     24  C20 ZIN A   1      18.957   0.296   7.072  0.00  0.00     0.016 A 
ATOM     25  S15 ZIN A   1      19.277  -3.559   6.646  0.00  0.00     0.013 SA
ATOM     26  C17 ZIN A   1      19.244  -1.308   4.818  0.00  0.00     0.021 A 
ATOM     27  N14 ZIN A   1      19.128  -3.198   8.294  0.00  0.00    -0.198 NA
ATOM     28  C18 ZIN A   1      19.150   0.061   4.696  0.00  0.00     0.001 A 
ATOM     29  C19 ZIN A   1      19.007   0.851   5.831  0.00  0.00     0.001 A 
ENDBRANCH   4  21
TORSDOF 4
ENDMDL
MODEL 8
REMARK VINA RESULT:      -8.3      1.799      2.084
REMARK  4 active torsions:
REMARK  status: ('A' for Active; 'I' for Inactive)
REMARK    1  A    between atoms: C6_6  and  C7_7 
REMARK    2  A    between atoms: C7_7  and  C8_8 
REMARK    3  A    between atoms: C8_8  and  N9_9 
REMARK    4  A    between atoms: N12_12  and  C13_13 
ROOT
ATOM      1  N9  ZIN A   1      18.273  -0.872  10.379  0.00  0.00     0.091 N 
ATOM      2  C10 ZIN A   1      19.485  -1.168  11.157  0.00  0.00     0.287 C 
ATOM      3  C11 ZIN A   1      19.687  -0.081  12.215  0.00  0.00     0.127 C 
ATOM      4  N12 ZIN A   1      18.506  -0.024  13.087  0.00  0.00    -0.263 NA
ATOM      5  C22 ZIN A   1      17.295   0.274  12.309  0.00  0.00     0.127 C 
ATOM      6  C23 ZIN A   1      17.092  -0.814  11.252  0.00  0.00     0.287 C 
ENDROOT
BRANCH   1   7
ATOM      7  C8  ZIN A   1      18.086  -1.853   9.303  0.00  0.00     0.277 C 
BRANCH   7   8
ATOM      8  C7  ZIN A   1      19.203  -1.696   8.269  0.00  0.00     0.070 C 
BRANCH   8   9
ATOM      9  C6  ZIN A   1      18.664  -2.007   6.896  0.00  0.00    -0.034 A 
ATOM     10  C5  ZIN A   1      18.615  -3.317   6.450  0.00  0.00     0.018 A 
ATOM     11  C4  ZIN A   1      18.124  -3.597   5.196  0.00  0.00    -0.022 A 
ATOM     12  C3  ZIN A   1      17.939  -4.886   4.428  0.00  0.00     0.144 A 
ATOM     13  C27 ZIN A   1      17.672  -2.580   4.364  0.00  0.00     0.043 A 
ATOM     14  C2  ZIN A   1      17.345  -4.446   3.108  0.00  0.00     0.226 A 
ATOM     15  O1  ZIN A   1      17.035  -5.166   2.182  0.00  0.00    -0.273 OA
ATOM     16  N28 ZIN A   1      17.229  -3.108   3.151  0.00  0.00    -0.326 N 
ATOM     17  H49 ZIN A   1      16.877  -2.572   2.424  0.00  0.00     0.169 HD
ATOM     18  C26 ZIN A   1      17.724  -1.264   4.819  0.00  0.00     0.054 A 
ATOM     19  C24 ZIN A   1      18.218  -0.984   6.078  0.00  0.00     0.042 A 
ATOM     20 Cl25 ZIN A   1      18.281   0.658   6.637  0.00  0.00    -0.084 Cl
ENDBRANCH   8   9
ENDBRANCH   7   8
ENDBRANCH   1   7
BRANCH   4  21
ATOM     21  C13 ZIN A   1      18.685   0.909  14.110  0.00  0.00     0.125 A 
ATOM     22  C21 ZIN A   1      18.865   0.486  15.491  0.00  0.00     0.024 A 
ATOM     23  C16 ZIN A   1      19.032   1.589  16.350  0.00  0.00     0.037 A 
ATOM     24  C20 ZIN A   1      18.911  -0.804  16.056  0.00  0.00     0.016 A 
ATOM     25  S15 ZIN A   1      18.929   3.016  15.318  0.00  0.00     0.013 SA
ATOM     26  C17 ZIN A   1      19.223   1.407  17.713  0.00  0.00     0.021 A 
ATOM     27  N14 ZIN A   1      18.691   2.177  13.866  0.00  0.00    -0.198 NA
ATOM     28  C18 ZIN A   1      19.257   0.133  18.233  0.00  0.00     0.001 A 
ATOM     29  C19 ZIN A   1      19.100  -0.964  17.394  0.00  0.00     0.001 A 
ENDBRANCH   4  21
TORSDOF 4
ENDMDL
MODEL 9
REMARK VINA RESULT:      -8.1      4.487      5.735
REMARK  4 active torsions:
REMARK  status: ('A' for Active; 'I' for Inactive)
REMARK    1  A    between atoms: C6_6  and  C7_7 
REMARK    2  A    between atoms: C7_7  and  C8_8 
REMARK    3  A    between atoms: C8_8  and  N9_9 
REMARK    4  A    between atoms: N12_12  and  C13_13 
ROOT
ATOM      1  N9  ZIN A   1      18.814   3.753  12.211  0.00  0.00     0.091 N 
ATOM      2  C10 ZIN A   1      18.675   3.009  13.472  0.00  0.00     0.287 C 
ATOM      3  C11 ZIN A   1      18.456   3.995  14.621  0.00  0.00     0.127 C 
ATOM      4  N12 ZIN A   1      17.256   4.799  14.353  0.00  0.00    -0.263 NA
ATOM      5  C22 ZIN A   1      17.395   5.543  13.094  0.00  0.00     0.127 C 
ATOM      6  C23 ZIN A   1      17.613   4.557  11.943  0.00  0.00     0.287 C 
ENDROOT
BRANCH   1   7
ATOM      7  C8  ZIN A   1      19.100   2.845  11.093  0.00  0.00     0.277 C 
BRANCH   7   8
ATOM      8  C7  ZIN A   1      17.833   2.644  10.261  0.00  0.00     0.070 C 
BRANCH   8   9
ATOM      9  C6  ZIN A   1      18.044   1.511   9.290  0.00  0.00    -0.034 A 
ATOM     10  C5  ZIN A   1      18.608   1.755   8.050  0.00  0.00     0.018 A 
ATOM     11  C4  ZIN A   1      18.798   0.718   7.166  0.00  0.00    -0.022 A 
ATOM     12  C3  ZIN A   1      19.374   0.650   5.769  0.00  0.00     0.144 A 
ATOM     13  C27 ZIN A   1      18.431  -0.580   7.500  0.00  0.00     0.043 A 
ATOM     14  C2  ZIN A   1      19.272  -0.815   5.401  0.00  0.00     0.226 A 
ATOM     15  O1  ZIN A   1      19.624  -1.320   4.355  0.00  0.00    -0.273 OA
ATOM     16  N28 ZIN A   1      18.717  -1.449   6.446  0.00  0.00    -0.326 N 
ATOM     17  H49 ZIN A   1      18.536  -2.401   6.467  0.00  0.00     0.169 HD
ATOM     18  C26 ZIN A   1      17.864  -0.820   8.750  0.00  0.00     0.054 A 
ATOM     19  C24 ZIN A   1      17.674   0.223   9.636  0.00  0.00     0.042 A 
ATOM     20 Cl25 ZIN A   1      16.965  -0.083  11.191  0.00  0.00    -0.084 Cl
ENDBRANCH   8   9
ENDBRANCH   7   8
ENDBRANCH   1   7
BRANCH   4  21
ATOM     21  C13 ZIN A   1      16.984   5.661  15.417  0.00  0.00     0.125 A 
ATOM     22  C21 ZIN A   1      15.657   6.228  15.605  0.00  0.00     0.024 A 
ATOM     23  C16 ZIN A   1      15.610   7.063  16.738  0.00  0.00     0.037 A 
ATOM     24  C20 ZIN A   1      14.472   6.055  14.862  0.00  0.00     0.016 A 
ATOM     25  S15 ZIN A   1      17.238   7.038  17.416  0.00  0.00     0.013 SA
ATOM     26  C17 ZIN A   1      14.433   7.703  17.102  0.00  0.00     0.021 A 
ATOM     27  N14 ZIN A   1      17.901   5.987  16.265  0.00  0.00    -0.198 NA
ATOM     28  C18 ZIN A   1      13.295   7.517  16.350  0.00  0.00     0.001 A 
ATOM     29  C19 ZIN A   1      13.328   6.691  15.233  0.00  0.00     0.001 A 
ENDBRANCH   4  21
TORSDOF 4
ENDMDL
