MODEL 1
REMARK VINA RESULT:      -8.0      0.000      0.000
REMARK  2 active torsions:
REMARK  status: ('A' for Active; 'I' for Inactive)
REMARK    1  A    between atoms: C6_6  and  C7_7 
REMARK    2  A    between atoms: C6_6  and  C13_13 
ROOT
ATOM      1  O1  ZIN A   1      16.965  -2.088  11.897  0.00  0.00    -0.245 OA
ATOM      2  C2  ZIN A   1      17.676  -1.311  11.290  0.00  0.00     0.346 A 
ATOM      3  N3  ZIN A   1      19.003  -1.446  11.182  0.00  0.00    -0.155 NA
ATOM      4  C4  ZIN A   1      19.547  -0.448  10.458  0.00  0.00     0.285 A 
ATOM      5  O5  ZIN A   1      20.718  -0.296  10.187  0.00  0.00    -0.267 OA
ATOM      6  C6  ZIN A   1      18.390   0.443  10.054  0.00  0.00     0.173 A 
ATOM      7  N19 ZIN A   1      17.217  -0.221  10.649  0.00  0.00    -0.315 N 
ATOM      8  H30 ZIN A   1      16.295   0.072  10.594  0.00  0.00     0.166 HD
ENDROOT
BRANCH   6   9
ATOM      9  C7  ZIN A   1      18.564   1.829  10.622  0.00  0.00    -0.016 A 
ATOM     10  C12 ZIN A   1      19.668   2.124  11.399  0.00  0.00     0.010 A 
ATOM     11  C11 ZIN A   1      19.830   3.396  11.916  0.00  0.00     0.001 A 
ATOM     12  C10 ZIN A   1      18.882   4.370  11.663  0.00  0.00     0.000 A 
ATOM     13  C9  ZIN A   1      17.775   4.073  10.890  0.00  0.00     0.001 A 
ATOM     14  C8  ZIN A   1      17.616   2.802  10.370  0.00  0.00     0.010 A 
ENDBRANCH   6   9
BRANCH   6  15
ATOM     15  C13 ZIN A   1      18.261   0.498   8.554  0.00  0.00    -0.016 A 
ATOM     16  C18 ZIN A   1      19.145   1.258   7.812  0.00  0.00     0.010 A 
ATOM     17  C17 ZIN A   1      19.030   1.304   6.435  0.00  0.00     0.001 A 
ATOM     18  C16 ZIN A   1      18.023   0.599   5.802  0.00  0.00     0.000 A 
ATOM     19  C15 ZIN A   1      17.135  -0.157   6.544  0.00  0.00     0.001 A 
ATOM     20  C14 ZIN A   1      17.254  -0.207   7.920  0.00  0.00     0.010 A 
ENDBRANCH   6  15
TORSDOF 2
ENDMDL
MODEL 2
REMARK VINA RESULT:      -8.0      1.154      4.497
REMARK  2 active torsions:
REMARK  status: ('A' for Active; 'I' for Inactive)
REMARK    1  A    between atoms: C6_6  and  C7_7 
REMARK    2  A    between atoms: C6_6  and  C13_13 
ROOT
ATOM      1  O1  ZIN A   1      19.800  -1.995  12.215  0.00  0.00    -0.245 OA
ATOM      2  C2  ZIN A   1      19.095  -1.157  11.688  0.00  0.00     0.346 A 
ATOM      3  N3  ZIN A   1      17.765  -1.113  11.822  0.00  0.00    -0.155 NA
ATOM      4  C4  ZIN A   1      17.230  -0.085  11.133  0.00  0.00     0.285 A 
ATOM      5  O5  ZIN A   1      16.058   0.215  11.060  0.00  0.00    -0.267 OA
ATOM      6  C6  ZIN A   1      18.398   0.618  10.473  0.00  0.00     0.173 A 
ATOM      7  N19 ZIN A   1      19.567  -0.166  10.909  0.00  0.00    -0.315 N 
ATOM      8  H30 ZIN A   1      20.494  -0.003  10.677  0.00  0.00     0.166 HD
ENDROOT
BRANCH   6   9
ATOM      9  C7  ZIN A   1      18.260   0.580   8.972  0.00  0.00    -0.016 A 
ATOM     10  C12 ZIN A   1      17.260  -0.173   8.389  0.00  0.00     0.010 A 
ATOM     11  C11 ZIN A   1      17.131  -0.204   7.013  0.00  0.00     0.001 A 
ATOM     12  C10 ZIN A   1      18.009   0.511   6.220  0.00  0.00     0.000 A 
ATOM     13  C9  ZIN A   1      19.013   1.260   6.804  0.00  0.00     0.001 A 
ATOM     14  C8  ZIN A   1      19.139   1.294   8.180  0.00  0.00     0.010 A 
ENDBRANCH   6   9
BRANCH   6  15
ATOM     15  C13 ZIN A   1      18.506   2.041  10.958  0.00  0.00    -0.016 A 
ATOM     16  C18 ZIN A   1      17.517   2.954  10.647  0.00  0.00     0.010 A 
ATOM     17  C17 ZIN A   1      17.613   4.257  11.097  0.00  0.00     0.001 A 
ATOM     18  C16 ZIN A   1      18.704   4.650  11.850  0.00  0.00     0.000 A 
ATOM     19  C15 ZIN A   1      19.696   3.737  12.157  0.00  0.00     0.001 A 
ATOM     20  C14 ZIN A   1      19.597   2.433  11.712  0.00  0.00     0.010 A 
ENDBRANCH   6  15
TORSDOF 2
ENDMDL
MODEL 3
REMARK VINA RESULT:      -7.7      3.425      6.467
REMARK  2 active torsions:
REMARK  status: ('A' for Active; 'I' for Inactive)
REMARK    1  A    between atoms: C6_6  and  C7_7 
REMARK    2  A    between atoms: C6_6  and  C13_13 
ROOT
ATOM      1  O1  ZIN A   1      17.023   2.163  11.122  0.00  0.00    -0.245 OA
ATOM      2  C2  ZIN A   1      17.735   1.367  11.703  0.00  0.00     0.346 A 
ATOM      3  N3  ZIN A   1      19.062   1.496  11.807  0.00  0.00    -0.155 NA
ATOM      4  C4  ZIN A   1      19.607   0.477  12.500  0.00  0.00     0.285 A 
ATOM      5  O5  ZIN A   1      20.780   0.314  12.761  0.00  0.00    -0.267 OA
ATOM      6  C6  ZIN A   1      18.450  -0.421  12.886  0.00  0.00     0.173 A 
ATOM      7  N19 ZIN A   1      17.276   0.262  12.317  0.00  0.00    -0.315 N 
ATOM      8  H30 ZIN A   1      16.353  -0.030  12.369  0.00  0.00     0.166 HD
ENDROOT
BRANCH   6   9
ATOM      9  C7  ZIN A   1      18.617  -1.791  12.280  0.00  0.00    -0.016 A 
ATOM     10  C12 ZIN A   1      19.882  -2.308  12.076  0.00  0.00     0.010 A 
ATOM     11  C11 ZIN A   1      20.034  -3.566  11.524  0.00  0.00     0.001 A 
ATOM     12  C10 ZIN A   1      18.921  -4.304  11.167  0.00  0.00     0.000 A 
ATOM     13  C9  ZIN A   1      17.656  -3.784  11.366  0.00  0.00     0.001 A 
ATOM     14  C8  ZIN A   1      17.504  -2.528  11.922  0.00  0.00     0.010 A 
ENDBRANCH   6   9
BRANCH   6  15
ATOM     15  C13 ZIN A   1      18.330  -0.517  14.385  0.00  0.00    -0.016 A 
ATOM     16  C18 ZIN A   1      19.118  -1.409  15.086  0.00  0.00     0.010 A 
ATOM     17  C17 ZIN A   1      19.011  -1.493  16.462  0.00  0.00     0.001 A 
ATOM     18  C16 ZIN A   1      18.107  -0.692  17.135  0.00  0.00     0.000 A 
ATOM     19  C15 ZIN A   1      17.314   0.197  16.433  0.00  0.00     0.001 A 
ATOM     20  C14 ZIN A   1      17.425   0.284  15.058  0.00  0.00     0.010 A 
ENDBRANCH   6  15
TORSDOF 2
ENDMDL
MODEL 4
REMARK VINA RESULT:      -7.7      2.164      4.320
REMARK  2 active torsions:
REMARK  status: ('A' for Active; 'I' for Inactive)
REMARK    1  A    between atoms: C6_6  and  C7_7 
REMARK    2  A    between atoms: C6_6  and  C13_13 
ROOT
ATOM      1  O1  ZIN A   1      19.322   1.854  13.833  0.00  0.00    -0.245 OA
ATOM      2  C2  ZIN A   1      18.767   1.178  12.989  0.00  0.00     0.346 A 
ATOM      3  N3  ZIN A   1      17.438   1.058  12.888  0.00  0.00    -0.155 NA
ATOM      4  C4  ZIN A   1      17.088   0.250  11.868  0.00  0.00     0.285 A 
ATOM      5  O5  ZIN A   1      15.966  -0.051  11.526  0.00  0.00    -0.267 OA
ATOM      6  C6  ZIN A   1      18.390  -0.201  11.237  0.00  0.00     0.173 A 
ATOM      7  N19 ZIN A   1      19.420   0.471  12.048  0.00  0.00    -0.315 N 
ATOM      8  H30 ZIN A   1      20.380   0.413  11.931  0.00  0.00     0.166 HD
ENDROOT
BRANCH   6   9
ATOM      9  C7  ZIN A   1      18.532  -1.699  11.328  0.00  0.00    -0.016 A 
ATOM     10  C12 ZIN A   1      19.779  -2.283  11.215  0.00  0.00     0.010 A 
ATOM     11  C11 ZIN A   1      19.909  -3.657  11.303  0.00  0.00     0.001 A 
ATOM     12  C10 ZIN A   1      18.791  -4.446  11.494  0.00  0.00     0.000 A 
ATOM     13  C9  ZIN A   1      17.543  -3.862  11.602  0.00  0.00     0.001 A 
ATOM     14  C8  ZIN A   1      17.414  -2.488  11.518  0.00  0.00     0.010 A 
ENDBRANCH   6   9
BRANCH   6  15
ATOM     15  C13 ZIN A   1      18.470   0.252   9.802  0.00  0.00    -0.016 A 
ATOM     16  C18 ZIN A   1      19.250   1.341   9.463  0.00  0.00     0.010 A 
ATOM     17  C17 ZIN A   1      19.327   1.753   8.146  0.00  0.00     0.001 A 
ATOM     18  C16 ZIN A   1      18.614   1.083   7.169  0.00  0.00     0.000 A 
ATOM     19  C15 ZIN A   1      17.829  -0.004   7.509  0.00  0.00     0.001 A 
ATOM     20  C14 ZIN A   1      17.757  -0.419   8.825  0.00  0.00     0.010 A 
ENDBRANCH   6  15
TORSDOF 2
ENDMDL
MODEL 5
REMARK VINA RESULT:      -7.6      1.854      4.642
REMARK  2 active torsions:
REMARK  status: ('A' for Active; 'I' for Inactive)
REMARK    1  A    between atoms: C6_6  and  C7_7 
REMARK    2  A    between atoms: C6_6  and  C13_13 
ROOT
ATOM      1  O1  ZIN A   1      20.354  -0.059  13.663  0.00  0.00    -0.245 OA
ATOM      2  C2  ZIN A   1      19.462   0.353  12.948  0.00  0.00     0.346 A 
ATOM      3  N3  ZIN A   1      18.212  -0.123  12.970  0.00  0.00    -0.155 NA
ATOM      4  C4  ZIN A   1      17.425   0.508  12.076  0.00  0.00     0.285 A 
ATOM      5  O5  ZIN A   1      16.249   0.302  11.863  0.00  0.00    -0.267 OA
ATOM      6  C6  ZIN A   1      18.313   1.529  11.396  0.00  0.00     0.173 A 
ATOM      7  N19 ZIN A   1      19.620   1.341  12.049  0.00  0.00    -0.315 N 
ATOM      8  H30 ZIN A   1      20.437   1.830  11.864  0.00  0.00     0.166 HD
ENDROOT
BRANCH   6   9
ATOM      9  C7  ZIN A   1      18.409   1.248   9.918  0.00  0.00    -0.016 A 
ATOM     10  C12 ZIN A   1      19.253   2.000   9.124  0.00  0.00     0.010 A 
ATOM     11  C11 ZIN A   1      19.344   1.739   7.770  0.00  0.00     0.001 A 
ATOM     12  C10 ZIN A   1      18.582   0.731   7.208  0.00  0.00     0.000 A 
ATOM     13  C9  ZIN A   1      17.734  -0.018   8.002  0.00  0.00     0.001 A 
ATOM     14  C8  ZIN A   1      17.647   0.241   9.357  0.00  0.00     0.010 A 
ENDBRANCH   6   9
BRANCH   6  15
ATOM     15  C13 ZIN A   1      17.799   2.925  11.637  0.00  0.00    -0.016 A 
ATOM     16  C18 ZIN A   1      17.377   3.699  10.573  0.00  0.00     0.010 A 
ATOM     17  C17 ZIN A   1      16.900   4.978  10.795  0.00  0.00     0.001 A 
ATOM     18  C16 ZIN A   1      16.856   5.486  12.080  0.00  0.00     0.000 A 
ATOM     19  C15 ZIN A   1      17.283   4.713  13.144  0.00  0.00     0.001 A 
ATOM     20  C14 ZIN A   1      17.754   3.433  12.922  0.00  0.00     0.010 A 
ENDBRANCH   6  15
TORSDOF 2
ENDMDL
MODEL 6
REMARK VINA RESULT:      -7.6      3.225      5.320
REMARK  2 active torsions:
REMARK  status: ('A' for Active; 'I' for Inactive)
REMARK    1  A    between atoms: C6_6  and  C7_7 
REMARK    2  A    between atoms: C6_6  and  C13_13 
ROOT
ATOM      1  O1  ZIN A   1      20.034   2.096  11.137  0.00  0.00    -0.245 OA
ATOM      2  C2  ZIN A   1      19.282   1.250  11.581  0.00  0.00     0.346 A 
ATOM      3  N3  ZIN A   1      17.962   1.244  11.367  0.00  0.00    -0.155 NA
ATOM      4  C4  ZIN A   1      17.366   0.198  11.972  0.00  0.00     0.285 A 
ATOM      5  O5  ZIN A   1      16.186  -0.078  11.961  0.00  0.00    -0.267 OA
ATOM      6  C6  ZIN A   1      18.478  -0.563  12.666  0.00  0.00     0.173 A 
ATOM      7  N19 ZIN A   1      19.686   0.213  12.337  0.00  0.00    -0.315 N 
ATOM      8  H30 ZIN A   1      20.594   0.018  12.615  0.00  0.00     0.166 HD
ENDROOT
BRANCH   6   9
ATOM      9  C7  ZIN A   1      18.250  -0.592  14.156  0.00  0.00    -0.016 A 
ATOM     10  C12 ZIN A   1      17.452   0.364  14.752  0.00  0.00     0.010 A 
ATOM     11  C11 ZIN A   1      17.240   0.334  16.118  0.00  0.00     0.001 A 
ATOM     12  C10 ZIN A   1      17.836  -0.647  16.888  0.00  0.00     0.000 A 
ATOM     13  C9  ZIN A   1      18.639  -1.601  16.292  0.00  0.00     0.001 A 
ATOM     14  C8  ZIN A   1      18.847  -1.573  14.925  0.00  0.00     0.010 A 
ENDBRANCH   6   9
BRANCH   6  15
ATOM     15  C13 ZIN A   1      18.584  -1.963  12.119  0.00  0.00    -0.016 A 
ATOM     16  C18 ZIN A   1      19.825  -2.503  11.840  0.00  0.00     0.010 A 
ATOM     17  C17 ZIN A   1      19.923  -3.790  11.343  0.00  0.00     0.001 A 
ATOM     18  C16 ZIN A   1      18.779  -4.531  11.116  0.00  0.00     0.000 A 
ATOM     19  C15 ZIN A   1      17.537  -3.990  11.390  0.00  0.00     0.001 A 
ATOM     20  C14 ZIN A   1      17.440  -2.705  11.892  0.00  0.00     0.010 A 
ENDBRANCH   6  15
TORSDOF 2
ENDMDL
MODEL 7
REMARK VINA RESULT:      -7.3      1.681      2.498
REMARK  2 active torsions:
REMARK  status: ('A' for Active; 'I' for Inactive)
REMARK    1  A    between atoms: C6_6  and  C7_7 
REMARK    2  A    between atoms: C6_6  and  C13_13 
ROOT
ATOM      1  O1  ZIN A   1      17.752  -0.885  13.918  0.00  0.00    -0.245 OA
ATOM      2  C2  ZIN A   1      18.157  -0.041  13.144  0.00  0.00     0.346 A 
ATOM      3  N3  ZIN A   1      19.429   0.370  13.090  0.00  0.00    -0.155 NA
ATOM      4  C4  ZIN A   1      19.607   1.313  12.144  0.00  0.00     0.285 A 
ATOM      5  O5  ZIN A   1      20.642   1.875  11.858  0.00  0.00    -0.267 OA
ATOM      6  C6  ZIN A   1      18.246   1.522  11.512  0.00  0.00     0.173 A 
ATOM      7  N19 ZIN A   1      17.377   0.582  12.241  0.00  0.00    -0.315 N 
ATOM      8  H30 ZIN A   1      16.428   0.441  12.101  0.00  0.00     0.166 HD
ENDROOT
BRANCH   6   9
ATOM      9  C7  ZIN A   1      17.781   2.942  11.711  0.00  0.00    -0.016 A 
ATOM     10  C12 ZIN A   1      17.380   3.697  10.627  0.00  0.00     0.010 A 
ATOM     11  C11 ZIN A   1      16.950   4.998  10.811  0.00  0.00     0.001 A 
ATOM     12  C10 ZIN A   1      16.931   5.546  12.080  0.00  0.00     0.000 A 
ATOM     13  C9  ZIN A   1      17.337   4.792  13.164  0.00  0.00     0.001 A 
ATOM     14  C8  ZIN A   1      17.763   3.490  12.980  0.00  0.00     0.010 A 
ENDBRANCH   6   9
BRANCH   6  15
ATOM     15  C13 ZIN A   1      18.283   1.178  10.045  0.00  0.00    -0.016 A 
ATOM     16  C18 ZIN A   1      17.408   0.240   9.533  0.00  0.00     0.010 A 
ATOM     17  C17 ZIN A   1      17.440  -0.072   8.186  0.00  0.00     0.001 A 
ATOM     18  C16 ZIN A   1      18.353   0.548   7.355  0.00  0.00     0.000 A 
ATOM     19  C15 ZIN A   1      19.232   1.484   7.868  0.00  0.00     0.001 A 
ATOM     20  C14 ZIN A   1      19.197   1.799   9.213  0.00  0.00     0.010 A 
ENDBRANCH   6  15
TORSDOF 2
ENDMDL
MODEL 8
REMARK VINA RESULT:      -7.0      2.277      4.259
REMARK  2 active torsions:
REMARK  status: ('A' for Active; 'I' for Inactive)
REMARK    1  A    between atoms: C6_6  and  C7_7 
REMARK    2  A    between atoms: C6_6  and  C13_13 
ROOT
ATOM      1  O1  ZIN A   1      17.752  -2.016   9.164  0.00  0.00    -0.245 OA
ATOM      2  C2  ZIN A   1      18.309  -1.316   9.987  0.00  0.00     0.346 A 
ATOM      3  N3  ZIN A   1      19.638  -1.254  10.133  0.00  0.00    -0.155 NA
ATOM      4  C4  ZIN A   1      19.990  -0.403  11.116  0.00  0.00     0.285 A 
ATOM      5  O5  ZIN A   1      21.114  -0.135  11.483  0.00  0.00    -0.267 OA
ATOM      6  C6  ZIN A   1      18.691   0.150  11.665  0.00  0.00     0.173 A 
ATOM      7  N19 ZIN A   1      17.660  -0.513  10.849  0.00  0.00    -0.315 N 
ATOM      8  H30 ZIN A   1      16.700  -0.398  10.921  0.00  0.00     0.166 HD
ENDROOT
BRANCH   6   9
ATOM      9  C7  ZIN A   1      18.534  -0.212  13.120  0.00  0.00    -0.016 A 
ATOM     10  C12 ZIN A   1      19.252  -1.266  13.652  0.00  0.00     0.010 A 
ATOM     11  C11 ZIN A   1      19.111  -1.594  14.988  0.00  0.00     0.001 A 
ATOM     12  C10 ZIN A   1      18.244  -0.874  15.789  0.00  0.00     0.000 A 
ATOM     13  C9  ZIN A   1      17.523   0.177  15.255  0.00  0.00     0.001 A 
ATOM     14  C8  ZIN A   1      17.667   0.507  13.921  0.00  0.00     0.010 A 
ENDBRANCH   6   9
BRANCH   6  15
ATOM     15  C13 ZIN A   1      18.630   1.644  11.482  0.00  0.00    -0.016 A 
ATOM     16  C18 ZIN A   1      17.752   2.193  10.567  0.00  0.00     0.010 A 
ATOM     17  C17 ZIN A   1      17.693   3.564  10.403  0.00  0.00     0.001 A 
ATOM     18  C16 ZIN A   1      18.520   4.386  11.146  0.00  0.00     0.000 A 
ATOM     19  C15 ZIN A   1      19.402   3.837  12.058  0.00  0.00     0.001 A 
ATOM     20  C14 ZIN A   1      19.458   2.466  12.226  0.00  0.00     0.010 A 
ENDBRANCH   6  15
TORSDOF 2
ENDMDL
MODEL 9
REMARK VINA RESULT:      -6.7      2.844      3.642
REMARK  2 active torsions:
REMARK  status: ('A' for Active; 'I' for Inactive)
REMARK    1  A    between atoms: C6_6  and  C7_7 
REMARK    2  A    between atoms: C6_6  and  C13_13 
ROOT
ATOM      1  O1  ZIN A   1      16.699  -5.310  11.073  0.00  0.00    -0.245 OA
ATOM      2  C2  ZIN A   1      17.510  -4.413  11.198  0.00  0.00     0.346 A 
ATOM      3  N3  ZIN A   1      18.828  -4.614  11.309  0.00  0.00    -0.155 NA
ATOM      4  C4  ZIN A   1      19.499  -3.452  11.437  0.00  0.00     0.285 A 
ATOM      5  O5  ZIN A   1      20.696  -3.307  11.555  0.00  0.00    -0.267 OA
ATOM      6  C6  ZIN A   1      18.444  -2.364  11.400  0.00  0.00     0.173 A 
ATOM      7  N19 ZIN A   1      17.184  -3.109  11.236  0.00  0.00    -0.315 N 
ATOM      8  H30 ZIN A   1      16.292  -2.733  11.173  0.00  0.00     0.166 HD
ENDROOT
BRANCH   6   9
ATOM      9  C7  ZIN A   1      18.441  -1.585  12.691  0.00  0.00    -0.016 A 
ATOM     10  C12 ZIN A   1      19.252  -1.978  13.737  0.00  0.00     0.010 A 
ATOM     11  C11 ZIN A   1      19.252  -1.261  14.919  0.00  0.00     0.001 A 
ATOM     12  C10 ZIN A   1      18.431  -0.156  15.057  0.00  0.00     0.000 A 
ATOM     13  C9  ZIN A   1      17.616   0.233  14.012  0.00  0.00     0.001 A 
ATOM     14  C8  ZIN A   1      17.620  -0.482  12.828  0.00  0.00     0.010 A 
ENDBRANCH   6   9
BRANCH   6  15
ATOM     15  C13 ZIN A   1      18.671  -1.445  10.228  0.00  0.00    -0.016 A 
ATOM     16  C18 ZIN A   1      19.792  -0.639  10.188  0.00  0.00     0.010 A 
ATOM     17  C17 ZIN A   1      20.002   0.201   9.110  0.00  0.00     0.001 A 
ATOM     18  C16 ZIN A   1      19.085   0.242   8.077  0.00  0.00     0.000 A 
ATOM     19  C15 ZIN A   1      17.960  -0.561   8.119  0.00  0.00     0.001 A 
ATOM     20  C14 ZIN A   1      17.753  -1.404   9.194  0.00  0.00     0.010 A 
ENDBRANCH   6  15
TORSDOF 2
ENDMDL
