MODEL 1
REMARK VINA RESULT:      -3.5      0.000      0.000
REMARK  4 active torsions:
REMARK  status: ('A' for Active; 'I' for Inactive)
REMARK    1  A    between atoms: N1_1  and  C2_2 
REMARK    2  A    between atoms: C2_2  and  C4_3 
REMARK    3  A    between atoms: C2_2  and  C6_5 
REMARK    4  A    between atoms: C4_3  and  O5_4 
ROOT
ATOM      1  C2  <0> d   1      20.171   0.387  12.253  0.00  0.00     0.340 C 
ENDROOT
BRANCH   1   2
ATOM      2  N1  <0> d   1      21.617   0.635  12.168  0.00  0.00     0.095 N 
ATOM      3  H9  <0> d   1      22.061   0.493  13.063  0.00  0.00     0.314 HD
ATOM      4  H10 <0> d   1      22.041   0.058  11.459  0.00  0.00     0.314 HD
ENDBRANCH   1   2
BRANCH   1   5
ATOM      5  C4  <0> d   1      19.789  -0.737  11.287  0.00  0.00     0.210 C 
BRANCH   5   6
ATOM      6  O5  <0> d   1      20.883  -1.647  11.158  0.00  0.00    -0.398 OA
ATOM      7  H13 <0> d   1      20.968  -2.038  10.278  0.00  0.00     0.209 HD
ENDBRANCH   5   6
ENDBRANCH   1   5
BRANCH   1   8
ATOM      8  C6  <0> d   1      19.812  -0.017  13.660  0.00  0.00     0.209 C 
ATOM      9  O7  <0> d   1      19.662  -1.195  13.937  0.00  0.00    -0.646 OA
ATOM     10  O8  <0> d   1      19.673   0.834  14.522  0.00  0.00    -0.646 OA
ENDBRANCH   1   8
TORSDOF 4
ENDMDL
MODEL 2
REMARK VINA RESULT:      -3.4      2.843      3.502
REMARK  4 active torsions:
REMARK  status: ('A' for Active; 'I' for Inactive)
REMARK    1  A    between atoms: N1_1  and  C2_2 
REMARK    2  A    between atoms: C2_2  and  C4_3 
REMARK    3  A    between atoms: C2_2  and  C6_5 
REMARK    4  A    between atoms: C4_3  and  O5_4 
ROOT
ATOM      1  C2  <0> d   1      19.762   0.233  10.758  0.00  0.00     0.340 C 
ENDROOT
BRANCH   1   2
ATOM      2  N1  <0> d   1      20.787  -0.333   9.870  0.00  0.00     0.095 N 
ATOM      3  H9  <0> d   1      21.702   0.025  10.101  0.00  0.00     0.314 HD
ATOM      4  H10 <0> d   1      20.774  -1.341   9.901  0.00  0.00     0.314 HD
ENDBRANCH   1   2
BRANCH   1   5
ATOM      5  C4  <0> d   1      20.317   0.331  12.180  0.00  0.00     0.210 C 
BRANCH   5   6
ATOM      6  O5  <0> d   1      21.709   0.650  12.128  0.00  0.00    -0.398 OA
ATOM      7  H13 <0> d   1      21.897   1.598  12.139  0.00  0.00     0.209 HD
ENDBRANCH   5   6
ENDBRANCH   1   5
BRANCH   1   8
ATOM      8  C6  <0> d   1      19.379   1.607  10.271  0.00  0.00     0.209 C 
ATOM      9  O7  <0> d   1      19.644   2.588  10.946  0.00  0.00    -0.646 OA
ATOM     10  O8  <0> d   1      18.807   1.738   9.204  0.00  0.00    -0.646 OA
ENDBRANCH   1   8
TORSDOF 4
ENDMDL
MODEL 3
REMARK VINA RESULT:      -3.4      6.559      7.510
REMARK  4 active torsions:
REMARK  status: ('A' for Active; 'I' for Inactive)
REMARK    1  A    between atoms: N1_1  and  C2_2 
REMARK    2  A    between atoms: C2_2  and  C4_3 
REMARK    3  A    between atoms: C2_2  and  C6_5 
REMARK    4  A    between atoms: C4_3  and  O5_4 
ROOT
ATOM      1  C2  <0> d   1      18.079  -1.450   5.490  0.00  0.00     0.340 C 
ENDROOT
BRANCH   1   2
ATOM      2  N1  <0> d   1      17.211  -0.709   6.415  0.00  0.00     0.095 N 
ATOM      3  H9  <0> d   1      16.438  -0.285   5.924  0.00  0.00     0.314 HD
ATOM      4  H10 <0> d   1      16.883  -1.306   7.158  0.00  0.00     0.314 HD
ENDBRANCH   1   2
BRANCH   1   5
ATOM      5  C4  <0> d   1      18.663  -0.485   4.456  0.00  0.00     0.210 C 
BRANCH   5   6
ATOM      6  O5  <0> d   1      20.079  -0.398   4.630  0.00  0.00    -0.398 OA
ATOM      7  H13 <0> d   1      20.371  -0.529   5.543  0.00  0.00     0.209 HD
ENDBRANCH   5   6
ENDBRANCH   1   5
BRANCH   1   8
ATOM      8  C6  <0> d   1      19.200  -2.097   6.263  0.00  0.00     0.209 C 
ATOM      9  O7  <0> d   1      19.474  -1.703   7.384  0.00  0.00    -0.646 OA
ATOM     10  O8  <0> d   1      19.831  -3.014   5.768  0.00  0.00    -0.646 OA
ENDBRANCH   1   8
TORSDOF 4
ENDMDL
MODEL 4
REMARK VINA RESULT:      -3.4      2.383      3.688
REMARK  4 active torsions:
REMARK  status: ('A' for Active; 'I' for Inactive)
REMARK    1  A    between atoms: N1_1  and  C2_2 
REMARK    2  A    between atoms: C2_2  and  C4_3 
REMARK    3  A    between atoms: C2_2  and  C6_5 
REMARK    4  A    between atoms: C4_3  and  O5_4 
ROOT
ATOM      1  C2  <0> d   1      20.168  -0.375  10.855  0.00  0.00     0.340 C 
ENDROOT
BRANCH   1   2
ATOM      2  N1  <0> d   1      21.614  -0.626  10.933  0.00  0.00     0.095 N 
ATOM      3  H9  <0> d   1      21.892  -0.841  11.878  0.00  0.00     0.314 HD
ATOM      4  H10 <0> d   1      21.887  -1.361  10.299  0.00  0.00     0.314 HD
ENDBRANCH   1   2
BRANCH   1   5
ATOM      5  C4  <0> d   1      19.798   0.769  11.801  0.00  0.00     0.210 C 
BRANCH   5   6
ATOM      6  O5  <0> d   1      20.894   1.681  11.899  0.00  0.00    -0.398 OA
ATOM      7  H13 <0> d   1      21.174   2.052  11.052  0.00  0.00     0.209 HD
ENDBRANCH   5   6
ENDBRANCH   1   5
BRANCH   1   8
ATOM      8  C6  <0> d   1      19.799   0.001   9.443  0.00  0.00     0.209 C 
ATOM      9  O7  <0> d   1      19.743  -0.857   8.579  0.00  0.00    -0.646 OA
ATOM     10  O8  <0> d   1      19.555   1.162   9.165  0.00  0.00    -0.646 OA
ENDBRANCH   1   8
TORSDOF 4
ENDMDL
MODEL 5
REMARK VINA RESULT:      -3.4      2.128      3.151
REMARK  4 active torsions:
REMARK  status: ('A' for Active; 'I' for Inactive)
REMARK    1  A    between atoms: N1_1  and  C2_2 
REMARK    2  A    between atoms: C2_2  and  C4_3 
REMARK    3  A    between atoms: C2_2  and  C6_5 
REMARK    4  A    between atoms: C4_3  and  O5_4 
ROOT
ATOM      1  C2  <0> d   1      20.134   0.548  12.364  0.00  0.00     0.340 C 
ENDROOT
BRANCH   1   2
ATOM      2  N1  <0> d   1      21.579   0.618  12.106  0.00  0.00     0.095 N 
ATOM      3  H9  <0> d   1      22.079  -0.055  12.668  0.00  0.00     0.314 HD
ATOM      4  H10 <0> d   1      21.778   0.488  11.126  0.00  0.00     0.314 HD
ENDBRANCH   1   2
BRANCH   1   5
ATOM      5  C4  <0> d   1      19.893   0.348  13.861  0.00  0.00     0.210 C 
BRANCH   5   6
ATOM      6  O5  <0> d   1      19.685   1.617  14.485  0.00  0.00    -0.398 OA
ATOM      7  H13 <0> d   1      19.917   2.371  13.927  0.00  0.00     0.209 HD
ENDBRANCH   5   6
ENDBRANCH   1   5
BRANCH   1   8
ATOM      8  C6  <0> d   1      19.482   1.831  11.917  0.00  0.00     0.209 C 
ATOM      9  O7  <0> d   1      20.167   2.811  11.676  0.00  0.00    -0.646 OA
ATOM     10  O8  <0> d   1      18.271   1.889  11.795  0.00  0.00    -0.646 OA
ENDBRANCH   1   8
TORSDOF 4
ENDMDL
MODEL 6
REMARK VINA RESULT:      -3.4      7.544      8.006
REMARK  4 active torsions:
REMARK  status: ('A' for Active; 'I' for Inactive)
REMARK    1  A    between atoms: N1_1  and  C2_2 
REMARK    2  A    between atoms: C2_2  and  C4_3 
REMARK    3  A    between atoms: C2_2  and  C6_5 
REMARK    4  A    between atoms: C4_3  and  O5_4 
ROOT
ATOM      1  C2  <0> d   1      18.519  -2.873   5.210  0.00  0.00     0.340 C 
ENDROOT
BRANCH   1   2
ATOM      2  N1  <0> d   1      18.552  -3.181   3.774  0.00  0.00     0.095 N 
ATOM      3  H9  <0> d   1      17.967  -2.543   3.255  0.00  0.00     0.314 HD
ATOM      4  H10 <0> d   1      19.498  -3.170   3.424  0.00  0.00     0.314 HD
ENDBRANCH   1   2
BRANCH   1   5
ATOM      5  C4  <0> d   1      19.223  -3.988   5.986  0.00  0.00     0.210 C 
BRANCH   5   6
ATOM      6  O5  <0> d   1      20.432  -3.483   6.556  0.00  0.00    -0.398 OA
ATOM      7  H13 <0> d   1      21.233  -3.765   6.093  0.00  0.00     0.209 HD
ENDBRANCH   5   6
ENDBRANCH   1   5
BRANCH   1   8
ATOM      8  C6  <0> d   1      19.223  -1.565   5.460  0.00  0.00     0.209 C 
ATOM      9  O7  <0> d   1      19.045  -0.967   6.509  0.00  0.00    -0.646 OA
ATOM     10  O8  <0> d   1      19.971  -1.104   4.616  0.00  0.00    -0.646 OA
ENDBRANCH   1   8
TORSDOF 4
ENDMDL
MODEL 7
REMARK VINA RESULT:      -3.4      5.140      5.514
REMARK  4 active torsions:
REMARK  status: ('A' for Active; 'I' for Inactive)
REMARK    1  A    between atoms: N1_1  and  C2_2 
REMARK    2  A    between atoms: C2_2  and  C4_3 
REMARK    3  A    between atoms: C2_2  and  C6_5 
REMARK    4  A    between atoms: C4_3  and  O5_4 
ROOT
ATOM      1  C2  <0> d   1      19.098   1.706  16.551  0.00  0.00     0.340 C 
ENDROOT
BRANCH   1   2
ATOM      2  N1  <0> d   1      17.775   1.224  16.131  0.00  0.00     0.095 N 
ATOM      3  H9  <0> d   1      17.638   0.262  16.403  0.00  0.00     0.314 HD
ATOM      4  H10 <0> d   1      17.043   1.812  16.498  0.00  0.00     0.314 HD
ENDBRANCH   1   2
BRANCH   1   5
ATOM      5  C4  <0> d   1      19.106   3.236  16.553  0.00  0.00     0.210 C 
BRANCH   5   6
ATOM      6  O5  <0> d   1      20.455   3.706  16.497  0.00  0.00    -0.398 OA
ATOM      7  H13 <0> d   1      20.696   4.110  15.653  0.00  0.00     0.209 HD
ENDBRANCH   5   6
ENDBRANCH   1   5
BRANCH   1   8
ATOM      8  C6  <0> d   1      19.399   1.200  17.939  0.00  0.00     0.209 C 
ATOM      9  O7  <0> d   1      19.328   0.007  18.181  0.00  0.00    -0.646 OA
ATOM     10  O8  <0> d   1      19.714   1.983  18.818  0.00  0.00    -0.646 OA
ENDBRANCH   1   8
TORSDOF 4
ENDMDL
MODEL 8
REMARK VINA RESULT:      -3.4      2.608      2.890
REMARK  4 active torsions:
REMARK  status: ('A' for Active; 'I' for Inactive)
REMARK    1  A    between atoms: N1_1  and  C2_2 
REMARK    2  A    between atoms: C2_2  and  C4_3 
REMARK    3  A    between atoms: C2_2  and  C6_5 
REMARK    4  A    between atoms: C4_3  and  O5_4 
ROOT
ATOM      1  C2  <0> d   1      20.142  -0.530  10.666  0.00  0.00     0.340 C 
ENDROOT
BRANCH   1   2
ATOM      2  N1  <0> d   1      21.576  -0.590  10.982  0.00  0.00     0.095 N 
ATOM      3  H9  <0> d   1      21.725  -0.610  11.980  0.00  0.00     0.314 HD
ATOM      4  H10 <0> d   1      22.011  -1.381  10.535  0.00  0.00     0.314 HD
ENDBRANCH   1   2
BRANCH   1   5
ATOM      5  C4  <0> d   1      19.960  -0.356   9.157  0.00  0.00     0.210 C 
BRANCH   5   6
ATOM      6  O5  <0> d   1      19.762  -1.634   8.550  0.00  0.00    -0.398 OA
ATOM      7  H13 <0> d   1      19.801  -2.374   9.171  0.00  0.00     0.209 HD
ENDBRANCH   5   6
ENDBRANCH   1   5
BRANCH   1   8
ATOM      8  C6  <0> d   1      19.476  -1.807  11.109  0.00  0.00     0.209 C 
ATOM      9  O7  <0> d   1      20.152  -2.789  11.367  0.00  0.00    -0.646 OA
ATOM     10  O8  <0> d   1      18.263  -1.859  11.210  0.00  0.00    -0.646 OA
ENDBRANCH   1   8
TORSDOF 4
ENDMDL
MODEL 9
REMARK VINA RESULT:      -3.3      2.498      2.899
REMARK  4 active torsions:
REMARK  status: ('A' for Active; 'I' for Inactive)
REMARK    1  A    between atoms: N1_1  and  C2_2 
REMARK    2  A    between atoms: C2_2  and  C4_3 
REMARK    3  A    between atoms: C2_2  and  C6_5 
REMARK    4  A    between atoms: C4_3  and  O5_4 
ROOT
ATOM      1  C2  <0> d   1      19.548   0.967  10.995  0.00  0.00     0.340 C 
ENDROOT
BRANCH   1   2
ATOM      2  N1  <0> d   1      19.849   1.341   9.607  0.00  0.00     0.095 N 
ATOM      3  H9  <0> d   1      20.815   1.152   9.383  0.00  0.00     0.314 HD
ATOM      4  H10 <0> d   1      19.230   0.871   8.964  0.00  0.00     0.314 HD
ENDBRANCH   1   2
BRANCH   1   5
ATOM      5  C4  <0> d   1      20.578  -0.054  11.483  0.00  0.00     0.210 C 
BRANCH   5   6
ATOM      6  O5  <0> d   1      21.595   0.615  12.233  0.00  0.00    -0.398 OA
ATOM      7  H13 <0> d   1      22.453   0.170  12.216  0.00  0.00     0.209 HD
ENDBRANCH   5   6
ENDBRANCH   1   5
BRANCH   1   8
ATOM      8  C6  <0> d   1      19.604   2.194  11.869  0.00  0.00     0.209 C 
ATOM      9  O7  <0> d   1      20.098   3.224  11.443  0.00  0.00    -0.646 OA
ATOM     10  O8  <0> d   1      19.154   2.157  13.001  0.00  0.00    -0.646 OA
ENDBRANCH   1   8
TORSDOF 4
ENDMDL
