MODEL 1
REMARK VINA RESULT:      -7.8      0.000      0.000
REMARK  6 active torsions:
REMARK  status: ('A' for Active; 'I' for Inactive)
REMARK    1  A    between atoms: C2_2  and  C4_4 
REMARK    2  A    between atoms: C6_6  and  N7_7 
REMARK    3  A    between atoms: N7_7  and  N8_8 
REMARK    4  A    between atoms: N8_8  and  C9_9 
REMARK    5  A    between atoms: C12_12  and  O13_13 
REMARK    6  A    between atoms: C14_14  and  C15_15 
ROOT
ATOM      1  N8  <0> d   1      18.054  -0.107  10.068  0.00  0.00    -0.278 N 
ATOM      2  H24 <0> d   1      18.300  -0.923  10.530  0.00  0.00     0.189 HD
ENDROOT
BRANCH   1   3
ATOM      3  N7  <0> d   1      17.381  -0.165   8.968  0.00  0.00    -0.175 NA
BRANCH   3   4
ATOM      4  C6  <0> d   1      17.999  -0.458   7.824  0.00  0.00     0.078 A 
ATOM      5  C5  <0> d   1      18.393  -1.784   7.566  0.00  0.00     0.056 A 
ATOM      6  C4  <0> d   1      19.035  -2.089   6.374  0.00  0.00     0.092 A 
ATOM      7  C21 <0> d   1      19.296  -1.014   5.410  0.00  0.00     0.189 A 
ATOM      8  C20 <0> d   1      18.876   0.300   5.711  0.00  0.00     0.058 A 
ATOM      9  O22 <0> d   1      19.860  -1.255   4.354  0.00  0.00    -0.287 OA
ATOM     10  C19 <0> d   1      18.252   0.567   6.881  0.00  0.00     0.037 A 
BRANCH   6  11
ATOM     11  C2  <0> d   1      19.455  -3.467   6.085  0.00  0.00     0.213 C 
ATOM     12  O1  <0> d   1      20.528  -3.880   6.505  0.00  0.00    -0.644 OA
ATOM     13  O3  <0> d   1      18.730  -4.202   5.429  0.00  0.00    -0.644 OA
ENDBRANCH   6  11
ENDBRANCH   3   4
ENDBRANCH   1   3
BRANCH   1  14
ATOM     14  C9  <0> d   1      18.428   1.129  10.591  0.00  0.00     0.051 A 
ATOM     15  C18 <0> d   1      17.639   2.245  10.360  0.00  0.00     0.052 A 
ATOM     16  C14 <0> d   1      18.013   3.482  10.892  0.00  0.00     0.076 A 
ATOM     17  C12 <0> d   1      19.192   3.585  11.647  0.00  0.00     0.082 A 
ATOM     18  C11 <0> d   1      19.975   2.461  11.864  0.00  0.00     0.040 A 
ATOM     19  C10 <0> d   1      19.597   1.241  11.342  0.00  0.00     0.034 A 
BRANCH  16  20
ATOM     20  C15 <0> d   1      17.178   4.671  10.657  0.00  0.00     0.212 C 
ATOM     21  O16 <0> d   1      16.129   4.813  11.271  0.00  0.00    -0.644 OA
ATOM     22  O17 <0> d   1      17.532   5.517   9.848  0.00  0.00    -0.644 OA
ENDBRANCH  16  20
BRANCH  17  23
ATOM     23  O13 <0> d   1      19.566   4.783  12.162  0.00  0.00    -0.360 OA
ATOM     24  H27 <0> d   1      20.401   5.119  11.810  0.00  0.00     0.217 HD
ENDBRANCH  17  23
ENDBRANCH   1  14
TORSDOF 6
ENDMDL
MODEL 2
REMARK VINA RESULT:      -7.7      0.296      7.751
REMARK  6 active torsions:
REMARK  status: ('A' for Active; 'I' for Inactive)
REMARK    1  A    between atoms: C2_2  and  C4_4 
REMARK    2  A    between atoms: C6_6  and  N7_7 
REMARK    3  A    between atoms: N7_7  and  N8_8 
REMARK    4  A    between atoms: N8_8  and  C9_9 
REMARK    5  A    between atoms: C12_12  and  O13_13 
REMARK    6  A    between atoms: C14_14  and  C15_15 
ROOT
ATOM      1  N8  <0> d   1      17.601   0.143   8.766  0.00  0.00    -0.278 N 
ATOM      2  H24 <0> d   1      16.686   0.457   8.807  0.00  0.00     0.189 HD
ENDROOT
BRANCH   1   3
ATOM      3  N7  <0> d   1      18.338   0.159   9.824  0.00  0.00    -0.175 NA
BRANCH   3   4
ATOM      4  C6  <0> d   1      18.594   1.313  10.441  0.00  0.00     0.078 A 
ATOM      5  C5  <0> d   1      17.723   2.404  10.263  0.00  0.00     0.056 A 
ATOM      6  C4  <0> d   1      17.989   3.605  10.905  0.00  0.00     0.092 A 
ATOM      7  C21 <0> d   1      19.182   3.710  11.753  0.00  0.00     0.189 A 
ATOM      8  C20 <0> d   1      20.022   2.586  11.905  0.00  0.00     0.058 A 
ATOM      9  O22 <0> d   1      19.439   4.756  12.330  0.00  0.00    -0.287 OA
ATOM     10  C19 <0> d   1      19.737   1.428  11.267  0.00  0.00     0.037 A 
BRANCH   6  11
ATOM     11  C2  <0> d   1      17.093   4.756  10.734  0.00  0.00     0.213 C 
ATOM     12  O1  <0> d   1      16.121   4.889  11.466  0.00  0.00    -0.644 OA
ATOM     13  O3  <0> d   1      17.321   5.584   9.862  0.00  0.00    -0.644 OA
ENDBRANCH   6  11
ENDBRANCH   3   4
ENDBRANCH   1   3
BRANCH   1  14
ATOM     14  C9  <0> d   1      18.123  -0.327   7.562  0.00  0.00     0.051 A 
ATOM     15  C18 <0> d   1      18.515  -1.652   7.447  0.00  0.00     0.052 A 
ATOM     16  C14 <0> d   1      19.030  -2.121   6.236  0.00  0.00     0.076 A 
ATOM     17  C12 <0> d   1      19.158  -1.243   5.149  0.00  0.00     0.082 A 
ATOM     18  C11 <0> d   1      18.767   0.082   5.280  0.00  0.00     0.040 A 
ATOM     19  C10 <0> d   1      18.253   0.538   6.476  0.00  0.00     0.034 A 
BRANCH  16  20
ATOM     20  C15 <0> d   1      19.443  -3.528   6.105  0.00  0.00     0.212 C 
ATOM     21  O16 <0> d   1      18.746  -4.314   5.478  0.00  0.00    -0.644 OA
ATOM     22  O17 <0> d   1      20.483  -3.912   6.623  0.00  0.00    -0.644 OA
ENDBRANCH  16  20
BRANCH  17  23
ATOM     23  O13 <0> d   1      19.663  -1.689   3.972  0.00  0.00    -0.360 OA
ATOM     24  H27 <0> d   1      20.316  -1.097   3.574  0.00  0.00     0.217 HD
ENDBRANCH  17  23
ENDBRANCH   1  14
TORSDOF 6
ENDMDL
MODEL 3
REMARK VINA RESULT:      -7.4      4.363      6.189
REMARK  6 active torsions:
REMARK  status: ('A' for Active; 'I' for Inactive)
REMARK    1  A    between atoms: C2_2  and  C4_4 
REMARK    2  A    between atoms: C6_6  and  N7_7 
REMARK    3  A    between atoms: N7_7  and  N8_8 
REMARK    4  A    between atoms: N8_8  and  C9_9 
REMARK    5  A    between atoms: C12_12  and  O13_13 
REMARK    6  A    between atoms: C14_14  and  C15_15 
ROOT
ATOM      1  N8  <0> d   1      18.456  -1.243  14.707  0.00  0.00    -0.278 N 
ATOM      2  H24 <0> d   1      17.687  -1.830  14.743  0.00  0.00     0.189 HD
ENDROOT
BRANCH   1   3
ATOM      3  N7  <0> d   1      19.211  -1.231  13.660  0.00  0.00    -0.175 NA
BRANCH   3   4
ATOM      4  C6  <0> d   1      18.697  -0.913  12.472  0.00  0.00     0.078 A 
ATOM      5  C5  <0> d   1      18.604   0.439  12.093  0.00  0.00     0.056 A 
ATOM      6  C4  <0> d   1      18.069   0.768  10.856  0.00  0.00     0.092 A 
ATOM      7  C21 <0> d   1      17.605  -0.306   9.971  0.00  0.00     0.189 A 
ATOM      8  C20 <0> d   1      17.725  -1.648  10.393  0.00  0.00     0.058 A 
ATOM      9  O22 <0> d   1      17.131  -0.043   8.877  0.00  0.00    -0.287 OA
ATOM     10  C19 <0> d   1      18.251  -1.939  11.605  0.00  0.00     0.037 A 
BRANCH   6  11
ATOM     11  C2  <0> d   1      17.963   2.173  10.441  0.00  0.00     0.213 C 
ATOM     12  O1  <0> d   1      17.101   2.892  10.930  0.00  0.00    -0.644 OA
ATOM     13  O3  <0> d   1      18.738   2.626   9.610  0.00  0.00    -0.644 OA
ENDBRANCH   6  11
ENDBRANCH   3   4
ENDBRANCH   1   3
BRANCH   1  14
ATOM     14  C9  <0> d   1      18.749  -0.411  15.786  0.00  0.00     0.051 A 
ATOM     15  C18 <0> d   1      18.868   0.957  15.592  0.00  0.00     0.052 A 
ATOM     16  C14 <0> d   1      19.154   1.789  16.677  0.00  0.00     0.076 A 
ATOM     17  C12 <0> d   1      19.331   1.231  17.953  0.00  0.00     0.082 A 
ATOM     18  C11 <0> d   1      19.215  -0.140  18.130  0.00  0.00     0.040 A 
ATOM     19  C10 <0> d   1      18.926  -0.956  17.056  0.00  0.00     0.034 A 
BRANCH  16  20
ATOM     20  C15 <0> d   1      19.276   3.243  16.481  0.00  0.00     0.212 C 
ATOM     21  O16 <0> d   1      20.322   3.812  16.758  0.00  0.00    -0.644 OA
ATOM     22  O17 <0> d   1      18.330   3.882  16.042  0.00  0.00    -0.644 OA
ENDBRANCH  16  20
BRANCH  17  23
ATOM     23  O13 <0> d   1      19.615   2.032  19.010  0.00  0.00    -0.360 OA
ATOM     24  H27 <0> d   1      19.040   1.893  19.775  0.00  0.00     0.217 HD
ENDBRANCH  17  23
ENDBRANCH   1  14
TORSDOF 6
ENDMDL
MODEL 4
REMARK VINA RESULT:      -7.3      2.081      7.610
REMARK  6 active torsions:
REMARK  status: ('A' for Active; 'I' for Inactive)
REMARK    1  A    between atoms: C2_2  and  C4_4 
REMARK    2  A    between atoms: C6_6  and  N7_7 
REMARK    3  A    between atoms: N7_7  and  N8_8 
REMARK    4  A    between atoms: N8_8  and  C9_9 
REMARK    5  A    between atoms: C12_12  and  O13_13 
REMARK    6  A    between atoms: C14_14  and  C15_15 
ROOT
ATOM      1  N8  <0> d   1      19.305   2.196   9.216  0.00  0.00    -0.278 N 
ATOM      2  H24 <0> d   1      20.161   2.216   9.670  0.00  0.00     0.189 HD
ENDROOT
BRANCH   1   3
ATOM      3  N7  <0> d   1      18.528   3.225   9.255  0.00  0.00    -0.175 NA
BRANCH   3   4
ATOM      4  C6  <0> d   1      18.079   3.676  10.427  0.00  0.00     0.078 A 
ATOM      5  C5  <0> d   1      18.391   2.978  11.607  0.00  0.00     0.056 A 
ATOM      6  C4  <0> d   1      17.923   3.448  12.826  0.00  0.00     0.092 A 
ATOM      7  C21 <0> d   1      17.105   4.666  12.853  0.00  0.00     0.189 A 
ATOM      8  C20 <0> d   1      16.824   5.335  11.642  0.00  0.00     0.058 A 
ATOM      9  O22 <0> d   1      16.681   5.101  13.912  0.00  0.00    -0.287 OA
ATOM     10  C19 <0> d   1      17.293   4.853  10.469  0.00  0.00     0.037 A 
BRANCH   6  11
ATOM     11  C2  <0> d   1      18.237   2.734  14.070  0.00  0.00     0.213 C 
ATOM     12  O1  <0> d   1      17.696   1.664  14.314  0.00  0.00    -0.644 OA
ATOM     13  O3  <0> d   1      19.043   3.207  14.860  0.00  0.00    -0.644 OA
ENDBRANCH   6  11
ENDBRANCH   3   4
ENDBRANCH   1   3
BRANCH   1  14
ATOM     14  C9  <0> d   1      18.913   1.053   8.521  0.00  0.00     0.051 A 
ATOM     15  C18 <0> d   1      19.271   0.895   7.191  0.00  0.00     0.052 A 
ATOM     16  C14 <0> d   1      18.882  -0.255   6.500  0.00  0.00     0.076 A 
ATOM     17  C12 <0> d   1      18.121  -1.236   7.155  0.00  0.00     0.082 A 
ATOM     18  C11 <0> d   1      17.764  -1.060   8.484  0.00  0.00     0.040 A 
ATOM     19  C10 <0> d   1      18.156   0.074   9.164  0.00  0.00     0.034 A 
BRANCH  16  20
ATOM     20  C15 <0> d   1      19.265  -0.434   5.090  0.00  0.00     0.212 C 
ATOM     21  O16 <0> d   1      18.892   0.371   4.248  0.00  0.00    -0.644 OA
ATOM     22  O17 <0> d   1      19.955  -1.389   4.759  0.00  0.00    -0.644 OA
ENDBRANCH  16  20
BRANCH  17  23
ATOM     23  O13 <0> d   1      17.734  -2.352   6.489  0.00  0.00    -0.360 OA
ATOM     24  H27 <0> d   1      18.397  -2.693   5.872  0.00  0.00     0.217 HD
ENDBRANCH  17  23
ENDBRANCH   1  14
TORSDOF 6
ENDMDL
MODEL 5
REMARK VINA RESULT:      -7.3      1.497      2.414
REMARK  6 active torsions:
REMARK  status: ('A' for Active; 'I' for Inactive)
REMARK    1  A    between atoms: C2_2  and  C4_4 
REMARK    2  A    between atoms: C6_6  and  N7_7 
REMARK    3  A    between atoms: N7_7  and  N8_8 
REMARK    4  A    between atoms: N8_8  and  C9_9 
REMARK    5  A    between atoms: C12_12  and  O13_13 
REMARK    6  A    between atoms: C14_14  and  C15_15 
ROOT
ATOM      1  N8  <0> d   1      19.650   1.861   9.748  0.00  0.00    -0.278 N 
ATOM      2  H24 <0> d   1      20.566   2.028   9.482  0.00  0.00     0.189 HD
ENDROOT
BRANCH   1   3
ATOM      3  N7  <0> d   1      19.081   0.744   9.441  0.00  0.00    -0.175 NA
BRANCH   3   4
ATOM      4  C6  <0> d   1      19.126   0.297   8.185  0.00  0.00     0.078 A 
ATOM      5  C5  <0> d   1      19.199  -1.087   7.942  0.00  0.00     0.056 A 
ATOM      6  C4  <0> d   1      19.246  -1.551   6.635  0.00  0.00     0.092 A 
ATOM      7  C21 <0> d   1      19.223  -0.582   5.534  0.00  0.00     0.189 A 
ATOM      8  C20 <0> d   1      19.143   0.796   5.828  0.00  0.00     0.058 A 
ATOM      9  O22 <0> d   1      19.263  -0.965   4.375  0.00  0.00    -0.287 OA
ATOM     10  C19 <0> d   1      19.099   1.219   7.112  0.00  0.00     0.037 A 
BRANCH   6  11
ATOM     11  C2  <0> d   1      19.323  -2.992   6.359  0.00  0.00     0.213 C 
ATOM     12  O1  <0> d   1      20.411  -3.552   6.330  0.00  0.00    -0.644 OA
ATOM     13  O3  <0> d   1      18.299  -3.632   6.161  0.00  0.00    -0.644 OA
ENDBRANCH   6  11
ENDBRANCH   3   4
ENDBRANCH   1   3
BRANCH   1  14
ATOM     14  C9  <0> d   1      18.945   2.828  10.462  0.00  0.00     0.051 A 
ATOM     15  C18 <0> d   1      19.076   2.903  11.840  0.00  0.00     0.052 A 
ATOM     16  C14 <0> d   1      18.374   3.878  12.553  0.00  0.00     0.076 A 
ATOM     17  C12 <0> d   1      17.531   4.767  11.867  0.00  0.00     0.082 A 
ATOM     18  C11 <0> d   1      17.405   4.675  10.489  0.00  0.00     0.040 A 
ATOM     19  C10 <0> d   1      18.106   3.715   9.790  0.00  0.00     0.034 A 
BRANCH  16  20
ATOM     20  C15 <0> d   1      18.513   3.969  14.015  0.00  0.00     0.212 C 
ATOM     21  O16 <0> d   1      19.017   4.961  14.522  0.00  0.00    -0.644 OA
ATOM     22  O17 <0> d   1      18.124   3.051  14.725  0.00  0.00    -0.644 OA
ENDBRANCH  16  20
BRANCH  17  23
ATOM     23  O13 <0> d   1      16.841   5.712  12.552  0.00  0.00    -0.360 OA
ATOM     24  H27 <0> d   1      16.104   6.097  12.058  0.00  0.00     0.217 HD
ENDBRANCH  17  23
ENDBRANCH   1  14
TORSDOF 6
ENDMDL
MODEL 6
REMARK VINA RESULT:      -7.2      3.983      5.118
REMARK  6 active torsions:
REMARK  status: ('A' for Active; 'I' for Inactive)
REMARK    1  A    between atoms: C2_2  and  C4_4 
REMARK    2  A    between atoms: C6_6  and  N7_7 
REMARK    3  A    between atoms: N7_7  and  N8_8 
REMARK    4  A    between atoms: N8_8  and  C9_9 
REMARK    5  A    between atoms: C12_12  and  O13_13 
REMARK    6  A    between atoms: C14_14  and  C15_15 
ROOT
ATOM      1  N8  <0> d   1      17.688  -0.240  13.484  0.00  0.00    -0.278 N 
ATOM      2  H24 <0> d   1      17.773  -1.154  13.172  0.00  0.00     0.189 HD
ENDROOT
BRANCH   1   3
ATOM      3  N7  <0> d   1      17.113   0.645  12.741  0.00  0.00    -0.175 NA
BRANCH   3   4
ATOM      4  C6  <0> d   1      17.609   0.927  11.536  0.00  0.00     0.078 A 
ATOM      5  C5  <0> d   1      17.313   0.085  10.448  0.00  0.00     0.056 A 
ATOM      6  C4  <0> d   1      17.829   0.380   9.194  0.00  0.00     0.092 A 
ATOM      7  C21 <0> d   1      18.681   1.564   9.034  0.00  0.00     0.189 A 
ATOM      8  C20 <0> d   1      18.944   2.381  10.155  0.00  0.00     0.058 A 
ATOM      9  O22 <0> d   1      19.148   1.846   7.941  0.00  0.00    -0.287 OA
ATOM     10  C19 <0> d   1      18.427   2.069  11.365  0.00  0.00     0.037 A 
BRANCH   6  11
ATOM     11  C2  <0> d   1      17.533  -0.485   8.044  0.00  0.00     0.213 C 
ATOM     12  O1  <0> d   1      18.003  -1.614   7.991  0.00  0.00    -0.644 OA
ATOM     13  O3  <0> d   1      16.812  -0.079   7.143  0.00  0.00    -0.644 OA
ENDBRANCH   6  11
ENDBRANCH   3   4
ENDBRANCH   1   3
BRANCH   1  14
ATOM     14  C9  <0> d   1      18.187   0.118  14.734  0.00  0.00     0.051 A 
ATOM     15  C18 <0> d   1      18.421   1.452  15.030  0.00  0.00     0.052 A 
ATOM     16  C14 <0> d   1      18.915   1.808  16.287  0.00  0.00     0.076 A 
ATOM     17  C12 <0> d   1      19.181   0.810  17.237  0.00  0.00     0.082 A 
ATOM     18  C11 <0> d   1      18.948  -0.521  16.925  0.00  0.00     0.040 A 
ATOM     19  C10 <0> d   1      18.454  -0.867  15.684  0.00  0.00     0.034 A 
BRANCH  16  20
ATOM     20  C15 <0> d   1      19.161   3.223  16.611  0.00  0.00     0.212 C 
ATOM     21  O16 <0> d   1      18.231   4.017  16.629  0.00  0.00    -0.644 OA
ATOM     22  O17 <0> d   1      20.295   3.605  16.863  0.00  0.00    -0.644 OA
ENDBRANCH  16  20
BRANCH  17  23
ATOM     23  O13 <0> d   1      19.667   1.147  18.458  0.00  0.00    -0.360 OA
ATOM     24  H27 <0> d   1      19.069   1.697  18.982  0.00  0.00     0.217 HD
ENDBRANCH  17  23
ENDBRANCH   1  14
TORSDOF 6
ENDMDL
MODEL 7
REMARK VINA RESULT:      -7.2      1.765      7.798
REMARK  6 active torsions:
REMARK  status: ('A' for Active; 'I' for Inactive)
REMARK    1  A    between atoms: C2_2  and  C4_4 
REMARK    2  A    between atoms: C6_6  and  N7_7 
REMARK    3  A    between atoms: N7_7  and  N8_8 
REMARK    4  A    between atoms: N8_8  and  C9_9 
REMARK    5  A    between atoms: C12_12  and  O13_13 
REMARK    6  A    between atoms: C14_14  and  C15_15 
ROOT
ATOM      1  N8  <0> d   1      17.994   0.902   8.681  0.00  0.00    -0.278 N 
ATOM      2  H24 <0> d   1      18.223   1.834   8.815  0.00  0.00     0.189 HD
ENDROOT
BRANCH   1   3
ATOM      3  N7  <0> d   1      17.292   0.276   9.564  0.00  0.00    -0.175 NA
BRANCH   3   4
ATOM      4  C6  <0> d   1      17.445   0.557  10.859  0.00  0.00     0.078 A 
ATOM      5  C5  <0> d   1      17.744   1.874  11.254  0.00  0.00     0.056 A 
ATOM      6  C4  <0> d   1      17.902   2.166  12.601  0.00  0.00     0.092 A 
ATOM      7  C21 <0> d   1      17.760   1.087  13.585  0.00  0.00     0.189 A 
ATOM      8  C20 <0> d   1      17.454  -0.217  13.140  0.00  0.00     0.058 A 
ATOM      9  O22 <0> d   1      17.895   1.317  14.777  0.00  0.00    -0.287 OA
ATOM     10  C19 <0> d   1      17.305  -0.472  11.820  0.00  0.00     0.037 A 
BRANCH   6  11
ATOM     11  C2  <0> d   1      18.215   3.534  13.035  0.00  0.00     0.213 C 
ATOM     12  O1  <0> d   1      19.358   3.959  12.941  0.00  0.00    -0.644 OA
ATOM     13  O3  <0> d   1      17.331   4.249  13.488  0.00  0.00    -0.644 OA
ENDBRANCH   6  11
ENDBRANCH   3   4
ENDBRANCH   1   3
BRANCH   1  14
ATOM     14  C9  <0> d   1      18.424   0.237   7.535  0.00  0.00     0.051 A 
ATOM     15  C18 <0> d   1      18.619  -1.136   7.563  0.00  0.00     0.052 A 
ATOM     16  C14 <0> d   1      19.043  -1.800   6.409  0.00  0.00     0.076 A 
ATOM     17  C12 <0> d   1      19.280  -1.070   5.235  0.00  0.00     0.082 A 
ATOM     18  C11 <0> d   1      19.087   0.304   5.223  0.00  0.00     0.040 A 
ATOM     19  C10 <0> d   1      18.662   0.954   6.363  0.00  0.00     0.034 A 
BRANCH  16  20
ATOM     20  C15 <0> d   1      19.247  -3.258   6.429  0.00  0.00     0.212 C 
ATOM     21  O16 <0> d   1      18.283  -4.009   6.492  0.00  0.00    -0.644 OA
ATOM     22  O17 <0> d   1      20.379  -3.718   6.383  0.00  0.00    -0.644 OA
ENDBRANCH  16  20
BRANCH  17  23
ATOM     23  O13 <0> d   1      19.698  -1.707   4.112  0.00  0.00    -0.360 OA
ATOM     24  H27 <0> d   1      19.030  -2.279   3.712  0.00  0.00     0.217 HD
ENDBRANCH  17  23
ENDBRANCH   1  14
TORSDOF 6
ENDMDL
MODEL 8
REMARK VINA RESULT:      -7.1      4.467      7.149
REMARK  6 active torsions:
REMARK  status: ('A' for Active; 'I' for Inactive)
REMARK    1  A    between atoms: C2_2  and  C4_4 
REMARK    2  A    between atoms: C6_6  and  N7_7 
REMARK    3  A    between atoms: N7_7  and  N8_8 
REMARK    4  A    between atoms: N8_8  and  C9_9 
REMARK    5  A    between atoms: C12_12  and  O13_13 
REMARK    6  A    between atoms: C14_14  and  C15_15 
ROOT
ATOM      1  N8  <0> d   1      17.727  -0.029  13.386  0.00  0.00    -0.278 N 
ATOM      2  H24 <0> d   1      16.783  -0.160  13.214  0.00  0.00     0.189 HD
ENDROOT
BRANCH   1   3
ATOM      3  N7  <0> d   1      18.537   0.200  12.408  0.00  0.00    -0.175 NA
BRANCH   3   4
ATOM      4  C6  <0> d   1      18.402   1.306  11.676  0.00  0.00     0.078 A 
ATOM      5  C5  <0> d   1      17.766   2.433  12.229  0.00  0.00     0.056 A 
ATOM      6  C4  <0> d   1      17.626   3.584  11.467  0.00  0.00     0.092 A 
ATOM      7  C21 <0> d   1      18.142   3.596  10.093  0.00  0.00     0.189 A 
ATOM      8  C20 <0> d   1      18.778   2.443   9.585  0.00  0.00     0.058 A 
ATOM      9  O22 <0> d   1      18.032   4.596   9.401  0.00  0.00    -0.287 OA
ATOM     10  C19 <0> d   1      18.900   1.335  10.351  0.00  0.00     0.037 A 
BRANCH   6  11
ATOM     11  C2  <0> d   1      16.966   4.771  12.025  0.00  0.00     0.213 C 
ATOM     12  O1  <0> d   1      15.823   5.050  11.687  0.00  0.00    -0.644 OA
ATOM     13  O3  <0> d   1      17.556   5.478  12.830  0.00  0.00    -0.644 OA
ENDBRANCH   6  11
ENDBRANCH   3   4
ENDBRANCH   1   3
BRANCH   1  14
ATOM     14  C9  <0> d   1      18.211  -0.086  14.691  0.00  0.00     0.051 A 
ATOM     15  C18 <0> d   1      18.381   1.082  15.419  0.00  0.00     0.052 A 
ATOM     16  C14 <0> d   1      18.860   1.020  16.730  0.00  0.00     0.076 A 
ATOM     17  C12 <0> d   1      19.176  -0.225  17.296  0.00  0.00     0.082 A 
ATOM     18  C11 <0> d   1      19.007  -1.385  16.553  0.00  0.00     0.040 A 
ATOM     19  C10 <0> d   1      18.528  -1.318  15.262  0.00  0.00     0.034 A 
BRANCH  16  20
ATOM     20  C15 <0> d   1      19.038   2.255  17.511  0.00  0.00     0.212 C 
ATOM     21  O16 <0> d   1      19.909   3.055  17.201  0.00  0.00    -0.644 OA
ATOM     22  O17 <0> d   1      18.314   2.481  18.471  0.00  0.00    -0.644 OA
ENDBRANCH  16  20
BRANCH  17  23
ATOM     23  O13 <0> d   1      19.647  -0.294  18.566  0.00  0.00    -0.360 OA
ATOM     24  H27 <0> d   1      20.471   0.193  18.707  0.00  0.00     0.217 HD
ENDBRANCH  17  23
ENDBRANCH   1  14
TORSDOF 6
ENDMDL
MODEL 9
REMARK VINA RESULT:      -7.1      2.878      4.122
REMARK  6 active torsions:
REMARK  status: ('A' for Active; 'I' for Inactive)
REMARK    1  A    between atoms: C2_2  and  C4_4 
REMARK    2  A    between atoms: C6_6  and  N7_7 
REMARK    3  A    between atoms: N7_7  and  N8_8 
REMARK    4  A    between atoms: N8_8  and  C9_9 
REMARK    5  A    between atoms: C12_12  and  O13_13 
REMARK    6  A    between atoms: C14_14  and  C15_15 
ROOT
ATOM      1  N8  <0> d   1      17.584  -1.367   7.301  0.00  0.00    -0.278 N 
ATOM      2  H24 <0> d   1      16.652  -1.629   7.254  0.00  0.00     0.189 HD
ENDROOT
BRANCH   1   3
ATOM      3  N7  <0> d   1      18.484  -2.072   6.705  0.00  0.00    -0.175 NA
BRANCH   3   4
ATOM      4  C6  <0> d   1      18.946  -3.185   7.278  0.00  0.00     0.078 A 
ATOM      5  C5  <0> d   1      18.457  -3.573   8.538  0.00  0.00     0.056 A 
ATOM      6  C4  <0> d   1      18.938  -4.730   9.133  0.00  0.00     0.092 A 
ATOM      7  C21 <0> d   1      19.955  -5.522   8.432  0.00  0.00     0.189 A 
ATOM      8  C20 <0> d   1      20.410  -5.095   7.166  0.00  0.00     0.058 A 
ATOM      9  O22 <0> d   1      20.395  -6.545   8.933  0.00  0.00    -0.287 OA
ATOM     10  C19 <0> d   1      19.923  -3.962   6.611  0.00  0.00     0.037 A 
BRANCH   6  11
ATOM     11  C2  <0> d   1      18.441  -5.154  10.449  0.00  0.00     0.213 C 
ATOM     12  O1  <0> d   1      18.967  -4.727  11.468  0.00  0.00    -0.644 OA
ATOM     13  O3  <0> d   1      17.498  -5.930  10.526  0.00  0.00    -0.644 OA
ENDBRANCH   6  11
ENDBRANCH   3   4
ENDBRANCH   1   3
BRANCH   1  14
ATOM     14  C9  <0> d   1      17.951  -0.228   8.015  0.00  0.00     0.051 A 
ATOM     15  C18 <0> d   1      17.405   0.011   9.267  0.00  0.00     0.052 A 
ATOM     16  C14 <0> d   1      17.781   1.151   9.982  0.00  0.00     0.076 A 
ATOM     17  C12 <0> d   1      18.700   2.051   9.421  0.00  0.00     0.082 A 
ATOM     18  C11 <0> d   1      19.233   1.802   8.165  0.00  0.00     0.040 A 
ATOM     19  C10 <0> d   1      18.863   0.672   7.466  0.00  0.00     0.034 A 
BRANCH  16  20
ATOM     20  C15 <0> d   1      17.211   1.408  11.315  0.00  0.00     0.212 C 
ATOM     21  O16 <0> d   1      16.731   0.489  11.963  0.00  0.00    -0.644 OA
ATOM     22  O17 <0> d   1      17.217   2.542  11.774  0.00  0.00    -0.644 OA
ENDBRANCH  16  20
BRANCH  17  23
ATOM     23  O13 <0> d   1      19.066   3.163  10.107  0.00  0.00    -0.360 OA
ATOM     24  H27 <0> d   1      18.660   3.978   9.780  0.00  0.00     0.217 HD
ENDBRANCH  17  23
ENDBRANCH   1  14
TORSDOF 6
ENDMDL
