MODEL 1
REMARK VINA RESULT:      -5.8      0.000      0.000
REMARK  3 active torsions:
REMARK  status: ('A' for Active; 'I' for Inactive)
REMARK    1  A    between atoms: C2_2  and  C3_3 
REMARK    2  A    between atoms: C3_3  and  C6_5 
REMARK    3  A    between atoms: C6_5  and  C7_6 
ROOT
ATOM      1  C6  <0> d   1      18.495   3.192  11.600  0.00  0.00     0.125 A 
ATOM      2  C9  <0> d   1      17.619   2.074  12.134  0.00  0.00     0.244 A 
ATOM      3  O10 <0> d   1      16.905   1.428  11.397  0.00  0.00    -0.272 OA
ATOM      4  N11 <0> d   1      17.664   1.826  13.460  0.00  0.00    -0.278 N 
ATOM      5  C12 <0> d   1      18.446   2.530  14.286  0.00  0.00     0.329 A 
ATOM      6  O13 <0> d   1      18.426   2.239  15.466  0.00  0.00    -0.247 OA
ATOM      7  N14 <0> d   1      19.251   3.530  13.909  0.00  0.00    -0.278 N 
ATOM      8  C15 <0> d   1      19.343   3.926  12.621  0.00  0.00     0.244 A 
ATOM      9  O16 <0> d   1      20.075   4.835  12.294  0.00  0.00    -0.272 OA
ATOM     10  H30 <0> d   1      17.112   1.116  13.824  0.00  0.00     0.173 HD
ATOM     11  H31 <0> d   1      19.783   3.985  14.580  0.00  0.00     0.173 HD
ENDROOT
BRANCH   1  12
ATOM     12  C3  <0> d   1      19.429   2.601  10.542  0.00  0.00     0.008 C 
ATOM     13  C5  <0> d   1      19.768   1.156  10.912  0.00  0.00     0.011 C 
BRANCH  12  14
ATOM     14  C2  <0> d   1      18.737   2.629   9.177  0.00  0.00     0.001 C 
ATOM     15  C1  <0> d   1      19.353   1.561   8.271  0.00  0.00     0.005 C 
ENDBRANCH  12  14
ENDBRANCH   1  12
BRANCH   1  16
ATOM     16  C7  <0> d   1      17.588   4.214  10.911  0.00  0.00     0.025 C 
ATOM     17  C8  <0> d   1      16.716   4.910  11.959  0.00  0.00     0.007 C 
ENDBRANCH   1  16
TORSDOF 3
ENDMDL
MODEL 2
REMARK VINA RESULT:      -5.7      2.547      3.457
REMARK  3 active torsions:
REMARK  status: ('A' for Active; 'I' for Inactive)
REMARK    1  A    between atoms: C2_2  and  C3_3 
REMARK    2  A    between atoms: C3_3  and  C6_5 
REMARK    3  A    between atoms: C6_5  and  C7_6 
ROOT
ATOM      1  C6  <0> d   1      18.149   0.863  11.733  0.00  0.00     0.125 A 
ATOM      2  C9  <0> d   1      17.099  -0.232  11.747  0.00  0.00     0.244 A 
ATOM      3  O10 <0> d   1      15.923   0.023  11.590  0.00  0.00    -0.272 OA
ATOM      4  N11 <0> d   1      17.521  -1.500  11.938  0.00  0.00    -0.278 N 
ATOM      5  C12 <0> d   1      18.813  -1.797  12.112  0.00  0.00     0.329 A 
ATOM      6  O13 <0> d   1      19.105  -2.964  12.277  0.00  0.00    -0.247 OA
ATOM      7  N14 <0> d   1      19.809  -0.902  12.115  0.00  0.00    -0.278 N 
ATOM      8  C15 <0> d   1      19.584   0.417  11.938  0.00  0.00     0.244 A 
ATOM      9  O16 <0> d   1      20.496   1.216  11.945  0.00  0.00    -0.272 OA
ATOM     10  H30 <0> d   1      16.867  -2.215  11.951  0.00  0.00     0.173 HD
ATOM     11  H31 <0> d   1      20.719  -1.211  12.249  0.00  0.00     0.173 HD
ENDROOT
BRANCH   1  12
ATOM     12  C3  <0> d   1      18.064   1.589  10.388  0.00  0.00     0.008 C 
ATOM     13  C5  <0> d   1      18.538   3.033  10.557  0.00  0.00     0.011 C 
BRANCH  12  14
ATOM     14  C2  <0> d   1      18.952   0.875   9.367  0.00  0.00     0.001 C 
ATOM     15  C1  <0> d   1      19.239   1.817   8.196  0.00  0.00     0.005 C 
ENDBRANCH  12  14
ENDBRANCH   1  12
BRANCH   1  16
ATOM     16  C7  <0> d   1      17.800   1.866  12.834  0.00  0.00     0.025 C 
ATOM     17  C8  <0> d   1      17.839   1.165  14.194  0.00  0.00     0.007 C 
ENDBRANCH   1  16
TORSDOF 3
ENDMDL
MODEL 3
REMARK VINA RESULT:      -5.6      3.169      4.697
REMARK  3 active torsions:
REMARK  status: ('A' for Active; 'I' for Inactive)
REMARK    1  A    between atoms: C2_2  and  C3_3 
REMARK    2  A    between atoms: C3_3  and  C6_5 
REMARK    3  A    between atoms: C6_5  and  C7_6 
ROOT
ATOM      1  C6  <0> d   1      18.268   0.168  10.269  0.00  0.00     0.125 A 
ATOM      2  C9  <0> d   1      19.560  -0.597  10.050  0.00  0.00     0.244 A 
ATOM      3  O10 <0> d   1      20.461  -0.133   9.384  0.00  0.00    -0.272 OA
ATOM      4  N11 <0> d   1      19.669  -1.814  10.625  0.00  0.00    -0.278 N 
ATOM      5  C12 <0> d   1      18.685  -2.339  11.363  0.00  0.00     0.329 A 
ATOM      6  O13 <0> d   1      18.868  -3.440  11.843  0.00  0.00    -0.247 OA
ATOM      7  N14 <0> d   1      17.514  -1.741  11.611  0.00  0.00    -0.278 N 
ATOM      8  C15 <0> d   1      17.218  -0.518  11.122  0.00  0.00     0.244 A 
ATOM      9  O16 <0> d   1      16.153   0.011  11.354  0.00  0.00    -0.272 OA
ATOM     10  H30 <0> d   1      20.486  -2.321  10.498  0.00  0.00     0.173 HD
ATOM     11  H31 <0> d   1      16.857  -2.201  12.159  0.00  0.00     0.173 HD
ENDROOT
BRANCH   1  12
ATOM     12  C3  <0> d   1      18.613   1.507  10.925  0.00  0.00     0.008 C 
ATOM     13  C5  <0> d   1      19.868   1.345  11.783  0.00  0.00     0.011 C 
BRANCH  12  14
ATOM     14  C2  <0> d   1      18.868   2.556   9.840  0.00  0.00     0.001 C 
ATOM     15  C1  <0> d   1      18.107   3.838  10.183  0.00  0.00     0.005 C 
ENDBRANCH  12  14
ENDBRANCH   1  12
BRANCH   1  16
ATOM     16  C7  <0> d   1      17.653   0.458   8.898  0.00  0.00     0.025 C 
ATOM     17  C8  <0> d   1      17.468  -0.855   8.134  0.00  0.00     0.007 C 
ENDBRANCH   1  16
TORSDOF 3
ENDMDL
MODEL 4
REMARK VINA RESULT:      -5.6      2.656      4.100
REMARK  3 active torsions:
REMARK  status: ('A' for Active; 'I' for Inactive)
REMARK    1  A    between atoms: C2_2  and  C3_3 
REMARK    2  A    between atoms: C3_3  and  C6_5 
REMARK    3  A    between atoms: C6_5  and  C7_6 
ROOT
ATOM      1  C6  <0> d   1      18.154  -0.146  10.363  0.00  0.00     0.125 A 
ATOM      2  C9  <0> d   1      19.653  -0.105  10.601  0.00  0.00     0.244 A 
ATOM      3  O10 <0> d   1      20.438  -0.345   9.708  0.00  0.00    -0.272 OA
ATOM      4  N11 <0> d   1      20.079   0.208  11.842  0.00  0.00    -0.278 N 
ATOM      5  C12 <0> d   1      19.226   0.476  12.837  0.00  0.00     0.329 A 
ATOM      6  O13 <0> d   1      19.696   0.749  13.924  0.00  0.00    -0.247 OA
ATOM      7  N14 <0> d   1      17.893   0.465  12.724  0.00  0.00    -0.278 N 
ATOM      8  C15 <0> d   1      17.277   0.174  11.558  0.00  0.00     0.244 A 
ATOM      9  O16 <0> d   1      16.068   0.166  11.470  0.00  0.00    -0.272 OA
ATOM     10  H30 <0> d   1      21.032   0.240  12.017  0.00  0.00     0.173 HD
ATOM     11  H31 <0> d   1      17.352   0.672  13.503  0.00  0.00     0.173 HD
ENDROOT
BRANCH   1  12
ATOM     12  C3  <0> d   1      17.822   0.849   9.248  0.00  0.00     0.008 C 
ATOM     13  C5  <0> d   1      18.747   2.062   9.355  0.00  0.00     0.011 C 
BRANCH  12  14
ATOM     14  C2  <0> d   1      18.018   0.175   7.889  0.00  0.00     0.001 C 
ATOM     15  C1  <0> d   1      18.814   1.105   6.970  0.00  0.00     0.005 C 
ENDBRANCH  12  14
ENDBRANCH   1  12
BRANCH   1  16
ATOM     16  C7  <0> d   1      17.793  -1.548   9.869  0.00  0.00     0.025 C 
ATOM     17  C8  <0> d   1      18.032  -2.562  10.989  0.00  0.00     0.007 C 
ENDBRANCH   1  16
TORSDOF 3
ENDMDL
MODEL 5
REMARK VINA RESULT:      -5.6      2.910      4.975
REMARK  3 active torsions:
REMARK  status: ('A' for Active; 'I' for Inactive)
REMARK    1  A    between atoms: C2_2  and  C3_3 
REMARK    2  A    between atoms: C3_3  and  C6_5 
REMARK    3  A    between atoms: C6_5  and  C7_6 
ROOT
ATOM      1  C6  <0> d   1      18.221   0.360  12.412  0.00  0.00     0.125 A 
ATOM      2  C9  <0> d   1      19.711   0.426  12.135  0.00  0.00     0.244 A 
ATOM      3  O10 <0> d   1      20.512   0.574  13.035  0.00  0.00    -0.272 OA
ATOM      4  N11 <0> d   1      20.113   0.315  10.851  0.00  0.00    -0.278 N 
ATOM      5  C12 <0> d   1      19.243   0.152   9.849  0.00  0.00     0.329 A 
ATOM      6  O13 <0> d   1      19.692   0.060   8.723  0.00  0.00    -0.247 OA
ATOM      7  N14 <0> d   1      17.915   0.082   9.994  0.00  0.00    -0.278 N 
ATOM      8  C15 <0> d   1      17.323   0.172  11.204  0.00  0.00     0.244 A 
ATOM      9  O16 <0> d   1      16.118   0.108  11.320  0.00  0.00    -0.272 OA
ATOM     10  H30 <0> d   1      21.061   0.355  10.651  0.00  0.00     0.173 HD
ATOM     11  H31 <0> d   1      17.361  -0.038   9.206  0.00  0.00     0.173 HD
ENDROOT
BRANCH   1  12
ATOM     12  C3  <0> d   1      17.967  -0.800  13.378  0.00  0.00     0.008 C 
ATOM     13  C5  <0> d   1      18.988  -1.909  13.122  0.00  0.00     0.011 C 
BRANCH  12  14
ATOM     14  C2  <0> d   1      18.105  -0.302  14.818  0.00  0.00     0.001 C 
ATOM     15  C1  <0> d   1      18.843  -1.352  15.652  0.00  0.00     0.005 C 
ENDBRANCH  12  14
ENDBRANCH   1  12
BRANCH   1  16
ATOM     16  C7  <0> d   1      17.813   1.657  13.112  0.00  0.00     0.025 C 
ATOM     17  C8  <0> d   1      17.971   2.832  12.144  0.00  0.00     0.007 C 
ENDBRANCH   1  16
TORSDOF 3
ENDMDL
MODEL 6
REMARK VINA RESULT:      -5.4      3.256      5.011
REMARK  3 active torsions:
REMARK  status: ('A' for Active; 'I' for Inactive)
REMARK    1  A    between atoms: C2_2  and  C3_3 
REMARK    2  A    between atoms: C3_3  and  C6_5 
REMARK    3  A    between atoms: C6_5  and  C7_6 
ROOT
ATOM      1  C6  <0> d   1      18.563  -0.520  11.448  0.00  0.00     0.125 A 
ATOM      2  C9  <0> d   1      19.893  -0.127  10.832  0.00  0.00     0.244 A 
ATOM      3  O10 <0> d   1      20.914  -0.722  11.108  0.00  0.00    -0.272 OA
ATOM      4  N11 <0> d   1      19.898   0.907   9.965  0.00  0.00    -0.278 N 
ATOM      5  C12 <0> d   1      18.781   1.572   9.649  0.00  0.00     0.329 A 
ATOM      6  O13 <0> d   1      18.877   2.490   8.859  0.00  0.00    -0.247 OA
ATOM      7  N14 <0> d   1      17.566   1.300  10.139  0.00  0.00    -0.278 N 
ATOM      8  C15 <0> d   1      17.359   0.299  11.021  0.00  0.00     0.244 A 
ATOM      9  O16 <0> d   1      16.253   0.065  11.458  0.00  0.00    -0.272 OA
ATOM     10  H30 <0> d   1      20.737   1.175   9.559  0.00  0.00     0.173 HD
ATOM     11  H31 <0> d   1      16.811   1.838   9.852  0.00  0.00     0.173 HD
ENDROOT
BRANCH   1  12
ATOM     12  C3  <0> d   1      18.290  -1.985  11.098  0.00  0.00     0.008 C 
ATOM     13  C5  <0> d   1      18.826  -2.283   9.697  0.00  0.00     0.011 C 
BRANCH  12  14
ATOM     14  C2  <0> d   1      18.989  -2.890  12.115  0.00  0.00     0.001 C 
ATOM     15  C1  <0> d   1      19.698  -4.029  11.381  0.00  0.00     0.005 C 
ENDBRANCH  12  14
ENDBRANCH   1  12
BRANCH   1  16
ATOM     16  C7  <0> d   1      18.697  -0.413  12.968  0.00  0.00     0.025 C 
ATOM     17  C8  <0> d   1      19.022   1.032  13.352  0.00  0.00     0.007 C 
ENDBRANCH   1  16
TORSDOF 3
ENDMDL
MODEL 7
REMARK VINA RESULT:      -5.3      4.655      6.700
REMARK  3 active torsions:
REMARK  status: ('A' for Active; 'I' for Inactive)
REMARK    1  A    between atoms: C2_2  and  C3_3 
REMARK    2  A    between atoms: C3_3  and  C6_5 
REMARK    3  A    between atoms: C6_5  and  C7_6 
ROOT
ATOM      1  C6  <0> d   1      18.547  -2.532  11.687  0.00  0.00     0.125 A 
ATOM      2  C9  <0> d   1      17.631  -1.548  10.984  0.00  0.00     0.244 A 
ATOM      3  O10 <0> d   1      16.770  -0.946  11.591  0.00  0.00    -0.272 OA
ATOM      4  N11 <0> d   1      17.809  -1.367   9.658  0.00  0.00    -0.278 N 
ATOM      5  C12 <0> d   1      18.753  -2.022   8.975  0.00  0.00     0.329 A 
ATOM      6  O13 <0> d   1      18.845  -1.798   7.784  0.00  0.00    -0.247 OA
ATOM      7  N14 <0> d   1      19.606  -2.906   9.506  0.00  0.00    -0.278 N 
ATOM      8  C15 <0> d   1      19.583  -3.220  10.819  0.00  0.00     0.244 A 
ATOM      9  O16 <0> d   1      20.361  -4.024  11.287  0.00  0.00    -0.272 OA
ATOM     10  H30 <0> d   1      17.234  -0.743   9.188  0.00  0.00     0.173 HD
ATOM     11  H31 <0> d   1      20.260  -3.334   8.931  0.00  0.00     0.173 HD
ENDROOT
BRANCH   1  12
ATOM     12  C3  <0> d   1      19.281  -1.786  12.803  0.00  0.00     0.008 C 
ATOM     13  C5  <0> d   1      19.788  -0.444  12.271  0.00  0.00     0.011 C 
BRANCH  12  14
ATOM     14  C2  <0> d   1      18.321  -1.542  13.970  0.00  0.00     0.001 C 
ATOM     15  C1  <0> d   1      19.125  -1.232  15.234  0.00  0.00     0.005 C 
ENDBRANCH  12  14
ENDBRANCH   1  12
BRANCH   1  16
ATOM     16  C7  <0> d   1      17.675  -3.610  12.333  0.00  0.00     0.025 C 
ATOM     17  C8  <0> d   1      16.964  -4.414  11.242  0.00  0.00     0.007 C 
ENDBRANCH   1  16
TORSDOF 3
ENDMDL
MODEL 8
REMARK VINA RESULT:      -5.3      2.716      4.720
REMARK  3 active torsions:
REMARK  status: ('A' for Active; 'I' for Inactive)
REMARK    1  A    between atoms: C2_2  and  C3_3 
REMARK    2  A    between atoms: C3_3  and  C6_5 
REMARK    3  A    between atoms: C6_5  and  C7_6 
ROOT
ATOM      1  C6  <0> d   1      18.803   0.092  12.190  0.00  0.00     0.125 A 
ATOM      2  C9  <0> d   1      17.471   0.523  11.604  0.00  0.00     0.244 A 
ATOM      3  O10 <0> d   1      16.441  -0.046  11.899  0.00  0.00    -0.272 OA
ATOM      4  N11 <0> d   1      17.475   1.563  10.744  0.00  0.00    -0.278 N 
ATOM      5  C12 <0> d   1      18.602   2.201  10.409  0.00  0.00     0.329 A 
ATOM      6  O13 <0> d   1      18.514   3.127   9.628  0.00  0.00    -0.247 OA
ATOM      7  N14 <0> d   1      19.819   1.894  10.872  0.00  0.00    -0.278 N 
ATOM      8  C15 <0> d   1      20.018   0.883  11.744  0.00  0.00     0.244 A 
ATOM      9  O16 <0> d   1      21.127   0.615  12.154  0.00  0.00    -0.272 OA
ATOM     10  H30 <0> d   1      16.635   1.856  10.358  0.00  0.00     0.173 HD
ATOM     11  H31 <0> d   1      20.582   2.414  10.572  0.00  0.00     0.173 HD
ENDROOT
BRANCH   1  12
ATOM     12  C3  <0> d   1      18.707   0.186  13.714  0.00  0.00     0.008 C 
ATOM     13  C5  <0> d   1      17.752   1.318  14.095  0.00  0.00     0.011 C 
BRANCH  12  14
ATOM     14  C2  <0> d   1      18.179  -1.137  14.274  0.00  0.00     0.001 C 
ATOM     15  C1  <0> d   1      18.575  -1.260  15.747  0.00  0.00     0.005 C 
ENDBRANCH  12  14
ENDBRANCH   1  12
BRANCH   1  16
ATOM     16  C7  <0> d   1      19.028  -1.376  11.820  0.00  0.00     0.025 C 
ATOM     17  C8  <0> d   1      19.156  -1.506  10.300  0.00  0.00     0.007 C 
ENDBRANCH   1  16
TORSDOF 3
ENDMDL
MODEL 9
REMARK VINA RESULT:      -5.3      1.757      3.736
REMARK  3 active torsions:
REMARK  status: ('A' for Active; 'I' for Inactive)
REMARK    1  A    between atoms: C2_2  and  C3_3 
REMARK    2  A    between atoms: C3_3  and  C6_5 
REMARK    3  A    between atoms: C6_5  and  C7_6 
ROOT
ATOM      1  C6  <0> d   1      18.349   2.447  11.004  0.00  0.00     0.125 A 
ATOM      2  C9  <0> d   1      19.671   2.769  11.676  0.00  0.00     0.244 A 
ATOM      3  O10 <0> d   1      20.174   3.869  11.577  0.00  0.00    -0.272 OA
ATOM      4  N11 <0> d   1      20.265   1.788  12.388  0.00  0.00    -0.278 N 
ATOM      5  C12 <0> d   1      19.722   0.572  12.506  0.00  0.00     0.329 A 
ATOM      6  O13 <0> d   1      20.325  -0.252  13.166  0.00  0.00    -0.247 OA
ATOM      7  N14 <0> d   1      18.564   0.195  11.952  0.00  0.00    -0.278 N 
ATOM      8  C15 <0> d   1      17.823   1.038  11.202  0.00  0.00     0.244 A 
ATOM      9  O16 <0> d   1      16.776   0.682  10.705  0.00  0.00    -0.272 OA
ATOM     10  H30 <0> d   1      21.110   1.973  12.826  0.00  0.00     0.173 HD
ATOM     11  H31 <0> d   1      18.248  -0.712  12.092  0.00  0.00     0.173 HD
ENDROOT
BRANCH   1  12
ATOM     12  C3  <0> d   1      17.296   3.426  11.527  0.00  0.00     0.008 C 
ATOM     13  C5  <0> d   1      17.732   3.961  12.892  0.00  0.00     0.011 C 
BRANCH  12  14
ATOM     14  C2  <0> d   1      17.151   4.591  10.546  0.00  0.00     0.001 C 
ATOM     15  C1  <0> d   1      17.062   5.905  11.324  0.00  0.00     0.005 C 
ENDBRANCH  12  14
ENDBRANCH   1  12
BRANCH   1  16
ATOM     16  C7  <0> d   1      18.513   2.687   9.502  0.00  0.00     0.025 C 
ATOM     17  C8  <0> d   1      19.485   1.656   8.923  0.00  0.00     0.007 C 
ENDBRANCH   1  16
TORSDOF 3
ENDMDL
