MODEL 1
REMARK VINA RESULT:      -6.9      0.000      0.000
REMARK  6 active torsions:
REMARK  status: ('A' for Active; 'I' for Inactive)
REMARK    1  A    between atoms: O2_2  and  C3_3 
REMARK    2  A    between atoms: C6_6  and  C7_7 
REMARK    3  A    between atoms: C7_7  and  C9_8 
REMARK    4  A    between atoms: C7_7  and  C13_12 
REMARK    5  A    between atoms: C9_8  and  N10_9 
REMARK    6  A    between atoms: C13_12  and  O14_13 
ROOT
ATOM      1  C7  ZIN A   1      17.891   1.430  10.790  0.00  0.00     0.081 C 
ENDROOT
BRANCH   1   2
ATOM      2  C6  ZIN A   1      18.077   1.120   9.328  0.00  0.00    -0.049 A 
ATOM      3  C5  ZIN A   1      17.332   0.117   8.734  0.00  0.00     0.010 A 
ATOM      4  C4  ZIN A   1      17.500  -0.168   7.393  0.00  0.00     0.037 A 
ATOM      5  C3  ZIN A   1      18.416   0.552   6.642  0.00  0.00     0.068 A 
ATOM      6  C21 ZIN A   1      19.166   1.554   7.240  0.00  0.00     0.037 A 
ATOM      7  C20 ZIN A   1      18.991   1.839   8.580  0.00  0.00     0.010 A 
BRANCH   5   8
ATOM      8  O2  ZIN A   1      18.584   0.273   5.322  0.00  0.00    -0.356 OA
ATOM      9  C1  ZIN A   1      19.322  -0.907   4.997  0.00  0.00     0.210 C 
ENDBRANCH   5   8
ENDBRANCH   1   2
BRANCH   1  10
ATOM     10  C9  ZIN A   1      18.463   2.815  11.096  0.00  0.00     0.283 C 
BRANCH  10  11
ATOM     11  N10 ZIN A   1      17.364   3.776  11.254  0.00  0.00     0.080 N 
ATOM     12  C11 ZIN A   1      17.350   4.341  12.610  0.00  0.00     0.309 C 
ATOM     13  C12 ZIN A   1      17.441   4.837  10.241  0.00  0.00     0.309 C 
ENDBRANCH  10  11
ENDBRANCH   1  10
BRANCH   1  14
ATOM     14  C13 ZIN A   1      18.621   0.379  11.631  0.00  0.00     0.067 C 
ATOM     15  C19 ZIN A   1      17.638  -0.717  12.043  0.00  0.00     0.038 C 
ATOM     16  C18 ZIN A   1      18.368  -1.768  12.882  0.00  0.00     0.003 C 
ATOM     17  C17 ZIN A   1      18.949  -1.107  14.134  0.00  0.00     0.000 C 
ATOM     18  C16 ZIN A   1      19.932  -0.009  13.722  0.00  0.00     0.003 C 
ATOM     19  C15 ZIN A   1      19.202   1.040  12.882  0.00  0.00     0.038 C 
BRANCH  14  20
ATOM     20  O14 ZIN A   1      19.679  -0.195  10.861  0.00  0.00    -0.389 OA
ATOM     21  H35 ZIN A   1      20.563   0.083  11.137  0.00  0.00     0.210 HD
ENDBRANCH  14  20
ENDBRANCH   1  14
TORSDOF 6
ENDMDL
MODEL 2
REMARK VINA RESULT:      -6.8      1.625      3.829
REMARK  6 active torsions:
REMARK  status: ('A' for Active; 'I' for Inactive)
REMARK    1  A    between atoms: O2_2  and  C3_3 
REMARK    2  A    between atoms: C6_6  and  C7_7 
REMARK    3  A    between atoms: C7_7  and  C9_8 
REMARK    4  A    between atoms: C7_7  and  C13_12 
REMARK    5  A    between atoms: C9_8  and  N10_9 
REMARK    6  A    between atoms: C13_12  and  O14_13 
ROOT
ATOM      1  C7  ZIN A   1      19.212   1.414  10.764  0.00  0.00     0.081 C 
ENDROOT
BRANCH   1   2
ATOM      2  C6  ZIN A   1      18.781   1.028   9.373  0.00  0.00    -0.049 A 
ATOM      3  C5  ZIN A   1      17.666   0.230   9.193  0.00  0.00     0.010 A 
ATOM      4  C4  ZIN A   1      17.268  -0.124   7.918  0.00  0.00     0.037 A 
ATOM      5  C3  ZIN A   1      17.988   0.319   6.820  0.00  0.00     0.068 A 
ATOM      6  C21 ZIN A   1      19.109   1.114   7.003  0.00  0.00     0.037 A 
ATOM      7  C20 ZIN A   1      19.500   1.471   8.279  0.00  0.00     0.010 A 
BRANCH   5   8
ATOM      8  O2  ZIN A   1      17.598  -0.029   5.564  0.00  0.00    -0.356 OA
ATOM      9  C1  ZIN A   1      18.624  -0.140   4.575  0.00  0.00     0.210 C 
ENDBRANCH   5   8
ENDBRANCH   1   2
BRANCH   1  10
ATOM     10  C9  ZIN A   1      18.575   0.465  11.779  0.00  0.00     0.283 C 
BRANCH  10  11
ATOM     11  N10 ZIN A   1      19.622  -0.333  12.429  0.00  0.00     0.080 N 
ATOM     12  C11 ZIN A   1      20.022   0.266  13.709  0.00  0.00     0.309 C 
ATOM     13  C12 ZIN A   1      19.189  -1.725  12.612  0.00  0.00     0.309 C 
ENDBRANCH  10  11
ENDBRANCH   1  10
BRANCH   1  14
ATOM     14  C13 ZIN A   1      18.766   2.849  11.056  0.00  0.00     0.067 C 
ATOM     15  C19 ZIN A   1      17.684   2.836  12.137  0.00  0.00     0.038 C 
ATOM     16  C18 ZIN A   1      17.238   4.270  12.430  0.00  0.00     0.003 C 
ATOM     17  C17 ZIN A   1      16.676   4.900  11.153  0.00  0.00     0.000 C 
ATOM     18  C16 ZIN A   1      17.759   4.912  10.072  0.00  0.00     0.003 C 
ATOM     19  C15 ZIN A   1      18.204   3.479   9.780  0.00  0.00     0.038 C 
BRANCH  14  20
ATOM     20  O14 ZIN A   1      19.884   3.612  11.512  0.00  0.00    -0.389 OA
ATOM     21  H35 ZIN A   1      19.648   4.470  11.891  0.00  0.00     0.210 HD
ENDBRANCH  14  20
ENDBRANCH   1  14
TORSDOF 6
ENDMDL
MODEL 3
REMARK VINA RESULT:      -6.7      1.088      1.668
REMARK  6 active torsions:
REMARK  status: ('A' for Active; 'I' for Inactive)
REMARK    1  A    between atoms: O2_2  and  C3_3 
REMARK    2  A    between atoms: C6_6  and  C7_7 
REMARK    3  A    between atoms: C7_7  and  C9_8 
REMARK    4  A    between atoms: C7_7  and  C13_12 
REMARK    5  A    between atoms: C9_8  and  N10_9 
REMARK    6  A    between atoms: C13_12  and  O14_13 
ROOT
ATOM      1  C7  ZIN A   1      17.446   1.367  11.208  0.00  0.00     0.081 C 
ENDROOT
BRANCH   1   2
ATOM      2  C6  ZIN A   1      17.905   1.098   9.799  0.00  0.00    -0.049 A 
ATOM      3  C5  ZIN A   1      18.963   1.813   9.268  0.00  0.00     0.010 A 
ATOM      4  C4  ZIN A   1      19.385   1.566   7.976  0.00  0.00     0.037 A 
ATOM      5  C3  ZIN A   1      18.748   0.602   7.211  0.00  0.00     0.068 A 
ATOM      6  C21 ZIN A   1      17.683  -0.110   7.743  0.00  0.00     0.037 A 
ATOM      7  C20 ZIN A   1      17.267   0.136   9.038  0.00  0.00     0.010 A 
BRANCH   5   8
ATOM      8  O2  ZIN A   1      19.161   0.358   5.939  0.00  0.00    -0.356 OA
ATOM      9  C1  ZIN A   1      19.263  -1.011   5.543  0.00  0.00     0.210 C 
ENDBRANCH   5   8
ENDBRANCH   1   2
BRANCH   1  10
ATOM     10  C9  ZIN A   1      18.207   2.569  11.772  0.00  0.00     0.283 C 
BRANCH  10  11
ATOM     11  N10 ZIN A   1      17.273   3.680  11.994  0.00  0.00     0.080 N 
ATOM     12  C11 ZIN A   1      17.570   4.373  13.255  0.00  0.00     0.309 C 
ATOM     13  C12 ZIN A   1      17.288   4.616  10.862  0.00  0.00     0.309 C 
ENDBRANCH  10  11
ENDBRANCH   1  10
BRANCH   1  14
ATOM     14  C13 ZIN A   1      17.719   0.137  12.077  0.00  0.00     0.067 C 
ATOM     15  C19 ZIN A   1      17.743   0.548  13.550  0.00  0.00     0.038 C 
ATOM     16  C18 ZIN A   1      18.014  -0.682  14.419  0.00  0.00     0.003 C 
ATOM     17  C17 ZIN A   1      19.367  -1.288  14.036  0.00  0.00     0.000 C 
ATOM     18  C16 ZIN A   1      19.343  -1.698  12.562  0.00  0.00     0.003 C 
ATOM     19  C15 ZIN A   1      19.071  -0.468  11.695  0.00  0.00     0.038 C 
BRANCH  14  20
ATOM     20  O14 ZIN A   1      16.688  -0.830  11.870  0.00  0.00    -0.389 OA
ATOM     21  H35 ZIN A   1      16.261  -0.771  11.004  0.00  0.00     0.210 HD
ENDBRANCH  14  20
ENDBRANCH   1  14
TORSDOF 6
ENDMDL
MODEL 4
REMARK VINA RESULT:      -6.5      3.001      5.370
REMARK  6 active torsions:
REMARK  status: ('A' for Active; 'I' for Inactive)
REMARK    1  A    between atoms: O2_2  and  C3_3 
REMARK    2  A    between atoms: C6_6  and  C7_7 
REMARK    3  A    between atoms: C7_7  and  C9_8 
REMARK    4  A    between atoms: C7_7  and  C13_12 
REMARK    5  A    between atoms: C9_8  and  N10_9 
REMARK    6  A    between atoms: C13_12  and  O14_13 
ROOT
ATOM      1  C7  ZIN A   1      19.681  -0.974  12.858  0.00  0.00     0.081 C 
ENDROOT
BRANCH   1   2
ATOM      2  C6  ZIN A   1      19.199  -2.246  12.209  0.00  0.00    -0.049 A 
ATOM      3  C5  ZIN A   1      20.113  -3.189  11.775  0.00  0.00     0.010 A 
ATOM      4  C4  ZIN A   1      19.674  -4.356  11.181  0.00  0.00     0.037 A 
ATOM      5  C3  ZIN A   1      18.316  -4.581  11.019  0.00  0.00     0.068 A 
ATOM      6  C21 ZIN A   1      17.401  -3.631  11.449  0.00  0.00     0.037 A 
ATOM      7  C20 ZIN A   1      17.845  -2.468  12.048  0.00  0.00     0.010 A 
BRANCH   5   8
ATOM      8  O2  ZIN A   1      17.880  -5.729  10.434  0.00  0.00    -0.356 OA
ATOM      9  C1  ZIN A   1      18.503  -6.105   9.204  0.00  0.00     0.210 C 
ENDBRANCH   5   8
ENDBRANCH   1   2
BRANCH   1  10
ATOM     10  C9  ZIN A   1      18.592  -0.428  13.782  0.00  0.00     0.283 C 
BRANCH  10  11
ATOM     11  N10 ZIN A   1      19.060  -0.479  15.173  0.00  0.00     0.080 N 
ATOM     12  C11 ZIN A   1      18.986   0.848  15.802  0.00  0.00     0.309 C 
ATOM     13  C12 ZIN A   1      18.303  -1.471  15.949  0.00  0.00     0.309 C 
ENDBRANCH  10  11
ENDBRANCH   1  10
BRANCH   1  14
ATOM     14  C13 ZIN A   1      19.999   0.061  11.776  0.00  0.00     0.067 C 
ATOM     15  C19 ZIN A   1      19.445   1.423  12.196  0.00  0.00     0.038 C 
ATOM     16  C18 ZIN A   1      19.764   2.459  11.115  0.00  0.00     0.003 C 
ATOM     17  C17 ZIN A   1      19.121   2.031   9.794  0.00  0.00     0.000 C 
ATOM     18  C16 ZIN A   1      19.675   0.668   9.375  0.00  0.00     0.003 C 
ATOM     19  C15 ZIN A   1      19.357  -0.366  10.455  0.00  0.00     0.038 C 
BRANCH  14  20
ATOM     20  O14 ZIN A   1      21.415   0.155  11.609  0.00  0.00    -0.389 OA
ATOM     21  H35 ZIN A   1      21.731   1.048  11.416  0.00  0.00     0.210 HD
ENDBRANCH  14  20
ENDBRANCH   1  14
TORSDOF 6
ENDMDL
MODEL 5
REMARK VINA RESULT:      -6.4      2.857      6.904
REMARK  6 active torsions:
REMARK  status: ('A' for Active; 'I' for Inactive)
REMARK    1  A    between atoms: O2_2  and  C3_3 
REMARK    2  A    between atoms: C6_6  and  C7_7 
REMARK    3  A    between atoms: C7_7  and  C9_8 
REMARK    4  A    between atoms: C7_7  and  C13_12 
REMARK    5  A    between atoms: C9_8  and  N10_9 
REMARK    6  A    between atoms: C13_12  and  O14_13 
ROOT
ATOM      1  C7  ZIN A   1      18.657  -0.679  11.733  0.00  0.00     0.081 C 
ENDROOT
BRANCH   1   2
ATOM      2  C6  ZIN A   1      18.534  -0.584  13.232  0.00  0.00    -0.049 A 
ATOM      3  C5  ZIN A   1      19.378  -1.323  14.042  0.00  0.00     0.010 A 
ATOM      4  C4  ZIN A   1      19.268  -1.236  15.416  0.00  0.00     0.037 A 
ATOM      5  C3  ZIN A   1      18.312  -0.409  15.984  0.00  0.00     0.068 A 
ATOM      6  C21 ZIN A   1      17.462   0.326  15.170  0.00  0.00     0.037 A 
ATOM      7  C20 ZIN A   1      17.579   0.240  13.796  0.00  0.00     0.010 A 
BRANCH   5   8
ATOM      8  O2  ZIN A   1      18.201  -0.323  17.336  0.00  0.00    -0.356 OA
ATOM      9  C1  ZIN A   1      19.309   0.241  18.042  0.00  0.00     0.210 C 
ENDBRANCH   5   8
ENDBRANCH   1   2
BRANCH   1  10
ATOM     10  C9  ZIN A   1      19.732  -1.705  11.373  0.00  0.00     0.283 C 
BRANCH  10  11
ATOM     11  N10 ZIN A   1      19.094  -2.938  10.896  0.00  0.00     0.080 N 
ATOM     12  C11 ZIN A   1      18.905  -2.903   9.439  0.00  0.00     0.309 C 
ATOM     13  C12 ZIN A   1      19.865  -4.121  11.299  0.00  0.00     0.309 C 
ENDBRANCH  10  11
ENDBRANCH   1  10
BRANCH   1  14
ATOM     14  C13 ZIN A   1      19.044   0.688  11.166  0.00  0.00     0.067 C 
ATOM     15  C19 ZIN A   1      19.609   1.564  12.285  0.00  0.00     0.038 C 
ATOM     16  C18 ZIN A   1      19.997   2.930  11.718  0.00  0.00     0.003 C 
ATOM     17  C17 ZIN A   1      18.760   3.604  11.118  0.00  0.00     0.000 C 
ATOM     18  C16 ZIN A   1      18.195   2.727   9.998  0.00  0.00     0.003 C 
ATOM     19  C15 ZIN A   1      17.808   1.361  10.566  0.00  0.00     0.038 C 
BRANCH  14  20
ATOM     20  O14 ZIN A   1      20.034   0.519  10.149  0.00  0.00    -0.389 OA
ATOM     21  H35 ZIN A   1      20.383   1.349   9.797  0.00  0.00     0.210 HD
ENDBRANCH  14  20
ENDBRANCH   1  14
TORSDOF 6
ENDMDL
MODEL 6
REMARK VINA RESULT:      -6.2      2.985      4.262
REMARK  6 active torsions:
REMARK  status: ('A' for Active; 'I' for Inactive)
REMARK    1  A    between atoms: O2_2  and  C3_3 
REMARK    2  A    between atoms: C6_6  and  C7_7 
REMARK    3  A    between atoms: C7_7  and  C9_8 
REMARK    4  A    between atoms: C7_7  and  C13_12 
REMARK    5  A    between atoms: C9_8  and  N10_9 
REMARK    6  A    between atoms: C13_12  and  O14_13 
ROOT
ATOM      1  C7  ZIN A   1      18.593  -0.010  12.262  0.00  0.00     0.081 C 
ENDROOT
BRANCH   1   2
ATOM      2  C6  ZIN A   1      18.596  -1.445  11.805  0.00  0.00    -0.049 A 
ATOM      3  C5  ZIN A   1      19.795  -2.098  11.586  0.00  0.00     0.010 A 
ATOM      4  C4  ZIN A   1      19.800  -3.415  11.168  0.00  0.00     0.037 A 
ATOM      5  C3  ZIN A   1      18.602  -4.082  10.967  0.00  0.00     0.068 A 
ATOM      6  C21 ZIN A   1      17.399  -3.423  11.181  0.00  0.00     0.037 A 
ATOM      7  C20 ZIN A   1      17.399  -2.109  11.604  0.00  0.00     0.010 A 
BRANCH   5   8
ATOM      8  O2  ZIN A   1      18.604  -5.377  10.555  0.00  0.00    -0.356 OA
ATOM      9  C1  ZIN A   1      18.206  -5.629   9.205  0.00  0.00     0.210 C 
ENDBRANCH   5   8
ENDBRANCH   1   2
BRANCH   1  10
ATOM     10  C9  ZIN A   1      19.691   0.762  11.529  0.00  0.00     0.283 C 
BRANCH  10  11
ATOM     11  N10 ZIN A   1      19.150   2.035  11.035  0.00  0.00     0.080 N 
ATOM     12  C11 ZIN A   1      19.911   3.173  11.569  0.00  0.00     0.309 C 
ATOM     13  C12 ZIN A   1      19.122   2.062   9.567  0.00  0.00     0.309 C 
ENDBRANCH  10  11
ENDBRANCH   1  10
BRANCH   1  14
ATOM     14  C13 ZIN A   1      18.849   0.045  13.770  0.00  0.00     0.067 C 
ATOM     15  C19 ZIN A   1      18.729  -1.360  14.359  0.00  0.00     0.038 C 
ATOM     16  C18 ZIN A   1      18.986  -1.305  15.867  0.00  0.00     0.003 C 
ATOM     17  C17 ZIN A   1      17.956  -0.385  16.527  0.00  0.00     0.000 C 
ATOM     18  C16 ZIN A   1      18.076   1.021  15.936  0.00  0.00     0.003 C 
ATOM     19  C15 ZIN A   1      17.820   0.965  14.429  0.00  0.00     0.038 C 
BRANCH  14  20
ATOM     20  O14 ZIN A   1      20.163   0.552  14.011  0.00  0.00    -0.389 OA
ATOM     21  H35 ZIN A   1      20.248   1.051  14.834  0.00  0.00     0.210 HD
ENDBRANCH  14  20
ENDBRANCH   1  14
TORSDOF 6
ENDMDL
MODEL 7
REMARK VINA RESULT:      -6.2      2.343      5.942
REMARK  6 active torsions:
REMARK  status: ('A' for Active; 'I' for Inactive)
REMARK    1  A    between atoms: O2_2  and  C3_3 
REMARK    2  A    between atoms: C6_6  and  C7_7 
REMARK    3  A    between atoms: C7_7  and  C9_8 
REMARK    4  A    between atoms: C7_7  and  C13_12 
REMARK    5  A    between atoms: C9_8  and  N10_9 
REMARK    6  A    between atoms: C13_12  and  O14_13 
ROOT
ATOM      1  C7  ZIN A   1      18.608  -0.320  10.152  0.00  0.00     0.081 C 
ENDROOT
BRANCH   1   2
ATOM      2  C6  ZIN A   1      18.687   1.087  10.685  0.00  0.00    -0.049 A 
ATOM      3  C5  ZIN A   1      17.599   1.933  10.566  0.00  0.00     0.010 A 
ATOM      4  C4  ZIN A   1      17.670   3.223  11.055  0.00  0.00     0.037 A 
ATOM      5  C3  ZIN A   1      18.832   3.671  11.665  0.00  0.00     0.068 A 
ATOM      6  C21 ZIN A   1      19.924   2.822  11.777  0.00  0.00     0.037 A 
ATOM      7  C20 ZIN A   1      19.847   1.531  11.292  0.00  0.00     0.010 A 
BRANCH   5   8
ATOM      8  O2  ZIN A   1      18.904   4.940  12.146  0.00  0.00    -0.356 OA
ATOM      9  C1  ZIN A   1      18.837   5.100  13.565  0.00  0.00     0.210 C 
ENDBRANCH   5   8
ENDBRANCH   1   2
BRANCH   1  10
ATOM     10  C9  ZIN A   1      19.736  -1.158  10.755  0.00  0.00     0.283 C 
BRANCH  10  11
ATOM     11  N10 ZIN A   1      19.171  -2.137  11.694  0.00  0.00     0.080 N 
ATOM     12  C11 ZIN A   1      17.746  -2.366  11.421  0.00  0.00     0.309 C 
ATOM     13  C12 ZIN A   1      19.924  -3.397  11.658  0.00  0.00     0.309 C 
ENDBRANCH  10  11
ENDBRANCH   1  10
BRANCH   1  14
ATOM     14  C13 ZIN A   1      18.747  -0.296   8.628  0.00  0.00     0.067 C 
ATOM     15  C19 ZIN A   1      19.180   1.099   8.177  0.00  0.00     0.038 C 
ATOM     16  C18 ZIN A   1      19.320   1.122   6.654  0.00  0.00     0.003 C 
ATOM     17  C17 ZIN A   1      17.975   0.773   6.012  0.00  0.00     0.000 C 
ATOM     18  C16 ZIN A   1      17.542  -0.623   6.465  0.00  0.00     0.003 C 
ATOM     19  C15 ZIN A   1      17.402  -0.646   7.987  0.00  0.00     0.038 C 
BRANCH  14  20
ATOM     20  O14 ZIN A   1      19.729  -1.253   8.226  0.00  0.00    -0.389 OA
ATOM     21  H35 ZIN A   1      20.439  -0.884   7.682  0.00  0.00     0.210 HD
ENDBRANCH  14  20
ENDBRANCH   1  14
TORSDOF 6
ENDMDL
MODEL 8
REMARK VINA RESULT:      -6.1      2.328      4.866
REMARK  6 active torsions:
REMARK  status: ('A' for Active; 'I' for Inactive)
REMARK    1  A    between atoms: O2_2  and  C3_3 
REMARK    2  A    between atoms: C6_6  and  C7_7 
REMARK    3  A    between atoms: C7_7  and  C9_8 
REMARK    4  A    between atoms: C7_7  and  C13_12 
REMARK    5  A    between atoms: C9_8  and  N10_9 
REMARK    6  A    between atoms: C13_12  and  O14_13 
ROOT
ATOM      1  C7  ZIN A   1      19.628   0.432   9.776  0.00  0.00     0.081 C 
ENDROOT
BRANCH   1   2
ATOM      2  C6  ZIN A   1      19.186   1.685  10.487  0.00  0.00    -0.049 A 
ATOM      3  C5  ZIN A   1      20.101   2.427  11.213  0.00  0.00     0.010 A 
ATOM      4  C4  ZIN A   1      19.697   3.576  11.864  0.00  0.00     0.037 A 
ATOM      5  C3  ZIN A   1      18.375   3.986  11.790  0.00  0.00     0.068 A 
ATOM      6  C21 ZIN A   1      17.458   3.238  11.067  0.00  0.00     0.037 A 
ATOM      7  C20 ZIN A   1      17.867   2.092  10.412  0.00  0.00     0.010 A 
BRANCH   5   8
ATOM      8  O2  ZIN A   1      17.976   5.117  12.431  0.00  0.00    -0.356 OA
ATOM      9  C1  ZIN A   1      16.620   5.526  12.239  0.00  0.00     0.210 C 
ENDBRANCH   5   8
ENDBRANCH   1   2
BRANCH   1  10
ATOM     10  C9  ZIN A   1      18.570   0.028   8.748  0.00  0.00     0.283 C 
BRANCH  10  11
ATOM     11  N10 ZIN A   1      19.156   0.065   7.402  0.00  0.00     0.080 N 
ATOM     12  C11 ZIN A   1      18.674  -1.059   6.587  0.00  0.00     0.309 C 
ATOM     13  C12 ZIN A   1      18.881   1.349   6.742  0.00  0.00     0.309 C 
ENDBRANCH  10  11
ENDBRANCH   1  10
BRANCH   1  14
ATOM     14  C13 ZIN A   1      19.808  -0.695  10.794  0.00  0.00     0.067 C 
ATOM     15  C19 ZIN A   1      19.234  -1.994  10.225  0.00  0.00     0.038 C 
ATOM     16  C18 ZIN A   1      19.415  -3.121  11.243  0.00  0.00     0.003 C 
ATOM     17  C17 ZIN A   1      18.680  -2.763  12.537  0.00  0.00     0.000 C 
ATOM     18  C16 ZIN A   1      19.254  -1.464  13.106  0.00  0.00     0.003 C 
ATOM     19  C15 ZIN A   1      19.074  -0.337  12.088  0.00  0.00     0.038 C 
BRANCH  14  20
ATOM     20  O14 ZIN A   1      21.199  -0.871  11.070  0.00  0.00    -0.389 OA
ATOM     21  H35 ZIN A   1      21.618  -1.572  10.553  0.00  0.00     0.210 HD
ENDBRANCH  14  20
ENDBRANCH   1  14
TORSDOF 6
ENDMDL
MODEL 9
REMARK VINA RESULT:      -6.1      2.867      6.865
REMARK  6 active torsions:
REMARK  status: ('A' for Active; 'I' for Inactive)
REMARK    1  A    between atoms: O2_2  and  C3_3 
REMARK    2  A    between atoms: C6_6  and  C7_7 
REMARK    3  A    between atoms: C7_7  and  C9_8 
REMARK    4  A    between atoms: C7_7  and  C13_12 
REMARK    5  A    between atoms: C9_8  and  N10_9 
REMARK    6  A    between atoms: C13_12  and  O14_13 
ROOT
ATOM      1  C7  ZIN A   1      17.845  -1.233  11.593  0.00  0.00     0.081 C 
ENDROOT
BRANCH   1   2
ATOM      2  C6  ZIN A   1      18.160  -0.754  12.987  0.00  0.00    -0.049 A 
ATOM      3  C5  ZIN A   1      19.233  -1.289  13.675  0.00  0.00     0.010 A 
ATOM      4  C4  ZIN A   1      19.524  -0.850  14.952  0.00  0.00     0.037 A 
ATOM      5  C3  ZIN A   1      18.740   0.127  15.544  0.00  0.00     0.068 A 
ATOM      6  C21 ZIN A   1      17.660   0.659  14.854  0.00  0.00     0.037 A 
ATOM      7  C20 ZIN A   1      17.376   0.221  13.575  0.00  0.00     0.010 A 
BRANCH   5   8
ATOM      8  O2  ZIN A   1      19.024   0.560  16.801  0.00  0.00    -0.356 OA
ATOM      9  C1  ZIN A   1      19.149  -0.437  17.817  0.00  0.00     0.210 C 
ENDBRANCH   5   8
ENDBRANCH   1   2
BRANCH   1  10
ATOM     10  C9  ZIN A   1      18.882  -2.271  11.164  0.00  0.00     0.283 C 
BRANCH  10  11
ATOM     11  N10 ZIN A   1      18.361  -3.620  11.421  0.00  0.00     0.080 N 
ATOM     12  C11 ZIN A   1      17.309  -3.970  10.457  0.00  0.00     0.309 C 
ATOM     13  C12 ZIN A   1      19.441  -4.614  11.406  0.00  0.00     0.309 C 
ENDBRANCH  10  11
ENDBRANCH   1  10
BRANCH   1  14
ATOM     14  C13 ZIN A   1      17.879  -0.047  10.627  0.00  0.00     0.067 C 
ATOM     15  C19 ZIN A   1      17.920  -0.563   9.188  0.00  0.00     0.038 C 
ATOM     16  C18 ZIN A   1      17.953   0.623   8.221  0.00  0.00     0.003 C 
ATOM     17  C17 ZIN A   1      19.198   1.470   8.496  0.00  0.00     0.000 C 
ATOM     18  C16 ZIN A   1      19.156   1.986   9.936  0.00  0.00     0.003 C 
ATOM     19  C15 ZIN A   1      19.122   0.800  10.901  0.00  0.00     0.038 C 
BRANCH  14  20
ATOM     20  O14 ZIN A   1      16.708   0.752  10.812  0.00  0.00    -0.389 OA
ATOM     21  H35 ZIN A   1      16.368   1.147   9.998  0.00  0.00     0.210 HD
ENDBRANCH  14  20
ENDBRANCH   1  14
TORSDOF 6
ENDMDL
