MODEL 1
REMARK VINA RESULT:      -6.9      0.000      0.000
REMARK  2 active torsions:
REMARK  status: ('A' for Active; 'I' for Inactive)
REMARK    1  A    between atoms: C8_8  and  O9_9 
REMARK    2  A    between atoms: O9_9  and  C10_10 
ROOT
ATOM      1  O9  <0> d   1      19.334   1.819  10.452  0.00  0.00    -0.306 OA
ENDROOT
BRANCH   1   2
ATOM      2  C8  <0> d   1      18.592   2.771  11.078  0.00  0.00     0.112 A 
ATOM      3  C2  <0> d   1      18.506   2.786  12.468  0.00  0.00     0.142 A 
ATOM      4  O1  <0> d   1      19.168   1.852  13.201  0.00  0.00    -0.189 OA
ATOM      5  C3  <0> d   1      17.749   3.758  13.101  0.00  0.00     0.066 A 
ATOM      6  C4  <0> d   1      17.077   4.708  12.352  0.00  0.00     0.036 A 
ATOM      7 Cl5  <0> d   1      16.129   5.926  13.148  0.00  0.00    -0.084 Cl
ATOM      8  C6  <0> d   1      17.159   4.690  10.971  0.00  0.00     0.027 A 
ATOM      9  C7  <0> d   1      17.913   3.723  10.334  0.00  0.00     0.042 A 
ENDBRANCH   1   2
BRANCH   1  10
ATOM     10  C10 <0> d   1      18.841   1.275   9.308  0.00  0.00     0.098 A 
ATOM     11  C16 <0> d   1      17.797   0.361   9.365  0.00  0.00     0.069 A 
ATOM     12  C15 <0> d   1      17.293  -0.185   8.201  0.00  0.00     0.050 A 
ATOM     13 Cl17 <0> d   1      17.116  -0.082  10.899  0.00  0.00    -0.081 Cl
ATOM     14  C13 <0> d   1      17.836   0.170   6.978  0.00  0.00     0.035 A 
ATOM     15  C12 <0> d   1      18.880   1.075   6.919  0.00  0.00     0.026 A 
ATOM     16 Cl14 <0> d   1      17.206  -0.523   5.516  0.00  0.00    -0.084 Cl
ATOM     17  C11 <0> d   1      19.384   1.628   8.080  0.00  0.00     0.041 A 
ENDBRANCH   1  10
TORSDOF 2
ENDMDL
MODEL 2
REMARK VINA RESULT:      -6.9      2.920      4.043
REMARK  2 active torsions:
REMARK  status: ('A' for Active; 'I' for Inactive)
REMARK    1  A    between atoms: C8_8  and  O9_9 
REMARK    2  A    between atoms: O9_9  and  C10_10 
ROOT
ATOM      1  O9  <0> d   1      17.123   1.592  11.883  0.00  0.00    -0.306 OA
ENDROOT
BRANCH   1   2
ATOM      2  C8  <0> d   1      17.627   0.857  12.910  0.00  0.00     0.112 A 
ATOM      3  C2  <0> d   1      17.999   1.482  14.098  0.00  0.00     0.142 A 
ATOM      4  O1  <0> d   1      17.853   2.827  14.234  0.00  0.00    -0.189 OA
ATOM      5  C3  <0> d   1      18.512   0.729  15.141  0.00  0.00     0.066 A 
ATOM      6  C4  <0> d   1      18.659  -0.639  15.000  0.00  0.00     0.036 A 
ATOM      7 Cl5  <0> d   1      19.302  -1.581  16.310  0.00  0.00    -0.084 Cl
ATOM      8  C6  <0> d   1      18.294  -1.259  13.818  0.00  0.00     0.027 A 
ATOM      9  C7  <0> d   1      17.782  -0.514  12.774  0.00  0.00     0.042 A 
ENDBRANCH   1   2
BRANCH   1  10
ATOM     10  C10 <0> d   1      17.616   1.368  10.636  0.00  0.00     0.098 A 
ATOM     11  C16 <0> d   1      18.669   2.136  10.155  0.00  0.00     0.069 A 
ATOM     12  C15 <0> d   1      19.172   1.902   8.890  0.00  0.00     0.050 A 
ATOM     13 Cl17 <0> d   1      19.362   3.378  11.150  0.00  0.00    -0.081 Cl
ATOM     14  C13 <0> d   1      18.620   0.911   8.098  0.00  0.00     0.035 A 
ATOM     15  C12 <0> d   1      17.567   0.149   8.572  0.00  0.00     0.026 A 
ATOM     16 Cl14 <0> d   1      19.249   0.623   6.505  0.00  0.00    -0.084 Cl
ATOM     17  C11 <0> d   1      17.064   0.376   9.838  0.00  0.00     0.041 A 
ENDBRANCH   1  10
TORSDOF 2
ENDMDL
MODEL 3
REMARK VINA RESULT:      -6.8      1.114      5.632
REMARK  2 active torsions:
REMARK  status: ('A' for Active; 'I' for Inactive)
REMARK    1  A    between atoms: C8_8  and  O9_9 
REMARK    2  A    between atoms: O9_9  and  C10_10 
ROOT
ATOM      1  O9  <0> d   1      19.362   1.793  10.340  0.00  0.00    -0.306 OA
ENDROOT
BRANCH   1   2
ATOM      2  C8  <0> d   1      18.854   1.243   9.205  0.00  0.00     0.112 A 
ATOM      3  C2  <0> d   1      17.859   0.272   9.286  0.00  0.00     0.142 A 
ATOM      4  O1  <0> d   1      17.391  -0.123  10.500  0.00  0.00    -0.189 OA
ATOM      5  C3  <0> d   1      17.344  -0.286   8.127  0.00  0.00     0.066 A 
ATOM      6  C4  <0> d   1      17.822   0.118   6.894  0.00  0.00     0.036 A 
ATOM      7 Cl5  <0> d   1      17.176  -0.583   5.442  0.00  0.00    -0.084 Cl
ATOM      8  C6  <0> d   1      18.814   1.079   6.813  0.00  0.00     0.027 A 
ATOM      9  C7  <0> d   1      19.332   1.639   7.966  0.00  0.00     0.042 A 
ENDBRANCH   1   2
BRANCH   1  10
ATOM     10  C10 <0> d   1      18.621   2.736  10.979  0.00  0.00     0.098 A 
ATOM     11  C16 <0> d   1      18.490   2.699  12.361  0.00  0.00     0.069 A 
ATOM     12  C15 <0> d   1      17.741   3.662  13.010  0.00  0.00     0.050 A 
ATOM     13 Cl17 <0> d   1      19.280   1.451  13.275  0.00  0.00    -0.081 Cl
ATOM     14  C13 <0> d   1      17.113   4.657  12.282  0.00  0.00     0.035 A 
ATOM     15  C12 <0> d   1      17.236   4.692  10.904  0.00  0.00     0.026 A 
ATOM     16 Cl14 <0> d   1      16.166   5.862  13.098  0.00  0.00    -0.084 Cl
ATOM     17  C11 <0> d   1      17.989   3.734  10.252  0.00  0.00     0.041 A 
ENDBRANCH   1  10
TORSDOF 2
ENDMDL
MODEL 4
REMARK VINA RESULT:      -6.8      4.699      7.835
REMARK  2 active torsions:
REMARK  status: ('A' for Active; 'I' for Inactive)
REMARK    1  A    between atoms: C8_8  and  O9_9 
REMARK    2  A    between atoms: O9_9  and  C10_10 
ROOT
ATOM      1  O9  <0> d   1      19.586  -0.979  12.571  0.00  0.00    -0.306 OA
ENDROOT
BRANCH   1   2
ATOM      2  C8  <0> d   1      19.101  -2.154  12.087  0.00  0.00     0.112 A 
ATOM      3  C2  <0> d   1      17.747  -2.275  11.781  0.00  0.00     0.142 A 
ATOM      4  O1  <0> d   1      16.911  -1.218  11.961  0.00  0.00    -0.189 OA
ATOM      5  C3  <0> d   1      17.257  -3.473  11.288  0.00  0.00     0.066 A 
ATOM      6  C4  <0> d   1      18.110  -4.547  11.105  0.00  0.00     0.036 A 
ATOM      7 Cl5  <0> d   1      17.493  -6.048  10.488  0.00  0.00    -0.084 Cl
ATOM      8  C6  <0> d   1      19.453  -4.427  11.414  0.00  0.00     0.027 A 
ATOM      9  C7  <0> d   1      19.949  -3.235  11.906  0.00  0.00     0.042 A 
ENDBRANCH   1   2
BRANCH   1  10
ATOM     10  C10 <0> d   1      19.336  -0.673  13.872  0.00  0.00     0.098 A 
ATOM     11  C16 <0> d   1      19.074   0.640  14.239  0.00  0.00     0.069 A 
ATOM     12  C15 <0> d   1      18.814   0.949  15.561  0.00  0.00     0.050 A 
ATOM     13 Cl17 <0> d   1      19.060   1.892  13.036  0.00  0.00    -0.081 Cl
ATOM     14  C13 <0> d   1      18.824  -0.050  16.519  0.00  0.00     0.035 A 
ATOM     15  C12 <0> d   1      19.091  -1.358  16.157  0.00  0.00     0.026 A 
ATOM     16 Cl14 <0> d   1      18.504   0.340  18.181  0.00  0.00    -0.084 Cl
ATOM     17  C11 <0> d   1      19.347  -1.671  14.835  0.00  0.00     0.041 A 
ENDBRANCH   1  10
TORSDOF 2
ENDMDL
MODEL 5
REMARK VINA RESULT:      -6.8      4.228      5.032
REMARK  2 active torsions:
REMARK  status: ('A' for Active; 'I' for Inactive)
REMARK    1  A    between atoms: C8_8  and  O9_9 
REMARK    2  A    between atoms: O9_9  and  C10_10 
ROOT
ATOM      1  O9  <0> d   1      16.996  -2.610  11.449  0.00  0.00    -0.306 OA
ENDROOT
BRANCH   1   2
ATOM      2  C8  <0> d   1      17.569  -1.681  12.260  0.00  0.00     0.112 A 
ATOM      3  C2  <0> d   1      17.093  -0.372  12.264  0.00  0.00     0.142 A 
ATOM      4  O1  <0> d   1      16.051  -0.023  11.463  0.00  0.00    -0.189 OA
ATOM      5  C3  <0> d   1      17.680   0.572  13.092  0.00  0.00     0.066 A 
ATOM      6  C4  <0> d   1      18.739   0.214  13.906  0.00  0.00     0.036 A 
ATOM      7 Cl5  <0> d   1      19.473   1.399  14.942  0.00  0.00    -0.084 Cl
ATOM      8  C6  <0> d   1      19.215  -1.085  13.897  0.00  0.00     0.027 A 
ATOM      9  C7  <0> d   1      18.634  -2.031  13.075  0.00  0.00     0.042 A 
ENDBRANCH   1   2
BRANCH   1  10
ATOM     10  C10 <0> d   1      17.753  -3.142  10.453  0.00  0.00     0.098 A 
ATOM     11  C16 <0> d   1      18.103  -4.485  10.487  0.00  0.00     0.069 A 
ATOM     12  C15 <0> d   1      18.868  -5.025   9.470  0.00  0.00     0.050 A 
ATOM     13 Cl17 <0> d   1      17.568  -5.489  11.798  0.00  0.00    -0.081 Cl
ATOM     14  C13 <0> d   1      19.293  -4.225   8.424  0.00  0.00     0.035 A 
ATOM     15  C12 <0> d   1      18.951  -2.885   8.392  0.00  0.00     0.026 A 
ATOM     16 Cl14 <0> d   1      20.260  -4.903   7.151  0.00  0.00    -0.084 Cl
ATOM     17  C11 <0> d   1      18.183  -2.342   9.403  0.00  0.00     0.041 A 
ENDBRANCH   1  10
TORSDOF 2
ENDMDL
MODEL 6
REMARK VINA RESULT:      -6.8      2.703      5.790
REMARK  2 active torsions:
REMARK  status: ('A' for Active; 'I' for Inactive)
REMARK    1  A    between atoms: C8_8  and  O9_9 
REMARK    2  A    between atoms: O9_9  and  C10_10 
ROOT
ATOM      1  O9  <0> d   1      17.090   1.577  11.513  0.00  0.00    -0.306 OA
ENDROOT
BRANCH   1   2
ATOM      2  C8  <0> d   1      17.607   1.354  10.275  0.00  0.00     0.112 A 
ATOM      3  C2  <0> d   1      18.596   2.194   9.771  0.00  0.00     0.142 A 
ATOM      4  O1  <0> d   1      19.051   3.235  10.518  0.00  0.00    -0.189 OA
ATOM      5  C3  <0> d   1      19.119   1.963   8.509  0.00  0.00     0.066 A 
ATOM      6  C4  <0> d   1      18.655   0.902   7.752  0.00  0.00     0.036 A 
ATOM      7 Cl5  <0> d   1      19.312   0.614   6.170  0.00  0.00    -0.084 Cl
ATOM      8  C6  <0> d   1      17.668   0.071   8.251  0.00  0.00     0.027 A 
ATOM      9  C7  <0> d   1      17.142   0.296   9.509  0.00  0.00     0.042 A 
ENDBRANCH   1   2
BRANCH   1  10
ATOM     10  C10 <0> d   1      17.593   0.861  12.553  0.00  0.00     0.098 A 
ATOM     11  C16 <0> d   1      18.032   1.513  13.699  0.00  0.00     0.069 A 
ATOM     12  C15 <0> d   1      18.538   0.783  14.757  0.00  0.00     0.050 A 
ATOM     13 Cl17 <0> d   1      17.932   3.243  13.806  0.00  0.00    -0.081 Cl
ATOM     14  C13 <0> d   1      18.616  -0.596  14.672  0.00  0.00     0.035 A 
ATOM     15  C12 <0> d   1      18.185  -1.247  13.530  0.00  0.00     0.026 A 
ATOM     16 Cl14 <0> d   1      19.258  -1.512  16.000  0.00  0.00    -0.084 Cl
ATOM     17  C11 <0> d   1      17.674  -0.521  12.471  0.00  0.00     0.041 A 
ENDBRANCH   1  10
TORSDOF 2
ENDMDL
MODEL 7
REMARK VINA RESULT:      -6.7      2.676      3.590
REMARK  2 active torsions:
REMARK  status: ('A' for Active; 'I' for Inactive)
REMARK    1  A    between atoms: C8_8  and  O9_9 
REMARK    2  A    between atoms: O9_9  and  C10_10 
ROOT
ATOM      1  O9  <0> d   1      17.007  -0.131   8.890  0.00  0.00    -0.306 OA
ENDROOT
BRANCH   1   2
ATOM      2  C8  <0> d   1      17.620   0.806   9.662  0.00  0.00     0.112 A 
ATOM      3  C2  <0> d   1      17.239   0.974  10.991  0.00  0.00     0.142 A 
ATOM      4  O1  <0> d   1      16.256   0.197  11.520  0.00  0.00    -0.189 OA
ATOM      5  C3  <0> d   1      17.867   1.929  11.772  0.00  0.00     0.066 A 
ATOM      6  C4  <0> d   1      18.867   2.718  11.232  0.00  0.00     0.036 A 
ATOM      7 Cl5  <0> d   1      19.652   3.915  12.213  0.00  0.00    -0.084 Cl
ATOM      8  C6  <0> d   1      19.242   2.554   9.910  0.00  0.00     0.027 A 
ATOM      9  C7  <0> d   1      18.620   1.603   9.125  0.00  0.00     0.042 A 
ENDBRANCH   1   2
BRANCH   1  10
ATOM     10  C10 <0> d   1      17.750  -1.178   8.446  0.00  0.00     0.098 A 
ATOM     11  C16 <0> d   1      18.134  -1.243   7.113  0.00  0.00     0.069 A 
ATOM     12  C15 <0> d   1      18.895  -2.306   6.665  0.00  0.00     0.050 A 
ATOM     13 Cl17 <0> d   1      17.671   0.019   6.014  0.00  0.00    -0.081 Cl
ATOM     14  C13 <0> d   1      19.265  -3.310   7.541  0.00  0.00     0.035 A 
ATOM     15  C12 <0> d   1      18.879  -3.252   8.868  0.00  0.00     0.026 A 
ATOM     16 Cl14 <0> d   1      20.216  -4.649   6.975  0.00  0.00    -0.084 Cl
ATOM     17  C11 <0> d   1      18.122  -2.188   9.322  0.00  0.00     0.041 A 
ENDBRANCH   1  10
TORSDOF 2
ENDMDL
MODEL 8
REMARK VINA RESULT:      -6.5      3.158      6.161
REMARK  2 active torsions:
REMARK  status: ('A' for Active; 'I' for Inactive)
REMARK    1  A    between atoms: C8_8  and  O9_9 
REMARK    2  A    between atoms: O9_9  and  C10_10 
ROOT
ATOM      1  O9  <0> d   1      20.044   0.999  12.449  0.00  0.00    -0.306 OA
ENDROOT
BRANCH   1   2
ATOM      2  C8  <0> d   1      19.499   0.810  11.218  0.00  0.00     0.112 A 
ATOM      3  C2  <0> d   1      20.048  -0.130  10.349  0.00  0.00     0.142 A 
ATOM      4  O1  <0> d   1      21.127  -0.863  10.733  0.00  0.00    -0.189 OA
ATOM      5  C3  <0> d   1      19.490  -0.319   9.096  0.00  0.00     0.066 A 
ATOM      6  C4  <0> d   1      18.392   0.428   8.708  0.00  0.00     0.036 A 
ATOM      7 Cl5  <0> d   1      17.694   0.190   7.136  0.00  0.00    -0.084 Cl
ATOM      8  C6  <0> d   1      17.849   1.365   9.569  0.00  0.00     0.027 A 
ATOM      9  C7  <0> d   1      18.402   1.558  10.821  0.00  0.00     0.042 A 
ENDBRANCH   1   2
BRANCH   1  10
ATOM     10  C10 <0> d   1      19.350   0.553  13.530  0.00  0.00     0.098 A 
ATOM     11  C16 <0> d   1      18.749   1.459  14.393  0.00  0.00     0.069 A 
ATOM     12  C15 <0> d   1      18.039   1.003  15.488  0.00  0.00     0.050 A 
ATOM     13 Cl17 <0> d   1      18.877   3.164  14.089  0.00  0.00    -0.081 Cl
ATOM     14  C13 <0> d   1      17.935  -0.355  15.728  0.00  0.00     0.035 A 
ATOM     15  C12 <0> d   1      18.539  -1.260  14.873  0.00  0.00     0.026 A 
ATOM     16 Cl14 <0> d   1      17.049  -0.926  17.108  0.00  0.00    -0.084 Cl
ATOM     17  C11 <0> d   1      19.245  -0.809  13.775  0.00  0.00     0.041 A 
ENDBRANCH   1  10
TORSDOF 2
ENDMDL
MODEL 9
REMARK VINA RESULT:      -6.5      2.833      3.905
REMARK  2 active torsions:
REMARK  status: ('A' for Active; 'I' for Inactive)
REMARK    1  A    between atoms: C8_8  and  O9_9 
REMARK    2  A    between atoms: O9_9  and  C10_10 
ROOT
ATOM      1  O9  <0> d   1      19.791  -0.029  11.070  0.00  0.00    -0.306 OA
ENDROOT
BRANCH   1   2
ATOM      2  C8  <0> d   1      19.124   1.151  10.965  0.00  0.00     0.112 A 
ATOM      3  C2  <0> d   1      19.152   1.864   9.769  0.00  0.00     0.142 A 
ATOM      4  O1  <0> d   1      19.841   1.378   8.703  0.00  0.00    -0.189 OA
ATOM      5  C3  <0> d   1      18.471   3.066   9.668  0.00  0.00     0.066 A 
ATOM      6  C4  <0> d   1      17.770   3.558  10.754  0.00  0.00     0.036 A 
ATOM      7 Cl5  <0> d   1      16.917   5.065  10.625  0.00  0.00    -0.084 Cl
ATOM      8  C6  <0> d   1      17.746   2.852  11.943  0.00  0.00     0.027 A 
ATOM      9  C7  <0> d   1      18.424   1.652  12.051  0.00  0.00     0.042 A 
ENDBRANCH   1   2
BRANCH   1  10
ATOM     10  C10 <0> d   1      19.062  -1.177  11.068  0.00  0.00     0.098 A 
ATOM     11  C16 <0> d   1      18.892  -1.894  12.244  0.00  0.00     0.069 A 
ATOM     12  C15 <0> d   1      18.145  -3.057  12.242  0.00  0.00     0.050 A 
ATOM     13 Cl17 <0> d   1      19.604  -1.322  13.721  0.00  0.00    -0.081 Cl
ATOM     14  C13 <0> d   1      17.577  -3.512  11.065  0.00  0.00     0.035 A 
ATOM     15  C12 <0> d   1      17.751  -2.802   9.890  0.00  0.00     0.026 A 
ATOM     16 Cl14 <0> d   1      16.645  -4.977  11.061  0.00  0.00    -0.084 Cl
ATOM     17  C11 <0> d   1      18.492  -1.636   9.889  0.00  0.00     0.041 A 
ENDBRANCH   1  10
TORSDOF 2
ENDMDL
