MODEL 1
REMARK VINA RESULT:      -7.8      0.000      0.000
REMARK  8 active torsions:
REMARK  status: ('A' for Active; 'I' for Inactive)
REMARK    1  A    between atoms: O2_2  and  C3_3 
REMARK    2  A    between atoms: C3_3  and  C4_4 
REMARK    3  A    between atoms: C4_4  and  C5_5 
REMARK    4  A    between atoms: C5_5  and  O6_6 
REMARK    5  A    between atoms: O6_6  and  C7_7 
REMARK    6  A    between atoms: C11_11  and  C12_12 
REMARK    7  A    between atoms: C12_12  and  S13_13 
REMARK    8  A    between atoms: S13_13  and  C15_15 
ROOT
ATOM      1  C7  <0> d   1      17.903   0.477   9.175  0.00  0.00     0.078 A 
ATOM      2  C8  <0> d   1      17.256  -0.494   9.935  0.00  0.00     0.056 A 
ATOM      3  C9  <0> d   1      16.787  -0.161  11.191  0.00  0.00     0.119 A 
ATOM      4  N10 <0> d   1      16.948   1.058  11.671  0.00  0.00    -0.264 NA
ATOM      5  C11 <0> d   1      17.557   2.004  10.980  0.00  0.00     0.054 A 
ATOM      6  C24 <0> d   1      18.057   1.748   9.721  0.00  0.00    -0.003 A 
ATOM      7  C25 <0> d   1      18.752   2.836   8.941  0.00  0.00     0.053 C 
ENDROOT
BRANCH   5   8
ATOM      8  C12 <0> d   1      17.712   3.379  11.579  0.00  0.00     0.177 C 
BRANCH   8   9
ATOM      9  S13 <0> d   1      19.148   3.396  12.687  0.00  0.00     0.091 S 
ATOM     10  O14 <0> d   1      20.300   2.962  11.975  0.00  0.00    -0.249 OA
BRANCH   9  11
ATOM     11  C15 <0> d   1      18.825   2.047  13.774  0.00  0.00     0.198 A 
ATOM     12  N23 <0> d   1      17.807   1.999  14.675  0.00  0.00    -0.331 N 
ATOM     13  C22 <0> d   1      17.892   0.785  15.327  0.00  0.00     0.063 A 
ATOM     14  H43 <0> d   1      17.143   2.689  14.831  0.00  0.00     0.168 HD
ATOM     15  C17 <0> d   1      19.006   0.127  14.778  0.00  0.00     0.086 A 
ATOM     16  C21 <0> d   1      17.151   0.170  16.327  0.00  0.00     0.032 A 
ATOM     17  N16 <0> d   1      19.529   0.954  13.835  0.00  0.00    -0.221 NA
ATOM     18  C18 <0> d   1      19.356  -1.142  15.247  0.00  0.00     0.034 A 
ATOM     19  C19 <0> d   1      18.615  -1.732  16.232  0.00  0.00     0.002 A 
ATOM     20  C20 <0> d   1      17.515  -1.083  16.774  0.00  0.00     0.002 A 
ENDBRANCH   9  11
ENDBRANCH   8   9
ENDBRANCH   5   8
BRANCH   1  21
ATOM     21  O6  <0> d   1      18.378   0.189   7.937  0.00  0.00    -0.350 OA
BRANCH  21  22
ATOM     22  C5  <0> d   1      17.414  -0.136   6.933  0.00  0.00     0.178 C 
BRANCH  22  23
ATOM     23  C4  <0> d   1      18.020   0.101   5.548  0.00  0.00     0.053 C 
BRANCH  23  24
ATOM     24  C3  <0> d   1      19.465  -0.401   5.529  0.00  0.00     0.169 C 
BRANCH  24  25
ATOM     25  O2  <0> d   1      19.656  -1.263   4.406  0.00  0.00    -0.396 OA
ATOM     26  C1  <0> d   1      19.006  -2.531   4.528  0.00  0.00     0.201 C 
ENDBRANCH  24  25
ENDBRANCH  23  24
ENDBRANCH  22  23
ENDBRANCH  21  22
ENDBRANCH   1  21
TORSDOF 8
ENDMDL
MODEL 2
REMARK VINA RESULT:      -7.6      1.572      1.891
REMARK  8 active torsions:
REMARK  status: ('A' for Active; 'I' for Inactive)
REMARK    1  A    between atoms: O2_2  and  C3_3 
REMARK    2  A    between atoms: C3_3  and  C4_4 
REMARK    3  A    between atoms: C4_4  and  C5_5 
REMARK    4  A    between atoms: C5_5  and  O6_6 
REMARK    5  A    between atoms: O6_6  and  C7_7 
REMARK    6  A    between atoms: C11_11  and  C12_12 
REMARK    7  A    between atoms: C12_12  and  S13_13 
REMARK    8  A    between atoms: S13_13  and  C15_15 
ROOT
ATOM      1  C7  <0> d   1      19.115   0.505   8.435  0.00  0.00     0.078 A 
ATOM      2  C8  <0> d   1      19.472  -0.753   8.914  0.00  0.00     0.056 A 
ATOM      3  C9  <0> d   1      19.816  -0.891  10.244  0.00  0.00     0.119 A 
ATOM      4  N10 <0> d   1      19.808   0.149  11.056  0.00  0.00    -0.264 NA
ATOM      5  C11 <0> d   1      19.476   1.357  10.638  0.00  0.00     0.054 A 
ATOM      6  C24 <0> d   1      19.126   1.577   9.322  0.00  0.00    -0.003 A 
ATOM      7  C25 <0> d   1      18.749   2.961   8.855  0.00  0.00     0.053 C 
ENDROOT
BRANCH   5   8
ATOM      8  C12 <0> d   1      19.486   2.509  11.610  0.00  0.00     0.177 C 
BRANCH   8   9
ATOM      9  S13 <0> d   1      17.926   2.528  12.538  0.00  0.00     0.091 S 
ATOM     10  O14 <0> d   1      17.693   3.836  13.043  0.00  0.00    -0.249 OA
BRANCH   9  11
ATOM     11  C15 <0> d   1      18.318   1.608  13.988  0.00  0.00     0.198 A 
ATOM     12  N23 <0> d   1      18.455   0.256  14.041  0.00  0.00    -0.331 N 
ATOM     13  C22 <0> d   1      18.765  -0.076  15.345  0.00  0.00     0.063 A 
ATOM     14  H43 <0> d   1      18.356  -0.361  13.299  0.00  0.00     0.168 HD
ATOM     15  C17 <0> d   1      18.795   1.136  16.056  0.00  0.00     0.086 A 
ATOM     16  C21 <0> d   1      19.019  -1.270  16.005  0.00  0.00     0.032 A 
ATOM     17  N16 <0> d   1      18.513   2.124  15.167  0.00  0.00    -0.221 NA
ATOM     18  C18 <0> d   1      19.080   1.124  17.424  0.00  0.00     0.034 A 
ATOM     19  C19 <0> d   1      19.327  -0.062  18.057  0.00  0.00     0.002 A 
ATOM     20  C20 <0> d   1      19.299  -1.259  17.355  0.00  0.00     0.002 A 
ENDBRANCH   9  11
ENDBRANCH   8   9
ENDBRANCH   5   8
BRANCH   1  21
ATOM     21  O6  <0> d   1      18.771   0.682   7.134  0.00  0.00    -0.350 OA
BRANCH  21  22
ATOM     22  C5  <0> d   1      17.555   0.071   6.696  0.00  0.00     0.178 C 
BRANCH  22  23
ATOM     23  C4  <0> d   1      17.775  -0.581   5.328  0.00  0.00     0.053 C 
BRANCH  23  24
ATOM     24  C3  <0> d   1      19.211  -0.326   4.866  0.00  0.00     0.169 C 
BRANCH  24  25
ATOM     25  O2  <0> d   1      19.753  -1.525   4.311  0.00  0.00    -0.396 OA
ATOM     26  C1  <0> d   1      19.016  -2.704   4.641  0.00  0.00     0.201 C 
ENDBRANCH  24  25
ENDBRANCH  23  24
ENDBRANCH  22  23
ENDBRANCH  21  22
ENDBRANCH   1  21
TORSDOF 8
ENDMDL
MODEL 3
REMARK VINA RESULT:      -7.5      2.694      8.223
REMARK  8 active torsions:
REMARK  status: ('A' for Active; 'I' for Inactive)
REMARK    1  A    between atoms: O2_2  and  C3_3 
REMARK    2  A    between atoms: C3_3  and  C4_4 
REMARK    3  A    between atoms: C4_4  and  C5_5 
REMARK    4  A    between atoms: C5_5  and  O6_6 
REMARK    5  A    between atoms: O6_6  and  C7_7 
REMARK    6  A    between atoms: C11_11  and  C12_12 
REMARK    7  A    between atoms: C12_12  and  S13_13 
REMARK    8  A    between atoms: S13_13  and  C15_15 
ROOT
ATOM      1  C7  <0> d   1      18.628  -0.736  13.934  0.00  0.00     0.078 A 
ATOM      2  C8  <0> d   1      18.607  -2.007  13.366  0.00  0.00     0.056 A 
ATOM      3  C9  <0> d   1      18.222  -2.146  12.047  0.00  0.00     0.119 A 
ATOM      4  N10 <0> d   1      17.877  -1.093  11.329  0.00  0.00    -0.264 NA
ATOM      5  C11 <0> d   1      17.884   0.127  11.834  0.00  0.00     0.054 A 
ATOM      6  C24 <0> d   1      18.251   0.347  13.145  0.00  0.00    -0.003 A 
ATOM      7  C25 <0> d   1      18.255   1.744  13.712  0.00  0.00     0.053 C 
ENDROOT
BRANCH   5   8
ATOM      8  C12 <0> d   1      17.480   1.292  10.967  0.00  0.00     0.177 C 
BRANCH   8   9
ATOM      9  S13 <0> d   1      18.938   1.930  10.096  0.00  0.00     0.091 S 
ATOM     10  O14 <0> d   1      18.656   3.228   9.589  0.00  0.00    -0.249 OA
BRANCH   9  11
ATOM     11  C15 <0> d   1      18.993   0.940   8.640  0.00  0.00     0.198 A 
ATOM     12  N23 <0> d   1      19.125  -0.414   8.622  0.00  0.00    -0.331 N 
ATOM     13  C22 <0> d   1      19.122  -0.810   7.299  0.00  0.00     0.063 A 
ATOM     14  H43 <0> d   1      19.205  -0.994   9.394  0.00  0.00     0.168 HD
ATOM     15  C17 <0> d   1      18.991   0.367   6.542  0.00  0.00     0.086 A 
ATOM     16  C21 <0> d   1      19.220  -2.036   6.656  0.00  0.00     0.032 A 
ATOM     17  N16 <0> d   1      18.917   1.398   7.424  0.00  0.00    -0.221 NA
ATOM     18  C18 <0> d   1      18.963   0.289   5.147  0.00  0.00     0.034 A 
ATOM     19  C19 <0> d   1      19.061  -0.927   4.532  0.00  0.00     0.002 A 
ATOM     20  C20 <0> d   1      19.190  -2.090   5.278  0.00  0.00     0.002 A 
ENDBRANCH   9  11
ENDBRANCH   8   9
ENDBRANCH   5   8
BRANCH   1  21
ATOM     21  O6  <0> d   1      19.001  -0.559  15.227  0.00  0.00    -0.350 OA
BRANCH  21  22
ATOM     22  C5  <0> d   1      18.148  -1.114  16.230  0.00  0.00     0.178 C 
BRANCH  22  23
ATOM     23  C4  <0> d   1      18.022  -0.131  17.395  0.00  0.00     0.053 C 
BRANCH  23  24
ATOM     24  C3  <0> d   1      19.293  -0.178  18.245  0.00  0.00     0.169 C 
BRANCH  24  25
ATOM     25  O2  <0> d   1      19.794   1.147  18.427  0.00  0.00    -0.396 OA
ATOM     26  C1  <0> d   1      19.056   2.150  17.726  0.00  0.00     0.201 C 
ENDBRANCH  24  25
ENDBRANCH  23  24
ENDBRANCH  22  23
ENDBRANCH  21  22
ENDBRANCH   1  21
TORSDOF 8
ENDMDL
MODEL 4
REMARK VINA RESULT:      -7.5      2.026      3.327
REMARK  8 active torsions:
REMARK  status: ('A' for Active; 'I' for Inactive)
REMARK    1  A    between atoms: O2_2  and  C3_3 
REMARK    2  A    between atoms: C3_3  and  C4_4 
REMARK    3  A    between atoms: C4_4  and  C5_5 
REMARK    4  A    between atoms: C5_5  and  O6_6 
REMARK    5  A    between atoms: O6_6  and  C7_7 
REMARK    6  A    between atoms: C11_11  and  C12_12 
REMARK    7  A    between atoms: C12_12  and  S13_13 
REMARK    8  A    between atoms: S13_13  and  C15_15 
ROOT
ATOM      1  C7  <0> d   1      18.080  -0.086   8.965  0.00  0.00     0.078 A 
ATOM      2  C8  <0> d   1      18.866   0.482   7.966  0.00  0.00     0.056 A 
ATOM      3  C9  <0> d   1      19.211   1.815   8.060  0.00  0.00     0.119 A 
ATOM      4  N10 <0> d   1      18.806   2.548   9.080  0.00  0.00    -0.264 NA
ATOM      5  C11 <0> d   1      18.059   2.045  10.046  0.00  0.00     0.054 A 
ATOM      6  C24 <0> d   1      17.668   0.723  10.021  0.00  0.00    -0.003 A 
ATOM      7  C25 <0> d   1      16.815   0.158  11.128  0.00  0.00     0.053 C 
ENDROOT
BRANCH   5   8
ATOM      8  C12 <0> d   1      17.625   2.929  11.187  0.00  0.00     0.177 C 
BRANCH   8   9
ATOM      9  S13 <0> d   1      19.009   3.149  12.340  0.00  0.00     0.091 S 
ATOM     10  O14 <0> d   1      20.221   2.772  11.702  0.00  0.00    -0.249 OA
BRANCH   9  11
ATOM     11  C15 <0> d   1      18.758   1.855  13.510  0.00  0.00     0.198 A 
ATOM     12  N23 <0> d   1      19.495   0.714  13.580  0.00  0.00    -0.331 N 
ATOM     13  C22 <0> d   1      18.992  -0.037  14.624  0.00  0.00     0.063 A 
ATOM     14  H43 <0> d   1      20.238   0.473  13.006  0.00  0.00     0.168 HD
ATOM     15  C17 <0> d   1      17.924   0.706  15.156  0.00  0.00     0.086 A 
ATOM     16  C21 <0> d   1      19.318  -1.268  15.176  0.00  0.00     0.032 A 
ATOM     17  N16 <0> d   1      17.836   1.850  14.429  0.00  0.00    -0.221 NA
ATOM     18  C18 <0> d   1      17.201   0.195  16.237  0.00  0.00     0.034 A 
ATOM     19  C19 <0> d   1      17.537  -1.019  16.767  0.00  0.00     0.002 A 
ATOM     20  C20 <0> d   1      18.592  -1.753  16.242  0.00  0.00     0.002 A 
ENDBRANCH   9  11
ENDBRANCH   8   9
ENDBRANCH   5   8
BRANCH   1  21
ATOM     21  O6  <0> d   1      17.720  -1.393   8.908  0.00  0.00    -0.350 OA
BRANCH  21  22
ATOM     22  C5  <0> d   1      18.671  -2.305   8.354  0.00  0.00     0.178 C 
BRANCH  22  23
ATOM     23  C4  <0> d   1      18.762  -3.549   9.240  0.00  0.00     0.053 C 
BRANCH  23  24
ATOM     24  C3  <0> d   1      17.886  -3.359  10.479  0.00  0.00     0.169 C 
BRANCH  24  25
ATOM     25  O2  <0> d   1      18.674  -3.555  11.655  0.00  0.00    -0.396 OA
ATOM     26  C1  <0> d   1      19.967  -4.108  11.403  0.00  0.00     0.201 C 
ENDBRANCH  24  25
ENDBRANCH  23  24
ENDBRANCH  22  23
ENDBRANCH  21  22
ENDBRANCH   1  21
TORSDOF 8
ENDMDL
MODEL 5
REMARK VINA RESULT:      -7.4      3.016      5.263
REMARK  8 active torsions:
REMARK  status: ('A' for Active; 'I' for Inactive)
REMARK    1  A    between atoms: O2_2  and  C3_3 
REMARK    2  A    between atoms: C3_3  and  C4_4 
REMARK    3  A    between atoms: C4_4  and  C5_5 
REMARK    4  A    between atoms: C5_5  and  O6_6 
REMARK    5  A    between atoms: O6_6  and  C7_7 
REMARK    6  A    between atoms: C11_11  and  C12_12 
REMARK    7  A    between atoms: C12_12  and  S13_13 
REMARK    8  A    between atoms: S13_13  and  C15_15 
ROOT
ATOM      1  C7  <0> d   1      17.836   2.057  10.191  0.00  0.00     0.078 A 
ATOM      2  C8  <0> d   1      18.798   2.403   9.246  0.00  0.00     0.056 A 
ATOM      3  C9  <0> d   1      19.597   1.414   8.709  0.00  0.00     0.119 A 
ATOM      4  N10 <0> d   1      19.458   0.155   9.082  0.00  0.00    -0.264 NA
ATOM      5  C11 <0> d   1      18.558  -0.211   9.976  0.00  0.00     0.054 A 
ATOM      6  C24 <0> d   1      17.725   0.719  10.561  0.00  0.00    -0.003 A 
ATOM      7  C25 <0> d   1      16.700   0.291  11.582  0.00  0.00     0.053 C 
ENDROOT
BRANCH   5   8
ATOM      8  C12 <0> d   1      18.443  -1.663  10.363  0.00  0.00     0.177 C 
BRANCH   8   9
ATOM      9  S13 <0> d   1      19.816  -2.103  11.466  0.00  0.00     0.091 S 
ATOM     10  O14 <0> d   1      19.750  -3.489  11.774  0.00  0.00    -0.249 OA
BRANCH   9  11
ATOM     11  C15 <0> d   1      19.361  -1.337  12.987  0.00  0.00     0.198 A 
ATOM     12  N23 <0> d   1      19.781  -0.111  13.398  0.00  0.00    -0.331 N 
ATOM     13  C22 <0> d   1      19.206   0.129  14.630  0.00  0.00     0.063 A 
ATOM     14  H43 <0> d   1      20.374   0.486  12.915  0.00  0.00     0.168 HD
ATOM     15  C17 <0> d   1      18.439  -1.011  14.928  0.00  0.00     0.086 A 
ATOM     16  C21 <0> d   1      19.253   1.183  15.531  0.00  0.00     0.032 A 
ATOM     17  N16 <0> d   1      18.579  -1.866  13.882  0.00  0.00    -0.221 NA
ATOM     18  C18 <0> d   1      17.732  -1.069  16.132  0.00  0.00     0.034 A 
ATOM     19  C19 <0> d   1      17.790  -0.021  17.007  0.00  0.00     0.002 A 
ATOM     20  C20 <0> d   1      18.546   1.105  16.713  0.00  0.00     0.002 A 
ENDBRANCH   9  11
ENDBRANCH   8   9
ENDBRANCH   5   8
BRANCH   1  21
ATOM     21  O6  <0> d   1      17.030   3.000  10.742  0.00  0.00    -0.350 OA
BRANCH  21  22
ATOM     22  C5  <0> d   1      17.445   4.362  10.613  0.00  0.00     0.178 C 
BRANCH  22  23
ATOM     23  C4  <0> d   1      16.706   5.220  11.642  0.00  0.00     0.053 C 
BRANCH  23  24
ATOM     24  C3  <0> d   1      17.445   5.163  12.980  0.00  0.00     0.169 C 
BRANCH  24  25
ATOM     25  O2  <0> d   1      18.838   4.944  12.747  0.00  0.00    -0.396 OA
ATOM     26  C1  <0> d   1      19.675   5.300  13.848  0.00  0.00     0.201 C 
ENDBRANCH  24  25
ENDBRANCH  23  24
ENDBRANCH  22  23
ENDBRANCH  21  22
ENDBRANCH   1  21
TORSDOF 8
ENDMDL
MODEL 6
REMARK VINA RESULT:      -7.3      2.741      8.423
REMARK  8 active torsions:
REMARK  status: ('A' for Active; 'I' for Inactive)
REMARK    1  A    between atoms: O2_2  and  C3_3 
REMARK    2  A    between atoms: C3_3  and  C4_4 
REMARK    3  A    between atoms: C4_4  and  C5_5 
REMARK    4  A    between atoms: C5_5  and  O6_6 
REMARK    5  A    between atoms: O6_6  and  C7_7 
REMARK    6  A    between atoms: C11_11  and  C12_12 
REMARK    7  A    between atoms: C12_12  and  S13_13 
REMARK    8  A    between atoms: S13_13  and  C15_15 
ROOT
ATOM      1  C7  <0> d   1      18.356   0.592  14.558  0.00  0.00     0.078 A 
ATOM      2  C8  <0> d   1      18.334   1.870  15.111  0.00  0.00     0.056 A 
ATOM      3  C9  <0> d   1      18.045   2.948  14.299  0.00  0.00     0.119 A 
ATOM      4  N10 <0> d   1      17.792   2.778  13.015  0.00  0.00    -0.264 NA
ATOM      5  C11 <0> d   1      17.803   1.583  12.455  0.00  0.00     0.054 A 
ATOM      6  C24 <0> d   1      18.089   0.457  13.198  0.00  0.00    -0.003 A 
ATOM      7  C25 <0> d   1      18.100  -0.904  12.549  0.00  0.00     0.053 C 
ENDROOT
BRANCH   5   8
ATOM      8  C12 <0> d   1      17.507   1.448  10.983  0.00  0.00     0.177 C 
BRANCH   8   9
ATOM      9  S13 <0> d   1      18.867   2.172  10.025  0.00  0.00     0.091 S 
ATOM     10  O14 <0> d   1      18.447   3.411   9.469  0.00  0.00    -0.249 OA
BRANCH   9  11
ATOM     11  C15 <0> d   1      18.962   1.118   8.616  0.00  0.00     0.198 A 
ATOM     12  N23 <0> d   1      18.993   1.544   7.324  0.00  0.00    -0.331 N 
ATOM     13  C22 <0> d   1      19.072   0.423   6.523  0.00  0.00     0.063 A 
ATOM     14  H43 <0> d   1      18.967   2.465   7.022  0.00  0.00     0.168 HD
ATOM     15  C17 <0> d   1      19.077  -0.678   7.397  0.00  0.00     0.086 A 
ATOM     16  C21 <0> d   1      19.134   0.215   5.152  0.00  0.00     0.032 A 
ATOM     17  N16 <0> d   1      19.008  -0.182   8.659  0.00  0.00    -0.221 NA
ATOM     18  C18 <0> d   1      19.144  -1.972   6.873  0.00  0.00     0.034 A 
ATOM     19  C19 <0> d   1      19.205  -2.156   5.521  0.00  0.00     0.002 A 
ATOM     20  C20 <0> d   1      19.201  -1.070   4.657  0.00  0.00     0.002 A 
ENDBRANCH   9  11
ENDBRANCH   8   9
ENDBRANCH   5   8
BRANCH   1  21
ATOM     21  O6  <0> d   1      18.635  -0.493  15.324  0.00  0.00    -0.350 OA
BRANCH  21  22
ATOM     22  C5  <0> d   1      17.943  -0.604  16.569  0.00  0.00     0.178 C 
BRANCH  22  23
ATOM     23  C4  <0> d   1      18.956  -0.636  17.716  0.00  0.00     0.053 C 
BRANCH  23  24
ATOM     24  C3  <0> d   1      18.654   0.497  18.698  0.00  0.00     0.169 C 
BRANCH  24  25
ATOM     25  O2  <0> d   1      19.647   1.516  18.570  0.00  0.00    -0.396 OA
ATOM     26  C1  <0> d   1      19.123   2.846  18.595  0.00  0.00     0.201 C 
ENDBRANCH  24  25
ENDBRANCH  23  24
ENDBRANCH  22  23
ENDBRANCH  21  22
ENDBRANCH   1  21
TORSDOF 8
ENDMDL
MODEL 7
REMARK VINA RESULT:      -7.3      3.167      7.918
REMARK  8 active torsions:
REMARK  status: ('A' for Active; 'I' for Inactive)
REMARK    1  A    between atoms: O2_2  and  C3_3 
REMARK    2  A    between atoms: C3_3  and  C4_4 
REMARK    3  A    between atoms: C4_4  and  C5_5 
REMARK    4  A    between atoms: C5_5  and  O6_6 
REMARK    5  A    between atoms: O6_6  and  C7_7 
REMARK    6  A    between atoms: C11_11  and  C12_12 
REMARK    7  A    between atoms: C12_12  and  S13_13 
REMARK    8  A    between atoms: S13_13  and  C15_15 
ROOT
ATOM      1  C7  <0> d   1      18.386   0.461  13.156  0.00  0.00     0.078 A 
ATOM      2  C8  <0> d   1      17.466   1.032  12.280  0.00  0.00     0.056 A 
ATOM      3  C9  <0> d   1      16.760   0.213  11.421  0.00  0.00     0.119 A 
ATOM      4  N10 <0> d   1      16.950  -1.093  11.423  0.00  0.00    -0.264 NA
ATOM      5  C11 <0> d   1      17.813  -1.670  12.238  0.00  0.00     0.054 A 
ATOM      6  C24 <0> d   1      18.560  -0.920  13.122  0.00  0.00    -0.003 A 
ATOM      7  C25 <0> d   1      19.545  -1.588  14.049  0.00  0.00     0.053 C 
ENDROOT
BRANCH   5   8
ATOM      8  C12 <0> d   1      17.989  -3.167  12.197  0.00  0.00     0.177 C 
BRANCH   8   9
ATOM      9  S13 <0> d   1      19.225  -3.595  10.940  0.00  0.00     0.091 S 
ATOM     10  O14 <0> d   1      20.528  -3.375  11.464  0.00  0.00    -0.249 OA
BRANCH   9  11
ATOM     11  C15 <0> d   1      19.050  -2.301   9.757  0.00  0.00     0.198 A 
ATOM     12  N23 <0> d   1      19.708  -1.111   9.800  0.00  0.00    -0.331 N 
ATOM     13  C22 <0> d   1      19.304  -0.378   8.702  0.00  0.00     0.063 A 
ATOM     14  H43 <0> d   1      20.344  -0.829  10.476  0.00  0.00     0.168 HD
ATOM     15  C17 <0> d   1      18.376  -1.183   8.019  0.00  0.00     0.086 A 
ATOM     16  C21 <0> d   1      19.617   0.882   8.211  0.00  0.00     0.032 A 
ATOM     17  N16 <0> d   1      18.268  -2.343   8.717  0.00  0.00    -0.221 NA
ATOM     18  C18 <0> d   1      17.777  -0.703   6.851  0.00  0.00     0.034 A 
ATOM     19  C19 <0> d   1      18.098   0.541   6.383  0.00  0.00     0.002 A 
ATOM     20  C20 <0> d   1      19.014   1.336   7.057  0.00  0.00     0.002 A 
ENDBRANCH   9  11
ENDBRANCH   8   9
ENDBRANCH   5   8
BRANCH   1  21
ATOM     21  O6  <0> d   1      19.098   1.232  14.015  0.00  0.00    -0.350 OA
BRANCH  21  22
ATOM     22  C5  <0> d   1      18.357   1.988  14.976  0.00  0.00     0.178 C 
BRANCH  22  23
ATOM     23  C4  <0> d   1      18.411   1.282  16.332  0.00  0.00     0.053 C 
BRANCH  23  24
ATOM     24  C3  <0> d   1      19.251   2.109  17.306  0.00  0.00     0.169 C 
BRANCH  24  25
ATOM     25  O2  <0> d   1      19.747   1.263  18.345  0.00  0.00    -0.396 OA
ATOM     26  C1  <0> d   1      19.328  -0.099  18.237  0.00  0.00     0.201 C 
ENDBRANCH  24  25
ENDBRANCH  23  24
ENDBRANCH  22  23
ENDBRANCH  21  22
ENDBRANCH   1  21
TORSDOF 8
ENDMDL
MODEL 8
REMARK VINA RESULT:      -7.2      3.009      4.193
REMARK  8 active torsions:
REMARK  status: ('A' for Active; 'I' for Inactive)
REMARK    1  A    between atoms: O2_2  and  C3_3 
REMARK    2  A    between atoms: C3_3  and  C4_4 
REMARK    3  A    between atoms: C4_4  and  C5_5 
REMARK    4  A    between atoms: C5_5  and  O6_6 
REMARK    5  A    between atoms: O6_6  and  C7_7 
REMARK    6  A    between atoms: C11_11  and  C12_12 
REMARK    7  A    between atoms: C12_12  and  S13_13 
REMARK    8  A    between atoms: S13_13  and  C15_15 
ROOT
ATOM      1  C7  <0> d   1      18.218   3.927  10.778  0.00  0.00     0.078 A 
ATOM      2  C8  <0> d   1      16.922   4.432  10.842  0.00  0.00     0.056 A 
ATOM      3  C9  <0> d   1      16.543   5.173  11.944  0.00  0.00     0.119 A 
ATOM      4  N10 <0> d   1      17.394   5.404  12.927  0.00  0.00    -0.264 NA
ATOM      5  C11 <0> d   1      18.630   4.942  12.902  0.00  0.00     0.054 A 
ATOM      6  C24 <0> d   1      19.081   4.189  11.839  0.00  0.00    -0.003 A 
ATOM      7  C25 <0> d   1      20.495   3.665  11.820  0.00  0.00     0.053 C 
ENDROOT
BRANCH   5   8
ATOM      8  C12 <0> d   1      19.557   5.237  14.053  0.00  0.00     0.177 C 
BRANCH   8   9
ATOM      9  S13 <0> d   1      18.613   5.242  15.602  0.00  0.00     0.091 S 
ATOM     10  O14 <0> d   1      19.381   5.865  16.623  0.00  0.00    -0.249 OA
BRANCH   9  11
ATOM     11  C15 <0> d   1      18.626   3.545  16.078  0.00  0.00     0.198 A 
ATOM     12  N23 <0> d   1      17.992   2.543  15.410  0.00  0.00    -0.331 N 
ATOM     13  C22 <0> d   1      18.246   1.370  16.093  0.00  0.00     0.063 A 
ATOM     14  H43 <0> d   1      17.463   2.635  14.603  0.00  0.00     0.168 HD
ATOM     15  C17 <0> d   1      19.046   1.726  17.192  0.00  0.00     0.086 A 
ATOM     16  C21 <0> d   1      17.882   0.044  15.905  0.00  0.00     0.032 A 
ATOM     17  N16 <0> d   1      19.240   3.069  17.122  0.00  0.00    -0.221 NA
ATOM     18  C18 <0> d   1      19.465   0.738  18.087  0.00  0.00     0.034 A 
ATOM     19  C19 <0> d   1      19.097  -0.563  17.886  0.00  0.00     0.002 A 
ATOM     20  C20 <0> d   1      18.308  -0.915  16.800  0.00  0.00     0.002 A 
ENDBRANCH   9  11
ENDBRANCH   8   9
ENDBRANCH   5   8
BRANCH   1  21
ATOM     21  O6  <0> d   1      18.627   3.194   9.712  0.00  0.00    -0.350 OA
BRANCH  21  22
ATOM     22  C5  <0> d   1      18.139   1.855   9.620  0.00  0.00     0.178 C 
BRANCH  22  23
ATOM     23  C4  <0> d   1      19.318   0.880   9.604  0.00  0.00     0.053 C 
BRANCH  23  24
ATOM     24  C3  <0> d   1      19.230  -0.049  10.816  0.00  0.00     0.169 C 
BRANCH  24  25
ATOM     25  O2  <0> d   1      20.408   0.092  11.612  0.00  0.00    -0.396 OA
ATOM     26  C1  <0> d   1      20.150   0.340  12.995  0.00  0.00     0.201 C 
ENDBRANCH  24  25
ENDBRANCH  23  24
ENDBRANCH  22  23
ENDBRANCH  21  22
ENDBRANCH   1  21
TORSDOF 8
ENDMDL
MODEL 9
REMARK VINA RESULT:      -7.0      2.357      3.271
REMARK  8 active torsions:
REMARK  status: ('A' for Active; 'I' for Inactive)
REMARK    1  A    between atoms: O2_2  and  C3_3 
REMARK    2  A    between atoms: C3_3  and  C4_4 
REMARK    3  A    between atoms: C4_4  and  C5_5 
REMARK    4  A    between atoms: C5_5  and  O6_6 
REMARK    5  A    between atoms: O6_6  and  C7_7 
REMARK    6  A    between atoms: C11_11  and  C12_12 
REMARK    7  A    between atoms: C12_12  and  S13_13 
REMARK    8  A    between atoms: S13_13  and  C15_15 
ROOT
ATOM      1  C7  <0> d   1      18.381   3.603  10.677  0.00  0.00     0.078 A 
ATOM      2  C8  <0> d   1      17.138   4.229  10.717  0.00  0.00     0.056 A 
ATOM      3  C9  <0> d   1      16.856   5.098  11.752  0.00  0.00     0.119 A 
ATOM      4  N10 <0> d   1      17.749   5.338  12.694  0.00  0.00    -0.264 NA
ATOM      5  C11 <0> d   1      18.938   4.764  12.691  0.00  0.00     0.054 A 
ATOM      6  C24 <0> d   1      19.291   3.879  11.694  0.00  0.00    -0.003 A 
ATOM      7  C25 <0> d   1      20.652   3.227  11.699  0.00  0.00     0.053 C 
ENDROOT
BRANCH   5   8
ATOM      8  C12 <0> d   1      19.917   5.075  13.793  0.00  0.00     0.177 C 
BRANCH   8   9
ATOM      9  S13 <0> d   1      19.027   5.220  15.368  0.00  0.00     0.091 S 
ATOM     10  O14 <0> d   1      19.888   5.784  16.348  0.00  0.00    -0.249 OA
BRANCH   9  11
ATOM     11  C15 <0> d   1      18.876   3.544  15.891  0.00  0.00     0.198 A 
ATOM     12  N23 <0> d   1      18.110   2.602  15.279  0.00  0.00    -0.331 N 
ATOM     13  C22 <0> d   1      18.262   1.425  15.984  0.00  0.00     0.063 A 
ATOM     14  H43 <0> d   1      17.559   2.731  14.491  0.00  0.00     0.168 HD
ATOM     15  C17 <0> d   1      19.142   1.718  17.040  0.00  0.00     0.086 A 
ATOM     16  C21 <0> d   1      17.749   0.142  15.850  0.00  0.00     0.032 A 
ATOM     17  N16 <0> d   1      19.478   3.029  16.924  0.00  0.00    -0.221 NA
ATOM     18  C18 <0> d   1      19.489   0.712  17.946  0.00  0.00     0.034 A 
ATOM     19  C19 <0> d   1      18.974  -0.545  17.797  0.00  0.00     0.002 A 
ATOM     20  C20 <0> d   1      18.106  -0.835  16.754  0.00  0.00     0.002 A 
ENDBRANCH   9  11
ENDBRANCH   8   9
ENDBRANCH   5   8
BRANCH   1  21
ATOM     21  O6  <0> d   1      18.695   2.742   9.677  0.00  0.00    -0.350 OA
BRANCH  21  22
ATOM     22  C5  <0> d   1      18.304   1.378   9.848  0.00  0.00     0.178 C 
BRANCH  22  23
ATOM     23  C4  <0> d   1      18.071   0.738   8.478  0.00  0.00     0.053 C 
BRANCH  23  24
ATOM     24  C3  <0> d   1      18.967   1.414   7.439  0.00  0.00     0.169 C 
BRANCH  24  25
ATOM     25  O2  <0> d   1      18.901   0.691   6.208  0.00  0.00    -0.396 OA
ATOM     26  C1  <0> d   1      17.824  -0.247   6.142  0.00  0.00     0.201 C 
ENDBRANCH  24  25
ENDBRANCH  23  24
ENDBRANCH  22  23
ENDBRANCH  21  22
ENDBRANCH   1  21
TORSDOF 8
ENDMDL
