MODEL 1
REMARK VINA RESULT:      -8.2      0.000      0.000
REMARK  3 active torsions:
REMARK  status: ('A' for Active; 'I' for Inactive)
REMARK    1  A    between atoms: C5_5  and  C6_6 
REMARK    2  A    between atoms: C7_7  and  C8_8 
REMARK    3  A    between atoms: C8_8  and  C9_9 
REMARK       I    between atoms: C9_9  and  N11_11 
ROOT
ATOM      1  C6  ZIN A   1      17.931   2.740  10.810  0.00  0.00     0.093 A 
ATOM      2  C7  ZIN A   1      18.662   2.713  11.958  0.00  0.00     0.056 A 
ATOM      3  N14 ZIN A   1      18.171   3.695  12.771  0.00  0.00    -0.307 N 
ATOM      4  C15 ZIN A   1      18.518   4.111  14.024  0.00  0.00     0.105 A 
ATOM      5  C16 ZIN A   1      17.858   5.128  14.619  0.00  0.00    -0.046 A 
ATOM      6  C17 ZIN A   1      18.256   5.573  16.003  0.00  0.00     0.049 C 
ATOM      7  C18 ZIN A   1      16.801   5.772  13.954  0.00  0.00     0.012 A 
ATOM      8  C19 ZIN A   1      16.444   5.367  12.706  0.00  0.00     0.051 A 
ATOM      9  C20 ZIN A   1      17.144   4.304  12.097  0.00  0.00     0.135 A 
ATOM     10  N21 ZIN A   1      17.017   3.719  10.916  0.00  0.00    -0.228 NA
ENDROOT
BRANCH   1  11
ATOM     11  C5  ZIN A   1      18.114   1.847   9.639  0.00  0.00    -0.005 A 
ATOM     12  C4  ZIN A   1      19.008   2.192   8.629  0.00  0.00     0.014 A 
ATOM     13  C3  ZIN A   1      19.174   1.357   7.542  0.00  0.00     0.007 A 
ATOM     14  C2  ZIN A   1      18.456   0.179   7.457  0.00  0.00    -0.062 A 
ATOM     15  C1  ZIN A   1      18.643  -0.730   6.268  0.00  0.00     0.048 C 
ATOM     16  C23 ZIN A   1      17.563  -0.168   8.455  0.00  0.00     0.007 A 
ATOM     17  C22 ZIN A   1      17.393   0.658   9.548  0.00  0.00     0.014 A 
ENDBRANCH   1  11
BRANCH   2  18
ATOM     18  C8  ZIN A   1      19.800   1.776  12.273  0.00  0.00     0.163 C 
BRANCH  18  19
ATOM     19  C9  ZIN A   1      19.248   0.455  12.740  0.00  0.00     0.224 C 
ATOM     20  O10 ZIN A   1      18.476   0.417  13.675  0.00  0.00    -0.273 OA
ATOM     21  N11 ZIN A   1      19.612  -0.686  12.121  0.00  0.00    -0.361 N 
ATOM     22  C12 ZIN A   1      19.075  -1.971  12.576  0.00  0.00     0.152 C 
ATOM     23  C13 ZIN A   1      20.545  -0.640  10.992  0.00  0.00     0.152 C 
ENDBRANCH  18  19
ENDBRANCH   2  18
TORSDOF 3
ENDMDL
MODEL 2
REMARK VINA RESULT:      -8.1      2.679      5.957
REMARK  3 active torsions:
REMARK  status: ('A' for Active; 'I' for Inactive)
REMARK    1  A    between atoms: C5_5  and  C6_6 
REMARK    2  A    between atoms: C7_7  and  C8_8 
REMARK    3  A    between atoms: C8_8  and  C9_9 
REMARK       I    between atoms: C9_9  and  N11_11 
ROOT
ATOM      1  C6  ZIN A   1      18.430   1.470  13.381  0.00  0.00     0.093 A 
ATOM      2  C7  ZIN A   1      18.808   0.617  12.388  0.00  0.00     0.056 A 
ATOM      3  N14 ZIN A   1      18.744   1.313  11.215  0.00  0.00    -0.307 N 
ATOM      4  C15 ZIN A   1      19.009   0.964   9.922  0.00  0.00     0.105 A 
ATOM      5  C16 ZIN A   1      18.864   1.861   8.923  0.00  0.00    -0.046 A 
ATOM      6  C17 ZIN A   1      19.161   1.455   7.502  0.00  0.00     0.049 C 
ATOM      7  C18 ZIN A   1      18.437   3.170   9.202  0.00  0.00     0.012 A 
ATOM      8  C19 ZIN A   1      18.171   3.532  10.485  0.00  0.00     0.051 A 
ATOM      9  C20 ZIN A   1      18.326   2.584  11.518  0.00  0.00     0.135 A 
ATOM     10  N21 ZIN A   1      18.137   2.657  12.827  0.00  0.00    -0.228 NA
ENDROOT
BRANCH   1  11
ATOM     11  C5  ZIN A   1      18.350   1.142  14.826  0.00  0.00    -0.005 A 
ATOM     12  C4  ZIN A   1      19.206   1.761  15.733  0.00  0.00     0.014 A 
ATOM     13  C3  ZIN A   1      19.127   1.452  17.076  0.00  0.00     0.007 A 
ATOM     14  C2  ZIN A   1      18.197   0.530  17.521  0.00  0.00    -0.062 A 
ATOM     15  C1  ZIN A   1      18.114   0.198  18.989  0.00  0.00     0.048 C 
ATOM     16  C23 ZIN A   1      17.347  -0.092  16.625  0.00  0.00     0.007 A 
ATOM     17  C22 ZIN A   1      17.415   0.214  15.281  0.00  0.00     0.014 A 
ENDBRANCH   1  11
BRANCH   2  18
ATOM     18  C8  ZIN A   1      19.218  -0.824  12.553  0.00  0.00     0.163 C 
BRANCH  18  19
ATOM     19  C9  ZIN A   1      18.092  -1.720  12.107  0.00  0.00     0.224 C 
ATOM     20  O10 ZIN A   1      16.951  -1.309  12.112  0.00  0.00    -0.273 OA
ATOM     21  N11 ZIN A   1      18.352  -2.980  11.703  0.00  0.00    -0.361 N 
ATOM     22  C12 ZIN A   1      17.258  -3.851  11.269  0.00  0.00     0.152 C 
ATOM     23  C13 ZIN A   1      19.731  -3.477  11.698  0.00  0.00     0.152 C 
ENDBRANCH  18  19
ENDBRANCH   2  18
TORSDOF 3
ENDMDL
MODEL 3
REMARK VINA RESULT:      -8.1      3.034      6.468
REMARK  3 active torsions:
REMARK  status: ('A' for Active; 'I' for Inactive)
REMARK    1  A    between atoms: C5_5  and  C6_6 
REMARK    2  A    between atoms: C7_7  and  C8_8 
REMARK    3  A    between atoms: C8_8  and  C9_9 
REMARK       I    between atoms: C9_9  and  N11_11 
ROOT
ATOM      1  C6  ZIN A   1      18.598   0.080  11.739  0.00  0.00     0.093 A 
ATOM      2  C7  ZIN A   1      18.267  -0.819  10.771  0.00  0.00     0.056 A 
ATOM      3  N14 ZIN A   1      18.485  -0.213   9.567  0.00  0.00    -0.307 N 
ATOM      4  C15 ZIN A   1      18.327  -0.639   8.279  0.00  0.00     0.105 A 
ATOM      5  C16 ZIN A   1      18.622   0.175   7.243  0.00  0.00    -0.046 A 
ATOM      6  C17 ZIN A   1      18.440  -0.314   5.830  0.00  0.00     0.049 C 
ATOM      7  C18 ZIN A   1      19.098   1.476   7.478  0.00  0.00     0.012 A 
ATOM      8  C19 ZIN A   1      19.261   1.914   8.755  0.00  0.00     0.051 A 
ATOM      9  C20 ZIN A   1      18.948   1.052   9.827  0.00  0.00     0.135 A 
ATOM     10  N21 ZIN A   1      19.004   1.212  11.140  0.00  0.00    -0.228 NA
ENDROOT
BRANCH   1  11
ATOM     11  C5  ZIN A   1      18.518  -0.147  13.203  0.00  0.00    -0.005 A 
ATOM     12  C4  ZIN A   1      19.384  -1.046  13.820  0.00  0.00     0.014 A 
ATOM     13  C3  ZIN A   1      19.305  -1.253  15.182  0.00  0.00     0.007 A 
ATOM     14  C2  ZIN A   1      18.368  -0.569  15.934  0.00  0.00    -0.062 A 
ATOM     15  C1  ZIN A   1      18.287  -0.799  17.422  0.00  0.00     0.048 C 
ATOM     16  C23 ZIN A   1      17.501   0.321  15.327  0.00  0.00     0.007 A 
ATOM     17  C22 ZIN A   1      17.576   0.539  13.966  0.00  0.00     0.014 A 
ENDBRANCH   1  11
BRANCH   2  18
ATOM     18  C8  ZIN A   1      17.754  -2.220  10.988  0.00  0.00     0.163 C 
BRANCH  18  19
ATOM     19  C9  ZIN A   1      18.845  -3.209  10.667  0.00  0.00     0.224 C 
ATOM     20  O10 ZIN A   1      19.932  -3.107  11.196  0.00  0.00    -0.273 OA
ATOM     21  N11 ZIN A   1      18.615  -4.206   9.790  0.00  0.00    -0.361 N 
ATOM     22  C12 ZIN A   1      19.675  -5.167   9.477  0.00  0.00     0.152 C 
ATOM     23  C13 ZIN A   1      17.302  -4.329   9.150  0.00  0.00     0.152 C 
ENDBRANCH  18  19
ENDBRANCH   2  18
TORSDOF 3
ENDMDL
MODEL 4
REMARK VINA RESULT:      -8.0      1.767      2.595
REMARK  3 active torsions:
REMARK  status: ('A' for Active; 'I' for Inactive)
REMARK    1  A    between atoms: C5_5  and  C6_6 
REMARK    2  A    between atoms: C7_7  and  C8_8 
REMARK    3  A    between atoms: C8_8  and  C9_9 
REMARK       I    between atoms: C9_9  and  N11_11 
ROOT
ATOM      1  C6  ZIN A   1      18.269   1.347  10.076  0.00  0.00     0.093 A 
ATOM      2  C7  ZIN A   1      18.742   0.601  11.113  0.00  0.00     0.056 A 
ATOM      3  N14 ZIN A   1      18.569   1.338  12.250  0.00  0.00    -0.307 N 
ATOM      4  C15 ZIN A   1      18.857   1.090  13.561  0.00  0.00     0.105 A 
ATOM      5  C16 ZIN A   1      18.577   2.005  14.513  0.00  0.00    -0.046 A 
ATOM      6  C17 ZIN A   1      18.904   1.712  15.955  0.00  0.00     0.049 C 
ATOM      7  C18 ZIN A   1      17.985   3.231  14.165  0.00  0.00     0.012 A 
ATOM      8  C19 ZIN A   1      17.691   3.492  12.863  0.00  0.00     0.051 A 
ATOM      9  C20 ZIN A   1      17.989   2.526  11.880  0.00  0.00     0.135 A 
ATOM     10  N21 ZIN A   1      17.822   2.514  10.567  0.00  0.00    -0.228 NA
ENDROOT
BRANCH   1  11
ATOM     11  C5  ZIN A   1      18.256   0.942   8.648  0.00  0.00    -0.005 A 
ATOM     12  C4  ZIN A   1      17.340  -0.005   8.198  0.00  0.00     0.014 A 
ATOM     13  C3  ZIN A   1      17.332  -0.377   6.869  0.00  0.00     0.007 A 
ATOM     14  C2  ZIN A   1      18.231   0.190   5.985  0.00  0.00    -0.062 A 
ATOM     15  C1  ZIN A   1      18.217  -0.219   4.534  0.00  0.00     0.048 C 
ATOM     16  C23 ZIN A   1      19.146   1.129   6.427  0.00  0.00     0.007 A 
ATOM     17  C22 ZIN A   1      19.159   1.511   7.753  0.00  0.00     0.014 A 
ENDBRANCH   1  11
BRANCH   2  18
ATOM     18  C8  ZIN A   1      19.345  -0.777  11.023  0.00  0.00     0.163 C 
BRANCH  18  19
ATOM     19  C9  ZIN A   1      18.294  -1.807  11.350  0.00  0.00     0.224 C 
ATOM     20  O10 ZIN A   1      17.130  -1.479  11.435  0.00  0.00    -0.273 OA
ATOM     21  N11 ZIN A   1      18.647  -3.092  11.548  0.00  0.00    -0.361 N 
ATOM     22  C12 ZIN A   1      17.626  -4.093  11.865  0.00  0.00     0.152 C 
ATOM     23  C13 ZIN A   1      20.055  -3.488  11.445  0.00  0.00     0.152 C 
ENDBRANCH  18  19
ENDBRANCH   2  18
TORSDOF 3
ENDMDL
MODEL 5
REMARK VINA RESULT:      -8.0      2.657      3.904
REMARK  3 active torsions:
REMARK  status: ('A' for Active; 'I' for Inactive)
REMARK    1  A    between atoms: C5_5  and  C6_6 
REMARK    2  A    between atoms: C7_7  and  C8_8 
REMARK    3  A    between atoms: C8_8  and  C9_9 
REMARK       I    between atoms: C9_9  and  N11_11 
ROOT
ATOM      1  C6  ZIN A   1      18.325   0.289  11.137  0.00  0.00     0.093 A 
ATOM      2  C7  ZIN A   1      18.751  -0.782  11.864  0.00  0.00     0.056 A 
ATOM      3  N14 ZIN A   1      18.595  -0.460  13.182  0.00  0.00    -0.307 N 
ATOM      4  C15 ZIN A   1      18.854  -1.146  14.334  0.00  0.00     0.105 A 
ATOM      5  C16 ZIN A   1      18.602  -0.590  15.538  0.00  0.00    -0.046 A 
ATOM      6  C17 ZIN A   1      18.895  -1.363  16.798  0.00  0.00     0.049 C 
ATOM      7  C18 ZIN A   1      18.068   0.707  15.621  0.00  0.00     0.012 A 
ATOM      8  C19 ZIN A   1      17.804   1.402  14.482  0.00  0.00     0.051 A 
ATOM      9  C20 ZIN A   1      18.073   0.807  13.232  0.00  0.00     0.135 A 
ATOM     10  N21 ZIN A   1      17.923   1.244  11.991  0.00  0.00    -0.228 NA
ENDROOT
BRANCH   1  11
ATOM     11  C5  ZIN A   1      18.314   0.386   9.656  0.00  0.00    -0.005 A 
ATOM     12  C4  ZIN A   1      17.350  -0.295   8.918  0.00  0.00     0.014 A 
ATOM     13  C3  ZIN A   1      17.344  -0.201   7.540  0.00  0.00     0.007 A 
ATOM     14  C2  ZIN A   1      18.293   0.570   6.894  0.00  0.00    -0.062 A 
ATOM     15  C1  ZIN A   1      18.281   0.670   5.390  0.00  0.00     0.048 C 
ATOM     16  C23 ZIN A   1      19.256   1.245   7.622  0.00  0.00     0.007 A 
ATOM     17  C22 ZIN A   1      19.267   1.161   9.000  0.00  0.00     0.014 A 
ENDBRANCH   1  11
BRANCH   2  18
ATOM     18  C8  ZIN A   1      19.295  -2.076  11.317  0.00  0.00     0.163 C 
BRANCH  18  19
ATOM     19  C9  ZIN A   1      18.188  -3.097  11.250  0.00  0.00     0.224 C 
ATOM     20  O10 ZIN A   1      17.056  -2.785  11.556  0.00  0.00    -0.273 OA
ATOM     21  N11 ZIN A   1      18.454  -4.356  10.849  0.00  0.00    -0.361 N 
ATOM     22  C12 ZIN A   1      17.378  -5.348  10.784  0.00  0.00     0.152 C 
ATOM     23  C13 ZIN A   1      19.821  -4.732  10.479  0.00  0.00     0.152 C 
ENDBRANCH  18  19
ENDBRANCH   2  18
TORSDOF 3
ENDMDL
MODEL 6
REMARK VINA RESULT:      -8.0      2.032      6.483
REMARK  3 active torsions:
REMARK  status: ('A' for Active; 'I' for Inactive)
REMARK    1  A    between atoms: C5_5  and  C6_6 
REMARK    2  A    between atoms: C7_7  and  C8_8 
REMARK    3  A    between atoms: C8_8  and  C9_9 
REMARK       I    between atoms: C9_9  and  N11_11 
ROOT
ATOM      1  C6  ZIN A   1      18.656   1.821   8.870  0.00  0.00     0.093 A 
ATOM      2  C7  ZIN A   1      18.064   0.598   8.770  0.00  0.00     0.056 A 
ATOM      3  N14 ZIN A   1      18.283   0.148   7.500  0.00  0.00    -0.307 N 
ATOM      4  C15 ZIN A   1      17.923  -1.001   6.856  0.00  0.00     0.105 A 
ATOM      5  C16 ZIN A   1      18.275  -1.208   5.568  0.00  0.00    -0.046 A 
ATOM      6  C17 ZIN A   1      17.867  -2.482   4.875  0.00  0.00     0.049 C 
ATOM      7  C18 ZIN A   1      19.018  -0.239   4.873  0.00  0.00     0.012 A 
ATOM      8  C19 ZIN A   1      19.385   0.909   5.502  0.00  0.00     0.051 A 
ATOM      9  C20 ZIN A   1      19.010   1.111   6.847  0.00  0.00     0.135 A 
ATOM     10  N21 ZIN A   1      19.220   2.113   7.686  0.00  0.00    -0.228 NA
ENDROOT
BRANCH   1  11
ATOM     11  C5  ZIN A   1      18.672   2.686  10.076  0.00  0.00    -0.005 A 
ATOM     12  C4  ZIN A   1      19.758   2.652  10.947  0.00  0.00     0.014 A 
ATOM     13  C3  ZIN A   1      19.766   3.458  12.067  0.00  0.00     0.007 A 
ATOM     14  C2  ZIN A   1      18.699   4.299  12.324  0.00  0.00    -0.062 A 
ATOM     15  C1  ZIN A   1      18.715   5.178  13.549  0.00  0.00     0.048 C 
ATOM     16  C23 ZIN A   1      17.615   4.333  11.466  0.00  0.00     0.007 A 
ATOM     17  C22 ZIN A   1      17.599   3.535  10.340  0.00  0.00     0.014 A 
ENDBRANCH   1  11
BRANCH   2  18
ATOM     18  C8  ZIN A   1      17.308  -0.121   9.857  0.00  0.00     0.163 C 
BRANCH  18  19
ATOM     19  C9  ZIN A   1      18.283  -0.822  10.767  0.00  0.00     0.224 C 
ATOM     20  O10 ZIN A   1      19.087  -1.605  10.307  0.00  0.00    -0.273 OA
ATOM     21  N11 ZIN A   1      18.263  -0.581  12.093  0.00  0.00    -0.361 N 
ATOM     22  C12 ZIN A   1      19.211  -1.263  12.978  0.00  0.00     0.152 C 
ATOM     23  C13 ZIN A   1      17.291   0.364  12.650  0.00  0.00     0.152 C 
ENDBRANCH  18  19
ENDBRANCH   2  18
TORSDOF 3
ENDMDL
MODEL 7
REMARK VINA RESULT:      -7.9      2.113      4.249
REMARK  3 active torsions:
REMARK  status: ('A' for Active; 'I' for Inactive)
REMARK    1  A    between atoms: C5_5  and  C6_6 
REMARK    2  A    between atoms: C7_7  and  C8_8 
REMARK    3  A    between atoms: C8_8  and  C9_9 
REMARK       I    between atoms: C9_9  and  N11_11 
ROOT
ATOM      1  C6  ZIN A   1      18.397   0.249  11.605  0.00  0.00     0.093 A 
ATOM      2  C7  ZIN A   1      18.082   1.213  12.514  0.00  0.00     0.056 A 
ATOM      3  N14 ZIN A   1      18.187   0.648  13.753  0.00  0.00    -0.307 N 
ATOM      4  C15 ZIN A   1      17.991   1.143  15.010  0.00  0.00     0.105 A 
ATOM      5  C16 ZIN A   1      18.166   0.357  16.095  0.00  0.00    -0.046 A 
ATOM      6  C17 ZIN A   1      17.944   0.922  17.474  0.00  0.00     0.049 C 
ATOM      7  C18 ZIN A   1      18.553  -0.985  15.942  0.00  0.00     0.012 A 
ATOM      8  C19 ZIN A   1      18.752  -1.491  14.696  0.00  0.00     0.051 A 
ATOM      9  C20 ZIN A   1      18.566  -0.658  13.573  0.00  0.00     0.135 A 
ATOM     10  N21 ZIN A   1      18.682  -0.882  12.273  0.00  0.00    -0.228 NA
ENDROOT
BRANCH   1  11
ATOM     11  C5  ZIN A   1      18.416   0.415  10.131  0.00  0.00    -0.005 A 
ATOM     12  C4  ZIN A   1      19.417   1.169   9.525  0.00  0.00     0.014 A 
ATOM     13  C3  ZIN A   1      19.429   1.320   8.152  0.00  0.00     0.007 A 
ATOM     14  C2  ZIN A   1      18.449   0.723   7.380  0.00  0.00    -0.062 A 
ATOM     15  C1  ZIN A   1      18.469   0.890   5.882  0.00  0.00     0.048 C 
ATOM     16  C23 ZIN A   1      17.450  -0.024   7.977  0.00  0.00     0.007 A 
ATOM     17  C22 ZIN A   1      17.432  -0.185   9.348  0.00  0.00     0.014 A 
ENDBRANCH   1  11
BRANCH   2  18
ATOM     18  C8  ZIN A   1      17.691   2.637  12.210  0.00  0.00     0.163 C 
BRANCH  18  19
ATOM     19  C9  ZIN A   1      18.830   3.557  12.567  0.00  0.00     0.224 C 
ATOM     20  O10 ZIN A   1      19.901   3.440  12.011  0.00  0.00    -0.273 OA
ATOM     21  N11 ZIN A   1      18.659   4.510  13.504  0.00  0.00    -0.361 N 
ATOM     22  C12 ZIN A   1      19.765   5.405  13.851  0.00  0.00     0.152 C 
ATOM     23  C13 ZIN A   1      17.364   4.651  14.177  0.00  0.00     0.152 C 
ENDBRANCH  18  19
ENDBRANCH   2  18
TORSDOF 3
ENDMDL
MODEL 8
REMARK VINA RESULT:      -7.9      2.197      6.696
REMARK  3 active torsions:
REMARK  status: ('A' for Active; 'I' for Inactive)
REMARK    1  A    between atoms: C5_5  and  C6_6 
REMARK    2  A    between atoms: C7_7  and  C8_8 
REMARK    3  A    between atoms: C8_8  and  C9_9 
REMARK       I    between atoms: C9_9  and  N11_11 
ROOT
ATOM      1  C6  ZIN A   1      18.457  -0.434  11.733  0.00  0.00     0.093 A 
ATOM      2  C7  ZIN A   1      18.841   0.627  10.971  0.00  0.00     0.056 A 
ATOM      3  N14 ZIN A   1      18.752   0.236   9.665  0.00  0.00    -0.307 N 
ATOM      4  C15 ZIN A   1      19.009   0.884   8.491  0.00  0.00     0.105 A 
ATOM      5  C16 ZIN A   1      18.836   0.258   7.307  0.00  0.00    -0.046 A 
ATOM      6  C17 ZIN A   1      19.126   0.990   6.022  0.00  0.00     0.049 C 
ATOM      7  C18 ZIN A   1      18.387  -1.072   7.268  0.00  0.00     0.012 A 
ATOM      8  C19 ZIN A   1      18.126  -1.730   8.429  0.00  0.00     0.051 A 
ATOM      9  C20 ZIN A   1      18.312  -1.063   9.658  0.00  0.00     0.135 A 
ATOM     10  N21 ZIN A   1      18.145  -1.451  10.913  0.00  0.00    -0.228 NA
ENDROOT
BRANCH   1  11
ATOM     11  C5  ZIN A   1      18.398  -0.465  13.216  0.00  0.00    -0.005 A 
ATOM     12  C4  ZIN A   1      19.308  -1.234  13.937  0.00  0.00     0.014 A 
ATOM     13  C3  ZIN A   1      19.248  -1.259  15.316  0.00  0.00     0.007 A 
ATOM     14  C2  ZIN A   1      18.287  -0.520  15.981  0.00  0.00    -0.062 A 
ATOM     15  C1  ZIN A   1      18.227  -0.550  17.487  0.00  0.00     0.048 C 
ATOM     16  C23 ZIN A   1      17.377   0.242  15.271  0.00  0.00     0.007 A 
ATOM     17  C22 ZIN A   1      17.432   0.277  13.892  0.00  0.00     0.014 A 
ENDBRANCH   1  11
BRANCH   2  18
ATOM     18  C8  ZIN A   1      19.282   1.977  11.473  0.00  0.00     0.163 C 
BRANCH  18  19
ATOM     19  C9  ZIN A   1      18.094   2.900  11.541  0.00  0.00     0.224 C 
ATOM     20  O10 ZIN A   1      17.020   2.540  11.108  0.00  0.00    -0.273 OA
ATOM     21  N11 ZIN A   1      18.222   4.128  12.084  0.00  0.00    -0.361 N 
ATOM     22  C12 ZIN A   1      17.067   5.025  12.150  0.00  0.00     0.152 C 
ATOM     23  C13 ZIN A   1      19.520   4.564  12.608  0.00  0.00     0.152 C 
ENDBRANCH  18  19
ENDBRANCH   2  18
TORSDOF 3
ENDMDL
MODEL 9
REMARK VINA RESULT:      -7.7      2.765      4.836
REMARK  3 active torsions:
REMARK  status: ('A' for Active; 'I' for Inactive)
REMARK    1  A    between atoms: C5_5  and  C6_6 
REMARK    2  A    between atoms: C7_7  and  C8_8 
REMARK    3  A    between atoms: C8_8  and  C9_9 
REMARK       I    between atoms: C9_9  and  N11_11 
ROOT
ATOM      1  C6  ZIN A   1      18.834  -1.418  13.555  0.00  0.00     0.093 A 
ATOM      2  C7  ZIN A   1      19.098  -0.095  13.370  0.00  0.00     0.056 A 
ATOM      3  N14 ZIN A   1      19.062   0.497  14.600  0.00  0.00    -0.307 N 
ATOM      4  C15 ZIN A   1      19.252   1.787  15.007  0.00  0.00     0.105 A 
ATOM      5  C16 ZIN A   1      19.161   2.118  16.313  0.00  0.00    -0.046 A 
ATOM      6  C17 ZIN A   1      19.373   3.547  16.741  0.00  0.00     0.049 C 
ATOM      7  C18 ZIN A   1      18.869   1.135  17.274  0.00  0.00     0.012 A 
ATOM      8  C19 ZIN A   1      18.678  -0.153  16.884  0.00  0.00     0.051 A 
ATOM      9  C20 ZIN A   1      18.777  -0.483  15.516  0.00  0.00     0.135 A 
ATOM     10  N21 ZIN A   1      18.637  -1.629  14.867  0.00  0.00    -0.228 NA
ENDROOT
BRANCH   1  11
ATOM     11  C5  ZIN A   1      18.769  -2.450  12.490  0.00  0.00    -0.005 A 
ATOM     12  C4  ZIN A   1      19.916  -3.146  12.119  0.00  0.00     0.014 A 
ATOM     13  C3  ZIN A   1      19.850  -4.105  11.128  0.00  0.00     0.007 A 
ATOM     14  C2  ZIN A   1      18.645  -4.374  10.504  0.00  0.00    -0.062 A 
ATOM     15  C1  ZIN A   1      18.578  -5.423   9.423  0.00  0.00     0.048 C 
ATOM     16  C23 ZIN A   1      17.503  -3.682  10.865  0.00  0.00     0.007 A 
ATOM     17  C22 ZIN A   1      17.558  -2.726  11.858  0.00  0.00     0.014 A 
ENDBRANCH   1  11
BRANCH   2  18
ATOM     18  C8  ZIN A   1      19.375   0.588  12.056  0.00  0.00     0.163 C 
BRANCH  18  19
ATOM     19  C9  ZIN A   1      18.237   1.518  11.724  0.00  0.00     0.224 C 
ATOM     20  O10 ZIN A   1      17.099   1.100  11.699  0.00  0.00    -0.273 OA
ATOM     21  N11 ZIN A   1      18.483   2.816  11.454  0.00  0.00    -0.361 N 
ATOM     22  C12 ZIN A   1      17.377   3.720  11.131  0.00  0.00     0.152 C 
ATOM     23  C13 ZIN A   1      19.858   3.321  11.483  0.00  0.00     0.152 C 
ENDBRANCH  18  19
ENDBRANCH   2  18
TORSDOF 3
ENDMDL
