MODEL 1
REMARK VINA RESULT:      -6.3      0.000      0.000
REMARK  5 active torsions:
REMARK  status: ('A' for Active; 'I' for Inactive)
REMARK    1  A    between atoms: C2_2  and  O4_3 
REMARK    2  A    between atoms: C2_2  and  C5_4 
REMARK    3  A    between atoms: C5_4  and  O7_5 
REMARK    4  A    between atoms: C5_4  and  C8_6 
REMARK    5  A    between atoms: C18_15  and  N19_16 
ROOT
ATOM      1  C8  <0> d   1      18.780   0.434  12.790  0.00  0.00     0.131 C 
ATOM      2  C10 <0> d   1      18.864   0.533  14.320  0.00  0.00     0.149 C 
ATOM      3  N11 <0> d   1      19.322   1.884  14.672  0.00  0.00    -0.370 N 
ATOM      4  C12 <0> d   1      18.746   2.976  14.040  0.00  0.00     0.175 A 
ATOM      5  C13 <0> d   1      18.033   2.796  12.864  0.00  0.00     0.146 A 
ATOM      6  N14 <0> d   1      17.888   1.503  12.312  0.00  0.00    -0.373 N 
ATOM      7  C15 <0> d   1      17.462   3.909  12.237  0.00  0.00     0.313 A 
ATOM      8  O16 <0> d   1      16.827   3.785  11.201  0.00  0.00    -0.263 OA
ATOM      9  N17 <0> d   1      17.627   5.124  12.805  0.00  0.00    -0.020 NA
ATOM     10  C18 <0> d   1      18.336   5.247  13.960  0.00  0.00     0.725 A 
ATOM     11  N20 <0> d   1      18.876   4.204  14.554  0.00  0.00    -0.043 NA
ATOM     12  H28 <0> d   1      20.017   2.011  15.337  0.00  0.00     0.161 HD
ATOM     13  H29 <0> d   1      17.216   1.324  11.635  0.00  0.00     0.160 HD
ENDROOT
BRANCH   1  14
ATOM     14  C5  <0> d   1      20.173   0.612  12.182  0.00  0.00     0.170 C 
BRANCH  14  15
ATOM     15  C2  <0> d   1      20.361  -0.386  11.038  0.00  0.00     0.145 C 
ATOM     16  C1  <0> d   1      19.652  -1.697  11.383  0.00  0.00     0.042 C 
BRANCH  15  17
ATOM     17  O4  <0> d   1      21.755  -0.634  10.846  0.00  0.00    -0.393 OA
ATOM     18  H24 <0> d   1      21.955  -1.518  10.508  0.00  0.00     0.210 HD
ENDBRANCH  15  17
ENDBRANCH  14  15
BRANCH  14  19
ATOM     19  O7  <0> d   1      21.163   0.380  13.184  0.00  0.00    -0.391 OA
ATOM     20  H25 <0> d   1      20.851  -0.151  13.930  0.00  0.00     0.210 HD
ENDBRANCH  14  19
ENDBRANCH   1  14
BRANCH  10  21
ATOM     21  N19 <0> d   1      18.490   6.491  14.521  0.00  0.00    -0.231 N 
ATOM     22  H30 <0> d   1      19.211   7.069  14.226  0.00  0.00     0.174 HD
ATOM     23  H31 <0> d   1      17.880   6.790  15.212  0.00  0.00     0.174 HD
ENDBRANCH  10  21
TORSDOF 5
ENDMDL
MODEL 2
REMARK VINA RESULT:      -6.3      4.276      6.002
REMARK  5 active torsions:
REMARK  status: ('A' for Active; 'I' for Inactive)
REMARK    1  A    between atoms: C2_2  and  O4_3 
REMARK    2  A    between atoms: C2_2  and  C5_4 
REMARK    3  A    between atoms: C5_4  and  O7_5 
REMARK    4  A    between atoms: C5_4  and  C8_6 
REMARK    5  A    between atoms: C18_15  and  N19_16 
ROOT
ATOM      1  C8  <0> d   1      18.062  -1.955   7.620  0.00  0.00     0.131 C 
ATOM      2  C10 <0> d   1      18.481  -3.055   8.608  0.00  0.00     0.149 C 
ATOM      3  N11 <0> d   1      19.658  -2.584   9.351  0.00  0.00    -0.370 N 
ATOM      4  C12 <0> d   1      19.660  -1.296   9.865  0.00  0.00     0.175 A 
ATOM      5  C13 <0> d   1      18.752  -0.361   9.389  0.00  0.00     0.146 A 
ATOM      6  N14 <0> d   1      17.823  -0.721   8.386  0.00  0.00    -0.373 N 
ATOM      7  C15 <0> d   1      18.770   0.935   9.915  0.00  0.00     0.313 A 
ATOM      8  O16 <0> d   1      17.984   1.781   9.518  0.00  0.00    -0.263 OA
ATOM      9  N17 <0> d   1      19.676   1.229  10.873  0.00  0.00    -0.020 NA
ATOM     10  C18 <0> d   1      20.545   0.276  11.307  0.00  0.00     0.725 A 
ATOM     11  N20 <0> d   1      20.533  -0.945  10.816  0.00  0.00    -0.043 NA
ATOM     12  H28 <0> d   1      20.423  -3.166   9.482  0.00  0.00     0.161 HD
ATOM     13  H29 <0> d   1      17.046  -0.168   8.206  0.00  0.00     0.160 HD
ENDROOT
BRANCH   1  14
ATOM     14  C5  <0> d   1      19.179  -1.724   6.600  0.00  0.00     0.170 C 
BRANCH  14  15
ATOM     15  C2  <0> d   1      18.567  -1.295   5.265  0.00  0.00     0.145 C 
ATOM     16  C1  <0> d   1      19.168   0.046   4.836  0.00  0.00     0.042 C 
BRANCH  15  17
ATOM     17  O4  <0> d   1      17.152  -1.159   5.409  0.00  0.00    -0.393 OA
ATOM     18  H24 <0> d   1      16.881  -0.375   5.905  0.00  0.00     0.210 HD
ENDBRANCH  15  17
ENDBRANCH  14  15
BRANCH  14  19
ATOM     19  O7  <0> d   1      19.918  -2.932   6.420  0.00  0.00    -0.391 OA
ATOM     20  H25 <0> d   1      19.517  -3.705   6.842  0.00  0.00     0.210 HD
ENDBRANCH  14  19
ENDBRANCH   1  14
BRANCH  10  21
ATOM     21  N19 <0> d   1      21.456   0.596  12.283  0.00  0.00    -0.231 N 
ATOM     22  H30 <0> d   1      21.218   1.224  12.981  0.00  0.00     0.174 HD
ATOM     23  H31 <0> d   1      22.339   0.194  12.272  0.00  0.00     0.174 HD
ENDBRANCH  10  21
TORSDOF 5
ENDMDL
MODEL 3
REMARK VINA RESULT:      -6.2      4.317      7.374
REMARK  5 active torsions:
REMARK  status: ('A' for Active; 'I' for Inactive)
REMARK    1  A    between atoms: C2_2  and  O4_3 
REMARK    2  A    between atoms: C2_2  and  C5_4 
REMARK    3  A    between atoms: C5_4  and  O7_5 
REMARK    4  A    between atoms: C5_4  and  C8_6 
REMARK    5  A    between atoms: C18_15  and  N19_16 
ROOT
ATOM      1  C8  <0> d   1      18.978  -0.439  10.063  0.00  0.00     0.131 C 
ATOM      2  C10 <0> d   1      19.204  -0.592   8.551  0.00  0.00     0.149 C 
ATOM      3  N11 <0> d   1      19.641  -1.970   8.286  0.00  0.00    -0.370 N 
ATOM      4  C12 <0> d   1      18.966  -3.018   8.892  0.00  0.00     0.175 A 
ATOM      5  C13 <0> d   1      18.152  -2.774   9.988  0.00  0.00     0.146 A 
ATOM      6  N14 <0> d   1      18.005  -1.459  10.484  0.00  0.00    -0.373 N 
ATOM      7  C15 <0> d   1      17.482  -3.845  10.590  0.00  0.00     0.313 A 
ATOM      8  O16 <0> d   1      16.757  -3.664  11.556  0.00  0.00    -0.263 OA
ATOM      9  N17 <0> d   1      17.654  -5.084  10.078  0.00  0.00    -0.020 NA
ATOM     10  C18 <0> d   1      18.463  -5.270   9.000  0.00  0.00     0.725 A 
ATOM     11  N20 <0> d   1      19.097  -4.267   8.430  0.00  0.00    -0.043 NA
ATOM     12  H28 <0> d   1      20.391  -2.143   7.695  0.00  0.00     0.161 HD
ATOM     13  H29 <0> d   1      17.279  -1.234  11.088  0.00  0.00     0.160 HD
ENDROOT
BRANCH   1  14
ATOM     14  C5  <0> d   1      20.299  -0.646  10.806  0.00  0.00     0.170 C 
BRANCH  14  15
ATOM     15  C2  <0> d   1      20.398   0.356  11.958  0.00  0.00     0.145 C 
ATOM     16  C1  <0> d   1      19.657   1.641  11.581  0.00  0.00     0.042 C 
BRANCH  15  17
ATOM     17  O4  <0> d   1      21.771   0.656  12.214  0.00  0.00    -0.393 OA
ATOM     18  H24 <0> d   1      21.907   1.332  12.892  0.00  0.00     0.210 HD
ENDBRANCH  15  17
ENDBRANCH  14  15
BRANCH  14  19
ATOM     19  O7  <0> d   1      21.390  -0.444   9.906  0.00  0.00    -0.391 OA
ATOM     20  H25 <0> d   1      22.177  -0.964  10.119  0.00  0.00     0.210 HD
ENDBRANCH  14  19
ENDBRANCH   1  14
BRANCH  10  21
ATOM     21  N19 <0> d   1      18.623  -6.536   8.495  0.00  0.00    -0.231 N 
ATOM     22  H30 <0> d   1      19.471  -6.996   8.597  0.00  0.00     0.174 HD
ATOM     23  H31 <0> d   1      17.888  -6.970   8.034  0.00  0.00     0.174 HD
ENDBRANCH  10  21
TORSDOF 5
ENDMDL
MODEL 4
REMARK VINA RESULT:      -6.1      3.593      4.983
REMARK  5 active torsions:
REMARK  status: ('A' for Active; 'I' for Inactive)
REMARK    1  A    between atoms: C2_2  and  O4_3 
REMARK    2  A    between atoms: C2_2  and  C5_4 
REMARK    3  A    between atoms: C5_4  and  O7_5 
REMARK    4  A    between atoms: C5_4  and  C8_6 
REMARK    5  A    between atoms: C18_15  and  N19_16 
ROOT
ATOM      1  C8  <0> d   1      18.395  -3.487  11.282  0.00  0.00     0.131 C 
ATOM      2  C10 <0> d   1      19.815  -3.243  11.816  0.00  0.00     0.149 C 
ATOM      3  N11 <0> d   1      20.325  -2.000  11.221  0.00  0.00    -0.370 N 
ATOM      4  C12 <0> d   1      19.505  -0.882  11.190  0.00  0.00     0.175 A 
ATOM      5  C13 <0> d   1      18.138  -1.023  11.374  0.00  0.00     0.146 A 
ATOM      6  N14 <0> d   1      17.580  -2.302  11.597  0.00  0.00    -0.373 N 
ATOM      7  C15 <0> d   1      17.325   0.115  11.335  0.00  0.00     0.313 A 
ATOM      8  O16 <0> d   1      16.117   0.025  11.493  0.00  0.00    -0.263 OA
ATOM      9  N17 <0> d   1      17.906   1.316  11.120  0.00  0.00    -0.020 NA
ATOM     10  C18 <0> d   1      19.253   1.401  10.947  0.00  0.00     0.725 A 
ATOM     11  N20 <0> d   1      20.024   0.334  10.981  0.00  0.00    -0.043 NA
ATOM     12  H28 <0> d   1      21.224  -1.962  10.856  0.00  0.00     0.161 HD
ATOM     13  H29 <0> d   1      16.681  -2.398  11.950  0.00  0.00     0.160 HD
ENDROOT
BRANCH   1  14
ATOM     14  C5  <0> d   1      18.441  -3.695   9.767  0.00  0.00     0.170 C 
BRANCH  14  15
ATOM     15  C2  <0> d   1      17.290  -4.610   9.343  0.00  0.00     0.145 C 
ATOM     16  C1  <0> d   1      17.674  -6.067   9.606  0.00  0.00     0.042 C 
BRANCH  15  17
ATOM     17  O4  <0> d   1      17.026  -4.430   7.951  0.00  0.00    -0.393 OA
ATOM     18  H24 <0> d   1      16.921  -5.257   7.460  0.00  0.00     0.210 HD
ENDBRANCH  15  17
ENDBRANCH  14  15
BRANCH  14  19
ATOM     19  O7  <0> d   1      19.685  -4.297   9.406  0.00  0.00    -0.391 OA
ATOM     20  H25 <0> d   1      19.764  -5.225   9.668  0.00  0.00     0.210 HD
ENDBRANCH  14  19
ENDBRANCH   1  14
BRANCH  10  21
ATOM     21  N19 <0> d   1      19.824   2.631  10.731  0.00  0.00    -0.231 N 
ATOM     22  H30 <0> d   1      19.777   3.039   9.853  0.00  0.00     0.174 HD
ATOM     23  H31 <0> d   1      20.274   3.090  11.457  0.00  0.00     0.174 HD
ENDBRANCH  10  21
TORSDOF 5
ENDMDL
MODEL 5
REMARK VINA RESULT:      -6.0      3.103      5.524
REMARK  5 active torsions:
REMARK  status: ('A' for Active; 'I' for Inactive)
REMARK    1  A    between atoms: C2_2  and  O4_3 
REMARK    2  A    between atoms: C2_2  and  C5_4 
REMARK    3  A    between atoms: C5_4  and  O7_5 
REMARK    4  A    between atoms: C5_4  and  C8_6 
REMARK    5  A    between atoms: C18_15  and  N19_16 
ROOT
ATOM      1  C8  <0> d   1      18.756   2.667  10.279  0.00  0.00     0.131 C 
ATOM      2  C10 <0> d   1      19.748   1.899   9.392  0.00  0.00     0.149 C 
ATOM      3  N11 <0> d   1      20.104   0.647  10.074  0.00  0.00    -0.370 N 
ATOM      4  C12 <0> d   1      19.096  -0.122  10.637  0.00  0.00     0.175 A 
ATOM      5  C13 <0> d   1      17.850   0.439  10.876  0.00  0.00     0.146 A 
ATOM      6  N14 <0> d   1      17.604   1.790  10.541  0.00  0.00    -0.373 N 
ATOM      7  C15 <0> d   1      16.847  -0.350  11.448  0.00  0.00     0.313 A 
ATOM      8  O16 <0> d   1      15.739   0.113  11.671  0.00  0.00    -0.263 OA
ATOM      9  N17 <0> d   1      17.131  -1.637  11.750  0.00  0.00    -0.020 NA
ATOM     10  C18 <0> d   1      18.370  -2.140  11.495  0.00  0.00     0.725 A 
ATOM     11  N20 <0> d   1      19.318  -1.402  10.957  0.00  0.00    -0.043 NA
ATOM     12  H28 <0> d   1      21.029   0.361  10.128  0.00  0.00     0.161 HD
ATOM     13  H29 <0> d   1      16.697   2.130  10.484  0.00  0.00     0.160 HD
ENDROOT
BRANCH   1  14
ATOM     14  C5  <0> d   1      19.429   3.045  11.600  0.00  0.00     0.170 C 
BRANCH  14  15
ATOM     15  C2  <0> d   1      18.909   4.407  12.065  0.00  0.00     0.145 C 
ATOM     16  C1  <0> d   1      18.267   4.263  13.447  0.00  0.00     0.042 C 
BRANCH  15  17
ATOM     17  O4  <0> d   1      17.937   4.889  11.136  0.00  0.00    -0.393 OA
ATOM     18  H24 <0> d   1      17.424   4.192  10.705  0.00  0.00     0.210 HD
ENDBRANCH  15  17
ENDBRANCH  14  15
BRANCH  14  19
ATOM     19  O7  <0> d   1      20.843   3.114  11.413  0.00  0.00    -0.391 OA
ATOM     20  H25 <0> d   1      21.264   2.255  11.272  0.00  0.00     0.210 HD
ENDBRANCH  14  19
ENDBRANCH   1  14
BRANCH  10  21
ATOM     21  N19 <0> d   1      18.637  -3.450  11.807  0.00  0.00    -0.231 N 
ATOM     22  H30 <0> d   1      17.925  -4.027  12.123  0.00  0.00     0.174 HD
ATOM     23  H31 <0> d   1      19.537  -3.796  11.713  0.00  0.00     0.174 HD
ENDBRANCH  10  21
TORSDOF 5
ENDMDL
MODEL 6
REMARK VINA RESULT:      -5.9      2.875      5.400
REMARK  5 active torsions:
REMARK  status: ('A' for Active; 'I' for Inactive)
REMARK    1  A    between atoms: C2_2  and  O4_3 
REMARK    2  A    between atoms: C2_2  and  C5_4 
REMARK    3  A    between atoms: C5_4  and  O7_5 
REMARK    4  A    between atoms: C5_4  and  C8_6 
REMARK    5  A    between atoms: C18_15  and  N19_16 
ROOT
ATOM      1  C8  <0> d   1      18.483   3.506  12.025  0.00  0.00     0.131 C 
ATOM      2  C10 <0> d   1      19.891   3.260  11.461  0.00  0.00     0.149 C 
ATOM      3  N11 <0> d   1      20.386   1.984  11.995  0.00  0.00    -0.370 N 
ATOM      4  C12 <0> d   1      19.547   0.881  11.990  0.00  0.00     0.175 A 
ATOM      5  C13 <0> d   1      18.179   1.054  11.832  0.00  0.00     0.146 A 
ATOM      6  N14 <0> d   1      17.642   2.351  11.671  0.00  0.00    -0.373 N 
ATOM      7  C15 <0> d   1      17.347  -0.070  11.834  0.00  0.00     0.313 A 
ATOM      8  O16 <0> d   1      16.139   0.047  11.697  0.00  0.00    -0.263 OA
ATOM      9  N17 <0> d   1      17.909  -1.290  11.990  0.00  0.00    -0.020 NA
ATOM     10  C18 <0> d   1      19.256  -1.406  12.140  0.00  0.00     0.725 A 
ATOM     11  N20 <0> d   1      20.045  -0.352  12.140  0.00  0.00    -0.043 NA
ATOM     12  H28 <0> d   1      21.288   1.914  12.345  0.00  0.00     0.161 HD
ATOM     13  H29 <0> d   1      16.740   2.477  11.336  0.00  0.00     0.160 HD
ENDROOT
BRANCH   1  14
ATOM     14  C5  <0> d   1      18.553   3.649  13.547  0.00  0.00     0.170 C 
BRANCH  14  15
ATOM     15  C2  <0> d   1      17.319   4.404  14.045  0.00  0.00     0.145 C 
ATOM     16  C1  <0> d   1      17.354   5.840  13.517  0.00  0.00     0.042 C 
BRANCH  15  17
ATOM     17  O4  <0> d   1      17.315   4.422  15.474  0.00  0.00    -0.393 OA
ATOM     18  H24 <0> d   1      16.966   5.238  15.856  0.00  0.00     0.210 HD
ENDBRANCH  15  17
ENDBRANCH  14  15
BRANCH  14  19
ATOM     19  O7  <0> d   1      19.731   4.372  13.904  0.00  0.00    -0.391 OA
ATOM     20  H25 <0> d   1      20.414   4.374  13.219  0.00  0.00     0.210 HD
ENDBRANCH  14  19
ENDBRANCH   1  14
BRANCH  10  21
ATOM     21  N19 <0> d   1      19.807  -2.654  12.295  0.00  0.00    -0.231 N 
ATOM     22  H30 <0> d   1      20.769  -2.767  12.251  0.00  0.00     0.174 HD
ATOM     23  H31 <0> d   1      19.234  -3.421  12.448  0.00  0.00     0.174 HD
ENDBRANCH  10  21
TORSDOF 5
ENDMDL
MODEL 7
REMARK VINA RESULT:      -5.9      2.759      4.971
REMARK  5 active torsions:
REMARK  status: ('A' for Active; 'I' for Inactive)
REMARK    1  A    between atoms: C2_2  and  O4_3 
REMARK    2  A    between atoms: C2_2  and  C5_4 
REMARK    3  A    between atoms: C5_4  and  O7_5 
REMARK    4  A    between atoms: C5_4  and  C8_6 
REMARK    5  A    between atoms: C18_15  and  N19_16 
ROOT
ATOM      1  C8  <0> d   1      17.861   1.834  14.655  0.00  0.00     0.131 C 
ATOM      2  C10 <0> d   1      18.453   2.997  13.844  0.00  0.00     0.149 C 
ATOM      3  N11 <0> d   1      19.508   2.462  12.972  0.00  0.00    -0.370 N 
ATOM      4  C12 <0> d   1      19.262   1.304  12.251  0.00  0.00     0.175 A 
ATOM      5  C13 <0> d   1      18.209   0.476  12.611  0.00  0.00     0.146 A 
ATOM      6  N14 <0> d   1      17.383   0.814  13.707  0.00  0.00    -0.373 N 
ATOM      7  C15 <0> d   1      17.977  -0.690  11.874  0.00  0.00     0.313 A 
ATOM      8  O16 <0> d   1      17.058  -1.441  12.165  0.00  0.00    -0.263 OA
ATOM      9  N17 <0> d   1      18.793  -0.969  10.834  0.00  0.00    -0.020 NA
ATOM     10  C18 <0> d   1      19.812  -0.124  10.520  0.00  0.00     0.725 A 
ATOM     11  N20 <0> d   1      20.036   0.975  11.209  0.00  0.00    -0.043 NA
ATOM     12  H28 <0> d   1      20.364   2.914  12.901  0.00  0.00     0.161 HD
ATOM     13  H29 <0> d   1      16.522   0.385  13.832  0.00  0.00     0.160 HD
ENDROOT
BRANCH   1  14
ATOM     14  C5  <0> d   1      18.938   1.234  15.561  0.00  0.00     0.170 C 
BRANCH  14  15
ATOM     15  C2  <0> d   1      18.272   0.528  16.744  0.00  0.00     0.145 C 
ATOM     16  C1  <0> d   1      18.873  -0.870  16.906  0.00  0.00     0.042 C 
BRANCH  15  17
ATOM     17  O4  <0> d   1      16.868   0.418  16.505  0.00  0.00    -0.393 OA
ATOM     18  H24 <0> d   1      16.343   0.270  17.304  0.00  0.00     0.210 HD
ENDBRANCH  15  17
ENDBRANCH  14  15
BRANCH  14  19
ATOM     19  O7  <0> d   1      19.788   2.275  16.045  0.00  0.00    -0.391 OA
ATOM     20  H25 <0> d   1      19.728   3.098  15.540  0.00  0.00     0.210 HD
ENDBRANCH  14  19
ENDBRANCH   1  14
BRANCH  10  21
ATOM     21  N19 <0> d   1      20.628  -0.425   9.458  0.00  0.00    -0.231 N 
ATOM     22  H30 <0> d   1      21.536  -0.728   9.616  0.00  0.00     0.174 HD
ATOM     23  H31 <0> d   1      20.297  -0.333   8.552  0.00  0.00     0.174 HD
ENDBRANCH  10  21
TORSDOF 5
ENDMDL
MODEL 8
REMARK VINA RESULT:      -5.9      5.048      6.863
REMARK  5 active torsions:
REMARK  status: ('A' for Active; 'I' for Inactive)
REMARK    1  A    between atoms: C2_2  and  O4_3 
REMARK    2  A    between atoms: C2_2  and  C5_4 
REMARK    3  A    between atoms: C5_4  and  O7_5 
REMARK    4  A    between atoms: C5_4  and  C8_6 
REMARK    5  A    between atoms: C18_15  and  N19_16 
ROOT
ATOM      1  C8  <0> d   1      17.558  -4.210   8.672  0.00  0.00     0.131 C 
ATOM      2  C10 <0> d   1      17.329  -4.249  10.191  0.00  0.00     0.149 C 
ATOM      3  N11 <0> d   1      18.528  -3.716  10.852  0.00  0.00    -0.370 N 
ATOM      4  C12 <0> d   1      19.101  -2.549  10.371  0.00  0.00     0.175 A 
ATOM      5  C13 <0> d   1      18.784  -2.098   9.098  0.00  0.00     0.146 A 
ATOM      6  N14 <0> d   1      17.875  -2.823   8.294  0.00  0.00    -0.373 N 
ATOM      7  C15 <0> d   1      19.373  -0.920   8.626  0.00  0.00     0.313 A 
ATOM      8  O16 <0> d   1      19.115  -0.496   7.510  0.00  0.00    -0.263 OA
ATOM      9  N17 <0> d   1      20.235  -0.262   9.433  0.00  0.00    -0.020 NA
ATOM     10  C18 <0> d   1      20.512  -0.746  10.675  0.00  0.00     0.725 A 
ATOM     11  N20 <0> d   1      19.961  -1.853  11.124  0.00  0.00    -0.043 NA
ATOM     12  H28 <0> d   1      18.913  -4.174  11.616  0.00  0.00     0.161 HD
ATOM     13  H29 <0> d   1      17.469  -2.417   7.512  0.00  0.00     0.160 HD
ENDROOT
BRANCH   1  14
ATOM     14  C5  <0> d   1      18.726  -5.127   8.301  0.00  0.00     0.170 C 
BRANCH  14  15
ATOM     15  C2  <0> d   1      18.479  -5.732   6.918  0.00  0.00     0.145 C 
ATOM     16  C1  <0> d   1      17.596  -6.974   7.055  0.00  0.00     0.042 C 
BRANCH  15  17
ATOM     17  O4  <0> d   1      19.727  -6.097   6.327  0.00  0.00    -0.393 OA
ATOM     18  H24 <0> d   1      20.240  -6.729   6.849  0.00  0.00     0.210 HD
ENDBRANCH  15  17
ENDBRANCH  14  15
BRANCH  14  19
ATOM     19  O7  <0> d   1      18.834  -6.174   9.266  0.00  0.00    -0.391 OA
ATOM     20  H25 <0> d   1      18.504  -7.029   8.958  0.00  0.00     0.210 HD
ENDBRANCH  14  19
ENDBRANCH   1  14
BRANCH  10  21
ATOM     21  N19 <0> d   1      21.388  -0.061  11.479  0.00  0.00    -0.231 N 
ATOM     22  H30 <0> d   1      22.251   0.214  11.132  0.00  0.00     0.174 HD
ATOM     23  H31 <0> d   1      21.145   0.147  12.394  0.00  0.00     0.174 HD
ENDBRANCH  10  21
TORSDOF 5
ENDMDL
MODEL 9
REMARK VINA RESULT:      -5.8      3.815      5.890
REMARK  5 active torsions:
REMARK  status: ('A' for Active; 'I' for Inactive)
REMARK    1  A    between atoms: C2_2  and  O4_3 
REMARK    2  A    between atoms: C2_2  and  C5_4 
REMARK    3  A    between atoms: C5_4  and  O7_5 
REMARK    4  A    between atoms: C5_4  and  C8_6 
REMARK    5  A    between atoms: C18_15  and  N19_16 
ROOT
ATOM      1  C8  <0> d   1      18.284   1.099  11.089  0.00  0.00     0.131 C 
ATOM      2  C10 <0> d   1      18.116   2.458  10.391  0.00  0.00     0.149 C 
ATOM      3  N11 <0> d   1      18.905   2.440   9.151  0.00  0.00    -0.370 N 
ATOM      4  C12 <0> d   1      18.825   1.334   8.318  0.00  0.00     0.175 A 
ATOM      5  C13 <0> d   1      18.317   0.139   8.804  0.00  0.00     0.146 A 
ATOM      6  N14 <0> d   1      17.875   0.047  10.144  0.00  0.00    -0.373 N 
ATOM      7  C15 <0> d   1      18.248  -0.968   7.951  0.00  0.00     0.313 A 
ATOM      8  O16 <0> d   1      17.805  -2.035   8.347  0.00  0.00    -0.263 OA
ATOM      9  N17 <0> d   1      18.681  -0.830   6.679  0.00  0.00    -0.020 NA
ATOM     10  C18 <0> d   1      19.171   0.365   6.250  0.00  0.00     0.725 A 
ATOM     11  N20 <0> d   1      19.239   1.410   7.048  0.00  0.00    -0.043 NA
ATOM     12  H28 <0> d   1      19.471   3.192   8.918  0.00  0.00     0.161 HD
ATOM     13  H29 <0> d   1      17.315  -0.690  10.433  0.00  0.00     0.160 HD
ENDROOT
BRANCH   1  14
ATOM     14  C5  <0> d   1      19.748   0.898  11.485  0.00  0.00     0.170 C 
BRANCH  14  15
ATOM     15  C2  <0> d   1      19.816   0.256  12.872  0.00  0.00     0.145 C 
ATOM     16  C1  <0> d   1      18.962   1.065  13.851  0.00  0.00     0.042 C 
BRANCH  15  17
ATOM     17  O4  <0> d   1      21.172   0.240  13.324  0.00  0.00    -0.393 OA
ATOM     18  H24 <0> d   1      21.370   0.905  13.997  0.00  0.00     0.210 HD
ENDBRANCH  15  17
ENDBRANCH  14  15
BRANCH  14  19
ATOM     19  O7  <0> d   1      20.412   2.162  11.512  0.00  0.00    -0.391 OA
ATOM     20  H25 <0> d   1      20.010   2.805  12.112  0.00  0.00     0.210 HD
ENDBRANCH  14  19
ENDBRANCH   1  14
BRANCH  10  21
ATOM     21  N19 <0> d   1      19.604   0.485   4.953  0.00  0.00    -0.231 N 
ATOM     22  H30 <0> d   1      19.037   0.192   4.224  0.00  0.00     0.174 HD
ATOM     23  H31 <0> d   1      20.478   0.861   4.767  0.00  0.00     0.174 HD
ENDBRANCH  10  21
TORSDOF 5
ENDMDL
