MODEL 1
REMARK VINA RESULT:      -6.1      0.000      0.000
REMARK  7 active torsions:
REMARK  status: ('A' for Active; 'I' for Inactive)
REMARK    1  A    between atoms: C2_2  and  C3_3 
REMARK    2  A    between atoms: C3_3  and  N4_4 
REMARK    3  A    between atoms: N4_4  and  C7_7 
REMARK    4  A    between atoms: C7_7  and  C10_9 
REMARK       I    between atoms: C10_9  and  N12_11 
REMARK    5  A    between atoms: N12_11  and  C13_12 
REMARK    6  A    between atoms: C14_13  and  C15_14 
REMARK    7  A    between atoms: C15_14  and  O17_16 
ROOT
ATOM      1  C10 ZIN A   1      19.035  -1.636  10.243  0.00  0.00     0.252 C 
ATOM      2  O11 ZIN A   1      17.840  -1.472  10.107  0.00  0.00    -0.271 OA
ATOM      3  N12 ZIN A   1      19.886  -1.211   9.290  0.00  0.00    -0.324 N 
ATOM      4  H33 ZIN A   1      20.844  -1.268   9.435  0.00  0.00     0.169 HD
ENDROOT
BRANCH   3   5
ATOM      5  C13 ZIN A   1      19.392  -0.689   8.094  0.00  0.00     0.064 A 
ATOM      6  C21 ZIN A   1      19.110   0.651   7.906  0.00  0.00    -0.027 A 
ATOM      7  C20 ZIN A   1      18.647   0.966   6.693  0.00  0.00     0.059 A 
ATOM      8  C22 ZIN A   1      19.319   1.680   8.985  0.00  0.00     0.051 C 
ATOM      9  S19 ZIN A   1      18.523  -0.415   5.701  0.00  0.00    -0.093 SA
ATOM     10  C14 ZIN A   1      19.129  -1.455   6.983  0.00  0.00     0.107 A 
BRANCH  10  11
ATOM     11  C15 ZIN A   1      19.316  -2.854   6.886  0.00  0.00     0.302 C 
ATOM     12  O16 ZIN A   1      20.162  -3.304   6.137  0.00  0.00    -0.259 OA
BRANCH  11  13
ATOM     13  O17 ZIN A   1      18.556  -3.688   7.626  0.00  0.00    -0.322 OA
ATOM     14  C18 ZIN A   1      19.228  -4.761   8.289  0.00  0.00     0.213 C 
ENDBRANCH  11  13
ENDBRANCH  10  11
ENDBRANCH   3   5
BRANCH   1  15
ATOM     15  C7  ZIN A   1      19.564  -2.316  11.479  0.00  0.00     0.273 C 
ATOM     16  C9  ZIN A   1      18.551  -3.356  11.962  0.00  0.00     0.050 C 
BRANCH  15  17
ATOM     17  N4  ZIN A   1      19.781  -1.318  12.534  0.00  0.00    -0.063 N 
ATOM     18  H5  ZIN A   1      19.760  -0.393  12.131  0.00  0.00     0.278 HD
ATOM     19  H6  ZIN A   1      20.679  -1.475  12.966  0.00  0.00     0.278 HD
BRANCH  17  20
ATOM     20  C3  ZIN A   1      18.724  -1.435  13.545  0.00  0.00     0.233 C 
BRANCH  20  21
ATOM     21  C2  ZIN A   1      19.281  -1.041  14.915  0.00  0.00     0.023 C 
ATOM     22  C1  ZIN A   1      18.317  -1.504  16.010  0.00  0.00     0.007 C 
ENDBRANCH  20  21
ENDBRANCH  17  20
ENDBRANCH  15  17
ENDBRANCH   1  15
TORSDOF 7
ENDMDL
MODEL 2
REMARK VINA RESULT:      -6.1      4.522      8.236
REMARK  7 active torsions:
REMARK  status: ('A' for Active; 'I' for Inactive)
REMARK    1  A    between atoms: C2_2  and  C3_3 
REMARK    2  A    between atoms: C3_3  and  N4_4 
REMARK    3  A    between atoms: N4_4  and  C7_7 
REMARK    4  A    between atoms: C7_7  and  C10_9 
REMARK       I    between atoms: C10_9  and  N12_11 
REMARK    5  A    between atoms: N12_11  and  C13_12 
REMARK    6  A    between atoms: C14_13  and  C15_14 
REMARK    7  A    between atoms: C15_14  and  O17_16 
ROOT
ATOM      1  C10 ZIN A   1      19.055   1.861  12.737  0.00  0.00     0.252 C 
ATOM      2  O11 ZIN A   1      17.861   1.647  12.778  0.00  0.00    -0.271 OA
ATOM      3  N12 ZIN A   1      19.861   1.371  13.699  0.00  0.00    -0.324 N 
ATOM      4  H33 ZIN A   1      20.823   1.472  13.623  0.00  0.00     0.169 HD
ENDROOT
BRANCH   3   5
ATOM      5  C13 ZIN A   1      19.313   0.718  14.803  0.00  0.00     0.064 A 
ATOM      6  C21 ZIN A   1      19.035  -0.635  14.829  0.00  0.00    -0.027 A 
ATOM      7  C20 ZIN A   1      18.515  -1.084  15.974  0.00  0.00     0.059 A 
ATOM      8  C22 ZIN A   1      19.307  -1.538  13.654  0.00  0.00     0.051 C 
ATOM      9  S19 ZIN A   1      18.328   0.179  17.105  0.00  0.00    -0.093 SA
ATOM     10  C14 ZIN A   1      18.988   1.356  15.977  0.00  0.00     0.107 A 
BRANCH  10  11
ATOM     11  C15 ZIN A   1      19.156   2.736  16.236  0.00  0.00     0.302 C 
ATOM     12  O16 ZIN A   1      19.929   3.103  17.102  0.00  0.00    -0.259 OA
BRANCH  11  13
ATOM     13  O17 ZIN A   1      18.459   3.646  15.523  0.00  0.00    -0.322 OA
ATOM     14  C18 ZIN A   1      19.184   4.772  15.023  0.00  0.00     0.213 C 
ENDBRANCH  11  13
ENDBRANCH  10  11
ENDBRANCH   3   5
BRANCH   1  15
ATOM     15  C7  ZIN A   1      19.635   2.676  11.610  0.00  0.00     0.273 C 
ATOM     16  C9  ZIN A   1      18.667   3.804  11.246  0.00  0.00     0.050 C 
BRANCH  15  17
ATOM     17  N4  ZIN A   1      19.845   1.815  10.439  0.00  0.00    -0.063 N 
ATOM     18  H5  ZIN A   1      19.642   0.857  10.684  0.00  0.00     0.278 HD
ATOM     19  H6  ZIN A   1      20.805   1.887  10.136  0.00  0.00     0.278 HD
BRANCH  17  20
ATOM     20  C3  ZIN A   1      18.955   2.240   9.351  0.00  0.00     0.233 C 
BRANCH  20  21
ATOM     21  C2  ZIN A   1      18.573   1.027   8.501  0.00  0.00     0.023 C 
ATOM     22  C1  ZIN A   1      18.979   1.276   7.046  0.00  0.00     0.007 C 
ENDBRANCH  20  21
ENDBRANCH  17  20
ENDBRANCH  15  17
ENDBRANCH   1  15
TORSDOF 7
ENDMDL
MODEL 3
REMARK VINA RESULT:      -6.0      1.578      2.447
REMARK  7 active torsions:
REMARK  status: ('A' for Active; 'I' for Inactive)
REMARK    1  A    between atoms: C2_2  and  C3_3 
REMARK    2  A    between atoms: C3_3  and  N4_4 
REMARK    3  A    between atoms: N4_4  and  C7_7 
REMARK    4  A    between atoms: C7_7  and  C10_9 
REMARK       I    between atoms: C10_9  and  N12_11 
REMARK    5  A    between atoms: N12_11  and  C13_12 
REMARK    6  A    between atoms: C14_13  and  C15_14 
REMARK    7  A    between atoms: C15_14  and  O17_16 
ROOT
ATOM      1  C10 ZIN A   1      18.916  -1.094  10.034  0.00  0.00     0.252 C 
ATOM      2  O11 ZIN A   1      17.726  -0.897   9.904  0.00  0.00    -0.271 OA
ATOM      3  N12 ZIN A   1      19.744  -0.927   8.985  0.00  0.00    -0.324 N 
ATOM      4  H33 ZIN A   1      20.704  -1.004   9.107  0.00  0.00     0.169 HD
ENDROOT
BRANCH   3   5
ATOM      5  C13 ZIN A   1      19.223  -0.643   7.722  0.00  0.00     0.064 A 
ATOM      6  C21 ZIN A   1      18.960   0.638   7.275  0.00  0.00    -0.027 A 
ATOM      7  C20 ZIN A   1      18.466   0.714   6.037  0.00  0.00     0.059 A 
ATOM      8  C22 ZIN A   1      19.221   1.857   8.120  0.00  0.00     0.051 C 
ATOM      9  S19 ZIN A   1      18.286  -0.834   5.346  0.00  0.00    -0.093 SA
ATOM     10  C14 ZIN A   1      18.912  -1.610   6.795  0.00  0.00     0.107 A 
BRANCH  10  11
ATOM     11  C15 ZIN A   1      19.071  -3.004   6.977  0.00  0.00     0.302 C 
ATOM     12  O16 ZIN A   1      18.233  -3.636   7.593  0.00  0.00    -0.259 OA
BRANCH  11  13
ATOM     13  O17 ZIN A   1      20.150  -3.633   6.466  0.00  0.00    -0.322 OA
ATOM     14  C18 ZIN A   1      20.461  -4.923   6.997  0.00  0.00     0.213 C 
ENDBRANCH  11  13
ENDBRANCH  10  11
ENDBRANCH   3   5
BRANCH   1  15
ATOM     15  C7  ZIN A   1      19.467  -1.525  11.369  0.00  0.00     0.273 C 
ATOM     16  C9  ZIN A   1      19.972  -0.299  12.132  0.00  0.00     0.050 C 
BRANCH  15  17
ATOM     17  N4  ZIN A   1      20.577  -2.463  11.161  0.00  0.00    -0.063 N 
ATOM     18  H5  ZIN A   1      21.403  -2.116  11.627  0.00  0.00     0.278 HD
ATOM     19  H6  ZIN A   1      20.762  -2.553  10.174  0.00  0.00     0.278 HD
BRANCH  17  20
ATOM     20  C3  ZIN A   1      20.220  -3.776  11.714  0.00  0.00     0.233 C 
BRANCH  20  21
ATOM     21  C2  ZIN A   1      19.668  -4.666  10.599  0.00  0.00     0.023 C 
ATOM     22  C1  ZIN A   1      18.216  -5.034  10.913  0.00  0.00     0.007 C 
ENDBRANCH  20  21
ENDBRANCH  17  20
ENDBRANCH  15  17
ENDBRANCH   1  15
TORSDOF 7
ENDMDL
MODEL 4
REMARK VINA RESULT:      -5.8      2.333      4.245
REMARK  7 active torsions:
REMARK  status: ('A' for Active; 'I' for Inactive)
REMARK    1  A    between atoms: C2_2  and  C3_3 
REMARK    2  A    between atoms: C3_3  and  N4_4 
REMARK    3  A    between atoms: N4_4  and  C7_7 
REMARK    4  A    between atoms: C7_7  and  C10_9 
REMARK       I    between atoms: C10_9  and  N12_11 
REMARK    5  A    between atoms: N12_11  and  C13_12 
REMARK    6  A    between atoms: C14_13  and  C15_14 
REMARK    7  A    between atoms: C15_14  and  O17_16 
ROOT
ATOM      1  C10 ZIN A   1      19.029  -1.527   9.019  0.00  0.00     0.252 C 
ATOM      2  O11 ZIN A   1      17.826  -1.648   8.909  0.00  0.00    -0.271 OA
ATOM      3  N12 ZIN A   1      19.849  -2.086   8.109  0.00  0.00    -0.324 N 
ATOM      4  H33 ZIN A   1      20.804  -1.921   8.150  0.00  0.00     0.169 HD
ENDROOT
BRANCH   3   5
ATOM      5  C13 ZIN A   1      19.325  -2.902   7.105  0.00  0.00     0.064 A 
ATOM      6  C21 ZIN A   1      19.092  -4.254   7.266  0.00  0.00    -0.027 A 
ATOM      7  C20 ZIN A   1      18.583  -4.872   6.196  0.00  0.00     0.059 A 
ATOM      8  C22 ZIN A   1      19.381  -4.976   8.556  0.00  0.00     0.051 C 
ATOM      9  S19 ZIN A   1      18.372  -3.785   4.899  0.00  0.00    -0.093 SA
ATOM     10  C14 ZIN A   1      18.992  -2.444   5.852  0.00  0.00     0.107 A 
BRANCH  10  11
ATOM     11  C15 ZIN A   1      19.127  -1.110   5.402  0.00  0.00     0.302 C 
ATOM     12  O16 ZIN A   1      19.965  -0.832   4.565  0.00  0.00    -0.259 OA
BRANCH  11  13
ATOM     13  O17 ZIN A   1      18.326  -0.146   5.901  0.00  0.00    -0.322 OA
ATOM     14  C18 ZIN A   1      18.949   1.082   6.283  0.00  0.00     0.213 C 
ENDBRANCH  11  13
ENDBRANCH  10  11
ENDBRANCH   3   5
BRANCH   1  15
ATOM     15  C7  ZIN A   1      19.604  -0.751  10.177  0.00  0.00     0.273 C 
ATOM     16  C9  ZIN A   1      18.620  -0.779  11.348  0.00  0.00     0.050 C 
BRANCH  15  17
ATOM     17  N4  ZIN A   1      19.838   0.640   9.767  0.00  0.00    -0.063 N 
ATOM     18  H5  ZIN A   1      19.796   0.706   8.761  0.00  0.00     0.278 HD
ATOM     19  H6  ZIN A   1      20.748   0.936  10.085  0.00  0.00     0.278 HD
BRANCH  17  20
ATOM     20  C3  ZIN A   1      18.808   1.504  10.357  0.00  0.00     0.233 C 
BRANCH  20  21
ATOM     21  C2  ZIN A   1      18.701   2.797   9.546  0.00  0.00     0.023 C 
ATOM     22  C1  ZIN A   1      17.961   3.855  10.368  0.00  0.00     0.007 C 
ENDBRANCH  20  21
ENDBRANCH  17  20
ENDBRANCH  15  17
ENDBRANCH   1  15
TORSDOF 7
ENDMDL
MODEL 5
REMARK VINA RESULT:      -5.8      1.896      2.729
REMARK  7 active torsions:
REMARK  status: ('A' for Active; 'I' for Inactive)
REMARK    1  A    between atoms: C2_2  and  C3_3 
REMARK    2  A    between atoms: C3_3  and  N4_4 
REMARK    3  A    between atoms: N4_4  and  C7_7 
REMARK    4  A    between atoms: C7_7  and  C10_9 
REMARK       I    between atoms: C10_9  and  N12_11 
REMARK    5  A    between atoms: N12_11  and  C13_12 
REMARK    6  A    between atoms: C14_13  and  C15_14 
REMARK    7  A    between atoms: C15_14  and  O17_16 
ROOT
ATOM      1  C10 ZIN A   1      17.492   0.334  11.788  0.00  0.00     0.252 C 
ATOM      2  O11 ZIN A   1      16.481   0.368  11.118  0.00  0.00    -0.271 OA
ATOM      3  N12 ZIN A   1      18.698   0.314  11.187  0.00  0.00    -0.324 N 
ATOM      4  H33 ZIN A   1      19.506   0.369  11.720  0.00  0.00     0.169 HD
ENDROOT
BRANCH   3   5
ATOM      5  C13 ZIN A   1      18.784   0.213   9.798  0.00  0.00     0.064 A 
ATOM      6  C21 ZIN A   1      18.822   1.308   8.955  0.00  0.00    -0.027 A 
ATOM      7  C20 ZIN A   1      18.909   1.017   7.654  0.00  0.00     0.059 A 
ATOM      8  C22 ZIN A   1      18.779   2.724   9.467  0.00  0.00     0.051 C 
ATOM      9  S19 ZIN A   1      18.936  -0.669   7.399  0.00  0.00    -0.093 SA
ATOM     10  C14 ZIN A   1      18.833  -0.985   9.125  0.00  0.00     0.107 A 
BRANCH  10  11
ATOM     11  C15 ZIN A   1      18.806  -2.266   9.725  0.00  0.00     0.302 C 
ATOM     12  O16 ZIN A   1      18.018  -3.105   9.331  0.00  0.00    -0.259 OA
BRANCH  11  13
ATOM     13  O17 ZIN A   1      19.652  -2.556  10.735  0.00  0.00    -0.322 OA
ATOM     14  C18 ZIN A   1      19.226  -3.544  11.676  0.00  0.00     0.213 C 
ENDBRANCH  11  13
ENDBRANCH  10  11
ENDBRANCH   3   5
BRANCH   1  15
ATOM     15  C7  ZIN A   1      17.399   0.314  13.292  0.00  0.00     0.273 C 
ATOM     16  C9  ZIN A   1      18.058   1.572  13.860  0.00  0.00     0.050 C 
BRANCH  15  17
ATOM     17  N4  ZIN A   1      18.086  -0.876  13.810  0.00  0.00    -0.063 N 
ATOM     18  H5  ZIN A   1      18.642  -1.290  13.077  0.00  0.00     0.278 HD
ATOM     19  H6  ZIN A   1      17.404  -1.545  14.133  0.00  0.00     0.278 HD
BRANCH  17  20
ATOM     20  C3  ZIN A   1      18.959  -0.490  14.926  0.00  0.00     0.233 C 
BRANCH  20  21
ATOM     21  C2  ZIN A   1      18.665  -1.379  16.136  0.00  0.00     0.023 C 
ATOM     22  C1  ZIN A   1      17.319  -0.980  16.746  0.00  0.00     0.007 C 
ENDBRANCH  20  21
ENDBRANCH  17  20
ENDBRANCH  15  17
ENDBRANCH   1  15
TORSDOF 7
ENDMDL
MODEL 6
REMARK VINA RESULT:      -5.7      2.770      5.095
REMARK  7 active torsions:
REMARK  status: ('A' for Active; 'I' for Inactive)
REMARK    1  A    between atoms: C2_2  and  C3_3 
REMARK    2  A    between atoms: C3_3  and  N4_4 
REMARK    3  A    between atoms: N4_4  and  C7_7 
REMARK    4  A    between atoms: C7_7  and  C10_9 
REMARK       I    between atoms: C10_9  and  N12_11 
REMARK    5  A    between atoms: N12_11  and  C13_12 
REMARK    6  A    between atoms: C14_13  and  C15_14 
REMARK    7  A    between atoms: C15_14  and  O17_16 
ROOT
ATOM      1  C10 ZIN A   1      19.101  -0.206   8.969  0.00  0.00     0.252 C 
ATOM      2  O11 ZIN A   1      20.235  -0.446   9.327  0.00  0.00    -0.271 OA
ATOM      3  N12 ZIN A   1      18.164  -1.174   9.003  0.00  0.00    -0.324 N 
ATOM      4  H33 ZIN A   1      17.240  -0.962   8.795  0.00  0.00     0.169 HD
ENDROOT
BRANCH   3   5
ATOM      5  C13 ZIN A   1      18.522  -2.480   9.337  0.00  0.00     0.064 A 
ATOM      6  C21 ZIN A   1      18.973  -3.407   8.417  0.00  0.00    -0.027 A 
ATOM      7  C20 ZIN A   1      19.272  -4.607   8.922  0.00  0.00     0.059 A 
ATOM      8  C22 ZIN A   1      19.125  -3.084   6.954  0.00  0.00     0.051 C 
ATOM      9  S19 ZIN A   1      18.993  -4.656  10.604  0.00  0.00    -0.093 SA
ATOM     10  C14 ZIN A   1      18.457  -2.981  10.616  0.00  0.00     0.107 A 
BRANCH  10  11
ATOM     11  C15 ZIN A   1      18.029  -2.264  11.758  0.00  0.00     0.302 C 
ATOM     12  O16 ZIN A   1      18.671  -2.324  12.790  0.00  0.00    -0.259 OA
BRANCH  11  13
ATOM     13  O17 ZIN A   1      16.908  -1.515  11.703  0.00  0.00    -0.322 OA
ATOM     14  C18 ZIN A   1      17.002  -0.170  12.176  0.00  0.00     0.213 C 
ENDBRANCH  11  13
ENDBRANCH  10  11
ENDBRANCH   3   5
BRANCH   1  15
ATOM     15  C7  ZIN A   1      18.741   1.175   8.485  0.00  0.00     0.273 C 
ATOM     16  C9  ZIN A   1      18.950   1.256   6.972  0.00  0.00     0.050 C 
BRANCH  15  17
ATOM     17  N4  ZIN A   1      19.596   2.166   9.151  0.00  0.00    -0.063 N 
ATOM     18  H5  ZIN A   1      20.005   2.777   8.459  0.00  0.00     0.278 HD
ATOM     19  H6  ZIN A   1      20.329   1.693   9.656  0.00  0.00     0.278 HD
BRANCH  17  20
ATOM     20  C3  ZIN A   1      18.789   2.960  10.087  0.00  0.00     0.233 C 
BRANCH  20  21
ATOM     21  C2  ZIN A   1      19.298   2.740  11.513  0.00  0.00     0.023 C 
ATOM     22  C1  ZIN A   1      19.651   4.089  12.142  0.00  0.00     0.007 C 
ENDBRANCH  20  21
ENDBRANCH  17  20
ENDBRANCH  15  17
ENDBRANCH   1  15
TORSDOF 7
ENDMDL
MODEL 7
REMARK VINA RESULT:      -5.7      2.605      4.630
REMARK  7 active torsions:
REMARK  status: ('A' for Active; 'I' for Inactive)
REMARK    1  A    between atoms: C2_2  and  C3_3 
REMARK    2  A    between atoms: C3_3  and  N4_4 
REMARK    3  A    between atoms: N4_4  and  C7_7 
REMARK    4  A    between atoms: C7_7  and  C10_9 
REMARK       I    between atoms: C10_9  and  N12_11 
REMARK    5  A    between atoms: N12_11  and  C13_12 
REMARK    6  A    between atoms: C14_13  and  C15_14 
REMARK    7  A    between atoms: C15_14  and  O17_16 
ROOT
ATOM      1  C10 ZIN A   1      18.678  -0.525   9.188  0.00  0.00     0.252 C 
ATOM      2  O11 ZIN A   1      19.765  -0.665   9.710  0.00  0.00    -0.271 OA
ATOM      3  N12 ZIN A   1      17.904  -1.600   8.946  0.00  0.00    -0.324 N 
ATOM      4  H33 ZIN A   1      17.003  -1.482   8.605  0.00  0.00     0.169 HD
ENDROOT
BRANCH   3   5
ATOM      5  C13 ZIN A   1      18.397  -2.884   9.184  0.00  0.00     0.064 A 
ATOM      6  C21 ZIN A   1      18.259  -3.541  10.391  0.00  0.00    -0.027 A 
ATOM      7  C20 ZIN A   1      18.792  -4.765  10.433  0.00  0.00     0.059 A 
ATOM      8  C22 ZIN A   1      17.551  -2.927  11.570  0.00  0.00     0.051 C 
ATOM      9  S19 ZIN A   1      19.520  -5.172   8.945  0.00  0.00    -0.093 SA
ATOM     10  C14 ZIN A   1      19.076  -3.623   8.244  0.00  0.00     0.107 A 
BRANCH  10  11
ATOM     11  C15 ZIN A   1      19.369  -3.204   6.925  0.00  0.00     0.302 C 
ATOM     12  O16 ZIN A   1      20.364  -3.620   6.362  0.00  0.00    -0.259 OA
BRANCH  11  13
ATOM     13  O17 ZIN A   1      18.545  -2.343   6.292  0.00  0.00    -0.322 OA
ATOM     14  C18 ZIN A   1      19.157  -1.307   5.521  0.00  0.00     0.213 C 
ENDBRANCH  11  13
ENDBRANCH  10  11
ENDBRANCH   3   5
BRANCH   1  15
ATOM     15  C7  ZIN A   1      18.196   0.852   8.812  0.00  0.00     0.273 C 
ATOM     16  C9  ZIN A   1      19.330   1.622   8.134  0.00  0.00     0.050 C 
BRANCH  15  17
ATOM     17  N4  ZIN A   1      17.772   1.571  10.021  0.00  0.00    -0.063 N 
ATOM     18  H5  ZIN A   1      18.008   1.026  10.837  0.00  0.00     0.278 HD
ATOM     19  H6  ZIN A   1      16.774   1.717   9.993  0.00  0.00     0.278 HD
BRANCH  17  20
ATOM     20  C3  ZIN A   1      18.455   2.869  10.085  0.00  0.00     0.233 C 
BRANCH  20  21
ATOM     21  C2  ZIN A   1      17.765   3.758  11.121  0.00  0.00     0.023 C 
ATOM     22  C1  ZIN A   1      17.223   5.014  10.434  0.00  0.00     0.007 C 
ENDBRANCH  20  21
ENDBRANCH  17  20
ENDBRANCH  15  17
ENDBRANCH   1  15
TORSDOF 7
ENDMDL
MODEL 8
REMARK VINA RESULT:      -5.6      3.149      6.311
REMARK  7 active torsions:
REMARK  status: ('A' for Active; 'I' for Inactive)
REMARK    1  A    between atoms: C2_2  and  C3_3 
REMARK    2  A    between atoms: C3_3  and  N4_4 
REMARK    3  A    between atoms: N4_4  and  C7_7 
REMARK    4  A    between atoms: C7_7  and  C10_9 
REMARK       I    between atoms: C10_9  and  N12_11 
REMARK    5  A    between atoms: N12_11  and  C13_12 
REMARK    6  A    between atoms: C14_13  and  C15_14 
REMARK    7  A    between atoms: C15_14  and  O17_16 
ROOT
ATOM      1  C10 ZIN A   1      18.223  -1.155  11.435  0.00  0.00     0.252 C 
ATOM      2  O11 ZIN A   1      17.085  -1.128  11.855  0.00  0.00    -0.271 OA
ATOM      3  N12 ZIN A   1      19.175  -0.402  12.019  0.00  0.00    -0.324 N 
ATOM      4  H33 ZIN A   1      20.100  -0.485  11.736  0.00  0.00     0.169 HD
ENDROOT
BRANCH   3   5
ATOM      5  C13 ZIN A   1      18.832   0.497  13.029  0.00  0.00     0.064 A 
ATOM      6  C21 ZIN A   1      18.809   0.165  14.370  0.00  0.00    -0.027 A 
ATOM      7  C20 ZIN A   1      18.459   1.158  15.192  0.00  0.00     0.059 A 
ATOM      8  C22 ZIN A   1      19.161  -1.212  14.868  0.00  0.00     0.051 C 
ATOM      9  S19 ZIN A   1      18.122   2.588  14.326  0.00  0.00    -0.093 SA
ATOM     10  C14 ZIN A   1      18.476   1.804  12.792  0.00  0.00     0.107 A 
BRANCH  10  11
ATOM     11  C15 ZIN A   1      18.407   2.419  11.520  0.00  0.00     0.302 C 
ATOM     12  O16 ZIN A   1      19.409   2.520  10.837  0.00  0.00    -0.259 OA
BRANCH  11  13
ATOM     13  O17 ZIN A   1      17.229   2.895  11.065  0.00  0.00    -0.322 OA
ATOM     14  C18 ZIN A   1      17.098   4.315  10.961  0.00  0.00     0.213 C 
ENDBRANCH  11  13
ENDBRANCH  10  11
ENDBRANCH   3   5
BRANCH   1  15
ATOM     15  C7  ZIN A   1      18.571  -2.032  10.259  0.00  0.00     0.273 C 
ATOM     16  C9  ZIN A   1      19.136  -3.361  10.765  0.00  0.00     0.050 C 
BRANCH  15  17
ATOM     17  N4  ZIN A   1      19.574  -1.360   9.425  0.00  0.00    -0.063 N 
ATOM     18  H5  ZIN A   1      20.401  -1.935   9.362  0.00  0.00     0.278 HD
ATOM     19  H6  ZIN A   1      19.815  -0.471   9.837  0.00  0.00     0.278 HD
BRANCH  17  20
ATOM     20  C3  ZIN A   1      19.027  -1.142   8.079  0.00  0.00     0.233 C 
BRANCH  20  21
ATOM     21  C2  ZIN A   1      18.210   0.151   8.063  0.00  0.00     0.023 C 
ATOM     22  C1  ZIN A   1      19.100   1.311   7.612  0.00  0.00     0.007 C 
ENDBRANCH  20  21
ENDBRANCH  17  20
ENDBRANCH  15  17
ENDBRANCH   1  15
TORSDOF 7
ENDMDL
MODEL 9
REMARK VINA RESULT:      -5.6      3.496      5.380
REMARK  7 active torsions:
REMARK  status: ('A' for Active; 'I' for Inactive)
REMARK    1  A    between atoms: C2_2  and  C3_3 
REMARK    2  A    between atoms: C3_3  and  N4_4 
REMARK    3  A    between atoms: N4_4  and  C7_7 
REMARK    4  A    between atoms: C7_7  and  C10_9 
REMARK       I    between atoms: C10_9  and  N12_11 
REMARK    5  A    between atoms: N12_11  and  C13_12 
REMARK    6  A    between atoms: C14_13  and  C15_14 
REMARK    7  A    between atoms: C15_14  and  O17_16 
ROOT
ATOM      1  C10 ZIN A   1      18.372   0.497  13.318  0.00  0.00     0.252 C 
ATOM      2  O11 ZIN A   1      17.348   0.189  12.743  0.00  0.00    -0.271 OA
ATOM      3  N12 ZIN A   1      19.387   1.058  12.633  0.00  0.00    -0.324 N 
ATOM      4  H33 ZIN A   1      20.171   1.378  13.105  0.00  0.00     0.169 HD
ENDROOT
BRANCH   3   5
ATOM      5  C13 ZIN A   1      19.309   1.178  11.245  0.00  0.00     0.064 A 
ATOM      6  C21 ZIN A   1      19.772   0.214  10.369  0.00  0.00    -0.027 A 
ATOM      7  C20 ZIN A   1      19.610   0.502   9.075  0.00  0.00     0.059 A 
ATOM      8  C22 ZIN A   1      20.403  -1.070  10.840  0.00  0.00     0.051 C 
ATOM      9  S19 ZIN A   1      18.868   2.024   8.868  0.00  0.00    -0.093 SA
ATOM     10  C14 ZIN A   1      18.771   2.270  10.606  0.00  0.00     0.107 A 
BRANCH  10  11
ATOM     11  C15 ZIN A   1      18.227   3.409  11.245  0.00  0.00     0.302 C 
ATOM     12  O16 ZIN A   1      17.034   3.639  11.167  0.00  0.00    -0.259 OA
BRANCH  11  13
ATOM     13  O17 ZIN A   1      19.030   4.241  11.941  0.00  0.00    -0.322 OA
ATOM     14  C18 ZIN A   1      18.634   4.559  13.277  0.00  0.00     0.213 C 
ENDBRANCH  11  13
ENDBRANCH  10  11
ENDBRANCH   3   5
BRANCH   1  15
ATOM     15  C7  ZIN A   1      18.506   0.250  14.799  0.00  0.00     0.273 C 
ATOM     16  C9  ZIN A   1      18.788  -1.233  15.045  0.00  0.00     0.050 C 
BRANCH  15  17
ATOM     17  N4  ZIN A   1      17.259   0.631  15.475  0.00  0.00    -0.063 N 
ATOM     18  H5  ZIN A   1      16.475   0.433  14.871  0.00  0.00     0.278 HD
ATOM     19  H6  ZIN A   1      17.279   1.616  15.688  0.00  0.00     0.278 HD
BRANCH  17  20
ATOM     20  C3  ZIN A   1      17.123  -0.136  16.720  0.00  0.00     0.233 C 
BRANCH  20  21
ATOM     21  C2  ZIN A   1      17.580   0.722  17.901  0.00  0.00     0.023 C 
ATOM     22  C1  ZIN A   1      18.797   0.072  18.562  0.00  0.00     0.007 C 
ENDBRANCH  20  21
ENDBRANCH  17  20
ENDBRANCH  15  17
ENDBRANCH   1  15
TORSDOF 7
ENDMDL
