MODEL 1
REMARK VINA RESULT:      -7.2      0.000      0.000
REMARK  9 active torsions:
REMARK  status: ('A' for Active; 'I' for Inactive)
REMARK       I    between atoms: C2_2  and  N4_4 
REMARK    1  A    between atoms: N4_4  and  C5_5 
REMARK    2  A    between atoms: C7_6  and  C9_7 
REMARK    3  A    between atoms: C9_7  and  O11_8 
REMARK    4  A    between atoms: C9_7  and  C12_9 
REMARK    5  A    between atoms: C12_9  and  O14_10 
REMARK    6  A    between atoms: C12_9  and  C15_11 
REMARK    7  A    between atoms: C15_11  and  O16_12 
REMARK    8  A    between atoms: C18_14  and  C19_15 
REMARK    9  A    between atoms: C23_19  and  N25_20 
REMARK       I    between atoms: N25_20  and  C26_21 
REMARK       I    between atoms: C26_21  and  N27_22 
ROOT
ATOM      1  C5  ZIN A   1      18.988  -0.620   9.667  0.00  0.00     0.143 C 
ATOM      2  C7  ZIN A   1      19.240  -1.490   8.428  0.00  0.00     0.185 C 
ATOM      3  O17 ZIN A   1      18.859  -2.834   8.737  0.00  0.00    -0.335 OA
ATOM      4  C18 ZIN A   1      19.309  -3.361   9.902  0.00  0.00     0.144 C 
ATOM      5  C22 ZIN A   1      19.793  -2.620  10.890  0.00  0.00     0.045 C 
ATOM      6  C23 ZIN A   1      19.892  -1.122  10.798  0.00  0.00     0.150 C 
ENDROOT
BRANCH   2   7
ATOM      7  C9  ZIN A   1      18.403  -0.973   7.256  0.00  0.00     0.180 C 
BRANCH   7   8
ATOM      8  O11 ZIN A   1      17.022  -0.953   7.628  0.00  0.00    -0.390 OA
ATOM      9  H35 ZIN A   1      16.521  -1.720   7.318  0.00  0.00     0.210 HD
ENDBRANCH   7   8
BRANCH   7  10
ATOM     10  C12 ZIN A   1      18.592  -1.894   6.049  0.00  0.00     0.173 C 
BRANCH  10  11
ATOM     11  O14 ZIN A   1      19.799  -2.643   6.206  0.00  0.00    -0.391 OA
ATOM     12  H36 ZIN A   1      19.670  -3.601   6.205  0.00  0.00     0.210 HD
ENDBRANCH  10  11
BRANCH  10  13
ATOM     13  C15 ZIN A   1      18.676  -1.053   4.774  0.00  0.00     0.198 C 
BRANCH  13  14
ATOM     14  O16 ZIN A   1      20.009  -0.569   4.609  0.00  0.00    -0.398 OA
ATOM     15  H39 ZIN A   1      20.651  -0.971   5.210  0.00  0.00     0.209 HD
ENDBRANCH  13  14
ENDBRANCH  10  13
ENDBRANCH   7  10
ENDBRANCH   2   7
BRANCH   1  16
ATOM     16  N4  ZIN A   1      19.307   0.777   9.362  0.00  0.00    -0.352 N 
ATOM     17  C2  ZIN A   1      18.479   1.761   9.766  0.00  0.00     0.214 C 
ATOM     18  C1  ZIN A   1      18.807   3.198   9.453  0.00  0.00     0.117 C 
ATOM     19  O3  ZIN A   1      17.470   1.490  10.381  0.00  0.00    -0.274 OA
ATOM     20  H34 ZIN A   1      20.114   0.994   8.870  0.00  0.00     0.163 HD
ENDBRANCH   1  16
BRANCH   6  21
ATOM     21  N25 ZIN A   1      19.465  -0.526  12.067  0.00  0.00    -0.217 N 
ATOM     22  C26 ZIN A   1      20.299   0.328  12.736  0.00  0.00     0.665 C 
ATOM     23  N27 ZIN A   1      21.497   0.617  12.234  0.00  0.00    -0.235 N 
ATOM     24  N28 ZIN A   1      19.910   0.870  13.889  0.00  0.00    -0.235 N 
ATOM     25  H42 ZIN A   1      21.781   0.222  11.394  0.00  0.00     0.174 HD
ATOM     26  H43 ZIN A   1      22.089   1.222  12.709  0.00  0.00     0.174 HD
ATOM     27  H29 ZIN A   1      20.501   1.475  14.363  0.00  0.00     0.174 HD
ATOM     28  H30 ZIN A   1      19.037   0.659  14.255  0.00  0.00     0.174 HD
ATOM     29  H41 ZIN A   1      18.591  -0.736  12.432  0.00  0.00     0.178 HD
ENDBRANCH   6  21
BRANCH   4  30
ATOM     30  C19 ZIN A   1      19.260  -4.820  10.078  0.00  0.00     0.233 C 
ATOM     31  O20 ZIN A   1      18.409  -5.321  10.802  0.00  0.00    -0.642 OA
ATOM     32  O21 ZIN A   1      20.067  -5.535   9.499  0.00  0.00    -0.642 OA
ENDBRANCH   4  30
TORSDOF 9
ENDMDL
MODEL 2
REMARK VINA RESULT:      -7.1      1.947      4.400
REMARK  9 active torsions:
REMARK  status: ('A' for Active; 'I' for Inactive)
REMARK       I    between atoms: C2_2  and  N4_4 
REMARK    1  A    between atoms: N4_4  and  C5_5 
REMARK    2  A    between atoms: C7_6  and  C9_7 
REMARK    3  A    between atoms: C9_7  and  O11_8 
REMARK    4  A    between atoms: C9_7  and  C12_9 
REMARK    5  A    between atoms: C12_9  and  O14_10 
REMARK    6  A    between atoms: C12_9  and  C15_11 
REMARK    7  A    between atoms: C15_11  and  O16_12 
REMARK    8  A    between atoms: C18_14  and  C19_15 
REMARK    9  A    between atoms: C23_19  and  N25_20 
REMARK       I    between atoms: N25_20  and  C26_21 
REMARK       I    between atoms: C26_21  and  N27_22 
ROOT
ATOM      1  C5  ZIN A   1      19.067  -1.278   9.125  0.00  0.00     0.143 C 
ATOM      2  C7  ZIN A   1      18.387  -2.256   8.158  0.00  0.00     0.185 C 
ATOM      3  O17 ZIN A   1      18.977  -2.092   6.865  0.00  0.00    -0.335 OA
ATOM      4  C18 ZIN A   1      19.113  -0.829   6.393  0.00  0.00     0.144 C 
ATOM      5  C22 ZIN A   1      19.035   0.244   7.169  0.00  0.00     0.045 C 
ATOM      6  C23 ZIN A   1      18.778   0.149   8.648  0.00  0.00     0.150 C 
ENDROOT
BRANCH   2   7
ATOM      7  C9  ZIN A   1      18.598  -3.692   8.643  0.00  0.00     0.180 C 
BRANCH   7   8
ATOM      8  O11 ZIN A   1      19.801  -3.763   9.413  0.00  0.00    -0.390 OA
ATOM      9  H35 ZIN A   1      20.487  -3.145   9.127  0.00  0.00     0.210 HD
ENDBRANCH   7   8
BRANCH   7  10
ATOM     10  C12 ZIN A   1      18.709  -4.627   7.437  0.00  0.00     0.173 C 
BRANCH  10  11
ATOM     11  O14 ZIN A   1      17.773  -5.698   7.578  0.00  0.00    -0.391 OA
ATOM     12  H36 ZIN A   1      17.396  -6.004   6.742  0.00  0.00     0.210 HD
ENDBRANCH  10  11
BRANCH  10  13
ATOM     13  C15 ZIN A   1      20.127  -5.195   7.361  0.00  0.00     0.198 C 
BRANCH  13  14
ATOM     14  O16 ZIN A   1      20.996  -4.228   6.769  0.00  0.00    -0.398 OA
ATOM     15  H39 ZIN A   1      20.661  -3.322   6.806  0.00  0.00     0.209 HD
ENDBRANCH  13  14
ENDBRANCH  10  13
ENDBRANCH   7  10
ENDBRANCH   2   7
BRANCH   1  16
ATOM     16  N4  ZIN A   1      18.530  -1.466  10.475  0.00  0.00    -0.352 N 
ATOM     17  C2  ZIN A   1      19.359  -1.446  11.539  0.00  0.00     0.214 C 
ATOM     18  C1  ZIN A   1      18.807  -1.639  12.928  0.00  0.00     0.117 C 
ATOM     19  O3  ZIN A   1      20.548  -1.273  11.378  0.00  0.00    -0.274 OA
ATOM     20  H34 ZIN A   1      17.579  -1.605  10.605  0.00  0.00     0.163 HD
ENDBRANCH   1  16
BRANCH   6  21
ATOM     21  N25 ZIN A   1      19.652   1.089   9.356  0.00  0.00    -0.217 N 
ATOM     22  C26 ZIN A   1      19.113   2.018  10.203  0.00  0.00     0.665 C 
ATOM     23  N27 ZIN A   1      17.795   2.068  10.385  0.00  0.00    -0.235 N 
ATOM     24  N28 ZIN A   1      19.908   2.871  10.847  0.00  0.00    -0.235 N 
ATOM     25  H42 ZIN A   1      17.216   1.446   9.916  0.00  0.00     0.174 HD
ATOM     26  H43 ZIN A   1      17.413   2.727  10.985  0.00  0.00     0.174 HD
ATOM     27  H29 ZIN A   1      19.526   3.530  11.448  0.00  0.00     0.174 HD
ATOM     28  H30 ZIN A   1      20.868   2.835  10.715  0.00  0.00     0.174 HD
ATOM     29  H41 ZIN A   1      20.612   1.051   9.224  0.00  0.00     0.178 HD
ENDBRANCH   6  21
BRANCH   4  30
ATOM     30  C19 ZIN A   1      19.358  -0.639   4.955  0.00  0.00     0.233 C 
ATOM     31  O20 ZIN A   1      19.753  -1.575   4.272  0.00  0.00    -0.642 OA
ATOM     32  O21 ZIN A   1      19.165   0.454   4.441  0.00  0.00    -0.642 OA
ENDBRANCH   4  30
TORSDOF 9
ENDMDL
MODEL 3
REMARK VINA RESULT:      -7.0      4.692      7.874
REMARK  9 active torsions:
REMARK  status: ('A' for Active; 'I' for Inactive)
REMARK       I    between atoms: C2_2  and  N4_4 
REMARK    1  A    between atoms: N4_4  and  C5_5 
REMARK    2  A    between atoms: C7_6  and  C9_7 
REMARK    3  A    between atoms: C9_7  and  O11_8 
REMARK    4  A    between atoms: C9_7  and  C12_9 
REMARK    5  A    between atoms: C12_9  and  O14_10 
REMARK    6  A    between atoms: C12_9  and  C15_11 
REMARK    7  A    between atoms: C15_11  and  O16_12 
REMARK    8  A    between atoms: C18_14  and  C19_15 
REMARK    9  A    between atoms: C23_19  and  N25_20 
REMARK       I    between atoms: N25_20  and  C26_21 
REMARK       I    between atoms: C26_21  and  N27_22 
ROOT
ATOM      1  C5  ZIN A   1      19.094   1.302  13.941  0.00  0.00     0.143 C 
ATOM      2  C7  ZIN A   1      18.357   2.263  14.883  0.00  0.00     0.185 C 
ATOM      3  O17 ZIN A   1      18.901   2.108  16.197  0.00  0.00    -0.335 OA
ATOM      4  C18 ZIN A   1      19.045   0.848  16.673  0.00  0.00     0.144 C 
ATOM      5  C22 ZIN A   1      19.020  -0.225  15.893  0.00  0.00     0.045 C 
ATOM      6  C23 ZIN A   1      18.817  -0.132  14.404  0.00  0.00     0.150 C 
ENDROOT
BRANCH   2   7
ATOM      7  C9  ZIN A   1      18.555   3.704  14.409  0.00  0.00     0.180 C 
BRANCH   7   8
ATOM      8  O11 ZIN A   1      19.795   3.807  13.703  0.00  0.00    -0.390 OA
ATOM      9  H35 ZIN A   1      20.534   4.110  14.249  0.00  0.00     0.210 HD
ENDBRANCH   7   8
BRANCH   7  10
ATOM     10  C12 ZIN A   1      18.578   4.641  15.618  0.00  0.00     0.173 C 
BRANCH  10  11
ATOM     11  O14 ZIN A   1      17.630   5.692  15.423  0.00  0.00    -0.391 OA
ATOM     12  H36 ZIN A   1      16.850   5.429  14.915  0.00  0.00     0.210 HD
ENDBRANCH  10  11
BRANCH  10  13
ATOM     13  C15 ZIN A   1      19.978   5.239  15.773  0.00  0.00     0.198 C 
BRANCH  13  14
ATOM     14  O16 ZIN A   1      20.805   4.333  16.505  0.00  0.00    -0.398 OA
ATOM     15  H39 ZIN A   1      20.699   3.408  16.247  0.00  0.00     0.209 HD
ENDBRANCH  13  14
ENDBRANCH  10  13
ENDBRANCH   7  10
ENDBRANCH   2   7
BRANCH   1  16
ATOM     16  N4  ZIN A   1      18.605   1.481  12.572  0.00  0.00    -0.352 N 
ATOM     17  C2  ZIN A   1      19.474   1.487  11.541  0.00  0.00     0.214 C 
ATOM     18  C1  ZIN A   1      18.971   1.671  10.132  0.00  0.00     0.117 C 
ATOM     19  O3  ZIN A   1      20.660   1.344  11.747  0.00  0.00    -0.274 OA
ATOM     20  H34 ZIN A   1      17.656   1.596  12.406  0.00  0.00     0.163 HD
ENDBRANCH   1  16
BRANCH   6  21
ATOM     21  N25 ZIN A   1      19.737  -1.052  13.729  0.00  0.00    -0.217 N 
ATOM     22  C26 ZIN A   1      19.257  -1.951  12.816  0.00  0.00     0.665 C 
ATOM     23  N27 ZIN A   1      17.955  -1.990  12.541  0.00  0.00    -0.235 N 
ATOM     24  N28 ZIN A   1      20.094  -2.786  12.202  0.00  0.00    -0.235 N 
ATOM     25  H42 ZIN A   1      17.346  -1.381  12.989  0.00  0.00     0.174 HD
ATOM     26  H43 ZIN A   1      17.614  -2.628  11.895  0.00  0.00     0.174 HD
ATOM     27  H29 ZIN A   1      19.753  -3.423  11.555  0.00  0.00     0.174 HD
ATOM     28  H30 ZIN A   1      21.042  -2.757  12.402  0.00  0.00     0.174 HD
ATOM     29  H41 ZIN A   1      20.686  -1.022  13.929  0.00  0.00     0.178 HD
ENDBRANCH   6  21
BRANCH   4  30
ATOM     30  C19 ZIN A   1      19.239   0.660  18.118  0.00  0.00     0.233 C 
ATOM     31  O20 ZIN A   1      19.855   1.495  18.767  0.00  0.00    -0.642 OA
ATOM     32  O21 ZIN A   1      18.784  -0.332  18.673  0.00  0.00    -0.642 OA
ENDBRANCH   4  30
TORSDOF 9
ENDMDL
MODEL 4
REMARK VINA RESULT:      -6.8      2.912      4.535
REMARK  9 active torsions:
REMARK  status: ('A' for Active; 'I' for Inactive)
REMARK       I    between atoms: C2_2  and  N4_4 
REMARK    1  A    between atoms: N4_4  and  C5_5 
REMARK    2  A    between atoms: C7_6  and  C9_7 
REMARK    3  A    between atoms: C9_7  and  O11_8 
REMARK    4  A    between atoms: C9_7  and  C12_9 
REMARK    5  A    between atoms: C12_9  and  O14_10 
REMARK    6  A    between atoms: C12_9  and  C15_11 
REMARK    7  A    between atoms: C15_11  and  O16_12 
REMARK    8  A    between atoms: C18_14  and  C19_15 
REMARK    9  A    between atoms: C23_19  and  N25_20 
REMARK       I    between atoms: N25_20  and  C26_21 
REMARK       I    between atoms: C26_21  and  N27_22 
ROOT
ATOM      1  C5  ZIN A   1      19.102   0.228  11.605  0.00  0.00     0.143 C 
ATOM      2  C7  ZIN A   1      19.596  -1.174  11.988  0.00  0.00     0.185 C 
ATOM      3  O17 ZIN A   1      18.961  -1.555  13.212  0.00  0.00    -0.335 OA
ATOM      4  C18 ZIN A   1      18.963  -0.656  14.226  0.00  0.00     0.144 C 
ATOM      5  C22 ZIN A   1      19.220   0.633  14.048  0.00  0.00     0.045 C 
ATOM      6  C23 ZIN A   1      19.545   1.208  12.695  0.00  0.00     0.150 C 
ENDROOT
BRANCH   2   7
ATOM      7  C9  ZIN A   1      19.230  -2.169  10.884  0.00  0.00     0.180 C 
BRANCH   7   8
ATOM      8  O11 ZIN A   1      17.820  -2.127  10.653  0.00  0.00    -0.390 OA
ATOM      9  H35 ZIN A   1      17.296  -1.958  11.448  0.00  0.00     0.210 HD
ENDBRANCH   7   8
BRANCH   7  10
ATOM     10  C12 ZIN A   1      19.634  -3.580  11.316  0.00  0.00     0.173 C 
BRANCH  10  11
ATOM     11  O14 ZIN A   1      20.994  -3.573  11.754  0.00  0.00    -0.391 OA
ATOM     12  H36 ZIN A   1      21.215  -4.288  12.366  0.00  0.00     0.210 HD
ENDBRANCH  10  11
BRANCH  10  13
ATOM     13  C15 ZIN A   1      19.483  -4.538  10.133  0.00  0.00     0.198 C 
BRANCH  13  14
ATOM     14  O16 ZIN A   1      19.642  -3.816   8.912  0.00  0.00    -0.398 OA
ATOM     15  H39 ZIN A   1      19.678  -4.376   8.124  0.00  0.00     0.209 HD
ENDBRANCH  13  14
ENDBRANCH  10  13
ENDBRANCH   7  10
ENDBRANCH   2   7
BRANCH   1  16
ATOM     16  N4  ZIN A   1      19.684   0.622  10.320  0.00  0.00    -0.352 N 
ATOM     17  C2  ZIN A   1      18.919   1.229   9.391  0.00  0.00     0.214 C 
ATOM     18  C1  ZIN A   1      19.518   1.636   8.069  0.00  0.00     0.117 C 
ATOM     19  O3  ZIN A   1      17.749   1.449   9.619  0.00  0.00    -0.274 OA
ATOM     20  H34 ZIN A   1      20.620   0.447  10.137  0.00  0.00     0.163 HD
ENDBRANCH   1  16
BRANCH   6  21
ATOM     21  N25 ZIN A   1      18.839   2.482  12.526  0.00  0.00    -0.217 N 
ATOM     22  C26 ZIN A   1      19.521   3.589  12.102  0.00  0.00     0.665 C 
ATOM     23  N27 ZIN A   1      20.825   3.511  11.844  0.00  0.00    -0.235 N 
ATOM     24  N28 ZIN A   1      18.879   4.746  11.947  0.00  0.00    -0.235 N 
ATOM     25  H42 ZIN A   1      21.292   2.668  11.957  0.00  0.00     0.174 HD
ATOM     26  H43 ZIN A   1      21.308   4.296  11.545  0.00  0.00     0.174 HD
ATOM     27  H29 ZIN A   1      19.362   5.532  11.647  0.00  0.00     0.174 HD
ATOM     28  H30 ZIN A   1      17.930   4.804  12.135  0.00  0.00     0.174 HD
ATOM     29  H41 ZIN A   1      17.889   2.538  12.713  0.00  0.00     0.178 HD
ENDBRANCH   6  21
BRANCH   4  30
ATOM     30  C19 ZIN A   1      18.664  -1.131  15.585  0.00  0.00     0.233 C 
ATOM     31  O20 ZIN A   1      19.529  -1.698  16.239  0.00  0.00    -0.642 OA
ATOM     32  O21 ZIN A   1      17.552  -0.956  16.064  0.00  0.00    -0.642 OA
ENDBRANCH   4  30
TORSDOF 9
ENDMDL
MODEL 5
REMARK VINA RESULT:      -6.7      3.572      7.852
REMARK  9 active torsions:
REMARK  status: ('A' for Active; 'I' for Inactive)
REMARK       I    between atoms: C2_2  and  N4_4 
REMARK    1  A    between atoms: N4_4  and  C5_5 
REMARK    2  A    between atoms: C7_6  and  C9_7 
REMARK    3  A    between atoms: C9_7  and  O11_8 
REMARK    4  A    between atoms: C9_7  and  C12_9 
REMARK    5  A    between atoms: C12_9  and  O14_10 
REMARK    6  A    between atoms: C12_9  and  C15_11 
REMARK    7  A    between atoms: C15_11  and  O16_12 
REMARK    8  A    between atoms: C18_14  and  C19_15 
REMARK    9  A    between atoms: C23_19  and  N25_20 
REMARK       I    between atoms: N25_20  and  C26_21 
REMARK       I    between atoms: C26_21  and  N27_22 
ROOT
ATOM      1  C5  ZIN A   1      17.981   1.066  11.996  0.00  0.00     0.143 C 
ATOM      2  C7  ZIN A   1      18.552   2.152  12.919  0.00  0.00     0.185 C 
ATOM      3  O17 ZIN A   1      17.779   3.343  12.741  0.00  0.00    -0.335 OA
ATOM      4  C18 ZIN A   1      17.534   3.748  11.472  0.00  0.00     0.144 C 
ATOM      5  C22 ZIN A   1      17.683   2.955  10.419  0.00  0.00     0.045 C 
ATOM      6  C23 ZIN A   1      18.150   1.530  10.546  0.00  0.00     0.150 C 
ENDROOT
BRANCH   2   7
ATOM      7  C9  ZIN A   1      18.463   1.691  14.375  0.00  0.00     0.180 C 
BRANCH   7   8
ATOM      8  O11 ZIN A   1      17.190   1.081  14.605  0.00  0.00    -0.390 OA
ATOM      9  H35 ZIN A   1      17.236   0.135  14.801  0.00  0.00     0.210 HD
ENDBRANCH   7   8
BRANCH   7  10
ATOM     10  C12 ZIN A   1      18.625   2.896  15.303  0.00  0.00     0.173 C 
BRANCH  10  11
ATOM     11  O14 ZIN A   1      19.644   3.757  14.790  0.00  0.00    -0.391 OA
ATOM     12  H36 ZIN A   1      19.972   4.403  15.430  0.00  0.00     0.210 HD
ENDBRANCH  10  11
BRANCH  10  13
ATOM     13  C15 ZIN A   1      19.020   2.414  16.700  0.00  0.00     0.198 C 
BRANCH  13  14
ATOM     14  O16 ZIN A   1      20.004   3.293  17.246  0.00  0.00    -0.398 OA
ATOM     15  H39 ZIN A   1      19.675   3.863  17.954  0.00  0.00     0.209 HD
ENDBRANCH  13  14
ENDBRANCH  10  13
ENDBRANCH   7  10
ENDBRANCH   2   7
BRANCH   1  16
ATOM     16  N4  ZIN A   1      18.710  -0.188  12.201  0.00  0.00    -0.352 N 
ATOM     17  C2  ZIN A   1      18.052  -1.364  12.166  0.00  0.00     0.214 C 
ATOM     18  C1  ZIN A   1      18.801  -2.655  12.376  0.00  0.00     0.117 C 
ATOM     19  O3  ZIN A   1      16.856  -1.383  11.966  0.00  0.00    -0.274 OA
ATOM     20  H34 ZIN A   1      19.667  -0.173  12.362  0.00  0.00     0.163 HD
ENDBRANCH   1  16
BRANCH   6  21
ATOM     21  N25 ZIN A   1      17.352   0.675   9.662  0.00  0.00    -0.217 N 
ATOM     22  C26 ZIN A   1      17.945   0.051   8.598  0.00  0.00     0.665 C 
ATOM     23  N27 ZIN A   1      19.245   0.219   8.367  0.00  0.00    -0.235 N 
ATOM     24  N28 ZIN A   1      17.219  -0.727   7.796  0.00  0.00    -0.235 N 
ATOM     25  H42 ZIN A   1      19.773   0.786   8.952  0.00  0.00     0.174 HD
ATOM     26  H43 ZIN A   1      19.664  -0.223   7.613  0.00  0.00     0.174 HD
ATOM     27  H29 ZIN A   1      17.639  -1.170   7.042  0.00  0.00     0.174 HD
ATOM     28  H30 ZIN A   1      16.272  -0.850   7.964  0.00  0.00     0.174 HD
ATOM     29  H41 ZIN A   1      16.405   0.552   9.831  0.00  0.00     0.178 HD
ENDBRANCH   6  21
BRANCH   4  30
ATOM     30  C19 ZIN A   1      17.081   5.130  11.251  0.00  0.00     0.233 C 
ATOM     31  O20 ZIN A   1      17.171   5.634  10.139  0.00  0.00    -0.642 OA
ATOM     32  O21 ZIN A   1      16.612   5.776  12.179  0.00  0.00    -0.642 OA
ENDBRANCH   4  30
TORSDOF 9
ENDMDL
MODEL 6
REMARK VINA RESULT:      -6.5      3.887      6.705
REMARK  9 active torsions:
REMARK  status: ('A' for Active; 'I' for Inactive)
REMARK       I    between atoms: C2_2  and  N4_4 
REMARK    1  A    between atoms: N4_4  and  C5_5 
REMARK    2  A    between atoms: C7_6  and  C9_7 
REMARK    3  A    between atoms: C9_7  and  O11_8 
REMARK    4  A    between atoms: C9_7  and  C12_9 
REMARK    5  A    between atoms: C12_9  and  O14_10 
REMARK    6  A    between atoms: C12_9  and  C15_11 
REMARK    7  A    between atoms: C15_11  and  O16_12 
REMARK    8  A    between atoms: C18_14  and  C19_15 
REMARK    9  A    between atoms: C23_19  and  N25_20 
REMARK       I    between atoms: N25_20  and  C26_21 
REMARK       I    between atoms: C26_21  and  N27_22 
ROOT
ATOM      1  C5  ZIN A   1      19.306   0.040  12.708  0.00  0.00     0.143 C 
ATOM      2  C7  ZIN A   1      18.513   1.061  13.536  0.00  0.00     0.185 C 
ATOM      3  O17 ZIN A   1      18.894   0.919  14.908  0.00  0.00    -0.335 OA
ATOM      4  C18 ZIN A   1      18.922  -0.333  15.425  0.00  0.00     0.144 C 
ATOM      5  C22 ZIN A   1      18.934  -1.425  14.673  0.00  0.00     0.045 C 
ATOM      6  C23 ZIN A   1      18.909  -1.366  13.170  0.00  0.00     0.150 C 
ENDROOT
BRANCH   2   7
ATOM      7  C9  ZIN A   1      18.834   2.477  13.054  0.00  0.00     0.180 C 
BRANCH   7   8
ATOM      8  O11 ZIN A   1      20.153   2.504  12.501  0.00  0.00    -0.390 OA
ATOM      9  H35 ZIN A   1      20.173   2.540  11.535  0.00  0.00     0.210 HD
ENDBRANCH   7   8
BRANCH   7  10
ATOM     10  C12 ZIN A   1      18.757   3.447  14.234  0.00  0.00     0.173 C 
BRANCH  10  11
ATOM     11  O14 ZIN A   1      17.443   3.409  14.795  0.00  0.00    -0.391 OA
ATOM     12  H36 ZIN A   1      17.087   4.279  15.024  0.00  0.00     0.210 HD
ENDBRANCH  10  11
BRANCH  10  13
ATOM     13  C15 ZIN A   1      19.064   4.865  13.750  0.00  0.00     0.198 C 
BRANCH  13  14
ATOM     14  O16 ZIN A   1      20.458   5.133  13.912  0.00  0.00    -0.398 OA
ATOM     15  H39 ZIN A   1      20.649   5.972  14.353  0.00  0.00     0.209 HD
ENDBRANCH  13  14
ENDBRANCH  10  13
ENDBRANCH   7  10
ENDBRANCH   2   7
BRANCH   1  16
ATOM     16  N4  ZIN A   1      18.988   0.202  11.288  0.00  0.00    -0.352 N 
ATOM     17  C2  ZIN A   1      19.929  -0.039  10.354  0.00  0.00     0.214 C 
ATOM     18  C1  ZIN A   1      19.601   0.127   8.892  0.00  0.00     0.117 C 
ATOM     19  O3  ZIN A   1      21.040  -0.390  10.690  0.00  0.00    -0.274 OA
ATOM     20  H34 ZIN A   1      18.099   0.483  11.018  0.00  0.00     0.163 HD
ENDBRANCH   1  16
BRANCH   6  21
ATOM     21  N25 ZIN A   1      19.855  -2.345  12.627  0.00  0.00    -0.217 N 
ATOM     22  C26 ZIN A   1      19.421  -3.302  11.751  0.00  0.00     0.665 C 
ATOM     23  N27 ZIN A   1      18.140  -3.342  11.390  0.00  0.00    -0.235 N 
ATOM     24  N28 ZIN A   1      20.282  -4.191  11.257  0.00  0.00    -0.235 N 
ATOM     25  H42 ZIN A   1      17.514  -2.694  11.749  0.00  0.00     0.174 HD
ATOM     26  H43 ZIN A   1      17.833  -4.021  10.769  0.00  0.00     0.174 HD
ATOM     27  H29 ZIN A   1      19.974  -4.869  10.635  0.00  0.00     0.174 HD
ATOM     28  H30 ZIN A   1      21.215  -4.161  11.520  0.00  0.00     0.174 HD
ATOM     29  H41 ZIN A   1      20.788  -2.315  12.890  0.00  0.00     0.178 HD
ENDBRANCH   6  21
BRANCH   4  30
ATOM     30  C19 ZIN A   1      18.939  -0.488  16.888  0.00  0.00     0.233 C 
ATOM     31  O20 ZIN A   1      18.342   0.312  17.596  0.00  0.00    -0.642 OA
ATOM     32  O21 ZIN A   1      19.549  -1.418  17.397  0.00  0.00    -0.642 OA
ENDBRANCH   4  30
TORSDOF 9
ENDMDL
MODEL 7
REMARK VINA RESULT:      -6.5      1.820      2.168
REMARK  9 active torsions:
REMARK  status: ('A' for Active; 'I' for Inactive)
REMARK       I    between atoms: C2_2  and  N4_4 
REMARK    1  A    between atoms: N4_4  and  C5_5 
REMARK    2  A    between atoms: C7_6  and  C9_7 
REMARK    3  A    between atoms: C9_7  and  O11_8 
REMARK    4  A    between atoms: C9_7  and  C12_9 
REMARK    5  A    between atoms: C12_9  and  O14_10 
REMARK    6  A    between atoms: C12_9  and  C15_11 
REMARK    7  A    between atoms: C15_11  and  O16_12 
REMARK    8  A    between atoms: C18_14  and  C19_15 
REMARK    9  A    between atoms: C23_19  and  N25_20 
REMARK       I    between atoms: N25_20  and  C26_21 
REMARK       I    between atoms: C26_21  and  N27_22 
ROOT
ATOM      1  C5  ZIN A   1      18.577  -2.145   8.778  0.00  0.00     0.143 C 
ATOM      2  C7  ZIN A   1      18.640  -3.545   8.152  0.00  0.00     0.185 C 
ATOM      3  O17 ZIN A   1      17.886  -4.439   8.976  0.00  0.00    -0.335 OA
ATOM      4  C18 ZIN A   1      18.114  -4.404  10.311  0.00  0.00     0.144 C 
ATOM      5  C22 ZIN A   1      18.734  -3.397  10.912  0.00  0.00     0.045 C 
ATOM      6  C23 ZIN A   1      19.249  -2.204  10.153  0.00  0.00     0.150 C 
ENDROOT
BRANCH   2   7
ATOM      7  C9  ZIN A   1      18.038  -3.509   6.745  0.00  0.00     0.180 C 
BRANCH   7   8
ATOM      8  O11 ZIN A   1      17.064  -4.548   6.617  0.00  0.00    -0.390 OA
ATOM      9  H35 ZIN A   1      16.152  -4.248   6.731  0.00  0.00     0.210 HD
ENDBRANCH   7   8
BRANCH   7  10
ATOM     10  C12 ZIN A   1      19.145  -3.718   5.711  0.00  0.00     0.173 C 
BRANCH  10  11
ATOM     11  O14 ZIN A   1      20.418  -3.510   6.328  0.00  0.00    -0.391 OA
ATOM     12  H36 ZIN A   1      21.043  -3.012   5.783  0.00  0.00     0.210 HD
ENDBRANCH  10  11
BRANCH  10  13
ATOM     13  C15 ZIN A   1      18.966  -2.722   4.563  0.00  0.00     0.198 C 
BRANCH  13  14
ATOM     14  O16 ZIN A   1      19.879  -1.636   4.728  0.00  0.00    -0.398 OA
ATOM     15  H39 ZIN A   1      20.809  -1.887   4.644  0.00  0.00     0.209 HD
ENDBRANCH  13  14
ENDBRANCH  10  13
ENDBRANCH   7  10
ENDBRANCH   2   7
BRANCH   1  16
ATOM     16  N4  ZIN A   1      19.286  -1.190   7.922  0.00  0.00    -0.352 N 
ATOM     17  C2  ZIN A   1      18.748   0.021   7.674  0.00  0.00     0.214 C 
ATOM     18  C1  ZIN A   1      19.477   1.004   6.794  0.00  0.00     0.117 C 
ATOM     19  O3  ZIN A   1      17.678   0.319   8.159  0.00  0.00    -0.274 OA
ATOM     20  H34 ZIN A   1      20.142  -1.429   7.533  0.00  0.00     0.163 HD
ENDBRANCH   1  16
BRANCH   6  21
ATOM     21  N25 ZIN A   1      18.942  -0.981  10.901  0.00  0.00    -0.217 N 
ATOM     22  C26 ZIN A   1      19.951  -0.135  11.271  0.00  0.00     0.665 C 
ATOM     23  N27 ZIN A   1      21.211  -0.421  10.952  0.00  0.00    -0.235 N 
ATOM     24  N28 ZIN A   1      19.670   0.977  11.950  0.00  0.00    -0.235 N 
ATOM     25  H42 ZIN A   1      21.415  -1.231  10.458  0.00  0.00     0.174 HD
ATOM     26  H43 ZIN A   1      21.926   0.179  11.216  0.00  0.00     0.174 HD
ATOM     27  H29 ZIN A   1      20.386   1.577  12.213  0.00  0.00     0.174 HD
ATOM     28  H30 ZIN A   1      18.752   1.186  12.183  0.00  0.00     0.174 HD
ATOM     29  H41 ZIN A   1      18.023  -0.772  11.132  0.00  0.00     0.178 HD
ENDBRANCH   6  21
BRANCH   4  30
ATOM     30  C19 ZIN A   1      17.653  -5.534  11.133  0.00  0.00     0.233 C 
ATOM     31  O20 ZIN A   1      17.672  -5.451  12.354  0.00  0.00    -0.642 OA
ATOM     32  O21 ZIN A   1      17.248  -6.556  10.595  0.00  0.00    -0.642 OA
ENDBRANCH   4  30
TORSDOF 9
ENDMDL
MODEL 8
REMARK VINA RESULT:      -6.5      2.198      4.801
REMARK  9 active torsions:
REMARK  status: ('A' for Active; 'I' for Inactive)
REMARK       I    between atoms: C2_2  and  N4_4 
REMARK    1  A    between atoms: N4_4  and  C5_5 
REMARK    2  A    between atoms: C7_6  and  C9_7 
REMARK    3  A    between atoms: C9_7  and  O11_8 
REMARK    4  A    between atoms: C9_7  and  C12_9 
REMARK    5  A    between atoms: C12_9  and  O14_10 
REMARK    6  A    between atoms: C12_9  and  C15_11 
REMARK    7  A    between atoms: C15_11  and  O16_12 
REMARK    8  A    between atoms: C18_14  and  C19_15 
REMARK    9  A    between atoms: C23_19  and  N25_20 
REMARK       I    between atoms: N25_20  and  C26_21 
REMARK       I    between atoms: C26_21  and  N27_22 
ROOT
ATOM      1  C5  ZIN A   1      18.750   0.098  10.606  0.00  0.00     0.143 C 
ATOM      2  C7  ZIN A   1      17.744  -0.736   9.801  0.00  0.00     0.185 C 
ATOM      3  O17 ZIN A   1      18.127  -0.694   8.424  0.00  0.00    -0.335 OA
ATOM      4  C18 ZIN A   1      18.417   0.517   7.889  0.00  0.00     0.144 C 
ATOM      5  C22 ZIN A   1      18.675   1.589   8.627  0.00  0.00     0.045 C 
ATOM      6  C23 ZIN A   1      18.659   1.552  10.132  0.00  0.00     0.150 C 
ENDROOT
BRANCH   2   7
ATOM      7  C9  ZIN A   1      17.759  -2.183  10.298  0.00  0.00     0.180 C 
BRANCH   7   8
ATOM      8  O11 ZIN A   1      17.175  -2.246  11.601  0.00  0.00    -0.390 OA
ATOM      9  H35 ZIN A   1      16.967  -1.381  11.981  0.00  0.00     0.210 HD
ENDBRANCH   7   8
BRANCH   7  10
ATOM     10  C12 ZIN A   1      19.203  -2.685  10.361  0.00  0.00     0.173 C 
BRANCH  10  11
ATOM     11  O14 ZIN A   1      19.497  -3.438   9.182  0.00  0.00    -0.391 OA
ATOM     12  H36 ZIN A   1      19.288  -4.379   9.254  0.00  0.00     0.210 HD
ENDBRANCH  10  11
BRANCH  10  13
ATOM     13  C15 ZIN A   1      19.379  -3.577  11.593  0.00  0.00     0.198 C 
BRANCH  13  14
ATOM     14  O16 ZIN A   1      20.480  -3.104  12.369  0.00  0.00    -0.398 OA
ATOM     15  H39 ZIN A   1      20.858  -3.769  12.961  0.00  0.00     0.209 HD
ENDBRANCH  13  14
ENDBRANCH  10  13
ENDBRANCH   7  10
ENDBRANCH   2   7
BRANCH   1  16
ATOM     16  N4  ZIN A   1      18.423   0.023  12.033  0.00  0.00    -0.352 N 
ATOM     17  C2  ZIN A   1      19.411  -0.010  12.950  0.00  0.00     0.214 C 
ATOM     18  C1  ZIN A   1      19.075  -0.086  14.417  0.00  0.00     0.117 C 
ATOM     19  O3  ZIN A   1      20.569   0.023  12.594  0.00  0.00    -0.274 OA
ATOM     20  H34 ZIN A   1      17.497  -0.004  12.318  0.00  0.00     0.163 HD
ENDBRANCH   1  16
BRANCH   6  21
ATOM     21  N25 ZIN A   1      19.801   2.310  10.650  0.00  0.00    -0.217 N 
ATOM     22  C26 ZIN A   1      19.601   3.303  11.570  0.00  0.00     0.665 C 
ATOM     23  N27 ZIN A   1      18.370   3.580  11.994  0.00  0.00    -0.235 N 
ATOM     24  N28 ZIN A   1      20.640   3.990  12.042  0.00  0.00    -0.235 N 
ATOM     25  H42 ZIN A   1      17.614   3.078  11.650  0.00  0.00     0.174 HD
ATOM     26  H43 ZIN A   1      18.228   4.284  12.645  0.00  0.00     0.174 HD
ATOM     27  H29 ZIN A   1      20.499   4.694  12.694  0.00  0.00     0.174 HD
ATOM     28  H30 ZIN A   1      21.537   3.788  11.733  0.00  0.00     0.174 HD
ATOM     29  H41 ZIN A   1      20.698   2.107  10.342  0.00  0.00     0.178 HD
ENDBRANCH   6  21
BRANCH   4  30
ATOM     30  C19 ZIN A   1      18.447   0.650   6.425  0.00  0.00     0.233 C 
ATOM     31  O20 ZIN A   1      17.502   0.254   5.755  0.00  0.00    -0.642 OA
ATOM     32  O21 ZIN A   1      19.415   1.158   5.876  0.00  0.00    -0.642 OA
ENDBRANCH   4  30
TORSDOF 9
ENDMDL
MODEL 9
REMARK VINA RESULT:      -6.3      2.545      4.882
REMARK  9 active torsions:
REMARK  status: ('A' for Active; 'I' for Inactive)
REMARK       I    between atoms: C2_2  and  N4_4 
REMARK    1  A    between atoms: N4_4  and  C5_5 
REMARK    2  A    between atoms: C7_6  and  C9_7 
REMARK    3  A    between atoms: C9_7  and  O11_8 
REMARK    4  A    between atoms: C9_7  and  C12_9 
REMARK    5  A    between atoms: C12_9  and  O14_10 
REMARK    6  A    between atoms: C12_9  and  C15_11 
REMARK    7  A    between atoms: C15_11  and  O16_12 
REMARK    8  A    between atoms: C18_14  and  C19_15 
REMARK    9  A    between atoms: C23_19  and  N25_20 
REMARK       I    between atoms: N25_20  and  C26_21 
REMARK       I    between atoms: C26_21  and  N27_22 
ROOT
ATOM      1  C5  ZIN A   1      18.605  -1.713   9.187  0.00  0.00     0.143 C 
ATOM      2  C7  ZIN A   1      17.997  -2.901   9.946  0.00  0.00     0.185 C 
ATOM      3  O17 ZIN A   1      18.759  -4.070   9.633  0.00  0.00    -0.335 OA
ATOM      4  C18 ZIN A   1      19.033  -4.310   8.328  0.00  0.00     0.144 C 
ATOM      5  C22 ZIN A   1      18.922  -3.384   7.384  0.00  0.00     0.045 C 
ATOM      6  C23 ZIN A   1      18.469  -1.981   7.685  0.00  0.00     0.150 C 
ENDROOT
BRANCH   2   7
ATOM      7  C9  ZIN A   1      18.053  -2.635  11.451  0.00  0.00     0.180 C 
BRANCH   7   8
ATOM      8  O11 ZIN A   1      17.036  -1.695  11.808  0.00  0.00    -0.390 OA
ATOM      9  H35 ZIN A   1      16.589  -1.897  12.641  0.00  0.00     0.210 HD
ENDBRANCH   7   8
BRANCH   7  10
ATOM     10  C12 ZIN A   1      19.425  -2.065  11.818  0.00  0.00     0.173 C 
BRANCH  10  11
ATOM     11  O14 ZIN A   1      20.317  -3.137  12.130  0.00  0.00    -0.391 OA
ATOM     12  H36 ZIN A   1      20.852  -2.986  12.922  0.00  0.00     0.210 HD
ENDBRANCH  10  11
BRANCH  10  13
ATOM     13  C15 ZIN A   1      19.287  -1.145  13.033  0.00  0.00     0.198 C 
BRANCH  13  14
ATOM     14  O16 ZIN A   1      20.072  -1.659  14.110  0.00  0.00    -0.398 OA
ATOM     15  H39 ZIN A   1      19.636  -2.357  14.618  0.00  0.00     0.209 HD
ENDBRANCH  13  14
ENDBRANCH  10  13
ENDBRANCH   7  10
ENDBRANCH   2   7
BRANCH   1  16
ATOM     16  N4  ZIN A   1      17.887  -0.484   9.536  0.00  0.00    -0.352 N 
ATOM     17  C2  ZIN A   1      18.563   0.671   9.695  0.00  0.00     0.214 C 
ATOM     18  C1  ZIN A   1      17.825   1.934  10.053  0.00  0.00     0.117 C 
ATOM     19  O3  ZIN A   1      19.767   0.693   9.548  0.00  0.00    -0.274 OA
ATOM     20  H34 ZIN A   1      16.924  -0.502   9.655  0.00  0.00     0.163 HD
ENDBRANCH   1  16
BRANCH   6  21
ATOM     21  N25 ZIN A   1      19.300  -1.031   6.940  0.00  0.00    -0.217 N 
ATOM     22  C26 ZIN A   1      18.730  -0.212   6.004  0.00  0.00     0.665 C 
ATOM     23  N27 ZIN A   1      17.422  -0.278   5.770  0.00  0.00    -0.235 N 
ATOM     24  N28 ZIN A   1      19.486   0.652   5.328  0.00  0.00    -0.235 N 
ATOM     25  H42 ZIN A   1      16.871  -0.908   6.262  0.00  0.00     0.174 HD
ATOM     26  H43 ZIN A   1      17.018   0.302   5.105  0.00  0.00     0.174 HD
ATOM     27  H29 ZIN A   1      19.082   1.233   4.664  0.00  0.00     0.174 HD
ATOM     28  H30 ZIN A   1      20.439   0.701   5.499  0.00  0.00     0.174 HD
ATOM     29  H41 ZIN A   1      20.254  -0.982   7.112  0.00  0.00     0.178 HD
ENDBRANCH   6  21
BRANCH   4  30
ATOM     30  C19 ZIN A   1      19.474  -5.658   7.939  0.00  0.00     0.233 C 
ATOM     31  O20 ZIN A   1      19.098  -6.633   8.576  0.00  0.00    -0.642 OA
ATOM     32  O21 ZIN A   1      20.216  -5.806   6.977  0.00  0.00    -0.642 OA
ENDBRANCH   4  30
TORSDOF 9
ENDMDL
