MODEL 1
REMARK VINA RESULT:      -6.4      0.000      0.000
REMARK  7 active torsions:
REMARK  status: ('A' for Active; 'I' for Inactive)
REMARK    1  A    between atoms: C2_2  and  C4_4 
REMARK    2  A    between atoms: C8_8  and  C9_9 
REMARK    3  A    between atoms: C12_12  and  O13_13 
REMARK    4  A    between atoms: O13_13  and  C14_14 
REMARK    5  A    between atoms: C14_14  and  O15_15 
REMARK    6  A    between atoms: O15_15  and  P16_16 
REMARK    7  A    between atoms: P16_16  and  O19_19 
ROOT
ATOM      1  C4  ZIN A   1      18.111  -2.129  10.565  0.00  0.00    -0.021 A 
ATOM      2  C5  ZIN A   1      17.391  -1.379  11.474  0.00  0.00     0.010 A 
ATOM      3  C6  ZIN A   1      17.072  -0.064  11.189  0.00  0.00     0.001 A 
ATOM      4  C7  ZIN A   1      17.472   0.502   9.992  0.00  0.00     0.010 A 
ATOM      5  C8  ZIN A   1      18.192  -0.244   9.080  0.00  0.00    -0.021 A 
ATOM      6  C12 ZIN A   1      18.518  -1.562   9.366  0.00  0.00     0.085 A 
ENDROOT
BRANCH   6   7
ATOM      7  O13 ZIN A   1      19.225  -2.298   8.470  0.00  0.00    -0.325 OA
BRANCH   7   8
ATOM      8  C14 ZIN A   1      18.478  -2.999   7.472  0.00  0.00     0.358 C 
BRANCH   8   9
ATOM      9  O15 ZIN A   1      18.561  -4.404   7.716  0.00  0.00    -0.264 OA
BRANCH   9  10
ATOM     10  P16 ZIN A   1      19.865  -5.280   7.361  0.00  0.00     0.407 P 
ATOM     11  O17 ZIN A   1      19.518  -6.293   6.248  0.00  0.00    -0.624 OA
ATOM     12  O18 ZIN A   1      20.333  -6.040   8.622  0.00  0.00    -0.624 OA
BRANCH  10  13
ATOM     13  O19 ZIN A   1      21.044  -4.307   6.854  0.00  0.00    -0.300 OA
ATOM     14  H39 ZIN A   1      21.932  -4.623   7.067  0.00  0.00     0.223 HD
ENDBRANCH  10  13
ENDBRANCH   9  10
ENDBRANCH   8   9
ENDBRANCH   7   8
ENDBRANCH   6   7
BRANCH   1  15
ATOM     15  C2  ZIN A   1      18.459  -3.562  10.877  0.00  0.00     0.013 C 
ATOM     16  C1  ZIN A   1      19.743  -3.606  11.707  0.00  0.00     0.015 C 
ATOM     17  C3  ZIN A   1      17.317  -4.203  11.669  0.00  0.00     0.015 C 
ENDBRANCH   1  15
BRANCH   5  18
ATOM     18  C9  ZIN A   1      18.628   0.375   7.776  0.00  0.00     0.013 C 
ATOM     19  C10 ZIN A   1      17.454   0.374   6.795  0.00  0.00     0.015 C 
ATOM     20  C11 ZIN A   1      19.086   1.812   8.022  0.00  0.00     0.015 C 
ENDBRANCH   5  18
TORSDOF 7
ENDMDL
MODEL 2
REMARK VINA RESULT:      -6.4      0.192      3.761
REMARK  7 active torsions:
REMARK  status: ('A' for Active; 'I' for Inactive)
REMARK    1  A    between atoms: C2_2  and  C4_4 
REMARK    2  A    between atoms: C8_8  and  C9_9 
REMARK    3  A    between atoms: C12_12  and  O13_13 
REMARK    4  A    between atoms: O13_13  and  C14_14 
REMARK    5  A    between atoms: C14_14  and  O15_15 
REMARK    6  A    between atoms: O15_15  and  P16_16 
REMARK    7  A    between atoms: P16_16  and  O19_19 
ROOT
ATOM      1  C4  ZIN A   1      18.152  -0.345   9.252  0.00  0.00    -0.021 A 
ATOM      2  C5  ZIN A   1      17.438   0.353  10.207  0.00  0.00     0.010 A 
ATOM      3  C6  ZIN A   1      17.088  -0.261  11.396  0.00  0.00     0.001 A 
ATOM      4  C7  ZIN A   1      17.453  -1.574  11.632  0.00  0.00     0.010 A 
ATOM      5  C8  ZIN A   1      18.167  -2.275  10.680  0.00  0.00    -0.021 A 
ATOM      6  C12 ZIN A   1      18.515  -1.664   9.484  0.00  0.00     0.085 A 
ENDROOT
BRANCH   6   7
ATOM      7  O13 ZIN A   1      19.217  -2.352   8.547  0.00  0.00    -0.325 OA
BRANCH   7   8
ATOM      8  C14 ZIN A   1      18.464  -3.030   7.539  0.00  0.00     0.358 C 
BRANCH   8   9
ATOM      9  O15 ZIN A   1      18.564  -4.441   7.740  0.00  0.00    -0.264 OA
BRANCH   9  10
ATOM     10  P16 ZIN A   1      19.878  -5.291   7.359  0.00  0.00     0.407 P 
ATOM     11  O17 ZIN A   1      19.529  -6.312   6.254  0.00  0.00    -0.624 OA
ATOM     12  O18 ZIN A   1      20.387  -6.040   8.610  0.00  0.00    -0.624 OA
BRANCH  10  13
ATOM     13  O19 ZIN A   1      21.026  -4.293   6.827  0.00  0.00    -0.300 OA
ATOM     14  H39 ZIN A   1      20.879  -3.367   7.061  0.00  0.00     0.223 HD
ENDBRANCH  10  13
ENDBRANCH   9  10
ENDBRANCH   8   9
ENDBRANCH   7   8
ENDBRANCH   6   7
BRANCH   1  15
ATOM     15  C2  ZIN A   1      18.532   0.324   7.956  0.00  0.00     0.013 C 
ATOM     16  C1  ZIN A   1      17.332   0.316   7.007  0.00  0.00     0.015 C 
ATOM     17  C3  ZIN A   1      18.954   1.769   8.233  0.00  0.00     0.015 C 
ENDBRANCH   1  15
BRANCH   5  18
ATOM     18  C9  ZIN A   1      18.564  -3.706  10.938  0.00  0.00     0.013 C 
ATOM     19  C10 ZIN A   1      19.923  -3.739  11.641  0.00  0.00     0.015 C 
ATOM     20  C11 ZIN A   1      17.515  -4.375  11.827  0.00  0.00     0.015 C 
ENDBRANCH   5  18
TORSDOF 7
ENDMDL
MODEL 3
REMARK VINA RESULT:      -6.4      1.537      3.943
REMARK  7 active torsions:
REMARK  status: ('A' for Active; 'I' for Inactive)
REMARK    1  A    between atoms: C2_2  and  C4_4 
REMARK    2  A    between atoms: C8_8  and  C9_9 
REMARK    3  A    between atoms: C12_12  and  O13_13 
REMARK    4  A    between atoms: O13_13  and  C14_14 
REMARK    5  A    between atoms: C14_14  and  O15_15 
REMARK    6  A    between atoms: O15_15  and  P16_16 
REMARK    7  A    between atoms: P16_16  and  O19_19 
ROOT
ATOM      1  C4  ZIN A   1      18.966  -0.042   7.092  0.00  0.00    -0.021 A 
ATOM      2  C5  ZIN A   1      18.804   1.327   7.175  0.00  0.00     0.010 A 
ATOM      3  C6  ZIN A   1      18.954   1.970   8.391  0.00  0.00     0.001 A 
ATOM      4  C7  ZIN A   1      19.267   1.244   9.525  0.00  0.00     0.010 A 
ATOM      5  C8  ZIN A   1      19.430  -0.125   9.447  0.00  0.00    -0.021 A 
ATOM      6  C12 ZIN A   1      19.275  -0.774   8.230  0.00  0.00     0.085 A 
ENDROOT
BRANCH   6   7
ATOM      7  O13 ZIN A   1      19.436  -2.120   8.151  0.00  0.00    -0.325 OA
BRANCH   7   8
ATOM      8  C14 ZIN A   1      18.260  -2.923   8.284  0.00  0.00     0.358 C 
BRANCH   8   9
ATOM      9  O15 ZIN A   1      18.370  -4.070   7.438  0.00  0.00    -0.264 OA
BRANCH   9  10
ATOM     10  P16 ZIN A   1      19.700  -4.975   7.357  0.00  0.00     0.407 P 
ATOM     11  O17 ZIN A   1      19.428  -6.212   6.473  0.00  0.00    -0.624 OA
ATOM     12  O18 ZIN A   1      20.098  -5.434   8.777  0.00  0.00    -0.624 OA
BRANCH  10  13
ATOM     13  O19 ZIN A   1      20.899  -4.110   6.717  0.00  0.00    -0.300 OA
ATOM     14  H39 ZIN A   1      21.736  -4.589   6.653  0.00  0.00     0.223 HD
ENDBRANCH  10  13
ENDBRANCH   9  10
ENDBRANCH   8   9
ENDBRANCH   7   8
ENDBRANCH   6   7
BRANCH   1  15
ATOM     15  C2  ZIN A   1      18.801  -0.742   5.768  0.00  0.00     0.013 C 
ATOM     16  C1  ZIN A   1      17.312  -0.888   5.450  0.00  0.00     0.015 C 
ATOM     17  C3  ZIN A   1      19.480   0.079   4.669  0.00  0.00     0.015 C 
ENDBRANCH   1  15
BRANCH   5  18
ATOM     18  C9  ZIN A   1      19.772  -0.916  10.684  0.00  0.00     0.013 C 
ATOM     19  C10 ZIN A   1      20.797  -0.143  11.516  0.00  0.00     0.015 C 
ATOM     20  C11 ZIN A   1      18.506  -1.138  11.512  0.00  0.00     0.015 C 
ENDBRANCH   5  18
TORSDOF 7
ENDMDL
MODEL 4
REMARK VINA RESULT:      -6.3      1.540      2.447
REMARK  7 active torsions:
REMARK  status: ('A' for Active; 'I' for Inactive)
REMARK    1  A    between atoms: C2_2  and  C4_4 
REMARK    2  A    between atoms: C8_8  and  C9_9 
REMARK    3  A    between atoms: C12_12  and  O13_13 
REMARK    4  A    between atoms: O13_13  and  C14_14 
REMARK    5  A    between atoms: C14_14  and  O15_15 
REMARK    6  A    between atoms: O15_15  and  P16_16 
REMARK    7  A    between atoms: P16_16  and  O19_19 
ROOT
ATOM      1  C4  ZIN A   1      19.428  -0.118   9.470  0.00  0.00    -0.021 A 
ATOM      2  C5  ZIN A   1      19.278   1.255   9.498  0.00  0.00     0.010 A 
ATOM      3  C6  ZIN A   1      18.972   1.942   8.338  0.00  0.00     0.001 A 
ATOM      4  C7  ZIN A   1      18.815   1.257   7.147  0.00  0.00     0.010 A 
ATOM      5  C8  ZIN A   1      18.965  -0.116   7.114  0.00  0.00    -0.021 A 
ATOM      6  C12 ZIN A   1      19.277  -0.808   8.275  0.00  0.00     0.085 A 
ENDROOT
BRANCH   6   7
ATOM      7  O13 ZIN A   1      19.424  -2.157   8.245  0.00  0.00    -0.325 OA
BRANCH   7   8
ATOM      8  C14 ZIN A   1      18.231  -2.942   8.315  0.00  0.00     0.358 C 
BRANCH   8   9
ATOM      9  O15 ZIN A   1      18.348  -4.064   7.438  0.00  0.00    -0.264 OA
BRANCH   9  10
ATOM     10  P16 ZIN A   1      19.675  -4.972   7.347  0.00  0.00     0.407 P 
ATOM     11  O17 ZIN A   1      19.396  -6.204   6.459  0.00  0.00    -0.624 OA
ATOM     12  O18 ZIN A   1      20.078  -5.438   8.764  0.00  0.00    -0.624 OA
BRANCH  10  13
ATOM     13  O19 ZIN A   1      20.873  -4.107   6.706  0.00  0.00    -0.300 OA
ATOM     14  H39 ZIN A   1      21.202  -4.455   5.866  0.00  0.00     0.223 HD
ENDBRANCH  10  13
ENDBRANCH   9  10
ENDBRANCH   8   9
ENDBRANCH   7   8
ENDBRANCH   6   7
BRANCH   1  15
ATOM     15  C2  ZIN A   1      19.763  -0.866  10.735  0.00  0.00     0.013 C 
ATOM     16  C1  ZIN A   1      20.727  -0.032  11.581  0.00  0.00     0.015 C 
ATOM     17  C3  ZIN A   1      18.480  -1.125  11.528  0.00  0.00     0.015 C 
ENDBRANCH   1  15
BRANCH   5  18
ATOM     18  C9  ZIN A   1      18.794  -0.862   5.815  0.00  0.00     0.013 C 
ATOM     19  C10 ZIN A   1      17.311  -0.902   5.442  0.00  0.00     0.015 C 
ATOM     20  C11 ZIN A   1      19.578  -0.151   4.712  0.00  0.00     0.015 C 
ENDBRANCH   5  18
TORSDOF 7
ENDMDL
MODEL 5
REMARK VINA RESULT:      -6.3      6.659      9.029
REMARK  7 active torsions:
REMARK  status: ('A' for Active; 'I' for Inactive)
REMARK    1  A    between atoms: C2_2  and  C4_4 
REMARK    2  A    between atoms: C8_8  and  C9_9 
REMARK    3  A    between atoms: C12_12  and  O13_13 
REMARK    4  A    between atoms: O13_13  and  C14_14 
REMARK    5  A    between atoms: C14_14  and  O15_15 
REMARK    6  A    between atoms: O15_15  and  P16_16 
REMARK    7  A    between atoms: P16_16  and  O19_19 
ROOT
ATOM      1  C4  ZIN A   1      17.951   2.088  11.863  0.00  0.00    -0.021 A 
ATOM      2  C5  ZIN A   1      17.182   1.179  11.162  0.00  0.00     0.010 A 
ATOM      3  C6  ZIN A   1      16.885  -0.051  11.720  0.00  0.00     0.001 A 
ATOM      4  C7  ZIN A   1      17.355  -0.373  12.980  0.00  0.00     0.010 A 
ATOM      5  C8  ZIN A   1      18.125   0.532  13.683  0.00  0.00    -0.021 A 
ATOM      6  C12 ZIN A   1      18.430   1.765  13.125  0.00  0.00     0.085 A 
ENDROOT
BRANCH   6   7
ATOM      7  O13 ZIN A   1      19.185   2.657  13.815  0.00  0.00    -0.325 OA
BRANCH   7   8
ATOM      8  C14 ZIN A   1      18.499   3.531  14.715  0.00  0.00     0.358 C 
BRANCH   8   9
ATOM      9  O15 ZIN A   1      19.022   4.854  14.586  0.00  0.00    -0.264 OA
BRANCH   9  10
ATOM     10  P16 ZIN A   1      20.054   5.496  15.643  0.00  0.00     0.407 P 
ATOM     11  O17 ZIN A   1      19.268   6.272  16.723  0.00  0.00    -0.624 OA
ATOM     12  O18 ZIN A   1      21.009   6.462  14.908  0.00  0.00    -0.624 OA
BRANCH  10  13
ATOM     13  O19 ZIN A   1      20.908   4.322  16.339  0.00  0.00    -0.300 OA
ATOM     14  H39 ZIN A   1      21.062   3.557  15.768  0.00  0.00     0.223 HD
ENDBRANCH  10  13
ENDBRANCH   9  10
ENDBRANCH   8   9
ENDBRANCH   7   8
ENDBRANCH   6   7
BRANCH   1  15
ATOM     15  C2  ZIN A   1      18.276   3.428  11.254  0.00  0.00     0.013 C 
ATOM     16  C1  ZIN A   1      18.556   3.255   9.759  0.00  0.00     0.015 C 
ATOM     17  C3  ZIN A   1      17.090   4.376  11.444  0.00  0.00     0.015 C 
ENDBRANCH   1  15
BRANCH   5  18
ATOM     18  C9  ZIN A   1      18.638   0.180  15.056  0.00  0.00     0.013 C 
ATOM     19  C10 ZIN A   1      17.465   0.114  16.037  0.00  0.00     0.015 C 
ATOM     20  C11 ZIN A   1      19.338  -1.178  15.006  0.00  0.00     0.015 C 
ENDBRANCH   5  18
TORSDOF 7
ENDMDL
MODEL 6
REMARK VINA RESULT:      -6.3      6.576      8.212
REMARK  7 active torsions:
REMARK  status: ('A' for Active; 'I' for Inactive)
REMARK    1  A    between atoms: C2_2  and  C4_4 
REMARK    2  A    between atoms: C8_8  and  C9_9 
REMARK    3  A    between atoms: C12_12  and  O13_13 
REMARK    4  A    between atoms: O13_13  and  C14_14 
REMARK    5  A    between atoms: C14_14  and  O15_15 
REMARK    6  A    between atoms: O15_15  and  P16_16 
REMARK    7  A    between atoms: P16_16  and  O19_19 
ROOT
ATOM      1  C4  ZIN A   1      18.141   0.441  13.590  0.00  0.00    -0.021 A 
ATOM      2  C5  ZIN A   1      17.363  -0.467  12.899  0.00  0.00     0.010 A 
ATOM      3  C6  ZIN A   1      16.906  -0.163  11.629  0.00  0.00     0.001 A 
ATOM      4  C7  ZIN A   1      17.229   1.050  11.049  0.00  0.00     0.010 A 
ATOM      5  C8  ZIN A   1      18.006   1.961  11.736  0.00  0.00    -0.021 A 
ATOM      6  C12 ZIN A   1      18.461   1.662  13.012  0.00  0.00     0.085 A 
ENDROOT
BRANCH   6   7
ATOM      7  O13 ZIN A   1      19.226   2.556  13.690  0.00  0.00    -0.325 OA
BRANCH   7   8
ATOM      8  C14 ZIN A   1      18.549   3.451  14.575  0.00  0.00     0.358 C 
BRANCH   8   9
ATOM      9  O15 ZIN A   1      19.121   4.756  14.461  0.00  0.00    -0.264 OA
BRANCH   9  10
ATOM     10  P16 ZIN A   1      20.029   5.419  15.615  0.00  0.00     0.407 P 
ATOM     11  O17 ZIN A   1      19.118   6.117  16.649  0.00  0.00    -0.624 OA
ATOM     12  O18 ZIN A   1      20.983   6.457  14.985  0.00  0.00    -0.624 OA
BRANCH  10  13
ATOM     13  O19 ZIN A   1      20.890   4.271  16.345  0.00  0.00    -0.300 OA
ATOM     14  H39 ZIN A   1      21.684   4.600  16.790  0.00  0.00     0.223 HD
ENDBRANCH  10  13
ENDBRANCH   9  10
ENDBRANCH   8   9
ENDBRANCH   7   8
ENDBRANCH   6   7
BRANCH   1  15
ATOM     15  C2  ZIN A   1      18.637   0.110  14.974  0.00  0.00     0.013 C 
ATOM     16  C1  ZIN A   1      17.458   0.097  15.949  0.00  0.00     0.015 C 
ATOM     17  C3  ZIN A   1      19.304  -1.268  14.961  0.00  0.00     0.015 C 
ENDBRANCH   1  15
BRANCH   5  18
ATOM     18  C9  ZIN A   1      18.356   3.283  11.103  0.00  0.00     0.013 C 
ATOM     19  C10 ZIN A   1      18.673   3.070   9.621  0.00  0.00     0.015 C 
ATOM     20  C11 ZIN A   1      17.174   4.243  11.238  0.00  0.00     0.015 C 
ENDBRANCH   5  18
TORSDOF 7
ENDMDL
MODEL 7
REMARK VINA RESULT:      -6.2      1.895      2.348
REMARK  7 active torsions:
REMARK  status: ('A' for Active; 'I' for Inactive)
REMARK    1  A    between atoms: C2_2  and  C4_4 
REMARK    2  A    between atoms: C8_8  and  C9_9 
REMARK    3  A    between atoms: C12_12  and  O13_13 
REMARK    4  A    between atoms: O13_13  and  C14_14 
REMARK    5  A    between atoms: C14_14  and  O15_15 
REMARK    6  A    between atoms: O15_15  and  P16_16 
REMARK    7  A    between atoms: P16_16  and  O19_19 
ROOT
ATOM      1  C4  ZIN A   1      18.216  -2.580  10.351  0.00  0.00    -0.021 A 
ATOM      2  C5  ZIN A   1      17.544  -1.881  11.334  0.00  0.00     0.010 A 
ATOM      3  C6  ZIN A   1      17.188  -0.560  11.125  0.00  0.00     0.001 A 
ATOM      4  C7  ZIN A   1      17.503   0.061   9.931  0.00  0.00     0.010 A 
ATOM      5  C8  ZIN A   1      18.176  -0.634   8.945  0.00  0.00    -0.021 A 
ATOM      6  C12 ZIN A   1      18.539  -1.957   9.154  0.00  0.00     0.085 A 
ENDROOT
BRANCH   6   7
ATOM      7  O13 ZIN A   1      19.199  -2.642   8.186  0.00  0.00    -0.325 OA
BRANCH   7   8
ATOM      8  C14 ZIN A   1      18.402  -3.318   7.210  0.00  0.00     0.358 C 
BRANCH   8   9
ATOM      9  O15 ZIN A   1      19.151  -3.461   6.001  0.00  0.00    -0.264 OA
BRANCH   9  10
ATOM     10  P16 ZIN A   1      18.732  -2.743   4.621  0.00  0.00     0.407 P 
ATOM     11  O17 ZIN A   1      19.710  -1.585   4.326  0.00  0.00    -0.624 OA
ATOM     12  O18 ZIN A   1      17.297  -2.186   4.745  0.00  0.00    -0.624 OA
BRANCH  10  13
ATOM     13  O19 ZIN A   1      18.790  -3.815   3.420  0.00  0.00    -0.300 OA
ATOM     14  H39 ZIN A   1      19.683  -3.994   3.097  0.00  0.00     0.223 HD
ENDBRANCH  10  13
ENDBRANCH   9  10
ENDBRANCH   8   9
ENDBRANCH   7   8
ENDBRANCH   6   7
BRANCH   1  15
ATOM     15  C2  ZIN A   1      18.605  -4.018  10.580  0.00  0.00     0.013 C 
ATOM     16  C1  ZIN A   1      19.902  -4.073  11.390  0.00  0.00     0.015 C 
ATOM     17  C3  ZIN A   1      17.491  -4.730  11.351  0.00  0.00     0.015 C 
ENDBRANCH   1  15
BRANCH   5  18
ATOM     18  C9  ZIN A   1      18.520   0.045   7.644  0.00  0.00     0.013 C 
ATOM     19  C10 ZIN A   1      17.247   0.231   6.815  0.00  0.00     0.015 C 
ATOM     20  C11 ZIN A   1      19.145   1.410   7.931  0.00  0.00     0.015 C 
ENDBRANCH   5  18
TORSDOF 7
ENDMDL
MODEL 8
REMARK VINA RESULT:      -6.1      1.951      2.863
REMARK  7 active torsions:
REMARK  status: ('A' for Active; 'I' for Inactive)
REMARK    1  A    between atoms: C2_2  and  C4_4 
REMARK    2  A    between atoms: C8_8  and  C9_9 
REMARK    3  A    between atoms: C12_12  and  O13_13 
REMARK    4  A    between atoms: O13_13  and  C14_14 
REMARK    5  A    between atoms: C14_14  and  O15_15 
REMARK    6  A    between atoms: O15_15  and  P16_16 
REMARK    7  A    between atoms: P16_16  and  O19_19 
ROOT
ATOM      1  C4  ZIN A   1      19.337   0.341   9.923  0.00  0.00    -0.021 A 
ATOM      2  C5  ZIN A   1      19.277   1.721   9.940  0.00  0.00     0.010 A 
ATOM      3  C6  ZIN A   1      19.024   2.417   8.772  0.00  0.00     0.001 A 
ATOM      4  C7  ZIN A   1      18.829   1.733   7.586  0.00  0.00     0.010 A 
ATOM      5  C8  ZIN A   1      18.887   0.354   7.565  0.00  0.00    -0.021 A 
ATOM      6  C12 ZIN A   1      19.147  -0.348   8.733  0.00  0.00     0.085 A 
ENDROOT
BRANCH   6   7
ATOM      7  O13 ZIN A   1      19.204  -1.704   8.715  0.00  0.00    -0.325 OA
BRANCH   7   8
ATOM      8  C14 ZIN A   1      17.967  -2.408   8.848  0.00  0.00     0.358 C 
BRANCH   8   9
ATOM      9  O15 ZIN A   1      18.070  -3.351   9.917  0.00  0.00    -0.264 OA
BRANCH   9  10
ATOM     10  P16 ZIN A   1      19.126  -4.567   9.915  0.00  0.00     0.407 P 
ATOM     11  O17 ZIN A   1      18.364  -5.911   9.878  0.00  0.00    -0.624 OA
ATOM     12  O18 ZIN A   1      19.991  -4.500  11.193  0.00  0.00    -0.624 OA
BRANCH  10  13
ATOM     13  O19 ZIN A   1      20.074  -4.452   8.618  0.00  0.00    -0.300 OA
ATOM     14  H39 ZIN A   1      20.718  -5.169   8.539  0.00  0.00     0.223 HD
ENDBRANCH  10  13
ENDBRANCH   9  10
ENDBRANCH   8   9
ENDBRANCH   7   8
ENDBRANCH   6   7
BRANCH   1  15
ATOM     15  C2  ZIN A   1      19.614  -0.417  11.196  0.00  0.00     0.013 C 
ATOM     16  C1  ZIN A   1      20.679   0.322  12.009  0.00  0.00     0.015 C 
ATOM     17  C3  ZIN A   1      18.327  -0.523  12.017  0.00  0.00     0.015 C 
ENDBRANCH   1  15
BRANCH   5  18
ATOM     18  C9  ZIN A   1      18.675  -0.390   6.271  0.00  0.00     0.013 C 
ATOM     19  C10 ZIN A   1      17.188  -0.374   5.912  0.00  0.00     0.015 C 
ATOM     20  C11 ZIN A   1      19.476   0.285   5.157  0.00  0.00     0.015 C 
ENDBRANCH   5  18
TORSDOF 7
ENDMDL
MODEL 9
REMARK VINA RESULT:      -6.1      1.851      4.361
REMARK  7 active torsions:
REMARK  status: ('A' for Active; 'I' for Inactive)
REMARK    1  A    between atoms: C2_2  and  C4_4 
REMARK    2  A    between atoms: C8_8  and  C9_9 
REMARK    3  A    between atoms: C12_12  and  O13_13 
REMARK    4  A    between atoms: O13_13  and  C14_14 
REMARK    5  A    between atoms: C14_14  and  O15_15 
REMARK    6  A    between atoms: O15_15  and  P16_16 
REMARK    7  A    between atoms: P16_16  and  O19_19 
ROOT
ATOM      1  C4  ZIN A   1      18.327  -0.358   9.572  0.00  0.00    -0.021 A 
ATOM      2  C5  ZIN A   1      17.602   0.260  10.572  0.00  0.00     0.010 A 
ATOM      3  C6  ZIN A   1      17.136  -0.477  11.646  0.00  0.00     0.001 A 
ATOM      4  C7  ZIN A   1      17.394  -1.833  11.720  0.00  0.00     0.010 A 
ATOM      5  C8  ZIN A   1      18.118  -2.456  10.722  0.00  0.00    -0.021 A 
ATOM      6  C12 ZIN A   1      18.583  -1.720   9.641  0.00  0.00     0.085 A 
ENDROOT
BRANCH   6   7
ATOM      7  O13 ZIN A   1      19.295  -2.329   8.659  0.00  0.00    -0.325 OA
BRANCH   7   8
ATOM      8  C14 ZIN A   1      18.553  -2.936   7.598  0.00  0.00     0.358 C 
BRANCH   8   9
ATOM      9  O15 ZIN A   1      19.339  -2.933   6.405  0.00  0.00    -0.264 OA
BRANCH   9  10
ATOM     10  P16 ZIN A   1      18.737  -2.558   4.959  0.00  0.00     0.407 P 
ATOM     11  O17 ZIN A   1      18.661  -3.831   4.087  0.00  0.00    -0.624 OA
ATOM     12  O18 ZIN A   1      19.653  -1.519   4.274  0.00  0.00    -0.624 OA
BRANCH  10  13
ATOM     13  O19 ZIN A   1      17.261  -1.938   5.136  0.00  0.00    -0.300 OA
ATOM     14  H39 ZIN A   1      16.819  -1.733   4.301  0.00  0.00     0.223 HD
ENDBRANCH  10  13
ENDBRANCH   9  10
ENDBRANCH   8   9
ENDBRANCH   7   8
ENDBRANCH   6   7
BRANCH   1  15
ATOM     15  C2  ZIN A   1      18.834   0.446   8.402  0.00  0.00     0.013 C 
ATOM     16  C1  ZIN A   1      17.730   0.564   7.348  0.00  0.00     0.015 C 
ATOM     17  C3  ZIN A   1      19.236   1.843   8.879  0.00  0.00     0.015 C 
ENDBRANCH   1  15
BRANCH   5  18
ATOM     18  C9  ZIN A   1      18.399  -3.934  10.803  0.00  0.00     0.013 C 
ATOM     19  C10 ZIN A   1      19.744  -4.159  11.497  0.00  0.00     0.015 C 
ATOM     20  C11 ZIN A   1      17.292  -4.620  11.603  0.00  0.00     0.015 C 
ENDBRANCH   5  18
TORSDOF 7
ENDMDL
