MODEL 1
REMARK VINA RESULT:      -8.3      0.000      0.000
REMARK  7 active torsions:
REMARK  status: ('A' for Active; 'I' for Inactive)
REMARK    1  A    between atoms: C2_2  and  N4_4 
REMARK    2  A    between atoms: N4_4  and  C6_6 
REMARK    3  A    between atoms: N4_4  and  C25_25 
REMARK    4  A    between atoms: C6_6  and  C7_7 
REMARK    5  A    between atoms: C7_7  and  O8_8 
REMARK    6  A    between atoms: O8_8  and  C9_9 
REMARK    7  A    between atoms: C9_9  and  C11_11 
ROOT
ATOM      1  C11 ZIN A   1      18.306   0.078  12.175  0.00  0.00     0.157 C 
ATOM      2  C12 ZIN A   1      18.242   1.509  11.714  0.00  0.00    -0.006 A 
ATOM      3  C13 ZIN A   1      18.486   1.803  10.384  0.00  0.00     0.011 A 
ATOM      4  C14 ZIN A   1      18.431   3.111   9.940  0.00  0.00     0.001 A 
ATOM      5  C15 ZIN A   1      18.132   4.131  10.825  0.00  0.00     0.003 A 
ATOM      6  C16 ZIN A   1      17.888   3.841  12.152  0.00  0.00     0.038 A 
ATOM      7  C17 ZIN A   1      17.943   2.528  12.602  0.00  0.00     0.083 A 
ATOM      8  O18 ZIN A   1      17.700   2.267  13.909  0.00  0.00    -0.310 OA
ATOM      9  C19 ZIN A   1      18.127   1.105  14.462  0.00  0.00     0.083 A 
ATOM     10  C20 ZIN A   1      18.253   1.018  15.843  0.00  0.00     0.038 A 
ATOM     11  C21 ZIN A   1      18.685  -0.156  16.427  0.00  0.00     0.003 A 
ATOM     12  C22 ZIN A   1      18.993  -1.248  15.636  0.00  0.00     0.001 A 
ATOM     13  C23 ZIN A   1      18.869  -1.164  14.263  0.00  0.00     0.011 A 
ATOM     14  C24 ZIN A   1      18.436   0.010  13.672  0.00  0.00    -0.006 A 
ENDROOT
BRANCH   1  15
ATOM     15  C9  ZIN A   1      17.050  -0.637  11.751  0.00  0.00     0.272 C 
ATOM     16  O10 ZIN A   1      15.997  -0.043  11.724  0.00  0.00    -0.264 OA
BRANCH  15  17
ATOM     17  O8  ZIN A   1      17.098  -1.933  11.404  0.00  0.00    -0.319 OA
BRANCH  17  18
ATOM     18  C7  ZIN A   1      18.267  -2.377  10.668  0.00  0.00     0.206 C 
BRANCH  18  19
ATOM     19  C6  ZIN A   1      17.845  -3.389   9.602  0.00  0.00     0.264 C 
BRANCH  19  20
ATOM     20  N4  ZIN A   1      18.513  -4.673   9.855  0.00  0.00    -0.062 N 
ATOM     21  C5  ZIN A   1      19.583  -4.483  10.842  0.00  0.00     0.273 C 
BRANCH  20  22
ATOM     22  C2  ZIN A   1      19.088  -5.181   8.602  0.00  0.00     0.182 C 
ATOM     23  C1  ZIN A   1      19.282  -4.020   7.624  0.00  0.00     0.040 C 
ATOM     24  C3  ZIN A   1      20.441  -5.836   8.889  0.00  0.00     0.040 C 
ENDBRANCH  20  22
BRANCH  20  25
ATOM     25  C25 ZIN A   1      17.535  -5.640  10.372  0.00  0.00     0.182 C 
ATOM     26  C26 ZIN A   1      17.438  -5.506  11.893  0.00  0.00     0.040 C 
ATOM     27  C27 ZIN A   1      16.166  -5.363   9.748  0.00  0.00     0.040 C 
ENDBRANCH  20  25
ENDBRANCH  19  20
ENDBRANCH  18  19
ENDBRANCH  17  18
ENDBRANCH  15  17
ENDBRANCH   1  15
TORSDOF 7
ENDMDL
MODEL 2
REMARK VINA RESULT:      -8.2      0.906      1.941
REMARK  7 active torsions:
REMARK  status: ('A' for Active; 'I' for Inactive)
REMARK    1  A    between atoms: C2_2  and  N4_4 
REMARK    2  A    between atoms: N4_4  and  C6_6 
REMARK    3  A    between atoms: N4_4  and  C25_25 
REMARK    4  A    between atoms: C6_6  and  C7_7 
REMARK    5  A    between atoms: C7_7  and  O8_8 
REMARK    6  A    between atoms: O8_8  and  C9_9 
REMARK    7  A    between atoms: C9_9  and  C11_11 
ROOT
ATOM      1  C11 ZIN A   1      18.238   0.731  11.491  0.00  0.00     0.157 C 
ATOM      2  C12 ZIN A   1      18.015   2.215  11.392  0.00  0.00    -0.006 A 
ATOM      3  C13 ZIN A   1      18.132   2.837  10.161  0.00  0.00     0.011 A 
ATOM      4  C14 ZIN A   1      17.930   4.199  10.048  0.00  0.00     0.001 A 
ATOM      5  C15 ZIN A   1      17.610   4.947  11.167  0.00  0.00     0.003 A 
ATOM      6  C16 ZIN A   1      17.493   4.331  12.396  0.00  0.00     0.038 A 
ATOM      7  C17 ZIN A   1      17.696   2.962  12.514  0.00  0.00     0.083 A 
ATOM      8  O18 ZIN A   1      17.576   2.378  13.730  0.00  0.00    -0.310 OA
ATOM      9  C19 ZIN A   1      18.142   1.169  13.964  0.00  0.00     0.083 A 
ATOM     10  C20 ZIN A   1      18.378   0.774  15.276  0.00  0.00     0.038 A 
ATOM     11  C21 ZIN A   1      18.954  -0.453  15.537  0.00  0.00     0.003 A 
ATOM     12  C22 ZIN A   1      19.296  -1.292  14.492  0.00  0.00     0.001 A 
ATOM     13  C23 ZIN A   1      19.062  -0.901  13.187  0.00  0.00     0.011 A 
ATOM     14  C24 ZIN A   1      18.485   0.327  12.920  0.00  0.00    -0.006 A 
ENDROOT
BRANCH   1  15
ATOM     15  C9  ZIN A   1      17.021   0.010  10.975  0.00  0.00     0.272 C 
ATOM     16  O10 ZIN A   1      15.992   0.030  11.610  0.00  0.00    -0.264 OA
BRANCH  15  17
ATOM     17  O8  ZIN A   1      17.077  -0.655   9.809  0.00  0.00    -0.319 OA
BRANCH  17  18
ATOM     18  C7  ZIN A   1      18.169  -1.595   9.638  0.00  0.00     0.206 C 
BRANCH  18  19
ATOM     19  C6  ZIN A   1      17.879  -2.865  10.441  0.00  0.00     0.264 C 
BRANCH  19  20
ATOM     20  N4  ZIN A   1      18.165  -4.044   9.611  0.00  0.00    -0.062 N 
ATOM     21  C5  ZIN A   1      17.932  -3.718   8.199  0.00  0.00     0.273 C 
BRANCH  20  22
ATOM     22  C2  ZIN A   1      17.282  -5.148  10.011  0.00  0.00     0.182 C 
ATOM     23  C1  ZIN A   1      16.595  -4.798  11.333  0.00  0.00     0.040 C 
ATOM     24  C3  ZIN A   1      16.222  -5.371   8.930  0.00  0.00     0.040 C 
ENDBRANCH  20  22
BRANCH  20  25
ATOM     25  C25 ZIN A   1      19.566  -4.445   9.797  0.00  0.00     0.182 C 
ATOM     26  C26 ZIN A   1      19.924  -4.376  11.284  0.00  0.00     0.040 C 
ATOM     27  C27 ZIN A   1      19.757  -5.877   9.293  0.00  0.00     0.040 C 
ENDBRANCH  20  25
ENDBRANCH  19  20
ENDBRANCH  18  19
ENDBRANCH  17  18
ENDBRANCH  15  17
ENDBRANCH   1  15
TORSDOF 7
ENDMDL
MODEL 3
REMARK VINA RESULT:      -8.1      2.016      3.927
REMARK  7 active torsions:
REMARK  status: ('A' for Active; 'I' for Inactive)
REMARK    1  A    between atoms: C2_2  and  N4_4 
REMARK    2  A    between atoms: N4_4  and  C6_6 
REMARK    3  A    between atoms: N4_4  and  C25_25 
REMARK    4  A    between atoms: C6_6  and  C7_7 
REMARK    5  A    between atoms: C7_7  and  O8_8 
REMARK    6  A    between atoms: O8_8  and  C9_9 
REMARK    7  A    between atoms: C9_9  and  C11_11 
ROOT
ATOM      1  C11 ZIN A   1      17.396   0.801  10.773  0.00  0.00     0.157 C 
ATOM      2  C12 ZIN A   1      18.020   1.998  11.439  0.00  0.00    -0.006 A 
ATOM      3  C13 ZIN A   1      17.503   2.452  12.639  0.00  0.00     0.011 A 
ATOM      4  C14 ZIN A   1      18.062   3.548  13.267  0.00  0.00     0.001 A 
ATOM      5  C15 ZIN A   1      19.143   4.196  12.697  0.00  0.00     0.003 A 
ATOM      6  C16 ZIN A   1      19.661   3.747  11.500  0.00  0.00     0.038 A 
ATOM      7  C17 ZIN A   1      19.101   2.645  10.865  0.00  0.00     0.083 A 
ATOM      8  O18 ZIN A   1      19.627   2.221   9.691  0.00  0.00    -0.310 OA
ATOM      9  C19 ZIN A   1      18.895   1.441   8.860  0.00  0.00     0.083 A 
ATOM     10  C20 ZIN A   1      19.252   1.357   7.519  0.00  0.00     0.038 A 
ATOM     11  C21 ZIN A   1      18.520   0.567   6.655  0.00  0.00     0.003 A 
ATOM     12  C22 ZIN A   1      17.429  -0.142   7.123  0.00  0.00     0.001 A 
ATOM     13  C23 ZIN A   1      17.072  -0.060   8.456  0.00  0.00     0.011 A 
ATOM     14  C24 ZIN A   1      17.802   0.729   9.326  0.00  0.00    -0.006 A 
ENDROOT
BRANCH   1  15
ATOM     15  C9  ZIN A   1      17.846  -0.450  11.479  0.00  0.00     0.272 C 
ATOM     16  O10 ZIN A   1      17.032  -1.168  12.014  0.00  0.00    -0.264 OA
BRANCH  15  17
ATOM     17  O8  ZIN A   1      19.149  -0.770  11.516  0.00  0.00    -0.319 OA
BRANCH  17  18
ATOM     18  C7  ZIN A   1      19.488  -2.174  11.374  0.00  0.00     0.206 C 
BRANCH  18  19
ATOM     19  C6  ZIN A   1      18.988  -2.685  10.021  0.00  0.00     0.264 C 
BRANCH  19  20
ATOM     20  N4  ZIN A   1      18.736  -4.130  10.107  0.00  0.00    -0.062 N 
ATOM     21  C5  ZIN A   1      19.680  -4.737  11.053  0.00  0.00     0.273 C 
BRANCH  20  22
ATOM     22  C2  ZIN A   1      18.914  -4.737   8.781  0.00  0.00     0.182 C 
ATOM     23  C1  ZIN A   1      19.197  -3.640   7.752  0.00  0.00     0.040 C 
ATOM     24  C3  ZIN A   1      20.092  -5.714   8.820  0.00  0.00     0.040 C 
ENDBRANCH  20  22
BRANCH  20  25
ATOM     25  C25 ZIN A   1      17.361  -4.360  10.570  0.00  0.00     0.182 C 
ATOM     26  C26 ZIN A   1      16.576  -5.109   9.491  0.00  0.00     0.040 C 
ATOM     27  C27 ZIN A   1      17.388  -5.195  11.852  0.00  0.00     0.040 C 
ENDBRANCH  20  25
ENDBRANCH  19  20
ENDBRANCH  18  19
ENDBRANCH  17  18
ENDBRANCH  15  17
ENDBRANCH   1  15
TORSDOF 7
ENDMDL
MODEL 4
REMARK VINA RESULT:      -8.1      2.736      7.827
REMARK  7 active torsions:
REMARK  status: ('A' for Active; 'I' for Inactive)
REMARK    1  A    between atoms: C2_2  and  N4_4 
REMARK    2  A    between atoms: N4_4  and  C6_6 
REMARK    3  A    between atoms: N4_4  and  C25_25 
REMARK    4  A    between atoms: C6_6  and  C7_7 
REMARK    5  A    between atoms: C7_7  and  O8_8 
REMARK    6  A    between atoms: O8_8  and  C9_9 
REMARK    7  A    between atoms: C9_9  and  C11_11 
ROOT
ATOM      1  C11 ZIN A   1      19.201  -0.598  10.467  0.00  0.00     0.157 C 
ATOM      2  C12 ZIN A   1      19.317  -2.096  10.395  0.00  0.00    -0.006 A 
ATOM      3  C13 ZIN A   1      19.807  -2.790  11.487  0.00  0.00     0.011 A 
ATOM      4  C14 ZIN A   1      19.921  -4.167  11.442  0.00  0.00     0.001 A 
ATOM      5  C15 ZIN A   1      19.544  -4.856  10.304  0.00  0.00     0.003 A 
ATOM      6  C16 ZIN A   1      19.055  -4.167   9.212  0.00  0.00     0.038 A 
ATOM      7  C17 ZIN A   1      18.940  -2.783   9.254  0.00  0.00     0.083 A 
ATOM      8  O18 ZIN A   1      18.458  -2.128   8.171  0.00  0.00    -0.310 OA
ATOM      9  C19 ZIN A   1      18.700  -0.804   8.012  0.00  0.00     0.083 A 
ATOM     10  C20 ZIN A   1      18.579  -0.239   6.748  0.00  0.00     0.038 A 
ATOM     11  C21 ZIN A   1      18.822   1.107   6.565  0.00  0.00     0.003 A 
ATOM     12  C22 ZIN A   1      19.185   1.897   7.640  0.00  0.00     0.001 A 
ATOM     13  C23 ZIN A   1      19.307   1.338   8.898  0.00  0.00     0.011 A 
ATOM     14  C24 ZIN A   1      19.065  -0.011   9.088  0.00  0.00    -0.006 A 
ENDROOT
BRANCH   1  15
ATOM     15  C9  ZIN A   1      17.990  -0.232  11.285  0.00  0.00     0.272 C 
ATOM     16  O10 ZIN A   1      16.883  -0.356  10.814  0.00  0.00    -0.264 OA
BRANCH  15  17
ATOM     17  O8  ZIN A   1      18.139   0.232  12.536  0.00  0.00    -0.319 OA
BRANCH  17  18
ATOM     18  C7  ZIN A   1      18.996   1.390  12.713  0.00  0.00     0.206 C 
BRANCH  18  19
ATOM     19  C6  ZIN A   1      18.226   2.486  13.453  0.00  0.00     0.264 C 
BRANCH  19  20
ATOM     20  N4  ZIN A   1      18.435   3.773  12.775  0.00  0.00    -0.062 N 
ATOM     21  C5  ZIN A   1      19.667   3.714  11.979  0.00  0.00     0.273 C 
BRANCH  20  22
ATOM     22  C2  ZIN A   1      18.550   4.841  13.778  0.00  0.00     0.182 C 
ATOM     23  C1  ZIN A   1      18.390   4.244  15.178  0.00  0.00     0.040 C 
ATOM     24  C3  ZIN A   1      19.924   5.504  13.661  0.00  0.00     0.040 C 
ENDBRANCH  20  22
BRANCH  20  25
ATOM     25  C25 ZIN A   1      17.294   4.051  11.892  0.00  0.00     0.182 C 
ATOM     26  C26 ZIN A   1      16.531   5.272  12.412  0.00  0.00     0.040 C 
ATOM     27  C27 ZIN A   1      17.802   4.333  10.477  0.00  0.00     0.040 C 
ENDBRANCH  20  25
ENDBRANCH  19  20
ENDBRANCH  18  19
ENDBRANCH  17  18
ENDBRANCH  15  17
ENDBRANCH   1  15
TORSDOF 7
ENDMDL
MODEL 5
REMARK VINA RESULT:      -8.0      3.508      8.171
REMARK  7 active torsions:
REMARK  status: ('A' for Active; 'I' for Inactive)
REMARK    1  A    between atoms: C2_2  and  N4_4 
REMARK    2  A    between atoms: N4_4  and  C6_6 
REMARK    3  A    between atoms: N4_4  and  C25_25 
REMARK    4  A    between atoms: C6_6  and  C7_7 
REMARK    5  A    between atoms: C7_7  and  O8_8 
REMARK    6  A    between atoms: O8_8  and  C9_9 
REMARK    7  A    between atoms: C9_9  and  C11_11 
ROOT
ATOM      1  C11 ZIN A   1      19.237   1.465  10.513  0.00  0.00     0.157 C 
ATOM      2  C12 ZIN A   1      18.990   0.391  11.537  0.00  0.00    -0.006 A 
ATOM      3  C13 ZIN A   1      19.672   0.433  12.740  0.00  0.00     0.011 A 
ATOM      4  C14 ZIN A   1      19.459  -0.543  13.695  0.00  0.00     0.001 A 
ATOM      5  C15 ZIN A   1      18.561  -1.567  13.450  0.00  0.00     0.003 A 
ATOM      6  C16 ZIN A   1      17.879  -1.613  12.251  0.00  0.00     0.038 A 
ATOM      7  C17 ZIN A   1      18.092  -0.633  11.289  0.00  0.00     0.083 A 
ATOM      8  O18 ZIN A   1      17.411  -0.697  10.119  0.00  0.00    -0.310 OA
ATOM      9  C19 ZIN A   1      17.865  -0.030   9.030  0.00  0.00     0.083 A 
ATOM     10  C20 ZIN A   1      17.428  -0.416   7.768  0.00  0.00     0.038 A 
ATOM     11  C21 ZIN A   1      17.877   0.250   6.646  0.00  0.00     0.003 A 
ATOM     12  C22 ZIN A   1      18.763   1.304   6.776  0.00  0.00     0.001 A 
ATOM     13  C23 ZIN A   1      19.198   1.690   8.030  0.00  0.00     0.011 A 
ATOM     14  C24 ZIN A   1      18.751   1.026   9.158  0.00  0.00    -0.006 A 
ENDROOT
BRANCH   1  15
ATOM     15  C9  ZIN A   1      18.508   2.718  10.921  0.00  0.00     0.272 C 
ATOM     16  O10 ZIN A   1      17.310   2.794  10.777  0.00  0.00    -0.264 OA
BRANCH  15  17
ATOM     17  O8  ZIN A   1      19.187   3.751  11.444  0.00  0.00    -0.319 OA
BRANCH  17  18
ATOM     18  C7  ZIN A   1      18.544   4.487  12.517  0.00  0.00     0.206 C 
BRANCH  18  19
ATOM     19  C6  ZIN A   1      18.786   3.767  13.846  0.00  0.00     0.264 C 
BRANCH  19  20
ATOM     20  N4  ZIN A   1      18.671   4.729  14.951  0.00  0.00    -0.062 N 
ATOM     21  C5  ZIN A   1      17.264   5.116  15.119  0.00  0.00     0.273 C 
BRANCH  20  22
ATOM     22  C2  ZIN A   1      19.473   5.922  14.647  0.00  0.00     0.182 C 
ATOM     23  C1  ZIN A   1      18.692   7.176  15.044  0.00  0.00     0.040 C 
ATOM     24  C3  ZIN A   1      20.785   5.868  15.435  0.00  0.00     0.040 C 
ENDBRANCH  20  22
BRANCH  20  25
ATOM     25  C25 ZIN A   1      19.161   4.111  16.190  0.00  0.00     0.182 C 
ATOM     26  C26 ZIN A   1      18.169   4.383  17.324  0.00  0.00     0.040 C 
ATOM     27  C27 ZIN A   1      19.299   2.601  15.986  0.00  0.00     0.040 C 
ENDBRANCH  20  25
ENDBRANCH  19  20
ENDBRANCH  18  19
ENDBRANCH  17  18
ENDBRANCH  15  17
ENDBRANCH   1  15
TORSDOF 7
ENDMDL
MODEL 6
REMARK VINA RESULT:      -7.9      3.392      8.268
REMARK  7 active torsions:
REMARK  status: ('A' for Active; 'I' for Inactive)
REMARK    1  A    between atoms: C2_2  and  N4_4 
REMARK    2  A    between atoms: N4_4  and  C6_6 
REMARK    3  A    between atoms: N4_4  and  C25_25 
REMARK    4  A    between atoms: C6_6  and  C7_7 
REMARK    5  A    between atoms: C7_7  and  O8_8 
REMARK    6  A    between atoms: O8_8  and  C9_9 
REMARK    7  A    between atoms: C9_9  and  C11_11 
ROOT
ATOM      1  C11 ZIN A   1      19.188   1.007  10.140  0.00  0.00     0.157 C 
ATOM      2  C12 ZIN A   1      18.862  -0.172  11.017  0.00  0.00    -0.006 A 
ATOM      3  C13 ZIN A   1      19.519  -0.318  12.226  0.00  0.00     0.011 A 
ATOM      4  C14 ZIN A   1      19.234  -1.393  13.047  0.00  0.00     0.001 A 
ATOM      5  C15 ZIN A   1      18.289  -2.326  12.662  0.00  0.00     0.003 A 
ATOM      6  C16 ZIN A   1      17.632  -2.184  11.457  0.00  0.00     0.038 A 
ATOM      7  C17 ZIN A   1      17.916  -1.105  10.629  0.00  0.00     0.083 A 
ATOM      8  O18 ZIN A   1      17.259  -0.986   9.451  0.00  0.00    -0.310 OA
ATOM      9  C19 ZIN A   1      17.770  -0.214   8.461  0.00  0.00     0.083 A 
ATOM     10  C20 ZIN A   1      17.341  -0.415   7.154  0.00  0.00     0.038 A 
ATOM     11  C21 ZIN A   1      17.849   0.361   6.132  0.00  0.00     0.003 A 
ATOM     12  C22 ZIN A   1      18.786   1.340   6.406  0.00  0.00     0.001 A 
ATOM     13  C23 ZIN A   1      19.214   1.541   7.705  0.00  0.00     0.011 A 
ATOM     14  C24 ZIN A   1      18.709   0.768   8.734  0.00  0.00    -0.006 A 
ENDROOT
BRANCH   1  15
ATOM     15  C9  ZIN A   1      18.518   2.237  10.692  0.00  0.00     0.272 C 
ATOM     16  O10 ZIN A   1      17.313   2.273  10.797  0.00  0.00    -0.264 OA
BRANCH  15  17
ATOM     17  O8  ZIN A   1      19.255   3.294  11.068  0.00  0.00    -0.319 OA
BRANCH  17  18
ATOM     18  C7  ZIN A   1      19.449   3.490  12.493  0.00  0.00     0.206 C 
BRANCH  18  19
ATOM     19  C6  ZIN A   1      19.196   4.958  12.844  0.00  0.00     0.264 C 
BRANCH  19  20
ATOM     20  N4  ZIN A   1      18.306   5.036  14.010  0.00  0.00    -0.062 N 
ATOM     21  C5  ZIN A   1      17.827   3.691  14.352  0.00  0.00     0.273 C 
BRANCH  20  22
ATOM     22  C2  ZIN A   1      17.159   5.898  13.693  0.00  0.00     0.182 C 
ATOM     23  C1  ZIN A   1      16.593   5.510  12.325  0.00  0.00     0.040 C 
ATOM     24  C3  ZIN A   1      16.077   5.720  14.761  0.00  0.00     0.040 C 
ENDBRANCH  20  22
BRANCH  20  25
ATOM     25  C25 ZIN A   1      19.041   5.599  15.150  0.00  0.00     0.182 C 
ATOM     26  C26 ZIN A   1      19.445   4.472  16.105  0.00  0.00     0.040 C 
ATOM     27  C27 ZIN A   1      20.297   6.312  14.645  0.00  0.00     0.040 C 
ENDBRANCH  20  25
ENDBRANCH  19  20
ENDBRANCH  18  19
ENDBRANCH  17  18
ENDBRANCH  15  17
ENDBRANCH   1  15
TORSDOF 7
ENDMDL
MODEL 7
REMARK VINA RESULT:      -7.8      1.245      3.764
REMARK  7 active torsions:
REMARK  status: ('A' for Active; 'I' for Inactive)
REMARK    1  A    between atoms: C2_2  and  N4_4 
REMARK    2  A    between atoms: N4_4  and  C6_6 
REMARK    3  A    between atoms: N4_4  and  C25_25 
REMARK    4  A    between atoms: C6_6  and  C7_7 
REMARK    5  A    between atoms: C7_7  and  O8_8 
REMARK    6  A    between atoms: O8_8  and  C9_9 
REMARK    7  A    between atoms: C9_9  and  C11_11 
ROOT
ATOM      1  C11 ZIN A   1      18.547   0.432  12.255  0.00  0.00     0.157 C 
ATOM      2  C12 ZIN A   1      18.614   0.186  13.738  0.00  0.00    -0.006 A 
ATOM      3  C13 ZIN A   1      18.439  -1.099  14.220  0.00  0.00     0.011 A 
ATOM      4  C14 ZIN A   1      18.497  -1.346  15.578  0.00  0.00     0.001 A 
ATOM      5  C15 ZIN A   1      18.731  -0.308  16.461  0.00  0.00     0.003 A 
ATOM      6  C16 ZIN A   1      18.905   0.976  15.985  0.00  0.00     0.038 A 
ATOM      7  C17 ZIN A   1      18.847   1.228  14.620  0.00  0.00     0.083 A 
ATOM      8  O18 ZIN A   1      19.021   2.495  14.174  0.00  0.00    -0.310 OA
ATOM      9  C19 ZIN A   1      18.584   2.850  12.941  0.00  0.00     0.083 A 
ATOM     10  C20 ZIN A   1      18.383   4.195  12.654  0.00  0.00     0.038 A 
ATOM     11  C21 ZIN A   1      17.938   4.578  11.405  0.00  0.00     0.003 A 
ATOM     12  C22 ZIN A   1      17.691   3.622  10.436  0.00  0.00     0.001 A 
ATOM     13  C23 ZIN A   1      17.890   2.284  10.720  0.00  0.00     0.011 A 
ATOM     14  C24 ZIN A   1      18.336   1.894  11.970  0.00  0.00    -0.006 A 
ENDROOT
BRANCH   1  15
ATOM     15  C9  ZIN A   1      19.836  -0.018  11.619  0.00  0.00     0.272 C 
ATOM     16  O10 ZIN A   1      20.891   0.423  12.013  0.00  0.00    -0.264 OA
BRANCH  15  17
ATOM     17  O8  ZIN A   1      19.815  -0.908  10.613  0.00  0.00    -0.319 OA
BRANCH  17  18
ATOM     18  C7  ZIN A   1      18.636  -1.745  10.497  0.00  0.00     0.206 C 
BRANCH  18  19
ATOM     19  C6  ZIN A   1      18.822  -2.730   9.342  0.00  0.00     0.264 C 
BRANCH  19  20
ATOM     20  N4  ZIN A   1      18.723  -4.105   9.851  0.00  0.00    -0.062 N 
ATOM     21  C5  ZIN A   1      19.792  -4.343  10.830  0.00  0.00     0.273 C 
BRANCH  20  22
ATOM     22  C2  ZIN A   1      18.863  -5.051   8.735  0.00  0.00     0.182 C 
ATOM     23  C1  ZIN A   1      19.154  -4.279   7.446  0.00  0.00     0.040 C 
ATOM     24  C3  ZIN A   1      20.018  -6.013   9.023  0.00  0.00     0.040 C 
ENDBRANCH  20  22
BRANCH  20  25
ATOM     25  C25 ZIN A   1      17.417  -4.297  10.494  0.00  0.00     0.182 C 
ATOM     26  C26 ZIN A   1      16.519  -5.140   9.586  0.00  0.00     0.040 C 
ATOM     27  C27 ZIN A   1      17.608  -5.015  11.832  0.00  0.00     0.040 C 
ENDBRANCH  20  25
ENDBRANCH  19  20
ENDBRANCH  18  19
ENDBRANCH  17  18
ENDBRANCH  15  17
ENDBRANCH   1  15
TORSDOF 7
ENDMDL
MODEL 8
REMARK VINA RESULT:      -7.8      2.623      7.097
REMARK  7 active torsions:
REMARK  status: ('A' for Active; 'I' for Inactive)
REMARK    1  A    between atoms: C2_2  and  N4_4 
REMARK    2  A    between atoms: N4_4  and  C6_6 
REMARK    3  A    between atoms: N4_4  and  C25_25 
REMARK    4  A    between atoms: C6_6  and  C7_7 
REMARK    5  A    between atoms: C7_7  and  O8_8 
REMARK    6  A    between atoms: O8_8  and  C9_9 
REMARK    7  A    between atoms: C9_9  and  C11_11 
ROOT
ATOM      1  C11 ZIN A   1      17.889  -1.723  10.555  0.00  0.00     0.157 C 
ATOM      2  C12 ZIN A   1      18.156  -1.228   9.160  0.00  0.00    -0.006 A 
ATOM      3  C13 ZIN A   1      17.955   0.109   8.865  0.00  0.00     0.011 A 
ATOM      4  C14 ZIN A   1      18.195   0.584   7.590  0.00  0.00     0.001 A 
ATOM      5  C15 ZIN A   1      18.637  -0.277   6.602  0.00  0.00     0.003 A 
ATOM      6  C16 ZIN A   1      18.838  -1.612   6.891  0.00  0.00     0.038 A 
ATOM      7  C17 ZIN A   1      18.598  -2.093   8.172  0.00  0.00     0.083 A 
ATOM      8  O18 ZIN A   1      18.802  -3.406   8.434  0.00  0.00    -0.310 OA
ATOM      9  C19 ZIN A   1      18.215  -3.985   9.510  0.00  0.00     0.083 A 
ATOM     10  C20 ZIN A   1      18.079  -5.368   9.545  0.00  0.00     0.038 A 
ATOM     11  C21 ZIN A   1      17.485  -5.979  10.631  0.00  0.00     0.003 A 
ATOM     12  C22 ZIN A   1      17.023  -5.213  11.687  0.00  0.00     0.001 A 
ATOM     13  C23 ZIN A   1      17.157  -3.839  11.654  0.00  0.00     0.011 A 
ATOM     14  C24 ZIN A   1      17.752  -3.221  10.568  0.00  0.00    -0.006 A 
ENDROOT
BRANCH   1  15
ATOM     15  C9  ZIN A   1      19.030  -1.320  11.451  0.00  0.00     0.272 C 
ATOM     16  O10 ZIN A   1      20.127  -1.802  11.287  0.00  0.00    -0.264 OA
BRANCH  15  17
ATOM     17  O8  ZIN A   1      18.831  -0.426  12.433  0.00  0.00    -0.319 OA
BRANCH  17  18
ATOM     18  C7  ZIN A   1      19.272   0.935  12.185  0.00  0.00     0.206 C 
BRANCH  18  19
ATOM     19  C6  ZIN A   1      18.236   1.915  12.737  0.00  0.00     0.264 C 
BRANCH  19  20
ATOM     20  N4  ZIN A   1      18.487   3.254  12.187  0.00  0.00    -0.062 N 
ATOM     21  C5  ZIN A   1      19.852   3.314  11.649  0.00  0.00     0.273 C 
BRANCH  20  22
ATOM     22  C2  ZIN A   1      18.337   4.256  13.251  0.00  0.00     0.182 C 
ATOM     23  C1  ZIN A   1      18.024   3.552  14.573  0.00  0.00     0.040 C 
ATOM     24  C3  ZIN A   1      19.638   5.050  13.392  0.00  0.00     0.040 C 
ENDBRANCH  20  22
BRANCH  20  25
ATOM     25  C25 ZIN A   1      17.524   3.531  11.113  0.00  0.00     0.182 C 
ATOM     26  C26 ZIN A   1      16.792   4.842  11.409  0.00  0.00     0.040 C 
ATOM     27  C27 ZIN A   1      18.266   3.651   9.781  0.00  0.00     0.040 C 
ENDBRANCH  20  25
ENDBRANCH  19  20
ENDBRANCH  18  19
ENDBRANCH  17  18
ENDBRANCH  15  17
ENDBRANCH   1  15
TORSDOF 7
ENDMDL
MODEL 9
REMARK VINA RESULT:      -7.6      2.624      7.064
REMARK  7 active torsions:
REMARK  status: ('A' for Active; 'I' for Inactive)
REMARK    1  A    between atoms: C2_2  and  N4_4 
REMARK    2  A    between atoms: N4_4  and  C6_6 
REMARK    3  A    between atoms: N4_4  and  C25_25 
REMARK    4  A    between atoms: C6_6  and  C7_7 
REMARK    5  A    between atoms: C7_7  and  O8_8 
REMARK    6  A    between atoms: O8_8  and  C9_9 
REMARK    7  A    between atoms: C9_9  and  C11_11 
ROOT
ATOM      1  C11 ZIN A   1      17.456  -0.581  12.528  0.00  0.00     0.157 C 
ATOM      2  C12 ZIN A   1      18.097  -1.756  11.840  0.00  0.00    -0.006 A 
ATOM      3  C13 ZIN A   1      17.604  -2.178  10.619  0.00  0.00     0.011 A 
ATOM      4  C14 ZIN A   1      18.179  -3.254   9.970  0.00  0.00     0.001 A 
ATOM      5  C15 ZIN A   1      19.252  -3.914  10.542  0.00  0.00     0.003 A 
ATOM      6  C16 ZIN A   1      19.746  -3.498  11.761  0.00  0.00     0.038 A 
ATOM      7  C17 ZIN A   1      19.170  -2.416  12.416  0.00  0.00     0.083 A 
ATOM      8  O18 ZIN A   1      19.672  -2.024  13.611  0.00  0.00    -0.310 OA
ATOM      9  C19 ZIN A   1      18.921  -1.270  14.450  0.00  0.00     0.083 A 
ATOM     10  C20 ZIN A   1      19.253  -1.222  15.800  0.00  0.00     0.038 A 
ATOM     11  C21 ZIN A   1      18.502  -0.460  16.671  0.00  0.00     0.003 A 
ATOM     12  C22 ZIN A   1      17.417   0.259  16.203  0.00  0.00     0.001 A 
ATOM     13  C23 ZIN A   1      17.085   0.213  14.862  0.00  0.00     0.011 A 
ATOM     14  C24 ZIN A   1      17.834  -0.549  13.984  0.00  0.00    -0.006 A 
ENDROOT
BRANCH   1  15
ATOM     15  C9  ZIN A   1      17.914   0.691  11.866  0.00  0.00     0.272 C 
ATOM     16  O10 ZIN A   1      17.117   1.391  11.284  0.00  0.00    -0.264 OA
BRANCH  15  17
ATOM     17  O8  ZIN A   1      19.206   1.051  11.921  0.00  0.00    -0.319 OA
BRANCH  17  18
ATOM     18  C7  ZIN A   1      19.492   2.462  12.103  0.00  0.00     0.206 C 
BRANCH  18  19
ATOM     19  C6  ZIN A   1      18.916   2.930  13.441  0.00  0.00     0.264 C 
BRANCH  19  20
ATOM     20  N4  ZIN A   1      18.670   4.378  13.388  0.00  0.00    -0.062 N 
ATOM     21  C5  ZIN A   1      19.542   4.986  12.375  0.00  0.00     0.273 C 
BRANCH  20  22
ATOM     22  C2  ZIN A   1      18.958   4.971  14.701  0.00  0.00     0.182 C 
ATOM     23  C1  ZIN A   1      19.216   3.857  15.717  0.00  0.00     0.040 C 
ATOM     24  C3  ZIN A   1      20.198   5.863  14.598  0.00  0.00     0.040 C 
ENDBRANCH  20  22
BRANCH  20  25
ATOM     25  C25 ZIN A   1      17.266   4.623  13.036  0.00  0.00     0.182 C 
ATOM     26  C26 ZIN A   1      16.698   5.724  13.936  0.00  0.00     0.040 C 
ATOM     27  C27 ZIN A   1      17.175   5.063  11.574  0.00  0.00     0.040 C 
ENDBRANCH  20  25
ENDBRANCH  19  20
ENDBRANCH  18  19
ENDBRANCH  17  18
ENDBRANCH  15  17
ENDBRANCH   1  15
TORSDOF 7
ENDMDL
