MODEL 1
REMARK VINA RESULT:      -6.6      0.000      0.000
REMARK  3 active torsions:
REMARK  status: ('A' for Active; 'I' for Inactive)
REMARK    1  A    between atoms: N1_1  and  C2_2 
REMARK    2  A    between atoms: C4_4  and  N5_5 
REMARK    3  A    between atoms: C9_9  and  C10_10 
ROOT
ATOM      1  C2  ZIN A   1      20.475  -0.046  11.487  0.00  0.00     0.172 A 
ATOM      2  N3  ZIN A   1      20.554   0.497  12.697  0.00  0.00    -0.044 NA
ATOM      3  C4  ZIN A   1      19.464   1.006  13.256  0.00  0.00     0.716 A 
ATOM      4  N6  ZIN A   1      18.296   0.981  12.627  0.00  0.00    -0.107 N 
ATOM      5  H7  ZIN A   1      17.517   1.362  13.060  0.00  0.00     0.208 HD
ATOM      6  N8  ZIN A   1      18.174   0.465  11.454  0.00  0.00    -0.155 NA
ATOM      7  C9  ZIN A   1      19.226  -0.056  10.836  0.00  0.00     0.135 A 
ENDROOT
BRANCH   7   8
ATOM      8  C10 ZIN A   1      19.086  -0.650   9.485  0.00  0.00     0.022 A 
ATOM      9  C16 ZIN A   1      19.153   0.163   8.352  0.00  0.00     0.068 A 
ATOM     10  C14 ZIN A   1      19.029  -0.399   7.095  0.00  0.00     0.056 A 
ATOM     11 Cl17 ZIN A   1      19.406   1.871   8.522  0.00  0.00    -0.082 Cl
ATOM     12  C13 ZIN A   1      18.826  -1.762   6.961  0.00  0.00     0.026 A 
ATOM     13 Cl15 ZIN A   1      19.119   0.608   5.684  0.00  0.00    -0.083 Cl
ATOM     14  C12 ZIN A   1      18.753  -2.570   8.081  0.00  0.00     0.003 A 
ATOM     15  C11 ZIN A   1      18.882  -2.022   9.341  0.00  0.00     0.016 A 
ENDBRANCH   7   8
BRANCH   1  16
ATOM     16  N1  ZIN A   1      21.594  -0.584  10.878  0.00  0.00    -0.381 N 
ATOM     17  H18 ZIN A   1      22.365  -0.830  11.413  0.00  0.00     0.157 HD
ATOM     18  H19 ZIN A   1      21.607  -0.719   9.918  0.00  0.00     0.157 HD
ENDBRANCH   1  16
BRANCH   3  19
ATOM     19  N5  ZIN A   1      19.546   1.573  14.517  0.00  0.00    -0.231 N 
ATOM     20  H20 ZIN A   1      19.290   1.057  15.298  0.00  0.00     0.174 HD
ATOM     21  H21 ZIN A   1      19.859   2.486  14.619  0.00  0.00     0.174 HD
ENDBRANCH   3  19
TORSDOF 3
ENDMDL
MODEL 2
REMARK VINA RESULT:      -6.6      1.810      2.470
REMARK  3 active torsions:
REMARK  status: ('A' for Active; 'I' for Inactive)
REMARK    1  A    between atoms: N1_1  and  C2_2 
REMARK    2  A    between atoms: C4_4  and  N5_5 
REMARK    3  A    between atoms: C9_9  and  C10_10 
ROOT
ATOM      1  C2  ZIN A   1      20.250   0.459  12.655  0.00  0.00     0.172 A 
ATOM      2  N3  ZIN A   1      20.165   0.284  13.969  0.00  0.00    -0.044 NA
ATOM      3  C4  ZIN A   1      18.970   0.174  14.537  0.00  0.00     0.716 A 
ATOM      4  N6  ZIN A   1      17.860   0.234  13.813  0.00  0.00    -0.107 N 
ATOM      5  H7  ZIN A   1      17.001   0.151  14.255  0.00  0.00     0.208 HD
ATOM      6  N8  ZIN A   1      17.896   0.403  12.537  0.00  0.00    -0.155 NA
ATOM      7  C9  ZIN A   1      19.058   0.526  11.907  0.00  0.00     0.135 A 
ENDROOT
BRANCH   7   8
ATOM      8  C10 ZIN A   1      19.100   0.721  10.439  0.00  0.00     0.022 A 
ATOM      9  C16 ZIN A   1      19.178  -0.383   9.588  0.00  0.00     0.068 A 
ATOM     10  C14 ZIN A   1      19.211  -0.195   8.219  0.00  0.00     0.056 A 
ATOM     11 Cl17 ZIN A   1      19.218  -1.988  10.247  0.00  0.00    -0.082 Cl
ATOM     12  C13 ZIN A   1      19.180   1.086   7.694  0.00  0.00     0.026 A 
ATOM     13 Cl15 ZIN A   1      19.300  -1.566   7.158  0.00  0.00    -0.083 Cl
ATOM     14  C12 ZIN A   1      19.109   2.183   8.533  0.00  0.00     0.003 A 
ATOM     15  C11 ZIN A   1      19.069   2.007   9.902  0.00  0.00     0.016 A 
ENDBRANCH   7   8
BRANCH   1  16
ATOM     16  N1  ZIN A   1      21.480   0.578  12.035  0.00  0.00    -0.381 N 
ATOM     17  H18 ZIN A   1      22.263   0.161  12.428  0.00  0.00     0.157 HD
ATOM     18  H19 ZIN A   1      21.561   1.076  11.207  0.00  0.00     0.157 HD
ENDBRANCH   1  16
BRANCH   3  19
ATOM     19  N5  ZIN A   1      18.881  -0.008  15.907  0.00  0.00    -0.231 N 
ATOM     20  H20 ZIN A   1      19.582   0.329  16.487  0.00  0.00     0.174 HD
ATOM     21  H21 ZIN A   1      18.118  -0.472  16.286  0.00  0.00     0.174 HD
ENDBRANCH   3  19
TORSDOF 3
ENDMDL
MODEL 3
REMARK VINA RESULT:      -6.4      3.387      6.185
REMARK  3 active torsions:
REMARK  status: ('A' for Active; 'I' for Inactive)
REMARK    1  A    between atoms: N1_1  and  C2_2 
REMARK    2  A    between atoms: C4_4  and  N5_5 
REMARK    3  A    between atoms: C9_9  and  C10_10 
ROOT
ATOM      1  C2  ZIN A   1      20.470   0.108  11.601  0.00  0.00     0.172 A 
ATOM      2  N3  ZIN A   1      20.563  -0.555  10.452  0.00  0.00    -0.044 NA
ATOM      3  C4  ZIN A   1      19.468  -1.067   9.904  0.00  0.00     0.716 A 
ATOM      4  N6  ZIN A   1      18.282  -0.927  10.483  0.00  0.00    -0.107 N 
ATOM      5  H7  ZIN A   1      17.500  -1.313  10.060  0.00  0.00     0.208 HD
ATOM      6  N8  ZIN A   1      18.147  -0.293  11.596  0.00  0.00    -0.155 NA
ATOM      7  C9  ZIN A   1      19.202   0.239  12.200  0.00  0.00     0.135 A 
ENDROOT
BRANCH   7   8
ATOM      8  C10 ZIN A   1      19.047   0.968  13.481  0.00  0.00     0.022 A 
ATOM      9  C16 ZIN A   1      19.160   0.286  14.693  0.00  0.00     0.068 A 
ATOM     10  C14 ZIN A   1      19.021   0.974  15.884  0.00  0.00     0.056 A 
ATOM     11 Cl17 ZIN A   1      19.489  -1.418  14.705  0.00  0.00    -0.082 Cl
ATOM     12  C13 ZIN A   1      18.757   2.333  15.874  0.00  0.00     0.026 A 
ATOM     13 Cl15 ZIN A   1      19.168   0.130  17.395  0.00  0.00    -0.083 Cl
ATOM     14  C12 ZIN A   1      18.638   3.011  14.675  0.00  0.00     0.003 A 
ATOM     15  C11 ZIN A   1      18.782   2.336  13.480  0.00  0.00     0.016 A 
ENDBRANCH   7   8
BRANCH   1  16
ATOM     16  N1  ZIN A   1      21.593   0.652  12.196  0.00  0.00    -0.381 N 
ATOM     17  H18 ZIN A   1      22.021   0.193  12.935  0.00  0.00     0.157 HD
ATOM     18  H19 ZIN A   1      21.955   1.492  11.873  0.00  0.00     0.157 HD
ENDBRANCH   1  16
BRANCH   3  19
ATOM     19  N5  ZIN A   1      19.564  -1.758   8.708  0.00  0.00    -0.231 N 
ATOM     20  H20 ZIN A   1      19.622  -1.271   7.870  0.00  0.00     0.174 HD
ATOM     21  H21 ZIN A   1      19.573  -2.728   8.708  0.00  0.00     0.174 HD
ENDBRANCH   3  19
TORSDOF 3
ENDMDL
MODEL 4
REMARK VINA RESULT:      -6.3      2.209      2.692
REMARK  3 active torsions:
REMARK  status: ('A' for Active; 'I' for Inactive)
REMARK    1  A    between atoms: N1_1  and  C2_2 
REMARK    2  A    between atoms: C4_4  and  N5_5 
REMARK    3  A    between atoms: C9_9  and  C10_10 
ROOT
ATOM      1  C2  ZIN A   1      20.479  -0.108  11.583  0.00  0.00     0.172 A 
ATOM      2  N3  ZIN A   1      20.445   1.095  12.146  0.00  0.00    -0.044 NA
ATOM      3  C4  ZIN A   1      19.357   1.479  12.800  0.00  0.00     0.716 A 
ATOM      4  N6  ZIN A   1      18.302   0.681  12.902  0.00  0.00    -0.107 N 
ATOM      5  H7  ZIN A   1      17.520   0.989  13.385  0.00  0.00     0.208 HD
ATOM      6  N8  ZIN A   1      18.291  -0.492  12.371  0.00  0.00    -0.155 NA
ATOM      7  C9  ZIN A   1      19.345  -0.936  11.699  0.00  0.00     0.135 A 
ENDROOT
BRANCH   7   8
ATOM      8  C10 ZIN A   1      19.334  -2.286  11.087  0.00  0.00     0.022 A 
ATOM      9  C16 ZIN A   1      18.820  -2.468   9.802  0.00  0.00     0.068 A 
ATOM     10  C14 ZIN A   1      18.819  -3.729   9.236  0.00  0.00     0.056 A 
ATOM     11 Cl17 ZIN A   1      18.198  -1.114   8.914  0.00  0.00    -0.082 Cl
ATOM     12  C13 ZIN A   1      19.314  -4.810   9.946  0.00  0.00     0.026 A 
ATOM     13 Cl15 ZIN A   1      18.187  -3.959   7.635  0.00  0.00    -0.083 Cl
ATOM     14  C12 ZIN A   1      19.819  -4.634  11.221  0.00  0.00     0.003 A 
ATOM     15  C11 ZIN A   1      19.831  -3.379  11.795  0.00  0.00     0.016 A 
ENDBRANCH   7   8
BRANCH   1  16
ATOM     16  N1  ZIN A   1      21.599  -0.535  10.894  0.00  0.00    -0.381 N 
ATOM     17  H18 ZIN A   1      21.773  -0.207   9.998  0.00  0.00     0.157 HD
ATOM     18  H19 ZIN A   1      22.215  -1.161  11.308  0.00  0.00     0.157 HD
ENDBRANCH   1  16
BRANCH   3  19
ATOM     19  N5  ZIN A   1      19.320   2.733  13.387  0.00  0.00    -0.231 N 
ATOM     20  H20 ZIN A   1      19.766   3.482  12.959  0.00  0.00     0.174 HD
ATOM     21  H21 ZIN A   1      18.850   2.863  14.225  0.00  0.00     0.174 HD
ENDBRANCH   3  19
TORSDOF 3
ENDMDL
MODEL 5
REMARK VINA RESULT:      -6.3      2.079      2.525
REMARK  3 active torsions:
REMARK  status: ('A' for Active; 'I' for Inactive)
REMARK    1  A    between atoms: N1_1  and  C2_2 
REMARK    2  A    between atoms: C4_4  and  N5_5 
REMARK    3  A    between atoms: C9_9  and  C10_10 
ROOT
ATOM      1  C2  ZIN A   1      19.919  -0.613  10.779  0.00  0.00     0.172 A 
ATOM      2  N3  ZIN A   1      19.780  -0.907  12.067  0.00  0.00    -0.044 NA
ATOM      3  C4  ZIN A   1      18.568  -1.141  12.556  0.00  0.00     0.716 A 
ATOM      4  N6  ZIN A   1      17.494  -1.088  11.778  0.00  0.00    -0.107 N 
ATOM      5  H7  ZIN A   1      16.622  -1.264  12.162  0.00  0.00     0.208 HD
ATOM      6  N8  ZIN A   1      17.583  -0.807  10.524  0.00  0.00    -0.155 NA
ATOM      7  C9  ZIN A   1      18.764  -0.557   9.974  0.00  0.00     0.135 A 
ENDROOT
BRANCH   7   8
ATOM      8  C10 ZIN A   1      18.868  -0.233   8.531  0.00  0.00     0.022 A 
ATOM      9  C16 ZIN A   1      19.000  -1.257   7.592  0.00  0.00     0.068 A 
ATOM     10  C14 ZIN A   1      19.090  -0.949   6.247  0.00  0.00     0.056 A 
ATOM     11 Cl17 ZIN A   1      19.037  -2.913   8.109  0.00  0.00    -0.082 Cl
ATOM     12  C13 ZIN A   1      19.062   0.373   5.835  0.00  0.00     0.026 A 
ATOM     13 Cl15 ZIN A   1      19.247  -2.220   5.075  0.00  0.00    -0.083 Cl
ATOM     14  C12 ZIN A   1      18.937   1.390   6.763  0.00  0.00     0.003 A 
ATOM     15  C11 ZIN A   1      18.840   1.094   8.107  0.00  0.00     0.016 A 
ENDBRANCH   7   8
BRANCH   1  16
ATOM     16  N1  ZIN A   1      21.168  -0.363  10.242  0.00  0.00    -0.381 N 
ATOM     17  H18 ZIN A   1      21.966  -0.534  10.767  0.00  0.00     0.157 HD
ATOM     18  H19 ZIN A   1      21.249  -0.020   9.338  0.00  0.00     0.157 HD
ENDBRANCH   1  16
BRANCH   3  19
ATOM     19  N5  ZIN A   1      18.422  -1.447  13.898  0.00  0.00    -0.231 N 
ATOM     20  H20 ZIN A   1      18.720  -0.817  14.574  0.00  0.00     0.174 HD
ATOM     21  H21 ZIN A   1      18.021  -2.289  14.163  0.00  0.00     0.174 HD
ENDBRANCH   3  19
TORSDOF 3
ENDMDL
MODEL 6
REMARK VINA RESULT:      -6.3      3.971      6.483
REMARK  3 active torsions:
REMARK  status: ('A' for Active; 'I' for Inactive)
REMARK    1  A    between atoms: N1_1  and  C2_2 
REMARK    2  A    between atoms: C4_4  and  N5_5 
REMARK    3  A    between atoms: C9_9  and  C10_10 
ROOT
ATOM      1  C2  ZIN A   1      19.736   0.635  12.550  0.00  0.00     0.172 A 
ATOM      2  N3  ZIN A   1      19.549   0.964  11.276  0.00  0.00    -0.044 NA
ATOM      3  C4  ZIN A   1      18.316   1.158  10.826  0.00  0.00     0.716 A 
ATOM      4  N6  ZIN A   1      17.267   1.030  11.628  0.00  0.00    -0.107 N 
ATOM      5  H7  ZIN A   1      16.377   1.176  11.271  0.00  0.00     0.208 HD
ATOM      6  N8  ZIN A   1      17.402   0.711  12.868  0.00  0.00    -0.155 NA
ATOM      7  C9  ZIN A   1      18.607   0.498  13.380  0.00  0.00     0.135 A 
ENDROOT
BRANCH   7   8
ATOM      8  C10 ZIN A   1      18.763   0.131  14.808  0.00  0.00     0.022 A 
ATOM      9  C16 ZIN A   1      18.902   1.128  15.775  0.00  0.00     0.068 A 
ATOM     10  C14 ZIN A   1      19.041   0.779  17.106  0.00  0.00     0.056 A 
ATOM     11 Cl17 ZIN A   1      18.885   2.800  15.311  0.00  0.00    -0.082 Cl
ATOM     12  C13 ZIN A   1      19.055  -0.555  17.476  0.00  0.00     0.026 A 
ATOM     13 Cl15 ZIN A   1      19.206   2.016  18.313  0.00  0.00    -0.083 Cl
ATOM     14  C12 ZIN A   1      18.924  -1.545  16.520  0.00  0.00     0.003 A 
ATOM     15  C11 ZIN A   1      18.779  -1.209  15.189  0.00  0.00     0.016 A 
ENDBRANCH   7   8
BRANCH   1  16
ATOM     16  N1  ZIN A   1      21.009   0.426  13.046  0.00  0.00    -0.381 N 
ATOM     17  H18 ZIN A   1      21.513  -0.359  12.777  0.00  0.00     0.157 HD
ATOM     18  H19 ZIN A   1      21.401   1.065  13.662  0.00  0.00     0.157 HD
ENDBRANCH   1  16
BRANCH   3  19
ATOM     19  N5  ZIN A   1      18.120   1.501   9.499  0.00  0.00    -0.231 N 
ATOM     20  H20 ZIN A   1      17.461   1.027   8.968  0.00  0.00     0.174 HD
ATOM     21  H21 ZIN A   1      18.643   2.214   9.100  0.00  0.00     0.174 HD
ENDBRANCH   3  19
TORSDOF 3
ENDMDL
MODEL 7
REMARK VINA RESULT:      -6.2      3.492      5.446
REMARK  3 active torsions:
REMARK  status: ('A' for Active; 'I' for Inactive)
REMARK    1  A    between atoms: N1_1  and  C2_2 
REMARK    2  A    between atoms: C4_4  and  N5_5 
REMARK    3  A    between atoms: C9_9  and  C10_10 
ROOT
ATOM      1  C2  ZIN A   1      18.954  -1.227   7.662  0.00  0.00     0.172 A 
ATOM      2  N3  ZIN A   1      19.057  -1.756   6.447  0.00  0.00    -0.044 NA
ATOM      3  C4  ZIN A   1      18.139  -1.470   5.532  0.00  0.00     0.716 A 
ATOM      4  N6  ZIN A   1      17.123  -0.663   5.809  0.00  0.00    -0.107 N 
ATOM      5  H7  ZIN A   1      16.468  -0.473   5.121  0.00  0.00     0.208 HD
ATOM      6  N8  ZIN A   1      16.985  -0.130   6.973  0.00  0.00    -0.155 NA
ATOM      7  C9  ZIN A   1      17.864  -0.379   7.936  0.00  0.00     0.135 A 
ENDROOT
BRANCH   7   8
ATOM      8  C10 ZIN A   1      17.706   0.235   9.275  0.00  0.00     0.022 A 
ATOM      9  C16 ZIN A   1      18.250   1.494   9.537  0.00  0.00     0.068 A 
ATOM     10  C14 ZIN A   1      18.093   2.063  10.787  0.00  0.00     0.056 A 
ATOM     11 Cl17 ZIN A   1      19.107   2.347   8.293  0.00  0.00    -0.082 Cl
ATOM     12  C13 ZIN A   1      17.409   1.381  11.780  0.00  0.00     0.026 A 
ATOM     13 Cl15 ZIN A   1      18.762   3.631  11.115  0.00  0.00    -0.083 Cl
ATOM     14  C12 ZIN A   1      16.874   0.132  11.526  0.00  0.00     0.003 A 
ATOM     15  C11 ZIN A   1      17.019  -0.444  10.280  0.00  0.00     0.016 A 
ENDBRANCH   7   8
BRANCH   1  16
ATOM     16  N1  ZIN A   1      19.894  -1.508   8.637  0.00  0.00    -0.381 N 
ATOM     17  H18 ZIN A   1      20.231  -2.412   8.740  0.00  0.00     0.157 HD
ATOM     18  H19 ZIN A   1      20.220  -0.800   9.215  0.00  0.00     0.157 HD
ENDBRANCH   1  16
BRANCH   3  19
ATOM     19  N5  ZIN A   1      18.245  -2.021   4.266  0.00  0.00    -0.231 N 
ATOM     20  H20 ZIN A   1      17.807  -2.864   4.066  0.00  0.00     0.174 HD
ATOM     21  H21 ZIN A   1      18.756  -1.565   3.579  0.00  0.00     0.174 HD
ENDBRANCH   3  19
TORSDOF 3
ENDMDL
MODEL 8
REMARK VINA RESULT:      -6.2      3.773      5.649
REMARK  3 active torsions:
REMARK  status: ('A' for Active; 'I' for Inactive)
REMARK    1  A    between atoms: N1_1  and  C2_2 
REMARK    2  A    between atoms: C4_4  and  N5_5 
REMARK    3  A    between atoms: C9_9  and  C10_10 
ROOT
ATOM      1  C2  ZIN A   1      20.012   1.593  11.715  0.00  0.00     0.172 A 
ATOM      2  N3  ZIN A   1      20.570   0.391  11.611  0.00  0.00    -0.044 NA
ATOM      3  C4  ZIN A   1      19.796  -0.678  11.475  0.00  0.00     0.716 A 
ATOM      4  N6  ZIN A   1      18.474  -0.567  11.439  0.00  0.00    -0.107 N 
ATOM      5  H7  ZIN A   1      17.934  -1.366  11.340  0.00  0.00     0.208 HD
ATOM      6  N8  ZIN A   1      17.892   0.577  11.537  0.00  0.00    -0.155 NA
ATOM      7  C9  ZIN A   1      18.607   1.686  11.681  0.00  0.00     0.135 A 
ENDROOT
BRANCH   7   8
ATOM      8  C10 ZIN A   1      17.937   3.003  11.793  0.00  0.00     0.022 A 
ATOM      9  C16 ZIN A   1      17.671   3.548  13.051  0.00  0.00     0.068 A 
ATOM     10  C14 ZIN A   1      17.052   4.780  13.148  0.00  0.00     0.056 A 
ATOM     11 Cl17 ZIN A   1      18.129   2.688  14.486  0.00  0.00    -0.082 Cl
ATOM     12  C13 ZIN A   1      16.686   5.467  12.002  0.00  0.00     0.026 A 
ATOM     13 Cl15 ZIN A   1      16.726   5.465  14.710  0.00  0.00    -0.083 Cl
ATOM     14  C12 ZIN A   1      16.943   4.927  10.755  0.00  0.00     0.003 A 
ATOM     15  C11 ZIN A   1      17.566   3.701  10.645  0.00  0.00     0.016 A 
ENDBRANCH   7   8
BRANCH   1  16
ATOM     16  N1  ZIN A   1      20.792   2.725  11.858  0.00  0.00    -0.381 N 
ATOM     17  H18 ZIN A   1      21.445   2.777  12.574  0.00  0.00     0.157 HD
ATOM     18  H19 ZIN A   1      20.691   3.466  11.241  0.00  0.00     0.157 HD
ENDBRANCH   1  16
BRANCH   3  19
ATOM     19  N5  ZIN A   1      20.377  -1.931  11.367  0.00  0.00    -0.231 N 
ATOM     20  H20 ZIN A   1      21.319  -2.048  11.570  0.00  0.00     0.174 HD
ATOM     21  H21 ZIN A   1      19.842  -2.691  11.088  0.00  0.00     0.174 HD
ENDBRANCH   3  19
TORSDOF 3
ENDMDL
MODEL 9
REMARK VINA RESULT:      -6.2      1.908      2.941
REMARK  3 active torsions:
REMARK  status: ('A' for Active; 'I' for Inactive)
REMARK    1  A    between atoms: N1_1  and  C2_2 
REMARK    2  A    between atoms: C4_4  and  N5_5 
REMARK    3  A    between atoms: C9_9  and  C10_10 
ROOT
ATOM      1  C2  ZIN A   1      18.534   0.117  10.538  0.00  0.00     0.172 A 
ATOM      2  N3  ZIN A   1      18.962   0.241  11.791  0.00  0.00    -0.044 NA
ATOM      3  C4  ZIN A   1      20.256   0.113  12.053  0.00  0.00     0.716 A 
ATOM      4  N6  ZIN A   1      21.130  -0.136  11.086  0.00  0.00    -0.107 N 
ATOM      5  H7  ZIN A   1      22.069  -0.225  11.308  0.00  0.00     0.208 HD
ATOM      6  N8  ZIN A   1      20.759  -0.264   9.860  0.00  0.00    -0.155 NA
ATOM      7  C9  ZIN A   1      19.479  -0.154   9.529  0.00  0.00     0.135 A 
ENDROOT
BRANCH   7   8
ATOM      8  C10 ZIN A   1      19.051  -0.302   8.118  0.00  0.00     0.022 A 
ATOM      9  C16 ZIN A   1      18.826  -1.572   7.584  0.00  0.00     0.068 A 
ATOM     10  C14 ZIN A   1      18.421  -1.702   6.269  0.00  0.00     0.056 A 
ATOM     11 Cl17 ZIN A   1      19.041  -2.981   8.573  0.00  0.00    -0.082 Cl
ATOM     12  C13 ZIN A   1      18.251  -0.577   5.480  0.00  0.00     0.026 A 
ATOM     13 Cl15 ZIN A   1      18.133  -3.280   5.604  0.00  0.00    -0.083 Cl
ATOM     14  C12 ZIN A   1      18.478   0.682   6.004  0.00  0.00     0.003 A 
ATOM     15  C11 ZIN A   1      18.877   0.826   7.317  0.00  0.00     0.016 A 
ENDBRANCH   7   8
BRANCH   1  16
ATOM     16  N1  ZIN A   1      17.191   0.244  10.234  0.00  0.00    -0.381 N 
ATOM     17  H18 ZIN A   1      16.651  -0.547  10.083  0.00  0.00     0.157 HD
ATOM     18  H19 ZIN A   1      16.788   1.124  10.175  0.00  0.00     0.157 HD
ENDBRANCH   1  16
BRANCH   3  19
ATOM     19  N5  ZIN A   1      20.703   0.242  13.358  0.00  0.00    -0.231 N 
ATOM     20  H20 ZIN A   1      21.589   0.596  13.534  0.00  0.00     0.174 HD
ATOM     21  H21 ZIN A   1      20.130  -0.021  14.095  0.00  0.00     0.174 HD
ENDBRANCH   3  19
TORSDOF 3
ENDMDL
