MODEL 1
REMARK VINA RESULT:      -9.4      0.000      0.000
REMARK  8 active torsions:
REMARK  status: ('A' for Active; 'I' for Inactive)
REMARK    1  A    between atoms: C5_5  and  C6_6 
REMARK    2  A    between atoms: N9_9  and  C10_10 
REMARK    3  A    between atoms: N19_17  and  C21_19 
REMARK    4  A    between atoms: C21_19  and  C22_20 
REMARK    5  A    between atoms: C22_20  and  C23_21 
REMARK    6  A    between atoms: C23_21  and  N25_22 
REMARK    7  A    between atoms: C23_21  and  C36_33 
REMARK       I    between atoms: N25_22  and  C26_23 
REMARK    8  A    between atoms: C26_23  and  C28_25 
ROOT
ATOM      1  C22 ZIN A   1      20.411   0.572  13.275  0.00  0.00     0.057 C 
ENDROOT
BRANCH   1   2
ATOM      2  C21 ZIN A   1      20.552   0.532  11.752  0.00  0.00     0.238 C 
BRANCH   2   3
ATOM      3  N19 ZIN A   1      19.226   0.362  11.142  0.00  0.00    -0.062 N 
ATOM      4  C12 ZIN A   1      18.778  -1.053  11.232  0.00  0.00     0.190 C 
ATOM      5  C11 ZIN A   1      17.293  -1.087  10.836  0.00  0.00     0.059 C 
ATOM      6  C14 ZIN A   1      19.577  -1.791  10.132  0.00  0.00     0.035 C 
ATOM      7  C10 ZIN A   1      17.160  -0.657   9.373  0.00  0.00     0.097 C 
ATOM      8  C18 ZIN A   1      17.840   0.701   9.169  0.00  0.00     0.059 C 
ATOM      9  C16 ZIN A   1      19.293   0.594   9.660  0.00  0.00     0.190 C 
ATOM     10  C15 ZIN A   1      19.917  -0.702   9.094  0.00  0.00     0.035 C 
ATOM     11  H20 ZIN A   1      18.557   0.984  11.569  0.00  0.00     0.280 HD
BRANCH   7  12
ATOM     12  N9  ZIN A   1      17.797  -1.655   8.512  0.00  0.00    -0.315 N 
ATOM     13  C2  ZIN A   1      17.993  -2.967   8.792  0.00  0.00     0.126 A 
ATOM     14  C1  ZIN A   1      17.588  -3.680  10.055  0.00  0.00     0.093 C 
ATOM     15  N3  ZIN A   1      18.591  -3.499   7.761  0.00  0.00    -0.135 NA
ATOM     16  N4  ZIN A   1      18.784  -2.601   6.861  0.00  0.00    -0.134 NA
ATOM     17  C5  ZIN A   1      18.317  -1.454   7.276  0.00  0.00     0.134 A 
BRANCH  17  18
ATOM     18  C6  ZIN A   1      18.346  -0.150   6.521  0.00  0.00     0.049 C 
ATOM     19  C7  ZIN A   1      19.442  -0.204   5.455  0.00  0.00     0.018 C 
ATOM     20  C8  ZIN A   1      16.991   0.079   5.849  0.00  0.00     0.018 C 
ENDBRANCH  17  18
ENDBRANCH   7  12
ENDBRANCH   2   3
ENDBRANCH   1   2
BRANCH   1  21
ATOM     21  C23 ZIN A   1      18.989   0.995  13.644  0.00  0.00     0.119 C 
BRANCH  21  22
ATOM     22  N25 ZIN A   1      18.973   2.424  13.969  0.00  0.00    -0.352 N 
ATOM     23  C26 ZIN A   1      18.375   3.298  13.135  0.00  0.00     0.222 C 
ATOM     24  O27 ZIN A   1      17.849   2.902  12.116  0.00  0.00    -0.273 OA
ATOM     25  H65 ZIN A   1      19.392   2.740  14.783  0.00  0.00     0.163 HD
BRANCH  23  26
ATOM     26  C28 ZIN A   1      18.358   4.766  13.469  0.00  0.00     0.078 C 
ATOM     27  C35 ZIN A   1      19.470   5.075  14.474  0.00  0.00     0.020 C 
ATOM     28  C34 ZIN A   1      19.452   6.566  14.813  0.00  0.00     0.080 C 
ATOM     29  C31 ZIN A   1      18.098   6.935  15.422  0.00  0.00     0.243 C 
ATOM     30  C30 ZIN A   1      16.987   6.628  14.417  0.00  0.00     0.080 C 
ATOM     31  F32 ZIN A   1      18.083   8.299  15.732  0.00  0.00    -0.206 F 
ATOM     32  F33 ZIN A   1      17.892   6.190  16.588  0.00  0.00    -0.206 F 
ATOM     33  C29 ZIN A   1      17.004   5.136  14.077  0.00  0.00     0.020 C 
ENDBRANCH  23  26
ENDBRANCH  21  22
BRANCH  21  34
ATOM     34  C36 ZIN A   1      18.523   0.203  14.839  0.00  0.00    -0.035 A 
ATOM     35  C41 ZIN A   1      17.447   0.646  15.585  0.00  0.00     0.009 A 
ATOM     36  C40 ZIN A   1      17.016  -0.083  16.678  0.00  0.00     0.001 A 
ATOM     37  C39 ZIN A   1      17.669  -1.250  17.030  0.00  0.00     0.000 A 
ATOM     38  C38 ZIN A   1      18.749  -1.690  16.287  0.00  0.00     0.001 A 
ATOM     39  C37 ZIN A   1      19.176  -0.963  15.191  0.00  0.00     0.009 A 
ENDBRANCH  21  34
ENDBRANCH   1  21
TORSDOF 8
ENDMDL
MODEL 2
REMARK VINA RESULT:      -9.4      3.296      8.765
REMARK  8 active torsions:
REMARK  status: ('A' for Active; 'I' for Inactive)
REMARK    1  A    between atoms: C5_5  and  C6_6 
REMARK    2  A    between atoms: N9_9  and  C10_10 
REMARK    3  A    between atoms: N19_17  and  C21_19 
REMARK    4  A    between atoms: C21_19  and  C22_20 
REMARK    5  A    between atoms: C22_20  and  C23_21 
REMARK    6  A    between atoms: C23_21  and  N25_22 
REMARK    7  A    between atoms: C23_21  and  C36_33 
REMARK       I    between atoms: N25_22  and  C26_23 
REMARK    8  A    between atoms: C26_23  and  C28_25 
ROOT
ATOM      1  C22 ZIN A   1      17.855   3.909  10.818  0.00  0.00     0.057 C 
ENDROOT
BRANCH   1   2
ATOM      2  C21 ZIN A   1      16.918   4.633  11.787  0.00  0.00     0.238 C 
BRANCH   2   3
ATOM      3  N19 ZIN A   1      17.701   5.540  12.638  0.00  0.00    -0.062 N 
ATOM      4  C12 ZIN A   1      18.585   4.775  13.557  0.00  0.00     0.190 C 
ATOM      5  C11 ZIN A   1      19.556   5.780  14.197  0.00  0.00     0.059 C 
ATOM      6  C14 ZIN A   1      17.643   4.255  14.668  0.00  0.00     0.035 C 
ATOM      7  C10 ZIN A   1      18.756   6.769  15.049  0.00  0.00     0.097 C 
ATOM      8  C18 ZIN A   1      17.651   7.407  14.201  0.00  0.00     0.059 C 
ATOM      9  C16 ZIN A   1      16.802   6.283  13.585  0.00  0.00     0.190 C 
ATOM     10  C15 ZIN A   1      16.466   5.251  14.686  0.00  0.00     0.035 C 
ATOM     11  H20 ZIN A   1      18.233   6.185  12.074  0.00  0.00     0.280 HD
BRANCH   7  12
ATOM     12  N9  ZIN A   1      18.154   6.061  16.181  0.00  0.00    -0.315 N 
ATOM     13  C2  ZIN A   1      18.619   4.937  16.778  0.00  0.00     0.126 A 
ATOM     14  C1  ZIN A   1      19.863   4.175  16.405  0.00  0.00     0.093 C 
ATOM     15  N3  ZIN A   1      17.790   4.639  17.743  0.00  0.00    -0.135 NA
ATOM     16  N4  ZIN A   1      16.839   5.504  17.779  0.00  0.00    -0.134 NA
ATOM     17  C5  ZIN A   1      17.017   6.393  16.840  0.00  0.00     0.134 A 
BRANCH  17  18
ATOM     18  C6  ZIN A   1      16.127   7.573  16.545  0.00  0.00     0.049 C 
ATOM     19  C7  ZIN A   1      14.688   7.236  16.940  0.00  0.00     0.018 C 
ATOM     20  C8  ZIN A   1      16.606   8.785  17.345  0.00  0.00     0.018 C 
ENDBRANCH  17  18
ENDBRANCH   7  12
ENDBRANCH   2   3
ENDBRANCH   1   2
BRANCH   1  21
ATOM     21  C23 ZIN A   1      17.617   2.401  10.911  0.00  0.00     0.119 C 
BRANCH  21  22
ATOM     22  N25 ZIN A   1      18.418   1.847  12.006  0.00  0.00    -0.352 N 
ATOM     23  C26 ZIN A   1      17.852   1.007  12.896  0.00  0.00     0.222 C 
ATOM     24  O27 ZIN A   1      16.682   0.709  12.790  0.00  0.00    -0.273 OA
ATOM     25  H65 ZIN A   1      19.354   2.085  12.090  0.00  0.00     0.163 HD
BRANCH  23  26
ATOM     26  C28 ZIN A   1      18.676   0.437  14.022  0.00  0.00     0.078 C 
ATOM     27  C35 ZIN A   1      18.801  -1.078  13.847  0.00  0.00     0.020 C 
ATOM     28  C34 ZIN A   1      19.637  -1.656  14.990  0.00  0.00     0.080 C 
ATOM     29  C31 ZIN A   1      18.954  -1.352  16.326  0.00  0.00     0.243 C 
ATOM     30  C30 ZIN A   1      18.829   0.163  16.501  0.00  0.00     0.080 C 
ATOM     31  F32 ZIN A   1      19.719  -1.881  17.371  0.00  0.00    -0.206 F 
ATOM     32  F33 ZIN A   1      17.681  -1.930  16.341  0.00  0.00    -0.206 F 
ATOM     33  C29 ZIN A   1      17.993   0.742  15.357  0.00  0.00     0.020 C 
ENDBRANCH  23  26
ENDBRANCH  21  22
BRANCH  21  34
ATOM     34  C36 ZIN A   1      18.020   1.747   9.614  0.00  0.00    -0.035 A 
ATOM     35  C41 ZIN A   1      17.477   0.528   9.256  0.00  0.00     0.009 A 
ATOM     36  C40 ZIN A   1      17.842  -0.069   8.064  0.00  0.00     0.001 A 
ATOM     37  C39 ZIN A   1      18.759   0.550   7.234  0.00  0.00     0.000 A 
ATOM     38  C38 ZIN A   1      19.307   1.767   7.595  0.00  0.00     0.001 A 
ATOM     39  C37 ZIN A   1      18.937   2.366   8.785  0.00  0.00     0.009 A 
ENDBRANCH  21  34
ENDBRANCH   1  21
TORSDOF 8
ENDMDL
MODEL 3
REMARK VINA RESULT:      -9.3      4.491      8.485
REMARK  8 active torsions:
REMARK  status: ('A' for Active; 'I' for Inactive)
REMARK    1  A    between atoms: C5_5  and  C6_6 
REMARK    2  A    between atoms: N9_9  and  C10_10 
REMARK    3  A    between atoms: N19_17  and  C21_19 
REMARK    4  A    between atoms: C21_19  and  C22_20 
REMARK    5  A    between atoms: C22_20  and  C23_21 
REMARK    6  A    between atoms: C23_21  and  N25_22 
REMARK    7  A    between atoms: C23_21  and  C36_33 
REMARK       I    between atoms: N25_22  and  C26_23 
REMARK    8  A    between atoms: C26_23  and  C28_25 
ROOT
ATOM      1  C22 ZIN A   1      16.865  -4.622  10.470  0.00  0.00     0.057 C 
ENDROOT
BRANCH   1   2
ATOM      2  C21 ZIN A   1      17.996  -3.865  11.168  0.00  0.00     0.238 C 
BRANCH   2   3
ATOM      3  N19 ZIN A   1      17.482  -2.593  11.695  0.00  0.00    -0.062 N 
ATOM      4  C12 ZIN A   1      17.638  -1.503  10.697  0.00  0.00     0.190 C 
ATOM      5  C11 ZIN A   1      16.832  -0.298  11.209  0.00  0.00     0.059 C 
ATOM      6  C14 ZIN A   1      19.137  -1.127  10.755  0.00  0.00     0.035 C 
ATOM      7  C10 ZIN A   1      17.449   0.191  12.522  0.00  0.00     0.097 C 
ATOM      8  C18 ZIN A   1      17.546  -0.974  13.513  0.00  0.00     0.059 C 
ATOM      9  C16 ZIN A   1      18.326  -2.117  12.842  0.00  0.00     0.190 C 
ATOM     10  C15 ZIN A   1      19.591  -1.533  12.172  0.00  0.00     0.035 C 
ATOM     11  H20 ZIN A   1      16.519  -2.692  11.980  0.00  0.00     0.280 HD
BRANCH   7  12
ATOM     12  N9  ZIN A   1      18.788   0.723  12.262  0.00  0.00    -0.315 N 
ATOM     13  C2  ZIN A   1      19.879   0.611  13.059  0.00  0.00     0.126 A 
ATOM     14  C1  ZIN A   1      19.945  -0.096  14.388  0.00  0.00     0.093 C 
ATOM     15  N3  ZIN A   1      20.864   1.223  12.459  0.00  0.00    -0.135 NA
ATOM     16  N4  ZIN A   1      20.453   1.713  11.343  0.00  0.00    -0.134 NA
ATOM     17  C5  ZIN A   1      19.188   1.435  11.180  0.00  0.00     0.134 A 
BRANCH  17  18
ATOM     18  C6  ZIN A   1      18.330   1.828  10.004  0.00  0.00     0.049 C 
ATOM     19  C7  ZIN A   1      17.705   3.199  10.265  0.00  0.00     0.018 C 
ATOM     20  C8  ZIN A   1      19.194   1.892   8.743  0.00  0.00     0.018 C 
ENDBRANCH  17  18
ENDBRANCH   7  12
ENDBRANCH   2   3
ENDBRANCH   1   2
BRANCH   1  21
ATOM     21  C23 ZIN A   1      17.376  -5.198   9.149  0.00  0.00     0.119 C 
BRANCH  21  22
ATOM     22  N25 ZIN A   1      17.630  -4.106   8.206  0.00  0.00    -0.352 N 
ATOM     23  C26 ZIN A   1      18.856  -3.952   7.667  0.00  0.00     0.222 C 
ATOM     24  O27 ZIN A   1      19.749  -4.719   7.962  0.00  0.00    -0.273 OA
ATOM     25  H65 ZIN A   1      16.917  -3.494   7.970  0.00  0.00     0.163 HD
BRANCH  23  26
ATOM     26  C28 ZIN A   1      19.118  -2.829   6.698  0.00  0.00     0.078 C 
ATOM     27  C35 ZIN A   1      18.246  -1.626   7.063  0.00  0.00     0.020 C 
ATOM     28  C34 ZIN A   1      18.511  -0.486   6.078  0.00  0.00     0.080 C 
ATOM     29  C31 ZIN A   1      18.173  -0.949   4.659  0.00  0.00     0.243 C 
ATOM     30  C30 ZIN A   1      19.045  -2.151   4.294  0.00  0.00     0.080 C 
ATOM     31  F32 ZIN A   1      18.416   0.094   3.759  0.00  0.00    -0.206 F 
ATOM     32  F33 ZIN A   1      16.825  -1.314   4.596  0.00  0.00    -0.206 F 
ATOM     33  C29 ZIN A   1      18.781  -3.292   5.279  0.00  0.00     0.020 C 
ENDBRANCH  23  26
ENDBRANCH  21  22
BRANCH  21  34
ATOM     34  C36 ZIN A   1      16.340  -6.129   8.572  0.00  0.00    -0.035 A 
ATOM     35  C41 ZIN A   1      15.024  -5.720   8.470  0.00  0.00     0.009 A 
ATOM     36  C40 ZIN A   1      14.075  -6.572   7.936  0.00  0.00     0.001 A 
ATOM     37  C39 ZIN A   1      14.442  -7.836   7.513  0.00  0.00     0.000 A 
ATOM     38  C38 ZIN A   1      15.757  -8.247   7.621  0.00  0.00     0.001 A 
ATOM     39  C37 ZIN A   1      16.707  -7.393   8.150  0.00  0.00     0.009 A 
ENDBRANCH  21  34
ENDBRANCH   1  21
TORSDOF 8
ENDMDL
MODEL 4
REMARK VINA RESULT:      -9.3      0.582      2.007
REMARK  8 active torsions:
REMARK  status: ('A' for Active; 'I' for Inactive)
REMARK    1  A    between atoms: C5_5  and  C6_6 
REMARK    2  A    between atoms: N9_9  and  C10_10 
REMARK    3  A    between atoms: N19_17  and  C21_19 
REMARK    4  A    between atoms: C21_19  and  C22_20 
REMARK    5  A    between atoms: C22_20  and  C23_21 
REMARK    6  A    between atoms: C23_21  and  N25_22 
REMARK    7  A    between atoms: C23_21  and  C36_33 
REMARK       I    between atoms: N25_22  and  C26_23 
REMARK    8  A    between atoms: C26_23  and  C28_25 
ROOT
ATOM      1  C22 ZIN A   1      20.361   0.601  13.324  0.00  0.00     0.057 C 
ENDROOT
BRANCH   1   2
ATOM      2  C21 ZIN A   1      20.505   0.608  11.801  0.00  0.00     0.238 C 
BRANCH   2   3
ATOM      3  N19 ZIN A   1      19.219   0.251  11.186  0.00  0.00    -0.062 N 
ATOM      4  C12 ZIN A   1      19.090  -1.223  11.045  0.00  0.00     0.190 C 
ATOM      5  C11 ZIN A   1      17.630  -1.519  10.665  0.00  0.00     0.059 C 
ATOM      6  C14 ZIN A   1      19.976  -1.582   9.828  0.00  0.00     0.035 C 
ATOM      7  C10 ZIN A   1      17.339  -0.900   9.295  0.00  0.00     0.097 C 
ATOM      8  C18 ZIN A   1      17.700   0.589   9.313  0.00  0.00     0.059 C 
ATOM      9  C16 ZIN A   1      19.164   0.726   9.763  0.00  0.00     0.190 C 
ATOM     10  C15 ZIN A   1      20.024  -0.294   8.982  0.00  0.00     0.035 C 
ATOM     11  H20 ZIN A   1      18.453   0.634  11.718  0.00  0.00     0.280 HD
BRANCH   7  12
ATOM     12  N9  ZIN A   1      18.134  -1.583   8.273  0.00  0.00    -0.315 N 
ATOM     13  C2  ZIN A   1      18.620  -1.048   7.127  0.00  0.00     0.126 A 
ATOM     14  C1  ZIN A   1      18.449   0.374   6.661  0.00  0.00     0.093 C 
ATOM     15  N3  ZIN A   1      19.270  -1.993   6.503  0.00  0.00    -0.135 NA
ATOM     16  N4  ZIN A   1      19.214  -3.081   7.186  0.00  0.00    -0.134 NA
ATOM     17  C5  ZIN A   1      18.526  -2.880   8.277  0.00  0.00     0.134 A 
BRANCH  17  18
ATOM     18  C6  ZIN A   1      18.228  -3.900   9.346  0.00  0.00     0.049 C 
ATOM     19  C7  ZIN A   1      16.946  -4.654   8.987  0.00  0.00     0.018 C 
ATOM     20  C8  ZIN A   1      19.390  -4.890   9.444  0.00  0.00     0.018 C 
ENDBRANCH  17  18
ENDBRANCH   7  12
ENDBRANCH   2   3
ENDBRANCH   1   2
BRANCH   1  21
ATOM     21  C23 ZIN A   1      18.937   1.011  13.704  0.00  0.00     0.119 C 
BRANCH  21  22
ATOM     22  N25 ZIN A   1      18.915   2.436  14.045  0.00  0.00    -0.352 N 
ATOM     23  C26 ZIN A   1      18.315   3.317  13.220  0.00  0.00     0.222 C 
ATOM     24  O27 ZIN A   1      17.794   2.931  12.195  0.00  0.00    -0.273 OA
ATOM     25  H65 ZIN A   1      19.331   2.744  14.864  0.00  0.00     0.163 HD
BRANCH  23  26
ATOM     26  C28 ZIN A   1      18.292   4.782  13.571  0.00  0.00     0.078 C 
ATOM     27  C35 ZIN A   1      19.454   5.100  14.515  0.00  0.00     0.020 C 
ATOM     28  C34 ZIN A   1      19.429   6.587  14.871  0.00  0.00     0.080 C 
ATOM     29  C31 ZIN A   1      18.105   6.925  15.561  0.00  0.00     0.243 C 
ATOM     30  C30 ZIN A   1      16.944   6.608  14.617  0.00  0.00     0.080 C 
ATOM     31  F32 ZIN A   1      18.084   8.285  15.886  0.00  0.00    -0.206 F 
ATOM     32  F33 ZIN A   1      17.980   6.164  16.727  0.00  0.00    -0.206 F 
ATOM     33  C29 ZIN A   1      16.968   5.120  14.259  0.00  0.00     0.020 C 
ENDBRANCH  23  26
ENDBRANCH  21  22
BRANCH  21  34
ATOM     34  C36 ZIN A   1      18.480   0.203  14.891  0.00  0.00    -0.035 A 
ATOM     35  C41 ZIN A   1      17.387   0.616  15.629  0.00  0.00     0.009 A 
ATOM     36  C40 ZIN A   1      16.965  -0.129  16.715  0.00  0.00     0.001 A 
ATOM     37  C39 ZIN A   1      17.643  -1.280  17.068  0.00  0.00     0.000 A 
ATOM     38  C38 ZIN A   1      18.740  -1.690  16.333  0.00  0.00     0.001 A 
ATOM     39  C37 ZIN A   1      19.159  -0.948  15.245  0.00  0.00     0.009 A 
ENDBRANCH  21  34
ENDBRANCH   1  21
TORSDOF 8
ENDMDL
MODEL 5
REMARK VINA RESULT:      -9.3      3.921      6.288
REMARK  8 active torsions:
REMARK  status: ('A' for Active; 'I' for Inactive)
REMARK    1  A    between atoms: C5_5  and  C6_6 
REMARK    2  A    between atoms: N9_9  and  C10_10 
REMARK    3  A    between atoms: N19_17  and  C21_19 
REMARK    4  A    between atoms: C21_19  and  C22_20 
REMARK    5  A    between atoms: C22_20  and  C23_21 
REMARK    6  A    between atoms: C23_21  and  N25_22 
REMARK    7  A    between atoms: C23_21  and  C36_33 
REMARK       I    between atoms: N25_22  and  C26_23 
REMARK    8  A    between atoms: C26_23  and  C28_25 
ROOT
ATOM      1  C22 ZIN A   1      18.281  -3.029  12.256  0.00  0.00     0.057 C 
ENDROOT
BRANCH   1   2
ATOM      2  C21 ZIN A   1      17.261  -4.008  11.672  0.00  0.00     0.238 C 
BRANCH   2   3
ATOM      3  N19 ZIN A   1      17.957  -5.004  10.846  0.00  0.00    -0.062 N 
ATOM      4  C12 ZIN A   1      18.820  -4.343   9.832  0.00  0.00     0.190 C 
ATOM      5  C11 ZIN A   1      19.711  -5.432   9.213  0.00  0.00     0.059 C 
ATOM      6  C14 ZIN A   1      17.842  -3.855   8.738  0.00  0.00     0.035 C 
ATOM      7  C10 ZIN A   1      18.824  -6.437   8.473  0.00  0.00     0.097 C 
ATOM      8  C18 ZIN A   1      17.742  -6.966   9.419  0.00  0.00     0.059 C 
ATOM      9  C16 ZIN A   1      16.977  -5.766  10.000  0.00  0.00     0.190 C 
ATOM     10  C15 ZIN A   1      16.625  -4.795   8.849  0.00  0.00     0.035 C 
ATOM     11  H20 ZIN A   1      18.491  -5.635  11.425  0.00  0.00     0.280 HD
BRANCH   7  12
ATOM     12  N9  ZIN A   1      18.192  -5.779   7.328  0.00  0.00    -0.315 N 
ATOM     13  C2  ZIN A   1      18.686  -4.740   6.611  0.00  0.00     0.126 A 
ATOM     14  C1  ZIN A   1      20.001  -4.041   6.840  0.00  0.00     0.093 C 
ATOM     15  N3  ZIN A   1      17.813  -4.460   5.681  0.00  0.00    -0.135 NA
ATOM     16  N4  ZIN A   1      16.807  -5.256   5.779  0.00  0.00    -0.134 NA
ATOM     17  C5  ZIN A   1      16.993  -6.080   6.774  0.00  0.00     0.134 A 
BRANCH  17  18
ATOM     18  C6  ZIN A   1      16.050  -7.167   7.222  0.00  0.00     0.049 C 
ATOM     19  C7  ZIN A   1      14.611  -6.753   6.912  0.00  0.00     0.018 C 
ATOM     20  C8  ZIN A   1      16.380  -8.464   6.480  0.00  0.00     0.018 C 
ENDBRANCH  17  18
ENDBRANCH   7  12
ENDBRANCH   2   3
ENDBRANCH   1   2
BRANCH   1  21
ATOM     21  C23 ZIN A   1      17.695  -1.616  12.245  0.00  0.00     0.119 C 
BRANCH  21  22
ATOM     22  N25 ZIN A   1      18.045  -0.952  10.988  0.00  0.00    -0.352 N 
ATOM     23  C26 ZIN A   1      17.157  -0.135  10.387  0.00  0.00     0.222 C 
ATOM     24  O27 ZIN A   1      16.068   0.051  10.888  0.00  0.00    -0.273 OA
ATOM     25  H65 ZIN A   1      18.915  -1.099  10.587  0.00  0.00     0.163 HD
BRANCH  23  26
ATOM     26  C28 ZIN A   1      17.517   0.549   9.094  0.00  0.00     0.078 C 
ATOM     27  C35 ZIN A   1      17.119  -0.344   7.916  0.00  0.00     0.020 C 
ATOM     28  C34 ZIN A   1      17.485   0.350   6.603  0.00  0.00     0.080 C 
ATOM     29  C31 ZIN A   1      18.993   0.603   6.563  0.00  0.00     0.243 C 
ATOM     30  C30 ZIN A   1      19.391   1.496   7.739  0.00  0.00     0.080 C 
ATOM     31  F32 ZIN A   1      19.327   1.239   5.362  0.00  0.00    -0.206 F 
ATOM     32  F33 ZIN A   1      19.673  -0.615   6.651  0.00  0.00    -0.206 F 
ATOM     33  C29 ZIN A   1      19.025   0.803   9.053  0.00  0.00     0.020 C 
ENDBRANCH  23  26
ENDBRANCH  21  22
BRANCH  21  34
ATOM     34  C36 ZIN A   1      18.257  -0.830  13.402  0.00  0.00    -0.035 A 
ATOM     35  C41 ZIN A   1      18.250  -1.372  14.674  0.00  0.00     0.009 A 
ATOM     36  C40 ZIN A   1      18.771  -0.652  15.734  0.00  0.00     0.001 A 
ATOM     37  C39 ZIN A   1      19.288   0.612  15.523  0.00  0.00     0.000 A 
ATOM     38  C38 ZIN A   1      19.290   1.156  14.252  0.00  0.00     0.001 A 
ATOM     39  C37 ZIN A   1      18.774   0.435  13.192  0.00  0.00     0.009 A 
ENDBRANCH  21  34
ENDBRANCH   1  21
TORSDOF 8
ENDMDL
MODEL 6
REMARK VINA RESULT:      -9.2      2.510      5.094
REMARK  8 active torsions:
REMARK  status: ('A' for Active; 'I' for Inactive)
REMARK    1  A    between atoms: C5_5  and  C6_6 
REMARK    2  A    between atoms: N9_9  and  C10_10 
REMARK    3  A    between atoms: N19_17  and  C21_19 
REMARK    4  A    between atoms: C21_19  and  C22_20 
REMARK    5  A    between atoms: C22_20  and  C23_21 
REMARK    6  A    between atoms: C23_21  and  N25_22 
REMARK    7  A    between atoms: C23_21  and  C36_33 
REMARK       I    between atoms: N25_22  and  C26_23 
REMARK    8  A    between atoms: C26_23  and  C28_25 
ROOT
ATOM      1  C22 ZIN A   1      19.044   4.380  11.958  0.00  0.00     0.057 C 
ENDROOT
BRANCH   1   2
ATOM      2  C21 ZIN A   1      18.296   3.230  11.282  0.00  0.00     0.238 C 
BRANCH   2   3
ATOM      3  N19 ZIN A   1      19.262   2.337  10.627  0.00  0.00    -0.062 N 
ATOM      4  C12 ZIN A   1      18.793   1.952   9.269  0.00  0.00     0.190 C 
ATOM      5  C11 ZIN A   1      19.969   1.264   8.559  0.00  0.00     0.059 C 
ATOM      6  C14 ZIN A   1      17.701   0.885   9.517  0.00  0.00     0.035 C 
ATOM      7  C10 ZIN A   1      20.314  -0.027   9.307  0.00  0.00     0.097 C 
ATOM      8  C18 ZIN A   1      20.562   0.284  10.787  0.00  0.00     0.059 C 
ATOM      9  C16 ZIN A   1      19.329   1.017  11.340  0.00  0.00     0.190 C 
ATOM     10  C15 ZIN A   1      18.056   0.268  10.885  0.00  0.00     0.035 C 
ATOM     11  H20 ZIN A   1      20.174   2.767  10.589  0.00  0.00     0.280 HD
BRANCH   7  12
ATOM     12  N9  ZIN A   1      19.203  -0.972   9.186  0.00  0.00    -0.315 N 
ATOM     13  C2  ZIN A   1      18.815  -1.896  10.099  0.00  0.00     0.126 A 
ATOM     14  C1  ZIN A   1      19.447  -2.142  11.444  0.00  0.00     0.093 C 
ATOM     15  N3  ZIN A   1      17.787  -2.528   9.600  0.00  0.00    -0.135 NA
ATOM     16  N4  ZIN A   1      17.516  -2.060   8.434  0.00  0.00    -0.134 NA
ATOM     17  C5  ZIN A   1      18.357  -1.107   8.135  0.00  0.00     0.134 A 
BRANCH  17  18
ATOM     18  C6  ZIN A   1      18.381  -0.302   6.861  0.00  0.00     0.049 C 
ATOM     19  C7  ZIN A   1      19.208  -1.041   5.808  0.00  0.00     0.018 C 
ATOM     20  C8  ZIN A   1      16.951  -0.117   6.349  0.00  0.00     0.018 C 
ENDBRANCH  17  18
ENDBRANCH   7  12
ENDBRANCH   2   3
ENDBRANCH   1   2
BRANCH   1  21
ATOM     21  C23 ZIN A   1      18.878   4.274  13.475  0.00  0.00     0.119 C 
BRANCH  21  22
ATOM     22  N25 ZIN A   1      18.259   2.989  13.809  0.00  0.00    -0.352 N 
ATOM     23  C26 ZIN A   1      18.636   2.329  14.923  0.00  0.00     0.222 C 
ATOM     24  O27 ZIN A   1      19.487   2.799  15.648  0.00  0.00    -0.273 OA
ATOM     25  H65 ZIN A   1      17.579   2.613  13.230  0.00  0.00     0.163 HD
BRANCH  23  26
ATOM     26  C28 ZIN A   1      18.000   1.008  15.267  0.00  0.00     0.078 C 
ATOM     27  C35 ZIN A   1      18.005   0.818  16.786  0.00  0.00     0.020 C 
ATOM     28  C34 ZIN A   1      17.359  -0.524  17.135  0.00  0.00     0.080 C 
ATOM     29  C31 ZIN A   1      18.150  -1.657  16.477  0.00  0.00     0.243 C 
ATOM     30  C30 ZIN A   1      18.143  -1.468  14.959  0.00  0.00     0.080 C 
ATOM     31  F32 ZIN A   1      17.558  -2.884  16.796  0.00  0.00    -0.206 F 
ATOM     32  F33 ZIN A   1      19.467  -1.639  16.944  0.00  0.00    -0.206 F 
ATOM     33  C29 ZIN A   1      18.789  -0.126  14.609  0.00  0.00     0.020 C 
ENDBRANCH  23  26
ENDBRANCH  21  22
BRANCH  21  34
ATOM     34  C36 ZIN A   1      18.000   5.397  13.965  0.00  0.00    -0.035 A 
ATOM     35  C41 ZIN A   1      16.628   5.314  13.822  0.00  0.00     0.009 A 
ATOM     36  C40 ZIN A   1      15.823   6.342  14.276  0.00  0.00     0.001 A 
ATOM     37  C39 ZIN A   1      16.391   7.457  14.864  0.00  0.00     0.000 A 
ATOM     38  C38 ZIN A   1      17.764   7.542  15.001  0.00  0.00     0.001 A 
ATOM     39  C37 ZIN A   1      18.569   6.512  14.552  0.00  0.00     0.009 A 
ENDBRANCH  21  34
ENDBRANCH   1  21
TORSDOF 8
ENDMDL
MODEL 7
REMARK VINA RESULT:      -9.2      2.898      5.283
REMARK  8 active torsions:
REMARK  status: ('A' for Active; 'I' for Inactive)
REMARK    1  A    between atoms: C5_5  and  C6_6 
REMARK    2  A    between atoms: N9_9  and  C10_10 
REMARK    3  A    between atoms: N19_17  and  C21_19 
REMARK    4  A    between atoms: C21_19  and  C22_20 
REMARK    5  A    between atoms: C22_20  and  C23_21 
REMARK    6  A    between atoms: C23_21  and  N25_22 
REMARK    7  A    between atoms: C23_21  and  C36_33 
REMARK       I    between atoms: N25_22  and  C26_23 
REMARK    8  A    between atoms: C26_23  and  C28_25 
ROOT
ATOM      1  C22 ZIN A   1      16.902   0.448  11.088  0.00  0.00     0.057 C 
ENDROOT
BRANCH   1   2
ATOM      2  C21 ZIN A   1      17.340  -0.443   9.924  0.00  0.00     0.238 C 
BRANCH   2   3
ATOM      3  N19 ZIN A   1      18.341  -1.409  10.396  0.00  0.00    -0.062 N 
ATOM      4  C12 ZIN A   1      18.893  -2.198   9.264  0.00  0.00     0.190 C 
ATOM      5  C11 ZIN A   1      20.113  -2.968   9.796  0.00  0.00     0.059 C 
ATOM      6  C14 ZIN A   1      17.792  -3.232   8.929  0.00  0.00     0.035 C 
ATOM      7  C10 ZIN A   1      19.645  -3.962  10.862  0.00  0.00     0.097 C 
ATOM      8  C18 ZIN A   1      18.841  -3.226  11.939  0.00  0.00     0.059 C 
ATOM      9  C16 ZIN A   1      17.697  -2.462  11.251  0.00  0.00     0.190 C 
ATOM     10  C15 ZIN A   1      17.002  -3.406  10.243  0.00  0.00     0.035 C 
ATOM     11  H20 ZIN A   1      19.075  -0.939  10.905  0.00  0.00     0.280 HD
BRANCH   7  12
ATOM     12  N9  ZIN A   1      18.804  -4.985  10.239  0.00  0.00    -0.315 N 
ATOM     13  C2  ZIN A   1      17.784  -5.665  10.817  0.00  0.00     0.126 A 
ATOM     14  C1  ZIN A   1      17.293  -5.506  12.233  0.00  0.00     0.093 C 
ATOM     15  N3  ZIN A   1      17.300  -6.479   9.918  0.00  0.00    -0.135 NA
ATOM     16  N4  ZIN A   1      17.958  -6.352   8.820  0.00  0.00    -0.134 NA
ATOM     17  C5  ZIN A   1      18.891  -5.450   8.969  0.00  0.00     0.134 A 
BRANCH  17  18
ATOM     18  C6  ZIN A   1      19.879  -5.005   7.921  0.00  0.00     0.049 C 
ATOM     19  C7  ZIN A   1      21.195  -5.761   8.109  0.00  0.00     0.018 C 
ATOM     20  C8  ZIN A   1      19.314  -5.302   6.530  0.00  0.00     0.018 C 
ENDBRANCH  17  18
ENDBRANCH   7  12
ENDBRANCH   2   3
ENDBRANCH   1   2
BRANCH   1  21
ATOM     21  C23 ZIN A   1      18.092   1.280  11.568  0.00  0.00     0.119 C 
BRANCH  21  22
ATOM     22  N25 ZIN A   1      18.265   1.097  13.011  0.00  0.00    -0.352 N 
ATOM     23  C26 ZIN A   1      19.290   0.356  13.478  0.00  0.00     0.222 C 
ATOM     24  O27 ZIN A   1      20.070  -0.157  12.705  0.00  0.00    -0.273 OA
ATOM     25  H65 ZIN A   1      17.642   1.507  13.630  0.00  0.00     0.163 HD
BRANCH  23  26
ATOM     26  C28 ZIN A   1      19.468   0.168  14.962  0.00  0.00     0.078 C 
ATOM     27  C35 ZIN A   1      18.784  -1.130  15.399  0.00  0.00     0.020 C 
ATOM     28  C34 ZIN A   1      18.964  -1.320  16.905  0.00  0.00     0.080 C 
ATOM     29  C31 ZIN A   1      18.337  -0.139  17.648  0.00  0.00     0.243 C 
ATOM     30  C30 ZIN A   1      19.022   1.158  17.213  0.00  0.00     0.080 C 
ATOM     31  F32 ZIN A   1      18.503  -0.314  19.026  0.00  0.00    -0.206 F 
ATOM     32  F33 ZIN A   1      16.973  -0.069  17.348  0.00  0.00    -0.206 F 
ATOM     33  C29 ZIN A   1      18.842   1.350  15.705  0.00  0.00     0.020 C 
ENDBRANCH  23  26
ENDBRANCH  21  22
BRANCH  21  34
ATOM     34  C36 ZIN A   1      17.839   2.736  11.274  0.00  0.00    -0.035 A 
ATOM     35  C41 ZIN A   1      17.377   3.573  12.272  0.00  0.00     0.009 A 
ATOM     36  C40 ZIN A   1      17.150   4.910  12.003  0.00  0.00     0.001 A 
ATOM     37  C39 ZIN A   1      17.376   5.407  10.733  0.00  0.00     0.000 A 
ATOM     38  C38 ZIN A   1      17.833   4.569   9.733  0.00  0.00     0.001 A 
ATOM     39  C37 ZIN A   1      18.065   3.233  10.004  0.00  0.00     0.009 A 
ENDBRANCH  21  34
ENDBRANCH   1  21
TORSDOF 8
ENDMDL
MODEL 8
REMARK VINA RESULT:      -9.1      4.325      9.472
REMARK  8 active torsions:
REMARK  status: ('A' for Active; 'I' for Inactive)
REMARK    1  A    between atoms: C5_5  and  C6_6 
REMARK    2  A    between atoms: N9_9  and  C10_10 
REMARK    3  A    between atoms: N19_17  and  C21_19 
REMARK    4  A    between atoms: C21_19  and  C22_20 
REMARK    5  A    between atoms: C22_20  and  C23_21 
REMARK    6  A    between atoms: C23_21  and  N25_22 
REMARK    7  A    between atoms: C23_21  and  C36_33 
REMARK       I    between atoms: N25_22  and  C26_23 
REMARK    8  A    between atoms: C26_23  and  C28_25 
ROOT
ATOM      1  C22 ZIN A   1      20.610  -0.512   9.608  0.00  0.00     0.057 C 
ENDROOT
BRANCH   1   2
ATOM      2  C21 ZIN A   1      20.600  -0.800  11.110  0.00  0.00     0.238 C 
BRANCH   2   3
ATOM      3  N19 ZIN A   1      19.298  -0.415  11.674  0.00  0.00    -0.062 N 
ATOM      4  C12 ZIN A   1      19.230   1.053  11.895  0.00  0.00     0.190 C 
ATOM      5  C11 ZIN A   1      17.766   1.399  12.210  0.00  0.00     0.059 C 
ATOM      6  C14 ZIN A   1      20.060   1.299  13.177  0.00  0.00     0.035 C 
ATOM      7  C10 ZIN A   1      17.367   0.719  13.523  0.00  0.00     0.097 C 
ATOM      8  C18 ZIN A   1      17.660  -0.782  13.438  0.00  0.00     0.059 C 
ATOM      9  C16 ZIN A   1      19.139  -0.966  13.062  0.00  0.00     0.190 C 
ATOM     10  C15 ZIN A   1      20.000  -0.036  13.947  0.00  0.00     0.035 C 
ATOM     11  H20 ZIN A   1      18.547  -0.730  11.078  0.00  0.00     0.280 HD
BRANCH   7  12
ATOM     12  N9  ZIN A   1      18.133   1.304  14.626  0.00  0.00    -0.315 N 
ATOM     13  C2  ZIN A   1      18.645   2.557  14.688  0.00  0.00     0.126 A 
ATOM     14  C1  ZIN A   1      18.529   3.623  13.630  0.00  0.00     0.093 C 
ATOM     15  N3  ZIN A   1      19.252   2.672  15.838  0.00  0.00    -0.135 NA
ATOM     16  N4  ZIN A   1      19.154   1.569  16.491  0.00  0.00    -0.134 NA
ATOM     17  C5  ZIN A   1      18.479   0.700  15.789  0.00  0.00     0.134 A 
BRANCH  17  18
ATOM     18  C6  ZIN A   1      18.144  -0.712  16.196  0.00  0.00     0.049 C 
ATOM     19  C7  ZIN A   1      19.253  -1.260  17.095  0.00  0.00     0.018 C 
ATOM     20  C8  ZIN A   1      16.818  -0.720  16.959  0.00  0.00     0.018 C 
ENDBRANCH  17  18
ENDBRANCH   7  12
ENDBRANCH   2   3
ENDBRANCH   1   2
BRANCH   1  21
ATOM     21  C23 ZIN A   1      19.273  -0.935   8.998  0.00  0.00     0.119 C 
BRANCH  21  22
ATOM     22  N25 ZIN A   1      19.195  -2.397   8.959  0.00  0.00    -0.352 N 
ATOM     23  C26 ZIN A   1      18.220  -3.039   9.633  0.00  0.00     0.222 C 
ATOM     24  O27 ZIN A   1      17.406  -2.406  10.272  0.00  0.00    -0.273 OA
ATOM     25  H65 ZIN A   1      19.845  -2.904   8.448  0.00  0.00     0.163 HD
BRANCH  23  26
ATOM     26  C28 ZIN A   1      18.140  -4.543   9.593  0.00  0.00     0.078 C 
ATOM     27  C35 ZIN A   1      19.094  -5.077   8.522  0.00  0.00     0.020 C 
ATOM     28  C34 ZIN A   1      19.012  -6.604   8.481  0.00  0.00     0.080 C 
ATOM     29  C31 ZIN A   1      17.581  -7.029   8.145  0.00  0.00     0.243 C 
ATOM     30  C30 ZIN A   1      16.627  -6.496   9.216  0.00  0.00     0.080 C 
ATOM     31  F32 ZIN A   1      17.507  -8.425   8.108  0.00  0.00    -0.206 F 
ATOM     32  F33 ZIN A   1      17.221  -6.509   6.898  0.00  0.00    -0.206 F 
ATOM     33  C29 ZIN A   1      16.709  -4.968   9.258  0.00  0.00     0.020 C 
ENDBRANCH  23  26
ENDBRANCH  21  22
BRANCH  21  34
ATOM     34  C36 ZIN A   1      19.163  -0.388   7.598  0.00  0.00    -0.035 A 
ATOM     35  C41 ZIN A   1      18.967   0.965   7.398  0.00  0.00     0.009 A 
ATOM     36  C40 ZIN A   1      18.872   1.467   6.113  0.00  0.00     0.001 A 
ATOM     37  C39 ZIN A   1      18.962   0.614   5.030  0.00  0.00     0.000 A 
ATOM     38  C38 ZIN A   1      19.152  -0.741   5.230  0.00  0.00     0.001 A 
ATOM     39  C37 ZIN A   1      19.252  -1.242   6.514  0.00  0.00     0.009 A 
ENDBRANCH  21  34
ENDBRANCH   1  21
TORSDOF 8
ENDMDL
MODEL 9
REMARK VINA RESULT:      -9.1      2.603      5.523
REMARK  8 active torsions:
REMARK  status: ('A' for Active; 'I' for Inactive)
REMARK    1  A    between atoms: C5_5  and  C6_6 
REMARK    2  A    between atoms: N9_9  and  C10_10 
REMARK    3  A    between atoms: N19_17  and  C21_19 
REMARK    4  A    between atoms: C21_19  and  C22_20 
REMARK    5  A    between atoms: C22_20  and  C23_21 
REMARK    6  A    between atoms: C23_21  and  N25_22 
REMARK    7  A    between atoms: C23_21  and  C36_33 
REMARK       I    between atoms: N25_22  and  C26_23 
REMARK    8  A    between atoms: C26_23  and  C28_25 
ROOT
ATOM      1  C22 ZIN A   1      19.254   4.362  12.232  0.00  0.00     0.057 C 
ENDROOT
BRANCH   1   2
ATOM      2  C21 ZIN A   1      18.471   3.131  11.772  0.00  0.00     0.238 C 
BRANCH   2   3
ATOM      3  N19 ZIN A   1      19.369   2.225  11.042  0.00  0.00    -0.062 N 
ATOM      4  C12 ZIN A   1      18.815   1.894   9.703  0.00  0.00     0.190 C 
ATOM      5  C11 ZIN A   1      19.927   1.188   8.911  0.00  0.00     0.059 C 
ATOM      6  C14 ZIN A   1      17.702   0.857   9.981  0.00  0.00     0.035 C 
ATOM      7  C10 ZIN A   1      20.267  -0.134   9.605  0.00  0.00     0.097 C 
ATOM      8  C18 ZIN A   1      20.604   0.127  11.076  0.00  0.00     0.059 C 
ATOM      9  C16 ZIN A   1      19.429   0.884  11.716  0.00  0.00     0.190 C 
ATOM     10  C15 ZIN A   1      18.108   0.190  11.311  0.00  0.00     0.035 C 
ATOM     11  H20 ZIN A   1      20.292   2.626  10.966  0.00  0.00     0.280 HD
BRANCH   7  12
ATOM     12  N9  ZIN A   1      19.119  -1.038   9.519  0.00  0.00    -0.315 N 
ATOM     13  C2  ZIN A   1      18.172  -1.064   8.550  0.00  0.00     0.126 A 
ATOM     14  C1  ZIN A   1      18.104  -0.164   7.344  0.00  0.00     0.093 C 
ATOM     15  N3  ZIN A   1      17.333  -2.018   8.852  0.00  0.00    -0.135 NA
ATOM     16  N4  ZIN A   1      17.696  -2.582   9.949  0.00  0.00    -0.134 NA
ATOM     17  C5  ZIN A   1      18.783  -2.015  10.397  0.00  0.00     0.134 A 
BRANCH  17  18
ATOM     18  C6  ZIN A   1      19.529  -2.381  11.654  0.00  0.00     0.049 C 
ATOM     19  C7  ZIN A   1      18.529  -2.643  12.782  0.00  0.00     0.018 C 
ATOM     20  C8  ZIN A   1      20.359  -3.641  11.405  0.00  0.00     0.018 C 
ENDBRANCH  17  18
ENDBRANCH   7  12
ENDBRANCH   2   3
ENDBRANCH   1   2
BRANCH   1  21
ATOM     21  C23 ZIN A   1      19.168   4.482  13.754  0.00  0.00     0.119 C 
BRANCH  21  22
ATOM     22  N25 ZIN A   1      18.590   3.255  14.308  0.00  0.00    -0.352 N 
ATOM     23  C26 ZIN A   1      18.932   2.850  15.548  0.00  0.00     0.222 C 
ATOM     24  O27 ZIN A   1      19.716   3.501  16.205  0.00  0.00    -0.273 OA
ATOM     25  H65 ZIN A   1      17.963   2.735  13.784  0.00  0.00     0.163 HD
BRANCH  23  26
ATOM     26  C28 ZIN A   1      18.338   1.588  16.118  0.00  0.00     0.078 C 
ATOM     27  C35 ZIN A   1      19.354   0.919  17.047  0.00  0.00     0.020 C 
ATOM     28  C34 ZIN A   1      18.751  -0.362  17.625  0.00  0.00     0.080 C 
ATOM     29  C31 ZIN A   1      18.396  -1.319  16.485  0.00  0.00     0.243 C 
ATOM     30  C30 ZIN A   1      17.379  -0.650  15.557  0.00  0.00     0.080 C 
ATOM     31  F32 ZIN A   1      17.844  -2.490  17.015  0.00  0.00    -0.206 F 
ATOM     32  F33 ZIN A   1      19.551  -1.632  15.762  0.00  0.00    -0.206 F 
ATOM     33  C29 ZIN A   1      17.982   0.632  14.978  0.00  0.00     0.020 C 
ENDBRANCH  23  26
ENDBRANCH  21  22
BRANCH  21  34
ATOM     34  C36 ZIN A   1      18.295   5.657  14.118  0.00  0.00    -0.035 A 
ATOM     35  C41 ZIN A   1      18.841   6.746  14.771  0.00  0.00     0.009 A 
ATOM     36  C40 ZIN A   1      18.041   7.825  15.099  0.00  0.00     0.001 A 
ATOM     37  C39 ZIN A   1      16.696   7.810  14.783  0.00  0.00     0.000 A 
ATOM     38  C38 ZIN A   1      16.149   6.718  14.135  0.00  0.00     0.001 A 
ATOM     39  C37 ZIN A   1      16.950   5.641  13.803  0.00  0.00     0.009 A 
ENDBRANCH  21  34
ENDBRANCH   1  21
TORSDOF 8
ENDMDL
