MODEL 1
REMARK VINA RESULT:      -8.4      0.000      0.000
REMARK  6 active torsions:
REMARK  status: ('A' for Active; 'I' for Inactive)
REMARK    1  A    between atoms: C3_3  and  C4_4 
REMARK    2  A    between atoms: C4_4  and  N5_5 
REMARK    3  A    between atoms: C6_6  and  N7_7 
REMARK    4  A    between atoms: C11_11  and  N13_12 
REMARK    5  A    between atoms: N23_22  and  C24_23 
REMARK    6  A    between atoms: C24_23  and  C25_24 
ROOT
ATOM      1  C1  <0> d   1      16.991  -1.259  16.915  0.00  0.00     0.112 C 
ATOM      2  C2  <0> d   1      17.885  -0.539  15.994  0.00  0.00    -0.109 C 
ATOM      3  C3  <0> d   1      18.599   0.036  15.259  0.00  0.00    -0.086 C 
ENDROOT
BRANCH   3   4
ATOM      4  C4  <0> d   1      19.493   0.756  14.339  0.00  0.00     0.241 C 
BRANCH   4   5
ATOM      5  N5  <0> d   1      18.704   1.654  13.493  0.00  0.00    -0.161 N 
ATOM      6  C20 <0> d   1      18.383   2.979  13.764  0.00  0.00     0.167 A 
ATOM      7  C19 <0> d   1      17.628   3.427  12.686  0.00  0.00     0.186 A 
ATOM      8  C21 <0> d   1      18.664   3.863  14.820  0.00  0.00     0.283 A 
ATOM      9  N18 <0> d   1      17.505   2.409  11.830  0.00  0.00    -0.044 NA
ATOM     10  N38 <0> d   1      17.171   4.734  12.688  0.00  0.00    -0.285 N 
ATOM     11  C6  <0> d   1      18.137   1.351  12.295  0.00  0.00     0.708 A 
ATOM     12  C36 <0> d   1      17.468   5.550  13.717  0.00  0.00     0.333 A 
ATOM     13  C39 <0> d   1      16.374   5.234  11.565  0.00  0.00     0.163 C 
ATOM     14  N23 <0> d   1      18.196   5.127  14.765  0.00  0.00    -0.257 N 
ATOM     15  O37 <0> d   1      17.062   6.696  13.701  0.00  0.00    -0.246 OA
ATOM     16  O22 <0> d   1      19.324   3.492  15.775  0.00  0.00    -0.265 OA
BRANCH  11  17
ATOM     17  N7  <0> d   1      18.213   0.130  11.665  0.00  0.00    -0.214 N 
ATOM     18  C17 <0> d   1      19.502  -0.380  11.178  0.00  0.00     0.173 C 
ATOM     19  C11 <0> d   1      19.723  -1.785  11.759  0.00  0.00     0.202 C 
ATOM     20  C10 <0> d   1      18.523  -2.669  11.410  0.00  0.00     0.036 C 
ATOM     21  C9  <0> d   1      17.256  -2.083  12.035  0.00  0.00     0.022 C 
ATOM     22  C8  <0> d   1      17.008  -0.684  11.462  0.00  0.00     0.141 C 
BRANCH  19  23
ATOM     23  N13 <0> d   1      20.944  -2.365  11.185  0.00  0.00    -0.073 N 
ATOM     24  H14 <0> d   1      21.576  -2.620  11.928  0.00  0.00     0.274 HD
ATOM     25  H15 <0> d   1      20.707  -3.186  10.649  0.00  0.00     0.274 HD
ATOM     26  H16 <0> d   1      21.387  -1.687  10.583  0.00  0.00     0.274 HD
ENDBRANCH  19  23
ENDBRANCH  11  17
BRANCH  14  27
ATOM     27  C24 <0> d   1      18.486   6.052  15.863  0.00  0.00     0.217 C 
BRANCH  27  28
ATOM     28  C25 <0> d   1      17.456   5.878  16.950  0.00  0.00     0.145 A 
ATOM     29  N35 <0> d   1      17.805   5.254  18.050  0.00  0.00    -0.231 NA
ATOM     30  C34 <0> d   1      16.919   5.085  19.039  0.00  0.00     0.071 A 
ATOM     31  C29 <0> d   1      15.602   5.583  18.866  0.00  0.00     0.017 A 
ATOM     32  C33 <0> d   1      17.252   4.428  20.233  0.00  0.00     0.032 A 
ATOM     33  C27 <0> d   1      15.291   6.237  17.661  0.00  0.00     0.045 A 
ATOM     34  C30 <0> d   1      14.656   5.411  19.887  0.00  0.00     0.016 A 
ATOM     35  N26 <0> d   1      16.238   6.357  16.751  0.00  0.00    -0.236 NA
ATOM     36  C28 <0> d   1      13.910   6.788  17.415  0.00  0.00     0.071 C 
ATOM     37  C31 <0> d   1      15.015   4.768  21.033  0.00  0.00     0.001 A 
ATOM     38  C32 <0> d   1      16.310   4.278  21.204  0.00  0.00     0.002 A 
ENDBRANCH  27  28
ENDBRANCH  14  27
ENDBRANCH   4   5
ENDBRANCH   3   4
TORSDOF 6
ENDMDL
MODEL 2
REMARK VINA RESULT:      -8.4      6.065     12.098
REMARK  6 active torsions:
REMARK  status: ('A' for Active; 'I' for Inactive)
REMARK    1  A    between atoms: C3_3  and  C4_4 
REMARK    2  A    between atoms: C4_4  and  N5_5 
REMARK    3  A    between atoms: C6_6  and  N7_7 
REMARK    4  A    between atoms: C11_11  and  N13_12 
REMARK    5  A    between atoms: N23_22  and  C24_23 
REMARK    6  A    between atoms: C24_23  and  C25_24 
ROOT
ATOM      1  C1  <0> d   1      16.995   0.241   5.460  0.00  0.00     0.112 C 
ATOM      2  C2  <0> d   1      17.925   0.080   6.590  0.00  0.00    -0.109 C 
ATOM      3  C3  <0> d   1      18.667  -0.049   7.490  0.00  0.00    -0.086 C 
ENDROOT
BRANCH   3   4
ATOM      4  C4  <0> d   1      19.598  -0.211   8.619  0.00  0.00     0.241 C 
BRANCH   4   5
ATOM      5  N5  <0> d   1      19.001  -1.097   9.621  0.00  0.00    -0.161 N 
ATOM      6  C20 <0> d   1      18.812  -2.469   9.506  0.00  0.00     0.167 A 
ATOM      7  C19 <0> d   1      18.219  -2.883  10.694  0.00  0.00     0.186 A 
ATOM      8  C21 <0> d   1      19.092  -3.421   8.510  0.00  0.00     0.283 A 
ATOM      9  N18 <0> d   1      18.062  -1.803  11.463  0.00  0.00    -0.044 NA
ATOM     10  N38 <0> d   1      17.918  -4.226  10.858  0.00  0.00    -0.285 N 
ATOM     11  C6  <0> d   1      18.520  -0.737  10.840  0.00  0.00     0.708 A 
ATOM     12  C36 <0> d   1      18.209  -5.106   9.880  0.00  0.00     0.333 A 
ATOM     13  C39 <0> d   1      17.295  -4.690  12.099  0.00  0.00     0.163 C 
ATOM     14  N23 <0> d   1      18.781  -4.715   8.728  0.00  0.00    -0.257 N 
ATOM     15  O37 <0> d   1      17.942  -6.280  10.042  0.00  0.00    -0.246 OA
ATOM     16  O22 <0> d   1      19.611  -3.080   7.461  0.00  0.00    -0.265 OA
BRANCH  11  17
ATOM     17  N7  <0> d   1      18.514   0.543  11.346  0.00  0.00    -0.214 N 
ATOM     18  C17 <0> d   1      19.754   1.157  11.839  0.00  0.00     0.173 C 
ATOM     19  C11 <0> d   1      19.946   2.507  11.129  0.00  0.00     0.202 C 
ATOM     20  C10 <0> d   1      18.695   3.365  11.330  0.00  0.00     0.036 C 
ATOM     21  C9  <0> d   1      17.486   2.662  10.709  0.00  0.00     0.022 C 
ATOM     22  C8  <0> d   1      17.267   1.317  11.408  0.00  0.00     0.141 C 
BRANCH  19  23
ATOM     23  N13 <0> d   1      21.111   3.196  11.698  0.00  0.00    -0.073 N 
ATOM     24  H14 <0> d   1      21.617   3.665  10.961  0.00  0.00     0.274 HD
ATOM     25  H15 <0> d   1      20.803   3.875  12.378  0.00  0.00     0.274 HD
ATOM     26  H16 <0> d   1      21.715   2.523  12.145  0.00  0.00     0.274 HD
ENDBRANCH  19  23
ENDBRANCH  11  17
BRANCH  14  27
ATOM     27  C24 <0> d   1      19.070  -5.711   7.693  0.00  0.00     0.217 C 
BRANCH  27  28
ATOM     28  C25 <0> d   1      17.967  -5.703   6.667  0.00  0.00     0.145 A 
ATOM     29  N35 <0> d   1      16.782  -6.147   7.016  0.00  0.00    -0.231 NA
ATOM     30  C34 <0> d   1      15.777  -6.150   6.132  0.00  0.00     0.071 A 
ATOM     31  C29 <0> d   1      16.023  -5.675   4.818  0.00  0.00     0.017 A 
ATOM     32  C33 <0> d   1      14.494  -6.612   6.466  0.00  0.00     0.032 A 
ATOM     33  C27 <0> d   1      17.315  -5.217   4.507  0.00  0.00     0.045 A 
ATOM     34  C30 <0> d   1      14.984  -5.675   3.875  0.00  0.00     0.016 A 
ATOM     35  N26 <0> d   1      18.236  -5.252   5.451  0.00  0.00    -0.236 NA
ATOM     36  C28 <0> d   1      17.641  -4.701   3.130  0.00  0.00     0.071 C 
ATOM     37  C31 <0> d   1      13.752  -6.132   4.235  0.00  0.00     0.001 A 
ATOM     38  C32 <0> d   1      13.509  -6.598   5.526  0.00  0.00     0.002 A 
ENDBRANCH  27  28
ENDBRANCH  14  27
ENDBRANCH   4   5
ENDBRANCH   3   4
TORSDOF 6
ENDMDL
MODEL 3
REMARK VINA RESULT:      -8.2      5.833     11.631
REMARK  6 active torsions:
REMARK  status: ('A' for Active; 'I' for Inactive)
REMARK    1  A    between atoms: C3_3  and  C4_4 
REMARK    2  A    between atoms: C4_4  and  N5_5 
REMARK    3  A    between atoms: C6_6  and  N7_7 
REMARK    4  A    between atoms: C11_11  and  N13_12 
REMARK    5  A    between atoms: N23_22  and  C24_23 
REMARK    6  A    between atoms: C24_23  and  C25_24 
ROOT
ATOM      1  C1  <0> d   1      16.706  -5.020  11.858  0.00  0.00     0.112 C 
ATOM      2  C2  <0> d   1      17.760  -4.061  11.490  0.00  0.00    -0.109 C 
ATOM      3  C3  <0> d   1      18.601  -3.295  11.197  0.00  0.00    -0.086 C 
ENDROOT
BRANCH   3   4
ATOM      4  C4  <0> d   1      19.655  -2.335  10.829  0.00  0.00     0.241 C 
BRANCH   4   5
ATOM      5  N5  <0> d   1      19.176  -1.476   9.744  0.00  0.00    -0.161 N 
ATOM      6  C20 <0> d   1      18.928  -1.859   8.432  0.00  0.00     0.167 A 
ATOM      7  C19 <0> d   1      18.488  -0.719   7.768  0.00  0.00     0.186 A 
ATOM      8  C21 <0> d   1      19.022  -3.071   7.726  0.00  0.00     0.283 A 
ATOM      9  N18 <0> d   1      18.487   0.284   8.648  0.00  0.00    -0.044 NA
ATOM     10  N38 <0> d   1      18.159  -0.813   6.425  0.00  0.00    -0.285 N 
ATOM     11  C6  <0> d   1      18.894  -0.149   9.824  0.00  0.00     0.708 A 
ATOM     12  C36 <0> d   1      18.258  -1.996   5.788  0.00  0.00     0.333 A 
ATOM     13  C39 <0> d   1      17.692   0.371   5.701  0.00  0.00     0.163 C 
ATOM     14  N23 <0> d   1      18.683  -3.103   6.421  0.00  0.00    -0.257 N 
ATOM     15  O37 <0> d   1      17.962  -2.061   4.611  0.00  0.00    -0.246 OA
ATOM     16  O22 <0> d   1      19.405  -4.083   8.288  0.00  0.00    -0.265 OA
BRANCH  11  17
ATOM     17  N7  <0> d   1      19.012   0.622  10.958  0.00  0.00    -0.214 N 
ATOM     18  C17 <0> d   1      20.231   1.404  11.206  0.00  0.00     0.173 C 
ATOM     19  C11 <0> d   1      19.831   2.866  11.459  0.00  0.00     0.202 C 
ATOM     20  C10 <0> d   1      18.806   2.919  12.595  0.00  0.00     0.036 C 
ATOM     21  C9  <0> d   1      17.553   2.140  12.191  0.00  0.00     0.022 C 
ATOM     22  C8  <0> d   1      17.925   0.675  11.944  0.00  0.00     0.141 C 
BRANCH  19  23
ATOM     23  N13 <0> d   1      21.021   3.640  11.834  0.00  0.00    -0.073 N 
ATOM     24  H14 <0> d   1      21.605   3.774  11.022  0.00  0.00     0.274 HD
ATOM     25  H15 <0> d   1      20.737   4.539  12.195  0.00  0.00     0.274 HD
ATOM     26  H16 <0> d   1      21.537   3.141  12.542  0.00  0.00     0.274 HD
ENDBRANCH  19  23
ENDBRANCH  11  17
BRANCH  14  27
ATOM     27  C24 <0> d   1      18.780  -4.364   5.680  0.00  0.00     0.217 C 
BRANCH  27  28
ATOM     28  C25 <0> d   1      17.418  -5.003   5.597  0.00  0.00     0.145 A 
ATOM     29  N35 <0> d   1      16.926  -5.573   6.672  0.00  0.00    -0.231 NA
ATOM     30  C34 <0> d   1      15.717  -6.146   6.637  0.00  0.00     0.071 A 
ATOM     31  C29 <0> d   1      14.991  -6.131   5.418  0.00  0.00     0.017 A 
ATOM     32  C33 <0> d   1      15.152  -6.762   7.764  0.00  0.00     0.032 A 
ATOM     33  C27 <0> d   1      15.576  -5.509   4.302  0.00  0.00     0.045 A 
ATOM     34  C30 <0> d   1      13.724  -6.731   5.358  0.00  0.00     0.016 A 
ATOM     35  N26 <0> d   1      16.772  -4.968   4.442  0.00  0.00    -0.236 NA
ATOM     36  C28 <0> d   1      14.857  -5.460   2.979  0.00  0.00     0.071 C 
ATOM     37  C31 <0> d   1      13.208  -7.321   6.473  0.00  0.00     0.001 A 
ATOM     38  C32 <0> d   1      13.921  -7.335   7.671  0.00  0.00     0.002 A 
ENDBRANCH  27  28
ENDBRANCH  14  27
ENDBRANCH   4   5
ENDBRANCH   3   4
TORSDOF 6
ENDMDL
MODEL 4
REMARK VINA RESULT:      -8.1      3.640      6.886
REMARK  6 active torsions:
REMARK  status: ('A' for Active; 'I' for Inactive)
REMARK    1  A    between atoms: C3_3  and  C4_4 
REMARK    2  A    between atoms: C4_4  and  N5_5 
REMARK    3  A    between atoms: C6_6  and  N7_7 
REMARK    4  A    between atoms: C11_11  and  N13_12 
REMARK    5  A    between atoms: N23_22  and  C24_23 
REMARK    6  A    between atoms: C24_23  and  C25_24 
ROOT
ATOM      1  C1  <0> d   1      17.056   0.192   6.883  0.00  0.00     0.112 C 
ATOM      2  C2  <0> d   1      17.810  -0.895   7.527  0.00  0.00    -0.109 C 
ATOM      3  C3  <0> d   1      18.413  -1.763   8.041  0.00  0.00    -0.086 C 
ENDROOT
BRANCH   3   4
ATOM      4  C4  <0> d   1      19.168  -2.850   8.684  0.00  0.00     0.241 C 
BRANCH   4   5
ATOM      5  N5  <0> d   1      18.861  -2.876  10.116  0.00  0.00    -0.161 N 
ATOM      6  C20 <0> d   1      19.190  -1.903  11.052  0.00  0.00     0.167 A 
ATOM      7  C19 <0> d   1      18.697  -2.351  12.273  0.00  0.00     0.186 A 
ATOM      8  C21 <0> d   1      19.857  -0.667  10.993  0.00  0.00     0.283 A 
ATOM      9  N18 <0> d   1      18.114  -3.534  12.062  0.00  0.00    -0.044 NA
ATOM     10  N38 <0> d   1      18.882  -1.564  13.398  0.00  0.00    -0.285 N 
ATOM     11  C6  <0> d   1      18.204  -3.859  10.788  0.00  0.00     0.708 A 
ATOM     12  C36 <0> d   1      19.522  -0.383  13.296  0.00  0.00     0.333 A 
ATOM     13  C39 <0> d   1      18.372  -2.010  14.696  0.00  0.00     0.163 C 
ATOM     14  N23 <0> d   1      20.003   0.059  12.121  0.00  0.00    -0.257 N 
ATOM     15  O37 <0> d   1      19.672   0.297  14.292  0.00  0.00    -0.246 OA
ATOM     16  O22 <0> d   1      20.298  -0.255   9.934  0.00  0.00    -0.265 OA
BRANCH  11  17
ATOM     17  N7  <0> d   1      17.709  -5.012  10.225  0.00  0.00    -0.214 N 
ATOM     18  C17 <0> d   1      16.260  -5.237  10.136  0.00  0.00     0.173 C 
ATOM     19  C11 <0> d   1      15.904  -5.557   8.676  0.00  0.00     0.202 C 
ATOM     20  C10 <0> d   1      16.755  -6.735   8.195  0.00  0.00     0.036 C 
ATOM     21  C9  <0> d   1      18.236  -6.357   8.259  0.00  0.00     0.022 C 
ATOM     22  C8  <0> d   1      18.617  -6.044   9.709  0.00  0.00     0.141 C 
BRANCH  19  23
ATOM     23  N13 <0> d   1      14.481  -5.909   8.585  0.00  0.00    -0.073 N 
ATOM     24  H14 <0> d   1      14.064  -5.864   9.502  0.00  0.00     0.274 HD
ATOM     25  H15 <0> d   1      14.012  -5.261   7.970  0.00  0.00     0.274 HD
ATOM     26  H16 <0> d   1      14.389  -6.845   8.219  0.00  0.00     0.274 HD
ENDBRANCH  19  23
ENDBRANCH  11  17
BRANCH  14  27
ATOM     27  C24 <0> d   1      20.698   1.347  12.065  0.00  0.00     0.217 C 
BRANCH  27  28
ATOM     28  C25 <0> d   1      19.684   2.461  12.004  0.00  0.00     0.145 A 
ATOM     29  N35 <0> d   1      19.230   2.958  13.130  0.00  0.00    -0.231 NA
ATOM     30  C34 <0> d   1      18.332   3.951  13.114  0.00  0.00     0.071 A 
ATOM     31  C29 <0> d   1      17.881   4.441  11.862  0.00  0.00     0.017 A 
ATOM     32  C33 <0> d   1      17.825   4.514  14.295  0.00  0.00     0.032 A 
ATOM     33  C27 <0> d   1      18.403   3.862  10.693  0.00  0.00     0.045 A 
ATOM     34  C30 <0> d   1      16.936   5.478  11.823  0.00  0.00     0.016 A 
ATOM     35  N26 <0> d   1      19.287   2.891  10.816  0.00  0.00    -0.236 NA
ATOM     36  C28 <0> d   1      17.963   4.337   9.332  0.00  0.00     0.071 C 
ATOM     37  C31 <0> d   1      16.465   6.000  12.990  0.00  0.00     0.001 A 
ATOM     38  C32 <0> d   1      16.909   5.519  14.221  0.00  0.00     0.002 A 
ENDBRANCH  27  28
ENDBRANCH  14  27
ENDBRANCH   4   5
ENDBRANCH   3   4
TORSDOF 6
ENDMDL
MODEL 5
REMARK VINA RESULT:      -8.0      5.862     11.832
REMARK  6 active torsions:
REMARK  status: ('A' for Active; 'I' for Inactive)
REMARK    1  A    between atoms: C3_3  and  C4_4 
REMARK    2  A    between atoms: C4_4  and  N5_5 
REMARK    3  A    between atoms: C6_6  and  N7_7 
REMARK    4  A    between atoms: C11_11  and  N13_12 
REMARK    5  A    between atoms: N23_22  and  C24_23 
REMARK    6  A    between atoms: C24_23  and  C25_24 
ROOT
ATOM      1  C1  <0> d   1      17.054  -5.425  12.158  0.00  0.00     0.112 C 
ATOM      2  C2  <0> d   1      18.067  -4.436  11.755  0.00  0.00    -0.109 C 
ATOM      3  C3  <0> d   1      18.876  -3.647  11.434  0.00  0.00    -0.086 C 
ENDROOT
BRANCH   3   4
ATOM      4  C4  <0> d   1      19.890  -2.659  11.032  0.00  0.00     0.241 C 
BRANCH   4   5
ATOM      5  N5  <0> d   1      19.303  -1.721  10.072  0.00  0.00    -0.161 N 
ATOM      6  C20 <0> d   1      19.026  -1.970   8.734  0.00  0.00     0.167 A 
ATOM      7  C19 <0> d   1      18.477  -0.799   8.223  0.00  0.00     0.186 A 
ATOM      8  C21 <0> d   1      19.176  -3.084   7.889  0.00  0.00     0.283 A 
ATOM      9  N18 <0> d   1      18.443   0.095   9.214  0.00  0.00    -0.044 NA
ATOM     10  N38 <0> d   1      18.097  -0.765   6.891  0.00  0.00    -0.285 N 
ATOM     11  C6  <0> d   1      18.931  -0.437  10.316  0.00  0.00     0.708 A 
ATOM     12  C36 <0> d   1      18.253  -1.857   6.117  0.00  0.00     0.333 A 
ATOM     13  C39 <0> d   1      17.515   0.455   6.326  0.00  0.00     0.163 C 
ATOM     14  N23 <0> d   1      18.783  -2.993   6.601  0.00  0.00    -0.257 N 
ATOM     15  O37 <0> d   1      17.910  -1.811   4.952  0.00  0.00    -0.246 OA
ATOM     16  O22 <0> d   1      19.655  -4.121   8.315  0.00  0.00    -0.265 OA
BRANCH  11  17
ATOM     17  N7  <0> d   1      19.043   0.208  11.527  0.00  0.00    -0.214 N 
ATOM     18  C17 <0> d   1      19.970   1.335  11.690  0.00  0.00     0.173 C 
ATOM     19  C11 <0> d   1      19.189   2.532  12.254  0.00  0.00     0.202 C 
ATOM     20  C10 <0> d   1      18.480   2.110  13.542  0.00  0.00     0.036 C 
ATOM     21  C9  <0> d   1      17.486   0.988  13.235  0.00  0.00     0.022 C 
ATOM     22  C8  <0> d   1      18.243  -0.223  12.681  0.00  0.00     0.141 C 
BRANCH  19  23
ATOM     23  N13 <0> d   1      20.120   3.631  12.544  0.00  0.00    -0.073 N 
ATOM     24  H14 <0> d   1      19.965   3.965  13.483  0.00  0.00     0.274 HD
ATOM     25  H15 <0> d   1      21.069   3.300  12.457  0.00  0.00     0.274 HD
ATOM     26  H16 <0> d   1      19.966   4.384  11.889  0.00  0.00     0.274 HD
ENDBRANCH  19  23
ENDBRANCH  11  17
BRANCH  14  27
ATOM     27  C24 <0> d   1      18.937  -4.151   5.716  0.00  0.00     0.217 C 
BRANCH  27  28
ATOM     28  C25 <0> d   1      17.614  -4.859   5.582  0.00  0.00     0.145 A 
ATOM     29  N35 <0> d   1      16.969  -4.773   4.443  0.00  0.00    -0.231 NA
ATOM     30  C34 <0> d   1      15.793  -5.393   4.285  0.00  0.00     0.071 A 
ATOM     31  C29 <0> d   1      15.261  -6.130   5.374  0.00  0.00     0.017 A 
ATOM     32  C33 <0> d   1      15.074  -5.330   3.082  0.00  0.00     0.032 A 
ATOM     33  C27 <0> d   1      15.999  -6.179   6.569  0.00  0.00     0.045 A 
ATOM     34  C30 <0> d   1      14.027  -6.783   5.232  0.00  0.00     0.016 A 
ATOM     35  N26 <0> d   1      17.150  -5.537   6.621  0.00  0.00    -0.236 NA
ATOM     36  C28 <0> d   1      15.489  -6.945   7.762  0.00  0.00     0.071 C 
ATOM     37  C31 <0> d   1      13.357  -6.699   4.049  0.00  0.00     0.001 A 
ATOM     38  C32 <0> d   1      13.879  -5.975   2.979  0.00  0.00     0.002 A 
ENDBRANCH  27  28
ENDBRANCH  14  27
ENDBRANCH   4   5
ENDBRANCH   3   4
TORSDOF 6
ENDMDL
MODEL 6
REMARK VINA RESULT:      -7.8      5.568     12.192
REMARK  6 active torsions:
REMARK  status: ('A' for Active; 'I' for Inactive)
REMARK    1  A    between atoms: C3_3  and  C4_4 
REMARK    2  A    between atoms: C4_4  and  N5_5 
REMARK    3  A    between atoms: C6_6  and  N7_7 
REMARK    4  A    between atoms: C11_11  and  N13_12 
REMARK    5  A    between atoms: N23_22  and  C24_23 
REMARK    6  A    between atoms: C24_23  and  C25_24 
ROOT
ATOM      1  C1  <0> d   1      19.616   0.605   5.110  0.00  0.00     0.112 C 
ATOM      2  C2  <0> d   1      18.760   0.294   6.267  0.00  0.00    -0.109 C 
ATOM      3  C3  <0> d   1      18.078   0.045   7.190  0.00  0.00    -0.086 C 
ENDROOT
BRANCH   3   4
ATOM      4  C4  <0> d   1      17.224  -0.266   8.347  0.00  0.00     0.241 C 
BRANCH   4   5
ATOM      5  N5  <0> d   1      17.953  -1.137   9.272  0.00  0.00    -0.161 N 
ATOM      6  C20 <0> d   1      18.420  -2.419   9.010  0.00  0.00     0.167 A 
ATOM      7  C19 <0> d   1      19.049  -2.852  10.172  0.00  0.00     0.186 A 
ATOM      8  C21 <0> d   1      18.384  -3.269   7.891  0.00  0.00     0.283 A 
ATOM      9  N18 <0> d   1      18.947  -1.873  11.074  0.00  0.00    -0.044 NA
ATOM     10  N38 <0> d   1      19.619  -4.115  10.193  0.00  0.00    -0.285 N 
ATOM     11  C6  <0> d   1      18.299  -0.850  10.555  0.00  0.00     0.708 A 
ATOM     12  C36 <0> d   1      19.567  -4.895   9.096  0.00  0.00     0.333 A 
ATOM     13  C39 <0> d   1      20.289  -4.596  11.403  0.00  0.00     0.163 C 
ATOM     14  N23 <0> d   1      18.961  -4.486   7.968  0.00  0.00    -0.257 N 
ATOM     15  O37 <0> d   1      20.076  -5.998   9.130  0.00  0.00    -0.246 OA
ATOM     16  O22 <0> d   1      17.838  -2.911   6.862  0.00  0.00    -0.265 OA
BRANCH  11  17
ATOM     17  N7  <0> d   1      18.018   0.328  11.210  0.00  0.00    -0.214 N 
ATOM     18  C17 <0> d   1      17.240   0.322  12.456  0.00  0.00     0.173 C 
ATOM     19  C11 <0> d   1      18.037   1.075  13.533  0.00  0.00     0.202 C 
ATOM     20  C10 <0> d   1      18.388   2.472  13.016  0.00  0.00     0.036 C 
ATOM     21  C9  <0> d   1      19.262   2.351  11.766  0.00  0.00     0.022 C 
ATOM     22  C8  <0> d   1      18.484   1.613  10.673  0.00  0.00     0.141 C 
BRANCH  19  23
ATOM     23  N13 <0> d   1      17.225   1.191  14.751  0.00  0.00    -0.073 N 
ATOM     24  H14 <0> d   1      17.726   0.789  15.529  0.00  0.00     0.274 HD
ATOM     25  H15 <0> d   1      17.037   2.164  14.938  0.00  0.00     0.274 HD
ATOM     26  H16 <0> d   1      16.353   0.699  14.622  0.00  0.00     0.274 HD
ENDBRANCH  19  23
ENDBRANCH  11  17
BRANCH  14  27
ATOM     27  C24 <0> d   1      18.925  -5.377   6.805  0.00  0.00     0.217 C 
BRANCH  27  28
ATOM     28  C25 <0> d   1      17.808  -6.374   6.971  0.00  0.00     0.145 A 
ATOM     29  N35 <0> d   1      16.599  -5.926   7.215  0.00  0.00    -0.231 NA
ATOM     30  C34 <0> d   1      15.580  -6.783   7.364  0.00  0.00     0.071 A 
ATOM     31  C29 <0> d   1      15.840  -8.173   7.263  0.00  0.00     0.017 A 
ATOM     32  C33 <0> d   1      14.272  -6.345   7.621  0.00  0.00     0.032 A 
ATOM     33  C27 <0> d   1      17.158  -8.588   7.005  0.00  0.00     0.045 A 
ATOM     34  C30 <0> d   1      14.788  -9.088   7.421  0.00  0.00     0.016 A 
ATOM     35  N26 <0> d   1      18.090  -7.664   6.870  0.00  0.00    -0.236 NA
ATOM     36  C28 <0> d   1      17.499 -10.051   6.886  0.00  0.00     0.071 C 
ATOM     37  C31 <0> d   1      13.530  -8.627   7.670  0.00  0.00     0.001 A 
ATOM     38  C32 <0> d   1      13.275  -7.260   7.769  0.00  0.00     0.002 A 
ENDBRANCH  27  28
ENDBRANCH  14  27
ENDBRANCH   4   5
ENDBRANCH   3   4
TORSDOF 6
ENDMDL
MODEL 7
REMARK VINA RESULT:      -7.7      5.622      9.897
REMARK  6 active torsions:
REMARK  status: ('A' for Active; 'I' for Inactive)
REMARK    1  A    between atoms: C3_3  and  C4_4 
REMARK    2  A    between atoms: C4_4  and  N5_5 
REMARK    3  A    between atoms: C6_6  and  N7_7 
REMARK    4  A    between atoms: C11_11  and  N13_12 
REMARK    5  A    between atoms: N23_22  and  C24_23 
REMARK    6  A    between atoms: C24_23  and  C25_24 
ROOT
ATOM      1  C1  <0> d   1      17.750  -0.977   4.349  0.00  0.00     0.112 C 
ATOM      2  C2  <0> d   1      18.045  -2.317   4.881  0.00  0.00    -0.109 C 
ATOM      3  C3  <0> d   1      18.281  -3.387   5.305  0.00  0.00    -0.086 C 
ENDROOT
BRANCH   3   4
ATOM      4  C4  <0> d   1      18.576  -4.728   5.836  0.00  0.00     0.241 C 
BRANCH   4   5
ATOM      5  N5  <0> d   1      17.857  -4.922   7.097  0.00  0.00    -0.161 N 
ATOM      6  C20 <0> d   1      18.133  -4.307   8.312  0.00  0.00     0.167 A 
ATOM      7  C19 <0> d   1      17.196  -4.792   9.218  0.00  0.00     0.186 A 
ATOM      8  C21 <0> d   1      19.088  -3.370   8.746  0.00  0.00     0.283 A 
ATOM      9  N18 <0> d   1      16.414  -5.655   8.565  0.00  0.00    -0.044 NA
ATOM     10  N38 <0> d   1      17.234  -4.337  10.526  0.00  0.00    -0.285 N 
ATOM     11  C6  <0> d   1      16.795  -5.744   7.307  0.00  0.00     0.708 A 
ATOM     12  C36 <0> d   1      18.162  -3.434  10.899  0.00  0.00     0.333 A 
ATOM     13  C39 <0> d   1      16.258  -4.828  11.501  0.00  0.00     0.163 C 
ATOM     14  N23 <0> d   1      19.073  -2.961  10.031  0.00  0.00    -0.257 N 
ATOM     15  O37 <0> d   1      18.178  -3.043  12.050  0.00  0.00    -0.246 OA
ATOM     16  O22 <0> d   1      19.919  -2.933   7.970  0.00  0.00    -0.265 OA
BRANCH  11  17
ATOM     17  N7  <0> d   1      16.207  -6.542   6.353  0.00  0.00    -0.214 N 
ATOM     18  C17 <0> d   1      14.963  -6.124   5.693  0.00  0.00     0.173 C 
ATOM     19  C11 <0> d   1      15.176  -6.177   4.172  0.00  0.00     0.202 C 
ATOM     20  C10 <0> d   1      15.659  -7.575   3.778  0.00  0.00     0.036 C 
ATOM     21  C9  <0> d   1      16.996  -7.866   4.462  0.00  0.00     0.022 C 
ATOM     22  C8  <0> d   1      16.806  -7.831   5.982  0.00  0.00     0.141 C 
BRANCH  19  23
ATOM     23  N13 <0> d   1      13.909  -5.885   3.490  0.00  0.00    -0.073 N 
ATOM     24  H14 <0> d   1      13.217  -6.569   3.757  0.00  0.00     0.274 HD
ATOM     25  H15 <0> d   1      13.589  -4.965   3.753  0.00  0.00     0.274 HD
ATOM     26  H16 <0> d   1      14.048  -5.920   2.491  0.00  0.00     0.274 HD
ENDBRANCH  19  23
ENDBRANCH  11  17
BRANCH  14  27
ATOM     27  C24 <0> d   1      20.065  -1.985  10.489  0.00  0.00     0.217 C 
BRANCH  27  28
ATOM     28  C25 <0> d   1      19.542  -0.591  10.257  0.00  0.00     0.145 A 
ATOM     29  N35 <0> d   1      19.135   0.107  11.291  0.00  0.00    -0.231 NA
ATOM     30  C34 <0> d   1      18.669   1.350  11.123  0.00  0.00     0.071 A 
ATOM     31  C29 <0> d   1      18.616   1.887   9.811  0.00  0.00     0.017 A 
ATOM     32  C33 <0> d   1      18.229   2.132  12.203  0.00  0.00     0.032 A 
ATOM     33  C27 <0> d   1      19.062   1.086   8.746  0.00  0.00     0.045 A 
ATOM     34  C30 <0> d   1      18.125   3.186   9.613  0.00  0.00     0.016 A 
ATOM     35  N26 <0> d   1      19.508  -0.125   9.017  0.00  0.00    -0.236 NA
ATOM     36  C28 <0> d   1      19.031   1.597   7.329  0.00  0.00     0.071 C 
ATOM     37  C31 <0> d   1      17.705   3.915  10.684  0.00  0.00     0.001 A 
ATOM     38  C32 <0> d   1      17.758   3.389  11.974  0.00  0.00     0.002 A 
ENDBRANCH  27  28
ENDBRANCH  14  27
ENDBRANCH   4   5
ENDBRANCH   3   4
TORSDOF 6
ENDMDL
MODEL 8
REMARK VINA RESULT:      -7.7      6.002     11.935
REMARK  6 active torsions:
REMARK  status: ('A' for Active; 'I' for Inactive)
REMARK    1  A    between atoms: C3_3  and  C4_4 
REMARK    2  A    between atoms: C4_4  and  N5_5 
REMARK    3  A    between atoms: C6_6  and  N7_7 
REMARK    4  A    between atoms: C11_11  and  N13_12 
REMARK    5  A    between atoms: N23_22  and  C24_23 
REMARK    6  A    between atoms: C24_23  and  C25_24 
ROOT
ATOM      1  C1  <0> d   1      17.003  -5.849  12.277  0.00  0.00     0.112 C 
ATOM      2  C2  <0> d   1      17.992  -4.848  11.845  0.00  0.00    -0.109 C 
ATOM      3  C3  <0> d   1      18.782  -4.049  11.501  0.00  0.00    -0.086 C 
ENDROOT
BRANCH   3   4
ATOM      4  C4  <0> d   1      19.772  -3.049  11.070  0.00  0.00     0.241 C 
BRANCH   4   5
ATOM      5  N5  <0> d   1      19.257  -2.323   9.907  0.00  0.00    -0.161 N 
ATOM      6  C20 <0> d   1      19.049  -2.839   8.634  0.00  0.00     0.167 A 
ATOM      7  C19 <0> d   1      18.552  -1.793   7.864  0.00  0.00     0.186 A 
ATOM      8  C21 <0> d   1      19.224  -4.104   8.044  0.00  0.00     0.283 A 
ATOM      9  N18 <0> d   1      18.481  -0.715   8.648  0.00  0.00    -0.044 NA
ATOM     10  N38 <0> d   1      18.247  -2.030   6.533  0.00  0.00    -0.285 N 
ATOM     11  C6  <0> d   1      18.897  -1.014   9.862  0.00  0.00     0.708 A 
ATOM     12  C36 <0> d   1      18.424  -3.258   6.009  0.00  0.00     0.333 A 
ATOM     13  C39 <0> d   1      17.721  -0.947   5.699  0.00  0.00     0.163 C 
ATOM     14  N23 <0> d   1      18.905  -4.275   6.745  0.00  0.00    -0.257 N 
ATOM     15  O37 <0> d   1      18.147  -3.449   4.841  0.00  0.00    -0.246 OA
ATOM     16  O22 <0> d   1      19.659  -5.035   8.700  0.00  0.00    -0.265 OA
BRANCH  11  17
ATOM     17  N7  <0> d   1      18.954  -0.136  10.920  0.00  0.00    -0.214 N 
ATOM     18  C17 <0> d   1      17.877  -0.097  11.918  0.00  0.00     0.173 C 
ATOM     19  C11 <0> d   1      18.498  -0.263  13.314  0.00  0.00     0.202 C 
ATOM     20  C10 <0> d   1      19.581   0.800  13.514  0.00  0.00     0.036 C 
ATOM     21  C9  <0> d   1      20.683   0.611  12.471  0.00  0.00     0.022 C 
ATOM     22  C8  <0> d   1      20.090   0.783  11.069  0.00  0.00     0.141 C 
BRANCH  19  23
ATOM     23  N13 <0> d   1      17.455  -0.101  14.335  0.00  0.00    -0.073 N 
ATOM     24  H14 <0> d   1      17.837   0.387  15.131  0.00  0.00     0.274 HD
ATOM     25  H15 <0> d   1      16.688   0.429  13.952  0.00  0.00     0.274 HD
ATOM     26  H16 <0> d   1      17.125  -1.010  14.625  0.00  0.00     0.274 HD
ENDBRANCH  19  23
ENDBRANCH  11  17
BRANCH  14  27
ATOM     27  C24 <0> d   1      19.085  -5.591   6.125  0.00  0.00     0.217 C 
BRANCH  27  28
ATOM     28  C25 <0> d   1      17.925  -6.481   6.490  0.00  0.00     0.145 A 
ATOM     29  N35 <0> d   1      16.760  -5.926   6.728  0.00  0.00    -0.231 NA
ATOM     30  C34 <0> d   1      15.706  -6.685   7.051  0.00  0.00     0.071 A 
ATOM     31  C29 <0> d   1      15.880  -8.090   7.138  0.00  0.00     0.017 A 
ATOM     32  C33 <0> d   1      14.442  -6.132   7.309  0.00  0.00     0.032 A 
ATOM     33  C27 <0> d   1      17.154  -8.621   6.876  0.00  0.00     0.045 A 
ATOM     34  C30 <0> d   1      14.789  -8.904   7.480  0.00  0.00     0.016 A 
ATOM     35  N26 <0> d   1      18.127  -7.787   6.562  0.00  0.00    -0.236 NA
ATOM     36  C28 <0> d   1      17.404 -10.105   6.952  0.00  0.00     0.071 C 
ATOM     37  C31 <0> d   1      13.577  -8.332   7.725  0.00  0.00     0.001 A 
ATOM     38  C32 <0> d   1      13.405  -6.951   7.639  0.00  0.00     0.002 A 
ENDBRANCH  27  28
ENDBRANCH  14  27
ENDBRANCH   4   5
ENDBRANCH   3   4
TORSDOF 6
ENDMDL
MODEL 9
REMARK VINA RESULT:      -7.6      6.873     11.167
REMARK  6 active torsions:
REMARK  status: ('A' for Active; 'I' for Inactive)
REMARK    1  A    between atoms: C3_3  and  C4_4 
REMARK    2  A    between atoms: C4_4  and  N5_5 
REMARK    3  A    between atoms: C6_6  and  N7_7 
REMARK    4  A    between atoms: C11_11  and  N13_12 
REMARK    5  A    between atoms: N23_22  and  C24_23 
REMARK    6  A    between atoms: C24_23  and  C25_24 
ROOT
ATOM      1  C1  <0> d   1      18.607   0.248   4.855  0.00  0.00     0.112 C 
ATOM      2  C2  <0> d   1      18.663  -1.200   4.599  0.00  0.00    -0.109 C 
ATOM      3  C3  <0> d   1      18.708  -2.356   4.394  0.00  0.00    -0.086 C 
ENDROOT
BRANCH   3   4
ATOM      4  C4  <0> d   1      18.765  -3.804   4.138  0.00  0.00     0.241 C 
BRANCH   4   5
ATOM      5  N5  <0> d   1      17.783  -4.488   4.983  0.00  0.00    -0.161 N 
ATOM      6  C20 <0> d   1      17.793  -4.563   6.371  0.00  0.00     0.167 A 
ATOM      7  C19 <0> d   1      16.673  -5.304   6.731  0.00  0.00     0.186 A 
ATOM      8  C21 <0> d   1      18.640  -4.066   7.377  0.00  0.00     0.283 A 
ATOM      9  N18 <0> d   1      16.044  -5.654   5.606  0.00  0.00    -0.044 NA
ATOM     10  N38 <0> d   1      16.428  -5.534   8.075  0.00  0.00    -0.285 N 
ATOM     11  C6  <0> d   1      16.691  -5.178   4.562  0.00  0.00     0.708 A 
ATOM     12  C36 <0> d   1      17.262  -5.035   9.007  0.00  0.00     0.333 A 
ATOM     13  C39 <0> d   1      15.255  -6.311   8.483  0.00  0.00     0.163 C 
ATOM     14  N23 <0> d   1      18.348  -4.318   8.669  0.00  0.00    -0.257 N 
ATOM     15  O37 <0> d   1      17.030  -5.243  10.182  0.00  0.00    -0.246 OA
ATOM     16  O22 <0> d   1      19.627  -3.413   7.084  0.00  0.00    -0.265 OA
BRANCH  11  17
ATOM     17  N7  <0> d   1      16.317  -5.351   3.249  0.00  0.00    -0.214 N 
ATOM     18  C17 <0> d   1      16.720  -6.555   2.510  0.00  0.00     0.173 C 
ATOM     19  C11 <0> d   1      15.463  -7.206   1.913  0.00  0.00     0.202 C 
ATOM     20  C10 <0> d   1      14.711  -6.172   1.071  0.00  0.00     0.036 C 
ATOM     21  C9  <0> d   1      14.274  -5.007   1.960  0.00  0.00     0.022 C 
ATOM     22  C8  <0> d   1      15.513  -4.334   2.559  0.00  0.00     0.141 C 
BRANCH  19  23
ATOM     23  N13 <0> d   1      15.855  -8.339   1.065  0.00  0.00    -0.073 N 
ATOM     24  H14 <0> d   1      16.038  -9.145   1.643  0.00  0.00     0.274 HD
ATOM     25  H15 <0> d   1      15.108  -8.551   0.420  0.00  0.00     0.274 HD
ATOM     26  H16 <0> d   1      16.687  -8.100   0.547  0.00  0.00     0.274 HD
ENDBRANCH  19  23
ENDBRANCH  11  17
BRANCH  14  27
ATOM     27  C24 <0> d   1      19.227  -3.802   9.722  0.00  0.00     0.217 C 
BRANCH  27  28
ATOM     28  C25 <0> d   1      18.900  -2.355   9.985  0.00  0.00     0.145 A 
ATOM     29  N35 <0> d   1      19.361  -1.447   9.158  0.00  0.00    -0.231 NA
ATOM     30  C34 <0> d   1      19.086  -0.152   9.357  0.00  0.00     0.071 A 
ATOM     31  C29 <0> d   1      18.300   0.212  10.480  0.00  0.00     0.017 A 
ATOM     32  C33 <0> d   1      19.556   0.849   8.494  0.00  0.00     0.032 A 
ATOM     33  C27 <0> d   1      17.841  -0.809  11.331  0.00  0.00     0.045 A 
ATOM     34  C30 <0> d   1      18.005   1.564  10.711  0.00  0.00     0.016 A 
ATOM     35  N26 <0> d   1      18.163  -2.055  11.044  0.00  0.00    -0.236 NA
ATOM     36  C28 <0> d   1      17.002  -0.487  12.541  0.00  0.00     0.071 C 
ATOM     37  C31 <0> d   1      18.479   2.510   9.852  0.00  0.00     0.001 A 
ATOM     38  C32 <0> d   1      19.251   2.152   8.748  0.00  0.00     0.002 A 
ENDBRANCH  27  28
ENDBRANCH  14  27
ENDBRANCH   4   5
ENDBRANCH   3   4
TORSDOF 6
ENDMDL
