MODEL 1
REMARK VINA RESULT:      -6.6      0.000      0.000
REMARK  20 active torsions:
REMARK  status: ('A' for Active; 'I' for Inactive)
REMARK    1  A    between atoms: C2_2  and  C4_4 
REMARK    2  A    between atoms: C4_4  and  N5_5 
REMARK    3  A    between atoms: N5_5  and  C6_6 
REMARK    4  A    between atoms: N5_5  and  C18_18 
REMARK    5  A    between atoms: C6_6  and  C7_7 
REMARK    6  A    between atoms: C7_7  and  N8_8 
REMARK    7  A    between atoms: N8_8  and  C10_10 
REMARK    8  A    between atoms: N8_8  and  C14_14 
REMARK    9  A    between atoms: C10_10  and  C11_11 
REMARK   10  A    between atoms: C14_14  and  C15_15 
REMARK   11  A    between atoms: C18_18  and  C19_19 
REMARK   12  A    between atoms: C19_19  and  N20_20 
REMARK   13  A    between atoms: N20_20  and  C22_22 
REMARK   14  A    between atoms: N20_20  and  C26_26 
REMARK   15  A    between atoms: C22_22  and  C23_23 
REMARK   16  A    between atoms: C26_26  and  C28_27 
REMARK   17  A    between atoms: C26_26  and  C37_36 
REMARK   18  A    between atoms: C28_27  and  O29_28 
REMARK   19  A    between atoms: O29_28  and  C30_29 
REMARK   20  A    between atoms: C30_29  and  C31_30 
ROOT
ATOM      1  C19 ZIN A   1      19.228  -1.674   9.101  0.00  0.00     0.267 C 
ENDROOT
BRANCH   1   2
ATOM      2  C18 ZIN A   1      17.846  -2.272   9.372  0.00  0.00     0.300 C 
BRANCH   2   3
ATOM      3  N5  ZIN A   1      17.970  -3.371  10.339  0.00  0.00     0.101 N 
BRANCH   3   4
ATOM      4  C4  ZIN A   1      19.336  -3.914  10.345  0.00  0.00     0.385 C 
BRANCH   4   5
ATOM      5  C2  ZIN A   1      19.367  -5.203   9.566  0.00  0.00     0.202 C 
ATOM      6  O1  ZIN A   1      18.388  -5.929   9.547  0.00  0.00    -0.647 OA
ATOM      7  O3  ZIN A   1      20.370  -5.518   8.947  0.00  0.00    -0.647 OA
ENDBRANCH   4   5
ENDBRANCH   3   4
BRANCH   3   8
ATOM      8  C6  ZIN A   1      17.569  -2.938  11.683  0.00  0.00     0.300 C 
BRANCH   8   9
ATOM      9  C7  ZIN A   1      18.816  -2.598  12.503  0.00  0.00     0.266 C 
BRANCH   9  10
ATOM     10  N8  ZIN A   1      18.561  -1.395  13.307  0.00  0.00    -0.050 N 
ATOM     11  H9  ZIN A   1      17.615  -1.420  13.657  0.00  0.00     0.281 HD
BRANCH  10  12
ATOM     12  C10 ZIN A   1      19.501  -1.352  14.435  0.00  0.00     0.348 C 
BRANCH  12  13
ATOM     13  C11 ZIN A   1      18.762  -0.960  15.688  0.00  0.00     0.199 C 
ATOM     14  O12 ZIN A   1      18.033  -1.763  16.244  0.00  0.00    -0.647 OA
ATOM     15  O13 ZIN A   1      18.893   0.163  16.147  0.00  0.00    -0.647 OA
ENDBRANCH  12  13
ENDBRANCH  10  12
BRANCH  10  16
ATOM     16  C14 ZIN A   1      18.742  -0.201  12.471  0.00  0.00     0.348 C 
BRANCH  16  17
ATOM     17  C15 ZIN A   1      17.521   0.676  12.576  0.00  0.00     0.199 C 
ATOM     18  O16 ZIN A   1      16.622   0.568  11.760  0.00  0.00    -0.647 OA
ATOM     19  O17 ZIN A   1      17.433   1.494  13.475  0.00  0.00    -0.647 OA
ENDBRANCH  16  17
ENDBRANCH  10  16
ENDBRANCH   9  10
ENDBRANCH   8   9
ENDBRANCH   3   8
ENDBRANCH   2   3
ENDBRANCH   1   2
BRANCH   1  20
ATOM     20  N20 ZIN A   1      19.274  -1.152   7.727  0.00  0.00    -0.044 N 
ATOM     21  H21 ZIN A   1      20.233  -1.110   7.415  0.00  0.00     0.281 HD
BRANCH  20  22
ATOM     22  C22 ZIN A   1      18.509  -2.039   6.841  0.00  0.00     0.348 C 
BRANCH  22  23
ATOM     23  C23 ZIN A   1      19.450  -2.726   5.884  0.00  0.00     0.199 C 
ATOM     24  O24 ZIN A   1      19.441  -2.428   4.702  0.00  0.00    -0.647 OA
ATOM     25  O25 ZIN A   1      20.219  -3.578   6.293  0.00  0.00    -0.647 OA
ENDBRANCH  22  23
ENDBRANCH  20  22
BRANCH  20  26
ATOM     26  C26 ZIN A   1      18.690   0.195   7.695  0.00  0.00     0.312 C 
BRANCH  26  27
ATOM     27  C28 ZIN A   1      19.589   1.160   8.468  0.00  0.00     0.212 C 
BRANCH  27  28
ATOM     28  O29 ZIN A   1      18.855   1.730   9.554  0.00  0.00    -0.384 OA
BRANCH  28  29
ATOM     29  C30 ZIN A   1      18.375   3.051   9.301  0.00  0.00     0.206 C 
BRANCH  29  30
ATOM     30  C31 ZIN A   1      18.212   3.786  10.607  0.00  0.00    -0.035 A 
ATOM     31  C36 ZIN A   1      19.258   3.833  11.509  0.00  0.00     0.009 A 
ATOM     32  C35 ZIN A   1      19.109   4.510  12.705  0.00  0.00     0.001 A 
ATOM     33  C34 ZIN A   1      17.912   5.132  13.003  0.00  0.00     0.000 A 
ATOM     34  C33 ZIN A   1      16.863   5.081  12.104  0.00  0.00     0.001 A 
ATOM     35  C32 ZIN A   1      17.013   4.408  10.905  0.00  0.00     0.009 A 
ENDBRANCH  29  30
ENDBRANCH  28  29
ENDBRANCH  27  28
ENDBRANCH  26  27
BRANCH  26  36
ATOM     36  C37 ZIN A   1      18.569   0.657   6.266  0.00  0.00     0.207 C 
ATOM     37  O38 ZIN A   1      19.558   1.031   5.660  0.00  0.00    -0.646 OA
ATOM     38  O39 ZIN A   1      17.481   0.655   5.714  0.00  0.00    -0.646 OA
ENDBRANCH  26  36
ENDBRANCH  20  26
ENDBRANCH   1  20
TORSDOF 20
ENDMDL
MODEL 2
REMARK VINA RESULT:      -6.6      1.938      5.487
REMARK  20 active torsions:
REMARK  status: ('A' for Active; 'I' for Inactive)
REMARK    1  A    between atoms: C2_2  and  C4_4 
REMARK    2  A    between atoms: C4_4  and  N5_5 
REMARK    3  A    between atoms: N5_5  and  C6_6 
REMARK    4  A    between atoms: N5_5  and  C18_18 
REMARK    5  A    between atoms: C6_6  and  C7_7 
REMARK    6  A    between atoms: C7_7  and  N8_8 
REMARK    7  A    between atoms: N8_8  and  C10_10 
REMARK    8  A    between atoms: N8_8  and  C14_14 
REMARK    9  A    between atoms: C10_10  and  C11_11 
REMARK   10  A    between atoms: C14_14  and  C15_15 
REMARK   11  A    between atoms: C18_18  and  C19_19 
REMARK   12  A    between atoms: C19_19  and  N20_20 
REMARK   13  A    between atoms: N20_20  and  C22_22 
REMARK   14  A    between atoms: N20_20  and  C26_26 
REMARK   15  A    between atoms: C22_22  and  C23_23 
REMARK   16  A    between atoms: C26_26  and  C28_27 
REMARK   17  A    between atoms: C26_26  and  C37_36 
REMARK   18  A    between atoms: C28_27  and  O29_28 
REMARK   19  A    between atoms: O29_28  and  C30_29 
REMARK   20  A    between atoms: C30_29  and  C31_30 
ROOT
ATOM      1  C19 ZIN A   1      18.847  -2.807   9.124  0.00  0.00     0.267 C 
ENDROOT
BRANCH   1   2
ATOM      2  C18 ZIN A   1      18.324  -2.644   7.696  0.00  0.00     0.300 C 
BRANCH   2   3
ATOM      3  N5  ZIN A   1      18.428  -1.235   7.294  0.00  0.00     0.101 N 
BRANCH   3   4
ATOM      4  C4  ZIN A   1      17.992  -1.051   5.902  0.00  0.00     0.385 C 
BRANCH   4   5
ATOM      5  C2  ZIN A   1      19.186  -0.727   5.042  0.00  0.00     0.202 C 
ATOM      6  O1  ZIN A   1      19.791  -1.621   4.474  0.00  0.00    -0.647 OA
ATOM      7  O3  ZIN A   1      19.545   0.431   4.908  0.00  0.00    -0.647 OA
ENDBRANCH   4   5
ENDBRANCH   3   4
BRANCH   3   8
ATOM      8  C6  ZIN A   1      17.664  -0.371   8.203  0.00  0.00     0.300 C 
BRANCH   8   9
ATOM      9  C7  ZIN A   1      18.355   0.991   8.313  0.00  0.00     0.266 C 
BRANCH   9  10
ATOM     10  N8  ZIN A   1      18.109   1.558   9.645  0.00  0.00    -0.050 N 
ATOM     11  H9  ZIN A   1      17.207   2.010   9.657  0.00  0.00     0.281 HD
BRANCH  10  12
ATOM     12  C10 ZIN A   1      18.132   0.484  10.647  0.00  0.00     0.348 C 
BRANCH  12  13
ATOM     13  C11 ZIN A   1      16.991   0.675  11.613  0.00  0.00     0.199 C 
ATOM     14  O12 ZIN A   1      17.057   1.536  12.473  0.00  0.00    -0.647 OA
ATOM     15  O13 ZIN A   1      16.002  -0.033  11.535  0.00  0.00    -0.647 OA
ENDBRANCH  12  13
ENDBRANCH  10  12
BRANCH  10  16
ATOM     16  C14 ZIN A   1      19.153   2.543   9.958  0.00  0.00     0.348 C 
BRANCH  16  17
ATOM     17  C15 ZIN A   1      18.520   3.779  10.542  0.00  0.00     0.199 C 
ATOM     18  O16 ZIN A   1      18.939   4.244  11.587  0.00  0.00    -0.647 OA
ATOM     19  O17 ZIN A   1      17.586   4.314   9.969  0.00  0.00    -0.647 OA
ENDBRANCH  16  17
ENDBRANCH  10  16
ENDBRANCH   9  10
ENDBRANCH   8   9
ENDBRANCH   3   8
ENDBRANCH   2   3
ENDBRANCH   1   2
BRANCH   1  20
ATOM     20  N20 ZIN A   1      18.686  -4.205   9.548  0.00  0.00    -0.044 N 
ATOM     21  H21 ZIN A   1      17.930  -4.629   9.030  0.00  0.00     0.281 HD
BRANCH  20  22
ATOM     22  C22 ZIN A   1      19.930  -4.941   9.288  0.00  0.00     0.348 C 
BRANCH  22  23
ATOM     23  C23 ZIN A   1      19.698  -5.948   8.189  0.00  0.00     0.199 C 
ATOM     24  O24 ZIN A   1      19.015  -6.935   8.402  0.00  0.00    -0.647 OA
ATOM     25  O25 ZIN A   1      20.192  -5.773   7.089  0.00  0.00    -0.647 OA
ENDBRANCH  22  23
ENDBRANCH  20  22
BRANCH  20  26
ATOM     26  C26 ZIN A   1      18.381  -4.250  10.984  0.00  0.00     0.312 C 
BRANCH  26  27
ATOM     27  C28 ZIN A   1      18.098  -2.834  11.490  0.00  0.00     0.212 C 
BRANCH  27  28
ATOM     28  O29 ZIN A   1      18.437  -2.746  12.876  0.00  0.00    -0.384 OA
BRANCH  28  29
ATOM     29  C30 ZIN A   1      19.459  -1.791  13.165  0.00  0.00     0.206 C 
BRANCH  29  30
ATOM     30  C31 ZIN A   1      19.063  -0.983  14.374  0.00  0.00    -0.035 A 
ATOM     31  C36 ZIN A   1      18.295  -1.558  15.368  0.00  0.00     0.009 A 
ATOM     32  C35 ZIN A   1      17.936  -0.817  16.480  0.00  0.00     0.001 A 
ATOM     33  C34 ZIN A   1      18.338   0.500  16.591  0.00  0.00     0.000 A 
ATOM     34  C33 ZIN A   1      19.102   1.077  15.594  0.00  0.00     0.001 A 
ATOM     35  C32 ZIN A   1      19.465   0.336  14.485  0.00  0.00     0.009 A 
ENDBRANCH  29  30
ENDBRANCH  28  29
ENDBRANCH  27  28
ENDBRANCH  26  27
BRANCH  26  36
ATOM     36  C37 ZIN A   1      17.171  -5.117  11.215  0.00  0.00     0.207 C 
ATOM     37  O38 ZIN A   1      16.070  -4.608  11.339  0.00  0.00    -0.646 OA
ATOM     38  O39 ZIN A   1      17.292  -6.329  11.276  0.00  0.00    -0.646 OA
ENDBRANCH  26  36
ENDBRANCH  20  26
ENDBRANCH   1  20
TORSDOF 20
ENDMDL
MODEL 3
REMARK VINA RESULT:      -6.6      2.204      6.368
REMARK  20 active torsions:
REMARK  status: ('A' for Active; 'I' for Inactive)
REMARK    1  A    between atoms: C2_2  and  C4_4 
REMARK    2  A    between atoms: C4_4  and  N5_5 
REMARK    3  A    between atoms: N5_5  and  C6_6 
REMARK    4  A    between atoms: N5_5  and  C18_18 
REMARK    5  A    between atoms: C6_6  and  C7_7 
REMARK    6  A    between atoms: C7_7  and  N8_8 
REMARK    7  A    between atoms: N8_8  and  C10_10 
REMARK    8  A    between atoms: N8_8  and  C14_14 
REMARK    9  A    between atoms: C10_10  and  C11_11 
REMARK   10  A    between atoms: C14_14  and  C15_15 
REMARK   11  A    between atoms: C18_18  and  C19_19 
REMARK   12  A    between atoms: C19_19  and  N20_20 
REMARK   13  A    between atoms: N20_20  and  C22_22 
REMARK   14  A    between atoms: N20_20  and  C26_26 
REMARK   15  A    between atoms: C22_22  and  C23_23 
REMARK   16  A    between atoms: C26_26  and  C28_27 
REMARK   17  A    between atoms: C26_26  and  C37_36 
REMARK   18  A    between atoms: C28_27  and  O29_28 
REMARK   19  A    between atoms: O29_28  and  C30_29 
REMARK   20  A    between atoms: C30_29  and  C31_30 
ROOT
ATOM      1  C19 ZIN A   1      19.296   1.620   9.426  0.00  0.00     0.267 C 
ENDROOT
BRANCH   1   2
ATOM      2  C18 ZIN A   1      18.026   0.899   8.969  0.00  0.00     0.300 C 
BRANCH   2   3
ATOM      3  N5  ZIN A   1      18.376  -0.135   7.987  0.00  0.00     0.101 N 
BRANCH   3   4
ATOM      4  C4  ZIN A   1      19.046   0.455   6.819  0.00  0.00     0.385 C 
BRANCH   4   5
ATOM      5  C2  ZIN A   1      18.876  -0.456   5.631  0.00  0.00     0.202 C 
ATOM      6  O1  ZIN A   1      19.833  -0.724   4.924  0.00  0.00    -0.647 OA
ATOM      7  O3  ZIN A   1      17.781  -0.930   5.377  0.00  0.00    -0.647 OA
ENDBRANCH   4   5
ENDBRANCH   3   4
BRANCH   3   8
ATOM      8  C6  ZIN A   1      19.206  -1.182   8.597  0.00  0.00     0.300 C 
BRANCH   8   9
ATOM      9  C7  ZIN A   1      18.318  -2.350   9.031  0.00  0.00     0.266 C 
BRANCH   9  10
ATOM     10  N8  ZIN A   1      19.102  -3.591   9.023  0.00  0.00    -0.050 N 
ATOM     11  H9  ZIN A   1      20.085  -3.367   9.003  0.00  0.00     0.281 HD
BRANCH  10  12
ATOM     12  C10 ZIN A   1      18.800  -4.369  10.232  0.00  0.00     0.348 C 
BRANCH  12  13
ATOM     13  C11 ZIN A   1      19.355  -3.656  11.438  0.00  0.00     0.199 C 
ATOM     14  O12 ZIN A   1      20.556  -3.474  11.540  0.00  0.00    -0.647 OA
ATOM     15  O13 ZIN A   1      18.603  -3.262  12.313  0.00  0.00    -0.647 OA
ENDBRANCH  12  13
ENDBRANCH  10  12
BRANCH  10  16
ATOM     16  C14 ZIN A   1      18.756  -4.381   7.833  0.00  0.00     0.348 C 
BRANCH  16  17
ATOM     17  C15 ZIN A   1      19.995  -4.617   7.009  0.00  0.00     0.199 C 
ATOM     18  O16 ZIN A   1      20.467  -3.712   6.344  0.00  0.00    -0.647 OA
ATOM     19  O17 ZIN A   1      20.525  -5.715   7.007  0.00  0.00    -0.647 OA
ENDBRANCH  16  17
ENDBRANCH  10  16
ENDBRANCH   9  10
ENDBRANCH   8   9
ENDBRANCH   3   8
ENDBRANCH   2   3
ENDBRANCH   1   2
BRANCH   1  20
ATOM     20  N20 ZIN A   1      18.930   2.786  10.242  0.00  0.00    -0.044 N 
ATOM     21  H21 ZIN A   1      19.350   3.616   9.850  0.00  0.00     0.281 HD
BRANCH  20  22
ATOM     22  C22 ZIN A   1      17.469   2.935  10.255  0.00  0.00     0.348 C 
BRANCH  22  23
ATOM     23  C23 ZIN A   1      17.115   4.379  10.506  0.00  0.00     0.199 C 
ATOM     24  O24 ZIN A   1      16.342   4.670  11.403  0.00  0.00    -0.647 OA
ATOM     25  O25 ZIN A   1      17.601   5.255   9.812  0.00  0.00    -0.647 OA
ENDBRANCH  22  23
ENDBRANCH  20  22
BRANCH  20  26
ATOM     26  C26 ZIN A   1      19.415   2.594  11.615  0.00  0.00     0.312 C 
BRANCH  26  27
ATOM     27  C28 ZIN A   1      20.218   1.295  11.696  0.00  0.00     0.212 C 
BRANCH  27  28
ATOM     28  O29 ZIN A   1      19.900   0.613  12.912  0.00  0.00    -0.384 OA
BRANCH  28  29
ATOM     29  C30 ZIN A   1      18.609   0.930  13.435  0.00  0.00     0.206 C 
BRANCH  29  30
ATOM     30  C31 ZIN A   1      18.357   0.114  14.677  0.00  0.00    -0.035 A 
ATOM     31  C36 ZIN A   1      19.195  -0.938  14.995  0.00  0.00     0.009 A 
ATOM     32  C35 ZIN A   1      18.965  -1.684  16.137  0.00  0.00     0.001 A 
ATOM     33  C34 ZIN A   1      17.894  -1.382  16.956  0.00  0.00     0.000 A 
ATOM     34  C33 ZIN A   1      17.053  -0.332  16.636  0.00  0.00     0.001 A 
ATOM     35  C32 ZIN A   1      17.285   0.416  15.497  0.00  0.00     0.009 A 
ENDBRANCH  29  30
ENDBRANCH  28  29
ENDBRANCH  27  28
ENDBRANCH  26  27
BRANCH  26  36
ATOM     36  C37 ZIN A   1      20.296   3.754  12.004  0.00  0.00     0.207 C 
ATOM     37  O38 ZIN A   1      21.454   3.795  11.624  0.00  0.00    -0.646 OA
ATOM     38  O39 ZIN A   1      19.850   4.653  12.698  0.00  0.00    -0.646 OA
ENDBRANCH  26  36
ENDBRANCH  20  26
ENDBRANCH   1  20
TORSDOF 20
ENDMDL
MODEL 4
REMARK VINA RESULT:      -6.5      1.113      5.846
REMARK  20 active torsions:
REMARK  status: ('A' for Active; 'I' for Inactive)
REMARK    1  A    between atoms: C2_2  and  C4_4 
REMARK    2  A    between atoms: C4_4  and  N5_5 
REMARK    3  A    between atoms: N5_5  and  C6_6 
REMARK    4  A    between atoms: N5_5  and  C18_18 
REMARK    5  A    between atoms: C6_6  and  C7_7 
REMARK    6  A    between atoms: C7_7  and  N8_8 
REMARK    7  A    between atoms: N8_8  and  C10_10 
REMARK    8  A    between atoms: N8_8  and  C14_14 
REMARK    9  A    between atoms: C10_10  and  C11_11 
REMARK   10  A    between atoms: C14_14  and  C15_15 
REMARK   11  A    between atoms: C18_18  and  C19_19 
REMARK   12  A    between atoms: C19_19  and  N20_20 
REMARK   13  A    between atoms: N20_20  and  C22_22 
REMARK   14  A    between atoms: N20_20  and  C26_26 
REMARK   15  A    between atoms: C22_22  and  C23_23 
REMARK   16  A    between atoms: C26_26  and  C28_27 
REMARK   17  A    between atoms: C26_26  and  C37_36 
REMARK   18  A    between atoms: C28_27  and  O29_28 
REMARK   19  A    between atoms: O29_28  and  C30_29 
REMARK   20  A    between atoms: C30_29  and  C31_30 
ROOT
ATOM      1  C19 ZIN A   1      19.331  -1.338  12.590  0.00  0.00     0.267 C 
ENDROOT
BRANCH   1   2
ATOM      2  C18 ZIN A   1      18.579  -2.650  12.362  0.00  0.00     0.300 C 
BRANCH   2   3
ATOM      3  N5  ZIN A   1      18.832  -3.129  10.997  0.00  0.00     0.101 N 
BRANCH   3   4
ATOM      4  C4  ZIN A   1      18.243  -4.459  10.787  0.00  0.00     0.385 C 
BRANCH   4   5
ATOM      5  C2  ZIN A   1      19.010  -5.184   9.712  0.00  0.00     0.202 C 
ATOM      6  O1  ZIN A   1      20.228  -5.130   9.689  0.00  0.00    -0.647 OA
ATOM      7  O3  ZIN A   1      18.414  -5.830   8.867  0.00  0.00    -0.647 OA
ENDBRANCH   4   5
ENDBRANCH   3   4
BRANCH   3   8
ATOM      8  C6  ZIN A   1      18.335  -2.170  10.001  0.00  0.00     0.300 C 
BRANCH   8   9
ATOM      9  C7  ZIN A   1      19.520  -1.490   9.312  0.00  0.00     0.266 C 
BRANCH   9  10
ATOM     10  N8  ZIN A   1      19.211  -1.293   7.890  0.00  0.00    -0.050 N 
ATOM     11  H9  ZIN A   1      20.052  -1.032   7.397  0.00  0.00     0.281 HD
BRANCH  10  12
ATOM     12  C10 ZIN A   1      18.680  -2.541   7.326  0.00  0.00     0.348 C 
BRANCH  12  13
ATOM     13  C11 ZIN A   1      19.623  -3.055   6.269  0.00  0.00     0.199 C 
ATOM     14  O12 ZIN A   1      19.649  -2.532   5.168  0.00  0.00    -0.647 OA
ATOM     15  O13 ZIN A   1      20.360  -3.995   6.515  0.00  0.00    -0.647 OA
ENDBRANCH  12  13
ENDBRANCH  10  12
BRANCH  10  16
ATOM     16  C14 ZIN A   1      18.211  -0.227   7.749  0.00  0.00     0.348 C 
BRANCH  16  17
ATOM     17  C15 ZIN A   1      18.878   1.025   7.238  0.00  0.00     0.199 C 
ATOM     18  O16 ZIN A   1      19.097   1.952   7.998  0.00  0.00    -0.647 OA
ATOM     19  O17 ZIN A   1      19.197   1.109   6.065  0.00  0.00    -0.647 OA
ENDBRANCH  16  17
ENDBRANCH  10  16
ENDBRANCH   9  10
ENDBRANCH   8   9
ENDBRANCH   3   8
ENDBRANCH   2   3
ENDBRANCH   1   2
BRANCH   1  20
ATOM     20  N20 ZIN A   1      18.487  -0.419  13.368  0.00  0.00    -0.044 N 
ATOM     21  H21 ZIN A   1      17.593  -0.852  13.545  0.00  0.00     0.281 HD
BRANCH  20  22
ATOM     22  C22 ZIN A   1      19.145  -0.114  14.645  0.00  0.00     0.348 C 
BRANCH  22  23
ATOM     23  C23 ZIN A   1      18.451  -0.860  15.757  0.00  0.00     0.199 C 
ATOM     24  O24 ZIN A   1      17.297  -0.592  16.044  0.00  0.00    -0.647 OA
ATOM     25  O25 ZIN A   1      19.046  -1.731  16.369  0.00  0.00    -0.647 OA
ENDBRANCH  22  23
ENDBRANCH  20  22
BRANCH  20  26
ATOM     26  C26 ZIN A   1      18.289   0.823  12.610  0.00  0.00     0.312 C 
BRANCH  26  27
ATOM     27  C28 ZIN A   1      19.548   1.133  11.800  0.00  0.00     0.212 C 
BRANCH  27  28
ATOM     28  O29 ZIN A   1      20.052   2.417  12.173  0.00  0.00    -0.384 OA
BRANCH  28  29
ATOM     29  C30 ZIN A   1      19.625   3.480  11.320  0.00  0.00     0.206 C 
BRANCH  29  30
ATOM     30  C31 ZIN A   1      18.667   4.371  12.068  0.00  0.00    -0.035 A 
ATOM     31  C36 ZIN A   1      17.416   4.636  11.544  0.00  0.00     0.009 A 
ATOM     32  C35 ZIN A   1      16.536   5.450  12.233  0.00  0.00     0.001 A 
ATOM     33  C34 ZIN A   1      16.911   6.006  13.442  0.00  0.00     0.000 A 
ATOM     34  C33 ZIN A   1      18.164   5.746  13.964  0.00  0.00     0.001 A 
ATOM     35  C32 ZIN A   1      19.042   4.928  13.277  0.00  0.00     0.009 A 
ENDBRANCH  29  30
ENDBRANCH  28  29
ENDBRANCH  27  28
ENDBRANCH  26  27
BRANCH  26  36
ATOM     36  C37 ZIN A   1      17.117   0.661  11.676  0.00  0.00     0.207 C 
ATOM     37  O38 ZIN A   1      16.192  -0.072  11.980  0.00  0.00    -0.646 OA
ATOM     38  O39 ZIN A   1      17.095   1.264  10.616  0.00  0.00    -0.646 OA
ENDBRANCH  26  36
ENDBRANCH  20  26
ENDBRANCH   1  20
TORSDOF 20
ENDMDL
MODEL 5
REMARK VINA RESULT:      -6.5      2.150      6.409
REMARK  20 active torsions:
REMARK  status: ('A' for Active; 'I' for Inactive)
REMARK    1  A    between atoms: C2_2  and  C4_4 
REMARK    2  A    between atoms: C4_4  and  N5_5 
REMARK    3  A    between atoms: N5_5  and  C6_6 
REMARK    4  A    between atoms: N5_5  and  C18_18 
REMARK    5  A    between atoms: C6_6  and  C7_7 
REMARK    6  A    between atoms: C7_7  and  N8_8 
REMARK    7  A    between atoms: N8_8  and  C10_10 
REMARK    8  A    between atoms: N8_8  and  C14_14 
REMARK    9  A    between atoms: C10_10  and  C11_11 
REMARK   10  A    between atoms: C14_14  and  C15_15 
REMARK   11  A    between atoms: C18_18  and  C19_19 
REMARK   12  A    between atoms: C19_19  and  N20_20 
REMARK   13  A    between atoms: N20_20  and  C22_22 
REMARK   14  A    between atoms: N20_20  and  C26_26 
REMARK   15  A    between atoms: C22_22  and  C23_23 
REMARK   16  A    between atoms: C26_26  and  C28_27 
REMARK   17  A    between atoms: C26_26  and  C37_36 
REMARK   18  A    between atoms: C28_27  and  O29_28 
REMARK   19  A    between atoms: O29_28  and  C30_29 
REMARK   20  A    between atoms: C30_29  and  C31_30 
ROOT
ATOM      1  C19 ZIN A   1      18.302  -1.140   9.451  0.00  0.00     0.267 C 
ENDROOT
BRANCH   1   2
ATOM      2  C18 ZIN A   1      17.554  -0.947   8.131  0.00  0.00     0.300 C 
BRANCH   2   3
ATOM      3  N5  ZIN A   1      18.330  -1.542   7.036  0.00  0.00     0.101 N 
BRANCH   3   4
ATOM      4  C4  ZIN A   1      19.209  -0.543   6.411  0.00  0.00     0.385 C 
BRANCH   4   5
ATOM      5  C2  ZIN A   1      19.183  -0.719   4.915  0.00  0.00     0.202 C 
ATOM      6  O1  ZIN A   1      19.836  -1.607   4.393  0.00  0.00    -0.647 OA
ATOM      7  O3  ZIN A   1      18.505   0.023   4.225  0.00  0.00    -0.647 OA
ENDBRANCH   4   5
ENDBRANCH   3   4
BRANCH   3   8
ATOM      8  C6  ZIN A   1      19.101  -2.701   7.506  0.00  0.00     0.300 C 
BRANCH   8   9
ATOM      9  C7  ZIN A   1      18.366  -3.989   7.129  0.00  0.00     0.266 C 
BRANCH   9  10
ATOM     10  N8  ZIN A   1      18.098  -4.772   8.342  0.00  0.00    -0.050 N 
ATOM     11  H9  ZIN A   1      17.466  -4.261   8.939  0.00  0.00     0.281 HD
BRANCH  10  12
ATOM     12  C10 ZIN A   1      17.491  -6.057   7.971  0.00  0.00     0.348 C 
BRANCH  12  13
ATOM     13  C11 ZIN A   1      15.990  -5.940   8.034  0.00  0.00     0.199 C 
ATOM     14  O12 ZIN A   1      15.309  -6.312   7.094  0.00  0.00    -0.647 OA
ATOM     15  O13 ZIN A   1      15.456  -5.471   9.025  0.00  0.00    -0.647 OA
ENDBRANCH  12  13
ENDBRANCH  10  12
BRANCH  10  16
ATOM     16  C14 ZIN A   1      19.358  -5.014   9.058  0.00  0.00     0.348 C 
BRANCH  16  17
ATOM     17  C15 ZIN A   1      19.174  -4.698  10.520  0.00  0.00     0.199 C 
ATOM     18  O16 ZIN A   1      20.142  -4.446  11.216  0.00  0.00    -0.647 OA
ATOM     19  O17 ZIN A   1      18.057  -4.696  11.007  0.00  0.00    -0.647 OA
ENDBRANCH  16  17
ENDBRANCH  10  16
ENDBRANCH   9  10
ENDBRANCH   8   9
ENDBRANCH   3   8
ENDBRANCH   2   3
ENDBRANCH   1   2
BRANCH   1  20
ATOM     20  N20 ZIN A   1      18.626   0.172  10.027  0.00  0.00    -0.044 N 
ATOM     21  H21 ZIN A   1      19.379   0.593   9.503  0.00  0.00     0.281 HD
BRANCH  20  22
ATOM     22  C22 ZIN A   1      17.443   1.040   9.966  0.00  0.00     0.348 C 
BRANCH  22  23
ATOM     23  C23 ZIN A   1      17.837   2.452  10.317  0.00  0.00     0.199 C 
ATOM     24  O24 ZIN A   1      17.224   3.059  11.179  0.00  0.00    -0.647 OA
ATOM     25  O25 ZIN A   1      18.768   2.986   9.739  0.00  0.00    -0.647 OA
ENDBRANCH  22  23
ENDBRANCH  20  22
BRANCH  20  26
ATOM     26  C26 ZIN A   1      19.038   0.004  11.428  0.00  0.00     0.312 C 
BRANCH  26  27
ATOM     27  C28 ZIN A   1      18.524  -1.337  11.953  0.00  0.00     0.212 C 
BRANCH  27  28
ATOM     28  O29 ZIN A   1      17.549  -1.108  12.972  0.00  0.00    -0.384 OA
BRANCH  28  29
ATOM     29  C30 ZIN A   1      17.671   0.160  13.619  0.00  0.00     0.206 C 
BRANCH  29  30
ATOM     30  C31 ZIN A   1      18.189  -0.038  15.020  0.00  0.00    -0.035 A 
ATOM     31  C36 ZIN A   1      18.429  -1.314  15.494  0.00  0.00     0.009 A 
ATOM     32  C35 ZIN A   1      18.909  -1.496  16.778  0.00  0.00     0.001 A 
ATOM     33  C34 ZIN A   1      19.139  -0.402  17.591  0.00  0.00     0.000 A 
ATOM     34  C33 ZIN A   1      18.894   0.874  17.119  0.00  0.00     0.001 A 
ATOM     35  C32 ZIN A   1      18.419   1.056  15.834  0.00  0.00     0.009 A 
ENDBRANCH  29  30
ENDBRANCH  28  29
ENDBRANCH  27  28
ENDBRANCH  26  27
BRANCH  26  36
ATOM     36  C37 ZIN A   1      20.542   0.036  11.516  0.00  0.00     0.207 C 
ATOM     37  O38 ZIN A   1      21.213  -0.631  10.748  0.00  0.00    -0.646 OA
ATOM     38  O39 ZIN A   1      21.088   0.731  12.357  0.00  0.00    -0.646 OA
ENDBRANCH  26  36
ENDBRANCH  20  26
ENDBRANCH   1  20
TORSDOF 20
ENDMDL
MODEL 6
REMARK VINA RESULT:      -6.4      2.069      6.375
REMARK  20 active torsions:
REMARK  status: ('A' for Active; 'I' for Inactive)
REMARK    1  A    between atoms: C2_2  and  C4_4 
REMARK    2  A    between atoms: C4_4  and  N5_5 
REMARK    3  A    between atoms: N5_5  and  C6_6 
REMARK    4  A    between atoms: N5_5  and  C18_18 
REMARK    5  A    between atoms: C6_6  and  C7_7 
REMARK    6  A    between atoms: C7_7  and  N8_8 
REMARK    7  A    between atoms: N8_8  and  C10_10 
REMARK    8  A    between atoms: N8_8  and  C14_14 
REMARK    9  A    between atoms: C10_10  and  C11_11 
REMARK   10  A    between atoms: C14_14  and  C15_15 
REMARK   11  A    between atoms: C18_18  and  C19_19 
REMARK   12  A    between atoms: C19_19  and  N20_20 
REMARK   13  A    between atoms: N20_20  and  C22_22 
REMARK   14  A    between atoms: N20_20  and  C26_26 
REMARK   15  A    between atoms: C22_22  and  C23_23 
REMARK   16  A    between atoms: C26_26  and  C28_27 
REMARK   17  A    between atoms: C26_26  and  C37_36 
REMARK   18  A    between atoms: C28_27  and  O29_28 
REMARK   19  A    between atoms: O29_28  and  C30_29 
REMARK   20  A    between atoms: C30_29  and  C31_30 
ROOT
ATOM      1  C19 ZIN A   1      19.157   1.144   9.908  0.00  0.00     0.267 C 
ENDROOT
BRANCH   1   2
ATOM      2  C18 ZIN A   1      18.048   0.839   8.900  0.00  0.00     0.300 C 
BRANCH   2   3
ATOM      3  N5  ZIN A   1      18.534  -0.137   7.916  0.00  0.00     0.101 N 
BRANCH   3   4
ATOM      4  C4  ZIN A   1      19.216   0.534   6.801  0.00  0.00     0.385 C 
BRANCH   4   5
ATOM      5  C2  ZIN A   1      18.977  -0.237   5.529  0.00  0.00     0.202 C 
ATOM      6  O1  ZIN A   1      17.841  -0.534   5.199  0.00  0.00    -0.647 OA
ATOM      7  O3  ZIN A   1      19.919  -0.562   4.826  0.00  0.00    -0.647 OA
ENDBRANCH   4   5
ENDBRANCH   3   4
BRANCH   3   8
ATOM      8  C6  ZIN A   1      19.412  -1.130   8.550  0.00  0.00     0.300 C 
BRANCH   8   9
ATOM      9  C7  ZIN A   1      19.017  -2.532   8.082  0.00  0.00     0.266 C 
BRANCH   9  10
ATOM     10  N8  ZIN A   1      18.678  -3.360   9.246  0.00  0.00    -0.050 N 
ATOM     11  H9  ZIN A   1      17.700  -3.606   9.210  0.00  0.00     0.281 HD
BRANCH  10  12
ATOM     12  C10 ZIN A   1      19.492  -4.583   9.233  0.00  0.00     0.348 C 
BRANCH  12  13
ATOM     13  C11 ZIN A   1      18.631  -5.754   8.835  0.00  0.00     0.199 C 
ATOM     14  O12 ZIN A   1      19.148  -6.785   8.439  0.00  0.00    -0.647 OA
ATOM     15  O13 ZIN A   1      17.417  -5.670   8.907  0.00  0.00    -0.647 OA
ENDBRANCH  12  13
ENDBRANCH  10  12
BRANCH  10  16
ATOM     16  C14 ZIN A   1      18.947  -2.606  10.478  0.00  0.00     0.348 C 
BRANCH  16  17
ATOM     17  C15 ZIN A   1      17.782  -2.753  11.422  0.00  0.00     0.199 C 
ATOM     18  O16 ZIN A   1      17.025  -1.816  11.609  0.00  0.00    -0.647 OA
ATOM     19  O17 ZIN A   1      17.597  -3.810  12.002  0.00  0.00    -0.647 OA
ENDBRANCH  16  17
ENDBRANCH  10  16
ENDBRANCH   9  10
ENDBRANCH   8   9
ENDBRANCH   3   8
ENDBRANCH   2   3
ENDBRANCH   1   2
BRANCH   1  20
ATOM     20  N20 ZIN A   1      18.830   2.376  10.639  0.00  0.00    -0.044 N 
ATOM     21  H21 ZIN A   1      19.385   3.138  10.278  0.00  0.00     0.281 HD
BRANCH  20  22
ATOM     22  C22 ZIN A   1      17.405   2.683  10.467  0.00  0.00     0.348 C 
BRANCH  22  23
ATOM     23  C23 ZIN A   1      17.197   4.174  10.560  0.00  0.00     0.199 C 
ATOM     24  O24 ZIN A   1      17.726   4.914   9.749  0.00  0.00    -0.647 OA
ATOM     25  O25 ZIN A   1      16.500   4.638  11.446  0.00  0.00    -0.647 OA
ENDBRANCH  22  23
ENDBRANCH  20  22
BRANCH  20  26
ATOM     26  C26 ZIN A   1      19.123   2.191  12.066  0.00  0.00     0.312 C 
BRANCH  26  27
ATOM     27  C28 ZIN A   1      20.194   1.112  12.232  0.00  0.00     0.212 C 
BRANCH  27  28
ATOM     28  O29 ZIN A   1      19.669   0.035  13.011  0.00  0.00    -0.384 OA
BRANCH  28  29
ATOM     29  C30 ZIN A   1      18.506   0.377  13.765  0.00  0.00     0.206 C 
BRANCH  29  30
ATOM     30  C31 ZIN A   1      18.765   0.128  15.229  0.00  0.00    -0.035 A 
ATOM     31  C36 ZIN A   1      18.945  -1.163  15.689  0.00  0.00     0.009 A 
ATOM     32  C35 ZIN A   1      19.188  -1.390  17.032  0.00  0.00     0.001 A 
ATOM     33  C34 ZIN A   1      19.241  -0.328  17.914  0.00  0.00     0.000 A 
ATOM     34  C33 ZIN A   1      19.056   0.963  17.455  0.00  0.00     0.001 A 
ATOM     35  C32 ZIN A   1      18.819   1.191  16.112  0.00  0.00     0.009 A 
ENDBRANCH  29  30
ENDBRANCH  28  29
ENDBRANCH  27  28
ENDBRANCH  26  27
BRANCH  26  36
ATOM     36  C37 ZIN A   1      19.623   3.489  12.649  0.00  0.00     0.207 C 
ATOM     37  O38 ZIN A   1      19.215   3.867  13.734  0.00  0.00    -0.646 OA
ATOM     38  O39 ZIN A   1      20.436   4.159  12.035  0.00  0.00    -0.646 OA
ENDBRANCH  26  36
ENDBRANCH  20  26
ENDBRANCH   1  20
TORSDOF 20
ENDMDL
MODEL 7
REMARK VINA RESULT:      -6.4      2.075      5.776
REMARK  20 active torsions:
REMARK  status: ('A' for Active; 'I' for Inactive)
REMARK    1  A    between atoms: C2_2  and  C4_4 
REMARK    2  A    between atoms: C4_4  and  N5_5 
REMARK    3  A    between atoms: N5_5  and  C6_6 
REMARK    4  A    between atoms: N5_5  and  C18_18 
REMARK    5  A    between atoms: C6_6  and  C7_7 
REMARK    6  A    between atoms: C7_7  and  N8_8 
REMARK    7  A    between atoms: N8_8  and  C10_10 
REMARK    8  A    between atoms: N8_8  and  C14_14 
REMARK    9  A    between atoms: C10_10  and  C11_11 
REMARK   10  A    between atoms: C14_14  and  C15_15 
REMARK   11  A    between atoms: C18_18  and  C19_19 
REMARK   12  A    between atoms: C19_19  and  N20_20 
REMARK   13  A    between atoms: N20_20  and  C22_22 
REMARK   14  A    between atoms: N20_20  and  C26_26 
REMARK   15  A    between atoms: C22_22  and  C23_23 
REMARK   16  A    between atoms: C26_26  and  C28_27 
REMARK   17  A    between atoms: C26_26  and  C37_36 
REMARK   18  A    between atoms: C28_27  and  O29_28 
REMARK   19  A    between atoms: O29_28  and  C30_29 
REMARK   20  A    between atoms: C30_29  and  C31_30 
ROOT
ATOM      1  C19 ZIN A   1      17.638  -1.775   9.153  0.00  0.00     0.267 C 
ENDROOT
BRANCH   1   2
ATOM      2  C18 ZIN A   1      18.929  -1.182   8.586  0.00  0.00     0.300 C 
BRANCH   2   3
ATOM      3  N5  ZIN A   1      18.646   0.131   7.992  0.00  0.00     0.101 N 
BRANCH   3   4
ATOM      4  C4  ZIN A   1      17.621   0.023   6.944  0.00  0.00     0.385 C 
BRANCH   4   5
ATOM      5  C2  ZIN A   1      18.289  -0.135   5.603  0.00  0.00     0.202 C 
ATOM      6  O1  ZIN A   1      19.314   0.477   5.355  0.00  0.00    -0.647 OA
ATOM      7  O3  ZIN A   1      17.808  -0.880   4.765  0.00  0.00    -0.647 OA
ENDBRANCH   4   5
ENDBRANCH   3   4
BRANCH   3   8
ATOM      8  C6  ZIN A   1      18.247   1.100   9.020  0.00  0.00     0.300 C 
BRANCH   8   9
ATOM      9  C7  ZIN A   1      19.384   2.100   9.247  0.00  0.00     0.266 C 
BRANCH   9  10
ATOM     10  N8  ZIN A   1      19.038   2.989  10.363  0.00  0.00    -0.050 N 
ATOM     11  H9  ZIN A   1      19.367   3.922  10.163  0.00  0.00     0.281 HD
BRANCH  10  12
ATOM     12  C10 ZIN A   1      17.580   3.011  10.539  0.00  0.00     0.348 C 
BRANCH  12  13
ATOM     13  C11 ZIN A   1      17.095   4.438  10.531  0.00  0.00     0.199 C 
ATOM     14  O12 ZIN A   1      17.516   5.221   9.697  0.00  0.00    -0.647 OA
ATOM     15  O13 ZIN A   1      16.282   4.809  11.360  0.00  0.00    -0.647 OA
ENDBRANCH  12  13
ENDBRANCH  10  12
BRANCH  10  16
ATOM     16  C14 ZIN A   1      19.673   2.500  11.594  0.00  0.00     0.348 C 
BRANCH  16  17
ATOM     17  C15 ZIN A   1      19.556   3.547  12.671  0.00  0.00     0.199 C 
ATOM     18  O16 ZIN A   1      19.005   3.280  13.724  0.00  0.00    -0.647 OA
ATOM     19  O17 ZIN A   1      20.012   4.663  12.487  0.00  0.00    -0.647 OA
ENDBRANCH  16  17
ENDBRANCH  10  16
ENDBRANCH   9  10
ENDBRANCH   8   9
ENDBRANCH   3   8
ENDBRANCH   2   3
ENDBRANCH   1   2
BRANCH   1  20
ATOM     20  N20 ZIN A   1      17.817  -3.217   9.376  0.00  0.00    -0.044 N 
ATOM     21  H21 ZIN A   1      17.012  -3.714   9.026  0.00  0.00     0.281 HD
BRANCH  20  22
ATOM     22  C22 ZIN A   1      19.021  -3.675   8.670  0.00  0.00     0.348 C 
BRANCH  22  23
ATOM     23  C23 ZIN A   1      18.642  -4.738   7.671  0.00  0.00     0.199 C 
ATOM     24  O24 ZIN A   1      18.247  -4.419   6.563  0.00  0.00    -0.647 OA
ATOM     25  O25 ZIN A   1      18.733  -5.916   7.971  0.00  0.00    -0.647 OA
ENDBRANCH  22  23
ENDBRANCH  20  22
BRANCH  20  26
ATOM     26  C26 ZIN A   1      17.965  -3.475  10.815  0.00  0.00     0.312 C 
BRANCH  26  27
ATOM     27  C28 ZIN A   1      17.384  -2.302  11.606  0.00  0.00     0.212 C 
BRANCH  27  28
ATOM     28  O29 ZIN A   1      18.342  -1.856  12.569  0.00  0.00    -0.384 OA
BRANCH  28  29
ATOM     29  C30 ZIN A   1      18.092  -0.543  13.072  0.00  0.00     0.206 C 
BRANCH  29  30
ATOM     30  C31 ZIN A   1      18.205  -0.551  14.575  0.00  0.00    -0.035 A 
ATOM     31  C36 ZIN A   1      17.473   0.347  15.328  0.00  0.00     0.009 A 
ATOM     32  C35 ZIN A   1      17.574   0.336  16.708  0.00  0.00     0.001 A 
ATOM     33  C34 ZIN A   1      18.413  -0.567  17.332  0.00  0.00     0.000 A 
ATOM     34  C33 ZIN A   1      19.149  -1.463  16.579  0.00  0.00     0.001 A 
ATOM     35  C32 ZIN A   1      19.045  -1.455  15.200  0.00  0.00     0.009 A 
ENDBRANCH  29  30
ENDBRANCH  28  29
ENDBRANCH  27  28
ENDBRANCH  26  27
BRANCH  26  36
ATOM     36  C37 ZIN A   1      17.228  -4.739  11.176  0.00  0.00     0.207 C 
ATOM     37  O38 ZIN A   1      17.528  -5.353  12.186  0.00  0.00    -0.646 OA
ATOM     38  O39 ZIN A   1      16.329  -5.147  10.459  0.00  0.00    -0.646 OA
ENDBRANCH  26  36
ENDBRANCH  20  26
ENDBRANCH   1  20
TORSDOF 20
ENDMDL
MODEL 8
REMARK VINA RESULT:      -6.3      3.037      6.742
REMARK  20 active torsions:
REMARK  status: ('A' for Active; 'I' for Inactive)
REMARK    1  A    between atoms: C2_2  and  C4_4 
REMARK    2  A    between atoms: C4_4  and  N5_5 
REMARK    3  A    between atoms: N5_5  and  C6_6 
REMARK    4  A    between atoms: N5_5  and  C18_18 
REMARK    5  A    between atoms: C6_6  and  C7_7 
REMARK    6  A    between atoms: C7_7  and  N8_8 
REMARK    7  A    between atoms: N8_8  and  C10_10 
REMARK    8  A    between atoms: N8_8  and  C14_14 
REMARK    9  A    between atoms: C10_10  and  C11_11 
REMARK   10  A    between atoms: C14_14  and  C15_15 
REMARK   11  A    between atoms: C18_18  and  C19_19 
REMARK   12  A    between atoms: C19_19  and  N20_20 
REMARK   13  A    between atoms: N20_20  and  C22_22 
REMARK   14  A    between atoms: N20_20  and  C26_26 
REMARK   15  A    between atoms: C22_22  and  C23_23 
REMARK   16  A    between atoms: C26_26  and  C28_27 
REMARK   17  A    between atoms: C26_26  and  C37_36 
REMARK   18  A    between atoms: C28_27  and  O29_28 
REMARK   19  A    between atoms: O29_28  and  C30_29 
REMARK   20  A    between atoms: C30_29  and  C31_30 
ROOT
ATOM      1  C19 ZIN A   1      19.743   1.236  11.277  0.00  0.00     0.267 C 
ENDROOT
BRANCH   1   2
ATOM      2  C18 ZIN A   1      19.558   2.543  10.505  0.00  0.00     0.300 C 
BRANCH   2   3
ATOM      3  N5  ZIN A   1      18.798   3.494  11.326  0.00  0.00     0.101 N 
BRANCH   3   4
ATOM      4  C4  ZIN A   1      17.357   3.387  11.058  0.00  0.00     0.385 C 
BRANCH   4   5
ATOM      5  C2  ZIN A   1      16.798   4.756  10.770  0.00  0.00     0.202 C 
ATOM      6  O1  ZIN A   1      15.720   5.086  11.236  0.00  0.00    -0.647 OA
ATOM      7  O3  ZIN A   1      17.425   5.538  10.075  0.00  0.00    -0.647 OA
ENDBRANCH   4   5
ENDBRANCH   3   4
BRANCH   3   8
ATOM      8  C6  ZIN A   1      19.084   3.303  12.754  0.00  0.00     0.300 C 
BRANCH   8   9
ATOM      9  C7  ZIN A   1      19.325   4.663  13.413  0.00  0.00     0.266 C 
BRANCH   9  10
ATOM     10  N8  ZIN A   1      18.617   4.716  14.699  0.00  0.00    -0.050 N 
ATOM     11  H9  ZIN A   1      19.032   5.427  15.282  0.00  0.00     0.281 HD
BRANCH  10  12
ATOM     12  C10 ZIN A   1      17.203   5.036  14.467  0.00  0.00     0.348 C 
BRANCH  12  13
ATOM     13  C11 ZIN A   1      16.977   6.508  14.698  0.00  0.00     0.199 C 
ATOM     14  O12 ZIN A   1      17.099   6.975  15.817  0.00  0.00    -0.647 OA
ATOM     15  O13 ZIN A   1      16.671   7.231  13.765  0.00  0.00    -0.647 OA
ENDBRANCH  12  13
ENDBRANCH  10  12
BRANCH  10  16
ATOM     16  C14 ZIN A   1      18.722   3.413  15.369  0.00  0.00     0.348 C 
BRANCH  16  17
ATOM     17  C15 ZIN A   1      19.013   3.622  16.833  0.00  0.00     0.199 C 
ATOM     18  O16 ZIN A   1      18.302   4.357  17.497  0.00  0.00    -0.647 OA
ATOM     19  O17 ZIN A   1      19.960   3.058  17.353  0.00  0.00    -0.647 OA
ENDBRANCH  16  17
ENDBRANCH  10  16
ENDBRANCH   9  10
ENDBRANCH   8   9
ENDBRANCH   3   8
ENDBRANCH   2   3
ENDBRANCH   1   2
BRANCH   1  20
ATOM     20  N20 ZIN A   1      19.105   0.136  10.539  0.00  0.00    -0.044 N 
ATOM     21  H21 ZIN A   1      18.212   0.443  10.185  0.00  0.00     0.281 HD
BRANCH  20  22
ATOM     22  C22 ZIN A   1      19.965  -0.264   9.418  0.00  0.00     0.348 C 
BRANCH  22  23
ATOM     23  C23 ZIN A   1      19.108  -0.728   8.268  0.00  0.00     0.199 C 
ATOM     24  O24 ZIN A   1      19.447  -1.695   7.608  0.00  0.00    -0.647 OA
ATOM     25  O25 ZIN A   1      18.076  -0.137   8.001  0.00  0.00    -0.647 OA
ENDBRANCH  22  23
ENDBRANCH  20  22
BRANCH  20  26
ATOM     26  C26 ZIN A   1      18.909  -1.008  11.439  0.00  0.00     0.312 C 
BRANCH  26  27
ATOM     27  C28 ZIN A   1      19.446  -0.663  12.828  0.00  0.00     0.212 C 
BRANCH  27  28
ATOM     28  O29 ZIN A   1      18.450  -0.957  13.811  0.00  0.00    -0.384 OA
BRANCH  28  29
ATOM     29  C30 ZIN A   1      18.951  -1.647  14.957  0.00  0.00     0.206 C 
BRANCH  29  30
ATOM     30  C31 ZIN A   1      18.580  -0.885  16.204  0.00  0.00    -0.035 A 
ATOM     31  C36 ZIN A   1      19.458  -0.833  17.270  0.00  0.00     0.009 A 
ATOM     32  C35 ZIN A   1      19.118  -0.131  18.411  0.00  0.00     0.001 A 
ATOM     33  C34 ZIN A   1      17.898   0.512  18.490  0.00  0.00     0.000 A 
ATOM     34  C33 ZIN A   1      17.017   0.456  17.426  0.00  0.00     0.001 A 
ATOM     35  C32 ZIN A   1      17.358  -0.242  16.282  0.00  0.00     0.009 A 
ENDBRANCH  29  30
ENDBRANCH  28  29
ENDBRANCH  27  28
ENDBRANCH  26  27
BRANCH  26  36
ATOM     36  C37 ZIN A   1      17.439  -1.326  11.533  0.00  0.00     0.207 C 
ATOM     37  O38 ZIN A   1      17.070  -2.484  11.640  0.00  0.00    -0.646 OA
ATOM     38  O39 ZIN A   1      16.617  -0.425  11.504  0.00  0.00    -0.646 OA
ENDBRANCH  26  36
ENDBRANCH  20  26
ENDBRANCH   1  20
TORSDOF 20
ENDMDL
MODEL 9
REMARK VINA RESULT:      -6.3      2.250      7.013
REMARK  20 active torsions:
REMARK  status: ('A' for Active; 'I' for Inactive)
REMARK    1  A    between atoms: C2_2  and  C4_4 
REMARK    2  A    between atoms: C4_4  and  N5_5 
REMARK    3  A    between atoms: N5_5  and  C6_6 
REMARK    4  A    between atoms: N5_5  and  C18_18 
REMARK    5  A    between atoms: C6_6  and  C7_7 
REMARK    6  A    between atoms: C7_7  and  N8_8 
REMARK    7  A    between atoms: N8_8  and  C10_10 
REMARK    8  A    between atoms: N8_8  and  C14_14 
REMARK    9  A    between atoms: C10_10  and  C11_11 
REMARK   10  A    between atoms: C14_14  and  C15_15 
REMARK   11  A    between atoms: C18_18  and  C19_19 
REMARK   12  A    between atoms: C19_19  and  N20_20 
REMARK   13  A    between atoms: N20_20  and  C22_22 
REMARK   14  A    between atoms: N20_20  and  C26_26 
REMARK   15  A    between atoms: C22_22  and  C23_23 
REMARK   16  A    between atoms: C26_26  and  C28_27 
REMARK   17  A    between atoms: C26_26  and  C37_36 
REMARK   18  A    between atoms: C28_27  and  O29_28 
REMARK   19  A    between atoms: O29_28  and  C30_29 
REMARK   20  A    between atoms: C30_29  and  C31_30 
ROOT
ATOM      1  C19 ZIN A   1      19.408   0.212   8.920  0.00  0.00     0.267 C 
ENDROOT
BRANCH   1   2
ATOM      2  C18 ZIN A   1      18.231   0.239   7.943  0.00  0.00     0.300 C 
BRANCH   2   3
ATOM      3  N5  ZIN A   1      18.394  -0.829   6.949  0.00  0.00     0.101 N 
BRANCH   3   4
ATOM      4  C4  ZIN A   1      19.029  -0.317   5.726  0.00  0.00     0.385 C 
BRANCH   4   5
ATOM      5  C2  ZIN A   1      18.772  -1.273   4.590  0.00  0.00     0.202 C 
ATOM      6  O1  ZIN A   1      19.688  -1.931   4.127  0.00  0.00    -0.647 OA
ATOM      7  O3  ZIN A   1      17.647  -1.394   4.136  0.00  0.00    -0.647 OA
ENDBRANCH   4   5
ENDBRANCH   3   4
BRANCH   3   8
ATOM      8  C6  ZIN A   1      19.156  -1.955   7.506  0.00  0.00     0.300 C 
BRANCH   8   9
ATOM      9  C7  ZIN A   1      18.190  -3.059   7.941  0.00  0.00     0.266 C 
BRANCH   9  10
ATOM     10  N8  ZIN A   1      18.576  -4.325   7.306  0.00  0.00    -0.050 N 
ATOM     11  H9  ZIN A   1      18.306  -5.095   7.900  0.00  0.00     0.281 HD
BRANCH  10  12
ATOM     12  C10 ZIN A   1      17.899  -4.448   6.007  0.00  0.00     0.348 C 
BRANCH  12  13
ATOM     13  C11 ZIN A   1      17.151  -5.754   5.953  0.00  0.00     0.199 C 
ATOM     14  O12 ZIN A   1      16.325  -6.021   6.809  0.00  0.00    -0.647 OA
ATOM     15  O13 ZIN A   1      17.372  -6.546   5.053  0.00  0.00    -0.647 OA
ENDBRANCH  12  13
ENDBRANCH  10  12
BRANCH  10  16
ATOM     16  C14 ZIN A   1      20.031  -4.349   7.105  0.00  0.00     0.348 C 
BRANCH  16  17
ATOM     17  C15 ZIN A   1      20.614  -5.552   7.801  0.00  0.00     0.199 C 
ATOM     18  O16 ZIN A   1      19.909  -6.248   8.509  0.00  0.00    -0.647 OA
ATOM     19  O17 ZIN A   1      21.793  -5.827   7.656  0.00  0.00    -0.647 OA
ENDBRANCH  16  17
ENDBRANCH  10  16
ENDBRANCH   9  10
ENDBRANCH   8   9
ENDBRANCH   3   8
ENDBRANCH   2   3
ENDBRANCH   1   2
BRANCH   1  20
ATOM     20  N20 ZIN A   1      19.035   0.914  10.156  0.00  0.00    -0.044 N 
ATOM     21  H21 ZIN A   1      19.703   1.647  10.341  0.00  0.00     0.281 HD
BRANCH  20  22
ATOM     22  C22 ZIN A   1      17.696   1.499  10.002  0.00  0.00     0.348 C 
BRANCH  22  23
ATOM     23  C23 ZIN A   1      17.717   2.931  10.472  0.00  0.00     0.199 C 
ATOM     24  O24 ZIN A   1      18.431   3.746   9.913  0.00  0.00    -0.647 OA
ATOM     25  O25 ZIN A   1      17.018   3.274  11.411  0.00  0.00    -0.647 OA
ENDBRANCH  22  23
ENDBRANCH  20  22
BRANCH  20  26
ATOM     26  C26 ZIN A   1      19.028  -0.037  11.276  0.00  0.00     0.312 C 
BRANCH  26  27
ATOM     27  C28 ZIN A   1      17.724  -0.835  11.260  0.00  0.00     0.212 C 
BRANCH  27  28
ATOM     28  O29 ZIN A   1      17.235  -0.978  12.595  0.00  0.00    -0.384 OA
BRANCH  28  29
ATOM     29  C30 ZIN A   1      17.384   0.195  13.397  0.00  0.00     0.206 C 
BRANCH  29  30
ATOM     30  C31 ZIN A   1      17.871  -0.193  14.769  0.00  0.00    -0.035 A 
ATOM     31  C36 ZIN A   1      17.446   0.513  15.879  0.00  0.00     0.009 A 
ATOM     32  C35 ZIN A   1      17.890   0.154  17.138  0.00  0.00     0.001 A 
ATOM     33  C34 ZIN A   1      18.765  -0.905  17.286  0.00  0.00     0.000 A 
ATOM     34  C33 ZIN A   1      19.194  -1.608  16.177  0.00  0.00     0.001 A 
ATOM     35  C32 ZIN A   1      18.747  -1.253  14.918  0.00  0.00     0.009 A 
ENDBRANCH  29  30
ENDBRANCH  28  29
ENDBRANCH  27  28
ENDBRANCH  26  27
BRANCH  26  36
ATOM     36  C37 ZIN A   1      20.196  -0.979  11.141  0.00  0.00     0.207 C 
ATOM     37  O38 ZIN A   1      20.006  -2.182  11.081  0.00  0.00    -0.646 OA
ATOM     38  O39 ZIN A   1      21.332  -0.539  11.093  0.00  0.00    -0.646 OA
ENDBRANCH  26  36
ENDBRANCH  20  26
ENDBRANCH   1  20
TORSDOF 20
ENDMDL
