MODEL 1
REMARK VINA RESULT:      -6.7      0.000      0.000
REMARK  4 active torsions:
REMARK  status: ('A' for Active; 'I' for Inactive)
REMARK    1  A    between atoms: O2_2  and  C3_3 
REMARK    2  A    between atoms: C3_3  and  C5_5 
REMARK    3  A    between atoms: C5_5  and  C7_6 
REMARK    4  A    between atoms: C5_5  and  C13_12 
ROOT
ATOM      1  C5  <0> d   1      18.301   0.062  10.232  0.00  0.00     0.149 C 
ENDROOT
BRANCH   1   2
ATOM      2  C3  <0> d   1      17.129   0.724  10.909  0.00  0.00     0.269 C 
ATOM      3  O4  <0> d   1      16.134   0.086  11.156  0.00  0.00    -0.264 OA
BRANCH   2   4
ATOM      4  O2  <0> d   1      17.192   2.024  11.239  0.00  0.00    -0.326 OA
ATOM      5  C1  <0> d   1      18.477   2.527  11.690  0.00  0.00     0.213 C 
ENDBRANCH   2   4
ENDBRANCH   1   2
BRANCH   1   6
ATOM      6  C7  <0> d   1      18.213   0.283   8.743  0.00  0.00    -0.043 A 
ATOM      7  C12 <0> d   1      19.127   1.105   8.111  0.00  0.00     0.008 A 
ATOM      8  C11 <0> d   1      19.047   1.304   6.746  0.00  0.00     0.001 A 
ATOM      9  C10 <0> d   1      18.048   0.690   6.014  0.00  0.00     0.000 A 
ATOM     10  C9  <0> d   1      17.131  -0.128   6.647  0.00  0.00     0.001 A 
ATOM     11  C8  <0> d   1      17.213  -0.330   8.013  0.00  0.00     0.008 A 
ENDBRANCH   1   6
BRANCH   1  12
ATOM     12  C13 <0> d   1      18.280  -1.439  10.526  0.00  0.00     0.203 C 
ATOM     13  N19 <0> d   1      19.341  -2.102   9.759  0.00  0.00    -0.070 N 
ATOM     14  C18 <0> d   1      19.280  -3.552   9.975  0.00  0.00     0.232 C 
ATOM     15  H20 <0> d   1      19.218  -1.904   8.778  0.00  0.00     0.277 HD
ATOM     16  H21 <0> d   1      20.240  -1.756  10.060  0.00  0.00     0.277 HD
ATOM     17  C17 <0> d   1      19.547  -3.863  11.450  0.00  0.00     0.027 C 
ATOM     18  C16 <0> d   1      18.488  -3.171  12.312  0.00  0.00     0.004 C 
ATOM     19  C15 <0> d   1      18.510  -1.668  12.021  0.00  0.00     0.034 C 
ENDBRANCH   1  12
TORSDOF 4
ENDMDL
MODEL 2
REMARK VINA RESULT:      -6.7      3.088      6.512
REMARK  4 active torsions:
REMARK  status: ('A' for Active; 'I' for Inactive)
REMARK    1  A    between atoms: O2_2  and  C3_3 
REMARK    2  A    between atoms: C3_3  and  C5_5 
REMARK    3  A    between atoms: C5_5  and  C7_6 
REMARK    4  A    between atoms: C5_5  and  C13_12 
ROOT
ATOM      1  C5  <0> d   1      18.216   0.093  12.677  0.00  0.00     0.149 C 
ENDROOT
BRANCH   1   2
ATOM      2  C3  <0> d   1      17.027  -0.538  12.000  0.00  0.00     0.269 C 
ATOM      3  O4  <0> d   1      16.047   0.126  11.757  0.00  0.00    -0.264 OA
BRANCH   2   4
ATOM      4  O2  <0> d   1      17.057  -1.837  11.665  0.00  0.00    -0.326 OA
ATOM      5  C1  <0> d   1      18.218  -2.299  10.925  0.00  0.00     0.213 C 
ENDBRANCH   2   4
ENDBRANCH   1   2
BRANCH   1   6
ATOM      6  C7  <0> d   1      18.218  -0.279  14.138  0.00  0.00    -0.043 A 
ATOM      7  C12 <0> d   1      17.308   0.302  15.001  0.00  0.00     0.008 A 
ATOM      8  C11 <0> d   1      17.309  -0.041  16.339  0.00  0.00     0.001 A 
ATOM      9  C10 <0> d   1      18.225  -0.959  16.818  0.00  0.00     0.000 A 
ATOM     10  C9  <0> d   1      19.138  -1.537  15.955  0.00  0.00     0.001 A 
ATOM     11  C8  <0> d   1      19.135  -1.196  14.615  0.00  0.00     0.008 A 
ENDBRANCH   1   6
BRANCH   1  12
ATOM     12  C13 <0> d   1      18.136   1.614  12.538  0.00  0.00     0.203 C 
ATOM     13  N19 <0> d   1      19.175   2.237  13.366  0.00  0.00    -0.070 N 
ATOM     14  C18 <0> d   1      19.058   3.697  13.300  0.00  0.00     0.232 C 
ATOM     15  H20 <0> d   1      19.067   1.934  14.323  0.00  0.00     0.277 HD
ATOM     16  H21 <0> d   1      20.085   1.958  13.029  0.00  0.00     0.277 HD
ATOM     17  C17 <0> d   1      19.302   4.168  11.864  0.00  0.00     0.027 C 
ATOM     18  C16 <0> d   1      18.264   3.527  10.939  0.00  0.00     0.004 C 
ATOM     19  C15 <0> d   1      18.345   2.004  11.074  0.00  0.00     0.034 C 
ENDBRANCH   1  12
TORSDOF 4
ENDMDL
MODEL 3
REMARK VINA RESULT:      -6.5      1.651      2.655
REMARK  4 active torsions:
REMARK  status: ('A' for Active; 'I' for Inactive)
REMARK    1  A    between atoms: O2_2  and  C3_3 
REMARK    2  A    between atoms: C3_3  and  C5_5 
REMARK    3  A    between atoms: C5_5  and  C7_6 
REMARK    4  A    between atoms: C5_5  and  C13_12 
ROOT
ATOM      1  C5  <0> d   1      19.067   1.374  10.610  0.00  0.00     0.149 C 
ENDROOT
BRANCH   1   2
ATOM      2  C3  <0> d   1      18.593   2.767  10.934  0.00  0.00     0.269 C 
ATOM      3  O4  <0> d   1      19.379   3.597  11.323  0.00  0.00    -0.264 OA
BRANCH   2   4
ATOM      4  O2  <0> d   1      17.297   3.084  10.789  0.00  0.00    -0.326 OA
ATOM      5  C1  <0> d   1      16.957   4.496  10.822  0.00  0.00     0.213 C 
ENDBRANCH   2   4
ENDBRANCH   1   2
BRANCH   1   6
ATOM      6  C7  <0> d   1      18.656   1.017   9.204  0.00  0.00    -0.043 A 
ATOM      7  C12 <0> d   1      17.608   0.141   8.991  0.00  0.00     0.008 A 
ATOM      8  C11 <0> d   1      17.231  -0.183   7.702  0.00  0.00     0.001 A 
ATOM      9  C10 <0> d   1      17.906   0.361   6.625  0.00  0.00     0.000 A 
ATOM     10  C9  <0> d   1      18.957   1.234   6.839  0.00  0.00     0.001 A 
ATOM     11  C8  <0> d   1      19.333   1.560   8.129  0.00  0.00     0.008 A 
ENDBRANCH   1   6
BRANCH   1  12
ATOM     12  C13 <0> d   1      18.443   0.380  11.591  0.00  0.00     0.203 C 
ATOM     13  N19 <0> d   1      19.255  -0.842  11.633  0.00  0.00    -0.070 N 
ATOM     14  C18 <0> d   1      18.622  -1.831  12.513  0.00  0.00     0.232 C 
ATOM     15  H20 <0> d   1      19.334  -1.223  10.702  0.00  0.00     0.277 HD
ATOM     16  H21 <0> d   1      20.175  -0.622  11.984  0.00  0.00     0.277 HD
ATOM     17  C17 <0> d   1      18.573  -1.289  13.944  0.00  0.00     0.027 C 
ATOM     18  C16 <0> d   1      17.762   0.009  13.964  0.00  0.00     0.004 C 
ATOM     19  C15 <0> d   1      18.388   1.007  12.985  0.00  0.00     0.034 C 
ENDBRANCH   1  12
TORSDOF 4
ENDMDL
MODEL 4
REMARK VINA RESULT:      -6.4      2.142      4.419
REMARK  4 active torsions:
REMARK  status: ('A' for Active; 'I' for Inactive)
REMARK    1  A    between atoms: O2_2  and  C3_3 
REMARK    2  A    between atoms: C3_3  and  C5_5 
REMARK    3  A    between atoms: C5_5  and  C7_6 
REMARK    4  A    between atoms: C5_5  and  C13_12 
ROOT
ATOM      1  C5  <0> d   1      18.192   0.901  10.055  0.00  0.00     0.149 C 
ENDROOT
BRANCH   1   2
ATOM      2  C3  <0> d   1      19.151  -0.098  10.648  0.00  0.00     0.269 C 
ATOM      3  O4  <0> d   1      20.247  -0.245  10.163  0.00  0.00    -0.264 OA
BRANCH   2   4
ATOM      4  O2  <0> d   1      18.786  -0.824  11.717  0.00  0.00    -0.326 OA
ATOM      5  C1  <0> d   1      17.658  -1.723  11.548  0.00  0.00     0.213 C 
ENDBRANCH   2   4
ENDBRANCH   1   2
BRANCH   1   6
ATOM      6  C7  <0> d   1      18.143   0.725   8.559  0.00  0.00    -0.043 A 
ATOM      7  C12 <0> d   1      17.240  -0.157   7.995  0.00  0.00     0.008 A 
ATOM      8  C11 <0> d   1      17.194  -0.316   6.623  0.00  0.00     0.001 A 
ATOM      9  C10 <0> d   1      18.057   0.400   5.814  0.00  0.00     0.000 A 
ATOM     10  C9  <0> d   1      18.964   1.279   6.379  0.00  0.00     0.001 A 
ATOM     11  C8  <0> d   1      19.008   1.440   7.751  0.00  0.00     0.008 A 
ENDBRANCH   1   6
BRANCH   1  12
ATOM     12  C13 <0> d   1      18.662   2.319  10.386  0.00  0.00     0.203 C 
ATOM     13  N19 <0> d   1      17.500   3.212  10.470  0.00  0.00    -0.070 N 
ATOM     14  C18 <0> d   1      17.946   4.589  10.711  0.00  0.00     0.232 C 
ATOM     15  H20 <0> d   1      16.985   3.173   9.604  0.00  0.00     0.277 HD
ATOM     16  H21 <0> d   1      16.903   2.916  11.228  0.00  0.00     0.277 HD
ATOM     17  C17 <0> d   1      18.659   4.669  12.064  0.00  0.00     0.027 C 
ATOM     18  C16 <0> d   1      19.870   3.732  12.053  0.00  0.00     0.004 C 
ATOM     19  C15 <0> d   1      19.400   2.311  11.725  0.00  0.00     0.034 C 
ENDBRANCH   1  12
TORSDOF 4
ENDMDL
MODEL 5
REMARK VINA RESULT:      -6.3      3.233      6.459
REMARK  4 active torsions:
REMARK  status: ('A' for Active; 'I' for Inactive)
REMARK    1  A    between atoms: O2_2  and  C3_3 
REMARK    2  A    between atoms: C3_3  and  C5_5 
REMARK    3  A    between atoms: C5_5  and  C7_6 
REMARK    4  A    between atoms: C5_5  and  C13_12 
ROOT
ATOM      1  C5  <0> d   1      19.666  -0.109  13.205  0.00  0.00     0.149 C 
ENDROOT
BRANCH   1   2
ATOM      2  C3  <0> d   1      19.328  -1.178  12.198  0.00  0.00     0.269 C 
ATOM      3  O4  <0> d   1      20.001  -1.306  11.203  0.00  0.00    -0.264 OA
BRANCH   2   4
ATOM      4  O2  <0> d   1      18.279  -1.988  12.408  0.00  0.00    -0.326 OA
ATOM      5  C1  <0> d   1      17.648  -2.567  11.235  0.00  0.00     0.213 C 
ENDBRANCH   2   4
ENDBRANCH   1   2
BRANCH   1   6
ATOM      6  C7  <0> d   1      18.922  -0.373  14.489  0.00  0.00    -0.043 A 
ATOM      7  C12 <0> d   1      19.320  -1.405  15.318  0.00  0.00     0.008 A 
ATOM      8  C11 <0> d   1      18.639  -1.644  16.497  0.00  0.00     0.001 A 
ATOM      9  C10 <0> d   1      17.555  -0.858  16.842  0.00  0.00     0.000 A 
ATOM     10  C9  <0> d   1      17.155   0.171  16.010  0.00  0.00     0.001 A 
ATOM     11  C8  <0> d   1      17.839   0.413  14.832  0.00  0.00     0.008 A 
ENDBRANCH   1   6
BRANCH   1  12
ATOM     12  C13 <0> d   1      19.261   1.260  12.653  0.00  0.00     0.203 C 
ATOM     13  N19 <0> d   1      20.403   1.864  11.956  0.00  0.00    -0.070 N 
ATOM     14  C18 <0> d   1      20.048   3.209  11.490  0.00  0.00     0.232 C 
ATOM     15  H20 <0> d   1      21.187   1.924  12.588  0.00  0.00     0.277 HD
ATOM     16  H21 <0> d   1      20.654   1.291  11.164  0.00  0.00     0.277 HD
ATOM     17  C17 <0> d   1      18.911   3.115  10.469  0.00  0.00     0.027 C 
ATOM     18  C16 <0> d   1      17.693   2.462  11.127  0.00  0.00     0.004 C 
ATOM     19  C15 <0> d   1      18.096   1.090  11.677  0.00  0.00     0.034 C 
ENDBRANCH   1  12
TORSDOF 4
ENDMDL
MODEL 6
REMARK VINA RESULT:      -6.2      2.004      5.097
REMARK  4 active torsions:
REMARK  status: ('A' for Active; 'I' for Inactive)
REMARK    1  A    between atoms: O2_2  and  C3_3 
REMARK    2  A    between atoms: C3_3  and  C5_5 
REMARK    3  A    between atoms: C5_5  and  C7_6 
REMARK    4  A    between atoms: C5_5  and  C13_12 
ROOT
ATOM      1  C5  <0> d   1      17.517   1.215  11.575  0.00  0.00     0.149 C 
ENDROOT
BRANCH   1   2
ATOM      2  C3  <0> d   1      17.877   2.647  11.879  0.00  0.00     0.269 C 
ATOM      3  O4  <0> d   1      17.065   3.524  11.705  0.00  0.00    -0.264 OA
BRANCH   2   4
ATOM      4  O2  <0> d   1      19.100   2.946  12.343  0.00  0.00    -0.326 OA
ATOM      5  C1  <0> d   1      19.485   4.346  12.331  0.00  0.00     0.213 C 
ENDBRANCH   2   4
ENDBRANCH   1   2
BRANCH   1   6
ATOM      6  C7  <0> d   1      17.963   0.332  12.713  0.00  0.00    -0.043 A 
ATOM      7  C12 <0> d   1      17.462   0.537  13.984  0.00  0.00     0.008 A 
ATOM      8  C11 <0> d   1      17.870  -0.275  15.026  0.00  0.00     0.001 A 
ATOM      9  C10 <0> d   1      18.784  -1.287  14.798  0.00  0.00     0.000 A 
ATOM     10  C9  <0> d   1      19.288  -1.489  13.526  0.00  0.00     0.001 A 
ATOM     11  C8  <0> d   1      18.878  -0.678  12.484  0.00  0.00     0.008 A 
ENDBRANCH   1   6
BRANCH   1  12
ATOM     12  C13 <0> d   1      18.213   0.776  10.286  0.00  0.00     0.203 C 
ATOM     13  N19 <0> d   1      17.298  -0.057   9.496  0.00  0.00    -0.070 N 
ATOM     14  C18 <0> d   1      17.982  -0.547   8.294  0.00  0.00     0.232 C 
ATOM     15  H20 <0> d   1      16.995  -0.842  10.053  0.00  0.00     0.277 HD
ATOM     16  H21 <0> d   1      16.495   0.490   9.224  0.00  0.00     0.277 HD
ATOM     17  C17 <0> d   1      18.372   0.637   7.406  0.00  0.00     0.027 C 
ATOM     18  C16 <0> d   1      19.307   1.566   8.186  0.00  0.00     0.004 C 
ATOM     19  C15 <0> d   1      18.610   2.010   9.475  0.00  0.00     0.034 C 
ENDBRANCH   1  12
TORSDOF 4
ENDMDL
MODEL 7
REMARK VINA RESULT:      -6.1      1.865      4.691
REMARK  4 active torsions:
REMARK  status: ('A' for Active; 'I' for Inactive)
REMARK    1  A    between atoms: O2_2  and  C3_3 
REMARK    2  A    between atoms: C3_3  and  C5_5 
REMARK    3  A    between atoms: C5_5  and  C7_6 
REMARK    4  A    between atoms: C5_5  and  C13_12 
ROOT
ATOM      1  C5  <0> d   1      18.470   0.822  10.279  0.00  0.00     0.149 C 
ENDROOT
BRANCH   1   2
ATOM      2  C3  <0> d   1      17.431  -0.006  10.990  0.00  0.00     0.269 C 
ATOM      3  O4  <0> d   1      16.291   0.387  11.062  0.00  0.00    -0.264 OA
BRANCH   2   4
ATOM      4  O2  <0> d   1      17.773  -1.180  11.542  0.00  0.00    -0.326 OA
ATOM      5  C1  <0> d   1      18.044  -1.183  12.969  0.00  0.00     0.213 C 
ENDBRANCH   2   4
ENDBRANCH   1   2
BRANCH   1   6
ATOM      6  C7  <0> d   1      18.523   2.198  10.892  0.00  0.00    -0.043 A 
ATOM      7  C12 <0> d   1      17.690   3.197  10.424  0.00  0.00     0.008 A 
ATOM      8  C11 <0> d   1      17.737   4.457  10.988  0.00  0.00     0.001 A 
ATOM      9  C10 <0> d   1      18.623   4.723  12.016  0.00  0.00     0.000 A 
ATOM     10  C9  <0> d   1      19.459   3.725  12.482  0.00  0.00     0.001 A 
ATOM     11  C8  <0> d   1      19.410   2.463  11.918  0.00  0.00     0.008 A 
ENDBRANCH   1   6
BRANCH   1  12
ATOM     12  C13 <0> d   1      18.105   0.938   8.798  0.00  0.00     0.203 C 
ATOM     13  N19 <0> d   1      19.316   1.216   8.016  0.00  0.00    -0.070 N 
ATOM     14  C18 <0> d   1      18.966   1.406   6.604  0.00  0.00     0.232 C 
ATOM     15  H20 <0> d   1      19.756   2.053   8.368  0.00  0.00     0.277 HD
ATOM     16  H21 <0> d   1      19.956   0.441   8.101  0.00  0.00     0.277 HD
ATOM     17  C17 <0> d   1      18.371   0.110   6.045  0.00  0.00     0.027 C 
ATOM     18  C16 <0> d   1      17.115  -0.255   6.841  0.00  0.00     0.004 C 
ATOM     19  C15 <0> d   1      17.480  -0.375   8.323  0.00  0.00     0.034 C 
ENDBRANCH   1  12
TORSDOF 4
ENDMDL
MODEL 8
REMARK VINA RESULT:      -6.1      1.473      4.526
REMARK  4 active torsions:
REMARK  status: ('A' for Active; 'I' for Inactive)
REMARK    1  A    between atoms: O2_2  and  C3_3 
REMARK    2  A    between atoms: C3_3  and  C5_5 
REMARK    3  A    between atoms: C5_5  and  C7_6 
REMARK    4  A    between atoms: C5_5  and  C13_12 
ROOT
ATOM      1  C5  <0> d   1      17.418  -1.124  10.301  0.00  0.00     0.149 C 
ENDROOT
BRANCH   1   2
ATOM      2  C3  <0> d   1      17.131  -0.243  11.490  0.00  0.00     0.269 C 
ATOM      3  O4  <0> d   1      16.007   0.151  11.692  0.00  0.00    -0.264 OA
BRANCH   2   4
ATOM      4  O2  <0> d   1      18.124   0.101  12.324  0.00  0.00    -0.326 OA
ATOM      5  C1  <0> d   1      17.892   1.246  13.186  0.00  0.00     0.213 C 
ENDBRANCH   2   4
ENDBRANCH   1   2
BRANCH   1   6
ATOM      6  C7  <0> d   1      18.055  -2.408  10.768  0.00  0.00    -0.043 A 
ATOM      7  C12 <0> d   1      19.431  -2.535  10.773  0.00  0.00     0.008 A 
ATOM      8  C11 <0> d   1      20.014  -3.711  11.205  0.00  0.00     0.001 A 
ATOM      9  C10 <0> d   1      19.222  -4.764  11.622  0.00  0.00     0.000 A 
ATOM     10  C9  <0> d   1      17.845  -4.638  11.612  0.00  0.00     0.001 A 
ATOM     11  C8  <0> d   1      17.261  -3.460  11.183  0.00  0.00     0.008 A 
ENDBRANCH   1   6
BRANCH   1  12
ATOM     12  C13 <0> d   1      18.371  -0.400   9.347  0.00  0.00     0.203 C 
ATOM     13  N19 <0> d   1      18.177  -0.908   7.984  0.00  0.00    -0.070 N 
ATOM     14  C18 <0> d   1      19.139  -0.275   7.074  0.00  0.00     0.232 C 
ATOM     15  H20 <0> d   1      18.316  -1.907   7.976  0.00  0.00     0.277 HD
ATOM     16  H21 <0> d   1      17.239  -0.698   7.677  0.00  0.00     0.277 HD
ATOM     17  C17 <0> d   1      18.880   1.233   7.021  0.00  0.00     0.027 C 
ATOM     18  C16 <0> d   1      19.037   1.822   8.425  0.00  0.00     0.004 C 
ATOM     19  C15 <0> d   1      18.081   1.101   9.380  0.00  0.00     0.034 C 
ENDBRANCH   1  12
TORSDOF 4
ENDMDL
MODEL 9
REMARK VINA RESULT:      -6.0      2.393      3.725
REMARK  4 active torsions:
REMARK  status: ('A' for Active; 'I' for Inactive)
REMARK    1  A    between atoms: O2_2  and  C3_3 
REMARK    2  A    between atoms: C3_3  and  C5_5 
REMARK    3  A    between atoms: C5_5  and  C7_6 
REMARK    4  A    between atoms: C5_5  and  C13_12 
ROOT
ATOM      1  C5  <0> d   1      17.529  -0.951  11.366  0.00  0.00     0.149 C 
ENDROOT
BRANCH   1   2
ATOM      2  C3  <0> d   1      17.839  -2.412  11.161  0.00  0.00     0.269 C 
ATOM      3  O4  <0> d   1      17.006  -3.248  11.419  0.00  0.00    -0.264 OA
BRANCH   2   4
ATOM      4  O2  <0> d   1      19.040  -2.783  10.691  0.00  0.00    -0.326 OA
ATOM      5  C1  <0> d   1      19.547  -4.073  11.124  0.00  0.00     0.213 C 
ENDBRANCH   2   4
ENDBRANCH   1   2
BRANCH   1   6
ATOM      6  C7  <0> d   1      18.002  -0.164  10.171  0.00  0.00    -0.043 A 
ATOM      7  C12 <0> d   1      19.030   0.749  10.307  0.00  0.00     0.008 A 
ATOM      8  C11 <0> d   1      19.465   1.468   9.209  0.00  0.00     0.001 A 
ATOM      9  C10 <0> d   1      18.866   1.281   7.977  0.00  0.00     0.000 A 
ATOM     10  C9  <0> d   1      17.834   0.370   7.843  0.00  0.00     0.001 A 
ATOM     11  C8  <0> d   1      17.401  -0.351   8.940  0.00  0.00     0.008 A 
ENDBRANCH   1   6
BRANCH   1  12
ATOM     12  C13 <0> d   1      18.244  -0.449  12.622  0.00  0.00     0.203 C 
ATOM     13  N19 <0> d   1      17.400   0.541  13.302  0.00  0.00    -0.070 N 
ATOM     14  C18 <0> d   1      18.109   1.086  14.465  0.00  0.00     0.232 C 
ATOM     15  H20 <0> d   1      17.181   1.290  12.662  0.00  0.00     0.277 HD
ATOM     16  H21 <0> d   1      16.545   0.100  13.607  0.00  0.00     0.277 HD
ATOM     17  C17 <0> d   1      18.373  -0.033  15.476  0.00  0.00     0.027 C 
ATOM     18  C16 <0> d   1      19.228  -1.119  14.817  0.00  0.00     0.004 C 
ATOM     19  C15 <0> d   1      18.511  -1.626  13.561  0.00  0.00     0.034 C 
ENDBRANCH   1  12
TORSDOF 4
ENDMDL
