MODEL 1
REMARK VINA RESULT:      -3.0      0.000      0.000
REMARK  0 active torsions:
REMARK  status: ('A' for Active; 'I' for Inactive)
REMARK       I    between atoms: N1_1  and  C2_2 
REMARK       I    between atoms: C2_2  and  N3_3 
ROOT
ATOM      1  N1  ZIN A   1      21.124  -0.482  10.212  0.00  0.00    -0.352 N 
ATOM      2  C2  ZIN A   1      20.722  -0.094  11.439  0.00  0.00     0.311 C 
ATOM      3  N3  ZIN A   1      21.540   0.645  12.214  0.00  0.00    -0.352 N 
ATOM      4  O4  ZIN A   1      19.621  -0.411  11.846  0.00  0.00    -0.248 OA
ATOM      5  H5  ZIN A   1      22.002  -0.229   9.887  0.00  0.00     0.160 HD
ATOM      6  H6  ZIN A   1      20.536  -1.017   9.656  0.00  0.00     0.160 HD
ATOM      7  H7  ZIN A   1      22.418   0.898  11.889  0.00  0.00     0.160 HD
ATOM      8  H8  ZIN A   1      21.250   0.924  13.097  0.00  0.00     0.160 HD
ENDROOT
TORSDOF 0
ENDMDL
MODEL 2
REMARK VINA RESULT:      -2.8      1.473      1.843
REMARK  0 active torsions:
REMARK  status: ('A' for Active; 'I' for Inactive)
REMARK       I    between atoms: N1_1  and  C2_2 
REMARK       I    between atoms: C2_2  and  N3_3 
ROOT
ATOM      1  N1  ZIN A   1      21.537   0.535  12.140  0.00  0.00    -0.352 N 
ATOM      2  C2  ZIN A   1      20.399   1.244  11.997  0.00  0.00     0.311 C 
ATOM      3  N3  ZIN A   1      20.457   2.565  11.738  0.00  0.00    -0.352 N 
ATOM      4  O4  ZIN A   1      19.322   0.691  12.102  0.00  0.00    -0.248 OA
ATOM      5  H5  ZIN A   1      22.397   0.976  12.056  0.00  0.00     0.160 HD
ATOM      6  H6  ZIN A   1      21.495  -0.415  12.331  0.00  0.00     0.160 HD
ATOM      7  H7  ZIN A   1      21.316   3.006  11.653  0.00  0.00     0.160 HD
ATOM      8  H8  ZIN A   1      19.638   3.075  11.634  0.00  0.00     0.160 HD
ENDROOT
TORSDOF 0
ENDMDL
MODEL 3
REMARK VINA RESULT:      -2.7      1.508      1.675
REMARK  0 active torsions:
REMARK  status: ('A' for Active; 'I' for Inactive)
REMARK       I    between atoms: N1_1  and  C2_2 
REMARK       I    between atoms: C2_2  and  N3_3 
ROOT
ATOM      1  N1  ZIN A   1      20.414  -2.510  11.275  0.00  0.00    -0.352 N 
ATOM      2  C2  ZIN A   1      20.393  -1.187  11.019  0.00  0.00     0.311 C 
ATOM      3  N3  ZIN A   1      21.547  -0.494  10.960  0.00  0.00    -0.352 N 
ATOM      4  O4  ZIN A   1      19.334  -0.618  10.843  0.00  0.00    -0.248 OA
ATOM      5  H5  ZIN A   1      21.260  -2.964  11.415  0.00  0.00     0.160 HD
ATOM      6  H6  ZIN A   1      19.583  -3.008  11.322  0.00  0.00     0.160 HD
ATOM      7  H7  ZIN A   1      22.394  -0.947  11.100  0.00  0.00     0.160 HD
ATOM      8  H8  ZIN A   1      21.532   0.459  10.776  0.00  0.00     0.160 HD
ENDROOT
TORSDOF 0
ENDMDL
MODEL 4
REMARK VINA RESULT:      -2.6      6.878      7.022
REMARK  0 active torsions:
REMARK  status: ('A' for Active; 'I' for Inactive)
REMARK       I    between atoms: N1_1  and  C2_2 
REMARK       I    between atoms: C2_2  and  N3_3 
ROOT
ATOM      1  N1  ZIN A   1      18.399   1.185  17.071  0.00  0.00    -0.352 N 
ATOM      2  C2  ZIN A   1      19.280   0.866  18.041  0.00  0.00     0.311 C 
ATOM      3  N3  ZIN A   1      19.581  -0.426  18.278  0.00  0.00    -0.352 N 
ATOM      4  O4  ZIN A   1      19.802   1.743  18.700  0.00  0.00    -0.248 OA
ATOM      5  H5  ZIN A   1      17.983   0.485  16.545  0.00  0.00     0.160 HD
ATOM      6  H6  ZIN A   1      18.179   2.115  16.903  0.00  0.00     0.160 HD
ATOM      7  H7  ZIN A   1      19.165  -1.126  17.752  0.00  0.00     0.160 HD
ATOM      8  H8  ZIN A   1      20.215  -0.655  18.976  0.00  0.00     0.160 HD
ENDROOT
TORSDOF 0
ENDMDL
MODEL 5
REMARK VINA RESULT:      -2.5      6.978      7.009
REMARK  0 active torsions:
REMARK  status: ('A' for Active; 'I' for Inactive)
REMARK       I    between atoms: N1_1  and  C2_2 
REMARK       I    between atoms: C2_2  and  N3_3 
ROOT
ATOM      1  N1  ZIN A   1      17.899  -0.974   5.392  0.00  0.00    -0.352 N 
ATOM      2  C2  ZIN A   1      19.108  -0.755   4.839  0.00  0.00     0.311 C 
ATOM      3  N3  ZIN A   1      19.630   0.487   4.831  0.00  0.00    -0.352 N 
ATOM      4  O4  ZIN A   1      19.728  -1.677   4.347  0.00  0.00    -0.248 OA
ATOM      5  H5  ZIN A   1      17.404  -0.239   5.785  0.00  0.00     0.160 HD
ATOM      6  H6  ZIN A   1      17.522  -1.868   5.394  0.00  0.00     0.160 HD
ATOM      7  H7  ZIN A   1      19.136   1.224   5.224  0.00  0.00     0.160 HD
ATOM      8  H8  ZIN A   1      20.501   0.645   4.433  0.00  0.00     0.160 HD
ENDROOT
TORSDOF 0
ENDMDL
MODEL 6
REMARK VINA RESULT:      -2.4      7.152      7.333
REMARK  0 active torsions:
REMARK  status: ('A' for Active; 'I' for Inactive)
REMARK       I    between atoms: N1_1  and  C2_2 
REMARK       I    between atoms: C2_2  and  N3_3 
ROOT
ATOM      1  N1  ZIN A   1      21.933   5.738  15.566  0.00  0.00    -0.352 N 
ATOM      2  C2  ZIN A   1      20.654   5.519  15.931  0.00  0.00     0.311 C 
ATOM      3  N3  ZIN A   1      20.197   4.258  16.063  0.00  0.00    -0.352 N 
ATOM      4  O4  ZIN A   1      19.912   6.459  16.139  0.00  0.00    -0.248 OA
ATOM      5  H5  ZIN A   1      22.525   4.988  15.400  0.00  0.00     0.160 HD
ATOM      6  H6  ZIN A   1      22.260   6.646  15.467  0.00  0.00     0.160 HD
ATOM      7  H7  ZIN A   1      20.789   3.507  15.897  0.00  0.00     0.160 HD
ATOM      8  H8  ZIN A   1      19.276   4.100  16.326  0.00  0.00     0.160 HD
ENDROOT
TORSDOF 0
ENDMDL
MODEL 7
REMARK VINA RESULT:      -2.4      7.376      7.932
REMARK  0 active torsions:
REMARK  status: ('A' for Active; 'I' for Inactive)
REMARK       I    between atoms: N1_1  and  C2_2 
REMARK       I    between atoms: C2_2  and  N3_3 
ROOT
ATOM      1  N1  ZIN A   1      18.003  -2.611   5.626  0.00  0.00    -0.352 N 
ATOM      2  C2  ZIN A   1      18.790  -2.646   4.531  0.00  0.00     0.311 C 
ATOM      3  N3  ZIN A   1      18.632  -3.627   3.620  0.00  0.00    -0.352 N 
ATOM      4  O4  ZIN A   1      19.641  -1.795   4.366  0.00  0.00    -0.248 OA
ATOM      5  H5  ZIN A   1      17.324  -3.290   5.757  0.00  0.00     0.160 HD
ATOM      6  H6  ZIN A   1      18.120  -1.907   6.283  0.00  0.00     0.160 HD
ATOM      7  H7  ZIN A   1      17.952  -4.307   3.751  0.00  0.00     0.160 HD
ATOM      8  H8  ZIN A   1      19.197  -3.653   2.833  0.00  0.00     0.160 HD
ENDROOT
TORSDOF 0
ENDMDL
MODEL 8
REMARK VINA RESULT:      -2.3      4.029      4.239
REMARK  0 active torsions:
REMARK  status: ('A' for Active; 'I' for Inactive)
REMARK       I    between atoms: N1_1  and  C2_2 
REMARK       I    between atoms: C2_2  and  N3_3 
ROOT
ATOM      1  N1  ZIN A   1      20.081  -4.675   9.742  0.00  0.00    -0.352 N 
ATOM      2  C2  ZIN A   1      19.917  -4.226  11.002  0.00  0.00     0.311 C 
ATOM      3  N3  ZIN A   1      20.784  -3.331  11.517  0.00  0.00    -0.352 N 
ATOM      4  O4  ZIN A   1      18.988  -4.627  11.675  0.00  0.00    -0.248 OA
ATOM      5  H5  ZIN A   1      20.822  -4.354   9.205  0.00  0.00     0.160 HD
ATOM      6  H6  ZIN A   1      19.459  -5.321   9.373  0.00  0.00     0.160 HD
ATOM      7  H7  ZIN A   1      21.526  -3.010  10.981  0.00  0.00     0.160 HD
ATOM      8  H8  ZIN A   1      20.666  -3.008  12.424  0.00  0.00     0.160 HD
ENDROOT
TORSDOF 0
ENDMDL
MODEL 9
REMARK VINA RESULT:      -2.3      2.297      2.662
REMARK  0 active torsions:
REMARK  status: ('A' for Active; 'I' for Inactive)
REMARK       I    between atoms: N1_1  and  C2_2 
REMARK       I    between atoms: C2_2  and  N3_3 
ROOT
ATOM      1  N1  ZIN A   1      20.954  -0.512  10.360  0.00  0.00    -0.352 N 
ATOM      2  C2  ZIN A   1      20.153  -0.162   9.334  0.00  0.00     0.311 C 
ATOM      3  N3  ZIN A   1      19.861   1.136   9.120  0.00  0.00    -0.352 N 
ATOM      4  O4  ZIN A   1      19.693  -1.017   8.602  0.00  0.00    -0.248 OA
ATOM      5  H5  ZIN A   1      21.321   0.170  10.944  0.00  0.00     0.160 HD
ATOM      6  H6  ZIN A   1      21.161  -1.447  10.516  0.00  0.00     0.160 HD
ATOM      7  H7  ZIN A   1      20.227   1.819   9.704  0.00  0.00     0.160 HD
ATOM      8  H8  ZIN A   1      19.284   1.388   8.382  0.00  0.00     0.160 HD
ENDROOT
TORSDOF 0
ENDMDL
