MODEL 1
REMARK VINA RESULT:      -8.1      0.000      0.000
REMARK  11 active torsions:
REMARK  status: ('A' for Active; 'I' for Inactive)
REMARK    1  A    between atoms: O2_2  and  C3_3 
REMARK    2  A    between atoms: C6_6  and  C7_7 
REMARK    3  A    between atoms: C7_7  and  C8_8 
REMARK    4  A    between atoms: C8_8  and  N11_10 
REMARK    5  A    between atoms: N11_10  and  C14_13 
REMARK    6  A    between atoms: C14_13  and  C15_14 
REMARK    7  A    between atoms: C15_14  and  O17_15 
REMARK    8  A    between atoms: C15_14  and  C18_16 
REMARK    9  A    between atoms: C21_19  and  O22_20 
REMARK   10  A    between atoms: C23_21  and  N24_22 
REMARK   11  A    between atoms: N24_22  and  C25_23 
ROOT
ATOM      1  C14 ZIN A   1      19.405   0.481  11.201  0.00  0.00     0.269 C 
ENDROOT
BRANCH   1   2
ATOM      2  N11 ZIN A   1      19.946   1.735  10.659  0.00  0.00    -0.068 N 
ATOM      3  H12 ZIN A   1      20.884   1.577  10.320  0.00  0.00     0.277 HD
ATOM      4  H13 ZIN A   1      19.965   2.436  11.384  0.00  0.00     0.277 HD
BRANCH   2   5
ATOM      5  C8  ZIN A   1      19.098   2.198   9.553  0.00  0.00     0.186 C 
ATOM      6  C10 ZIN A   1      18.380   3.484   9.964  0.00  0.00     0.040 C 
BRANCH   5   7
ATOM      7  C7  ZIN A   1      18.064   1.121   9.216  0.00  0.00     0.071 C 
BRANCH   7   8
ATOM      8  C6  ZIN A   1      18.464   0.422   7.942  0.00  0.00    -0.056 A 
ATOM      9  C5  ZIN A   1      18.861   1.161   6.844  0.00  0.00     0.010 A 
ATOM     10  C4  ZIN A   1      19.227   0.522   5.675  0.00  0.00     0.037 A 
ATOM     11  C3  ZIN A   1      19.196  -0.863   5.604  0.00  0.00     0.068 A 
ATOM     12  C29 ZIN A   1      18.792  -1.602   6.706  0.00  0.00     0.037 A 
ATOM     13  C28 ZIN A   1      18.430  -0.959   7.874  0.00  0.00     0.010 A 
BRANCH  11  14
ATOM     14  O2  ZIN A   1      19.556  -1.493   4.456  0.00  0.00    -0.356 OA
ATOM     15  C1  ZIN A   1      19.031  -2.804   4.243  0.00  0.00     0.210 C 
ENDBRANCH  11  14
ENDBRANCH   7   8
ENDBRANCH   5   7
ENDBRANCH   2   5
ENDBRANCH   1   2
BRANCH   1  16
ATOM     16  C15 ZIN A   1      20.383  -0.095  12.225  0.00  0.00     0.176 C 
BRANCH  16  17
ATOM     17  O17 ZIN A   1      21.578   0.687  12.237  0.00  0.00    -0.389 OA
ATOM     18  H42 ZIN A   1      22.132   0.548  13.018  0.00  0.00     0.210 HD
ENDBRANCH  16  17
BRANCH  16  19
ATOM     19  C18 ZIN A   1      19.751  -0.068  13.594  0.00  0.00    -0.026 A 
ATOM     20  C27 ZIN A   1      19.319   1.131  14.130  0.00  0.00     0.042 A 
ATOM     21  C23 ZIN A   1      18.732   1.158  15.385  0.00  0.00     0.068 A 
ATOM     22  C21 ZIN A   1      18.591  -0.024  16.110  0.00  0.00     0.092 A 
ATOM     23  C20 ZIN A   1      19.031  -1.221  15.568  0.00  0.00     0.039 A 
ATOM     24  C19 ZIN A   1      19.610  -1.240  14.312  0.00  0.00     0.012 A 
BRANCH  21  25
ATOM     25  N24 ZIN A   1      18.289   2.371  15.929  0.00  0.00    -0.332 N 
ATOM     26  H46 ZIN A   1      17.339   2.565  15.972  0.00  0.00     0.168 HD
BRANCH  25  27
ATOM     27  C25 ZIN A   1      19.182   3.268  16.391  0.00  0.00     0.353 C 
ATOM     28  O26 ZIN A   1      19.878   2.995  17.346  0.00  0.00    -0.283 OA
ENDBRANCH  25  27
ENDBRANCH  21  25
BRANCH  22  29
ATOM     29  O22 ZIN A   1      18.021  -0.005  17.344  0.00  0.00    -0.358 OA
ATOM     30  H45 ZIN A   1      17.256   0.582  17.414  0.00  0.00     0.217 HD
ENDBRANCH  22  29
ENDBRANCH  16  19
ENDBRANCH   1  16
TORSDOF 11
ENDMDL
MODEL 2
REMARK VINA RESULT:      -7.9      2.340      5.115
REMARK  11 active torsions:
REMARK  status: ('A' for Active; 'I' for Inactive)
REMARK    1  A    between atoms: O2_2  and  C3_3 
REMARK    2  A    between atoms: C6_6  and  C7_7 
REMARK    3  A    between atoms: C7_7  and  C8_8 
REMARK    4  A    between atoms: C8_8  and  N11_10 
REMARK    5  A    between atoms: N11_10  and  C14_13 
REMARK    6  A    between atoms: C14_13  and  C15_14 
REMARK    7  A    between atoms: C15_14  and  O17_15 
REMARK    8  A    between atoms: C15_14  and  C18_16 
REMARK    9  A    between atoms: C21_19  and  O22_20 
REMARK   10  A    between atoms: C23_21  and  N24_22 
REMARK   11  A    between atoms: N24_22  and  C25_23 
ROOT
ATOM      1  C14 ZIN A   1      19.167  -0.336  11.440  0.00  0.00     0.269 C 
ENDROOT
BRANCH   1   2
ATOM      2  N11 ZIN A   1      19.784   0.496  10.399  0.00  0.00    -0.068 N 
ATOM      3  H12 ZIN A   1      20.330  -0.088   9.782  0.00  0.00     0.277 HD
ATOM      4  H13 ZIN A   1      20.385   1.183  10.828  0.00  0.00     0.277 HD
BRANCH   2   5
ATOM      5  C8  ZIN A   1      18.734   1.176   9.628  0.00  0.00     0.186 C 
ATOM      6  C10 ZIN A   1      18.601   0.515   8.254  0.00  0.00     0.040 C 
BRANCH   5   7
ATOM      7  C7  ZIN A   1      19.103   2.650   9.452  0.00  0.00     0.071 C 
BRANCH   7   8
ATOM      8  C6  ZIN A   1      18.743   3.411  10.703  0.00  0.00    -0.056 A 
ATOM      9  C5  ZIN A   1      17.433   3.793  10.924  0.00  0.00     0.010 A 
ATOM     10  C4  ZIN A   1      17.101   4.491  12.069  0.00  0.00     0.037 A 
ATOM     11  C3  ZIN A   1      18.082   4.808  12.997  0.00  0.00     0.068 A 
ATOM     12  C29 ZIN A   1      19.397   4.427  12.769  0.00  0.00     0.037 A 
ATOM     13  C28 ZIN A   1      19.724   3.726  11.624  0.00  0.00     0.010 A 
BRANCH  11  14
ATOM     14  O2  ZIN A   1      17.757   5.494  14.124  0.00  0.00    -0.356 OA
ATOM     15  C1  ZIN A   1      16.388   5.464  14.530  0.00  0.00     0.210 C 
ENDBRANCH  11  14
ENDBRANCH   7   8
ENDBRANCH   5   7
ENDBRANCH   2   5
ENDBRANCH   1   2
BRANCH   1  16
ATOM     16  C15 ZIN A   1      20.090  -0.394  12.659  0.00  0.00     0.176 C 
BRANCH  16  17
ATOM     17  O17 ZIN A   1      21.127   0.578  12.519  0.00  0.00    -0.389 OA
ATOM     18  H42 ZIN A   1      21.227   0.920  11.620  0.00  0.00     0.210 HD
ENDBRANCH  16  17
BRANCH  16  19
ATOM     19  C18 ZIN A   1      19.294  -0.103  13.905  0.00  0.00    -0.026 A 
ATOM     20  C27 ZIN A   1      19.178   1.197  14.362  0.00  0.00     0.042 A 
ATOM     21  C23 ZIN A   1      18.441   1.467  15.504  0.00  0.00     0.068 A 
ATOM     22  C21 ZIN A   1      17.829   0.424  16.198  0.00  0.00     0.092 A 
ATOM     23  C20 ZIN A   1      17.955  -0.876  15.737  0.00  0.00     0.039 A 
ATOM     24  C19 ZIN A   1      18.686  -1.137  14.593  0.00  0.00     0.012 A 
BRANCH  21  25
ATOM     25  N24 ZIN A   1      18.318   2.785  15.967  0.00  0.00    -0.332 N 
ATOM     26  H46 ZIN A   1      17.467   3.245  15.897  0.00  0.00     0.168 HD
BRANCH  25  27
ATOM     27  C25 ZIN A   1      19.382   3.410  16.507  0.00  0.00     0.353 C 
ATOM     28  O26 ZIN A   1      19.772   3.101  17.613  0.00  0.00    -0.283 OA
ENDBRANCH  25  27
ENDBRANCH  21  25
BRANCH  22  29
ATOM     29  O22 ZIN A   1      17.110   0.682  17.322  0.00  0.00    -0.358 OA
ATOM     30  H45 ZIN A   1      17.310   0.090  18.060  0.00  0.00     0.217 HD
ENDBRANCH  22  29
ENDBRANCH  16  19
ENDBRANCH   1  16
TORSDOF 11
ENDMDL
MODEL 3
REMARK VINA RESULT:      -7.9      2.735      5.150
REMARK  11 active torsions:
REMARK  status: ('A' for Active; 'I' for Inactive)
REMARK    1  A    between atoms: O2_2  and  C3_3 
REMARK    2  A    between atoms: C6_6  and  C7_7 
REMARK    3  A    between atoms: C7_7  and  C8_8 
REMARK    4  A    between atoms: C8_8  and  N11_10 
REMARK    5  A    between atoms: N11_10  and  C14_13 
REMARK    6  A    between atoms: C14_13  and  C15_14 
REMARK    7  A    between atoms: C15_14  and  O17_15 
REMARK    8  A    between atoms: C15_14  and  C18_16 
REMARK    9  A    between atoms: C21_19  and  O22_20 
REMARK   10  A    between atoms: C23_21  and  N24_22 
REMARK   11  A    between atoms: N24_22  and  C25_23 
ROOT
ATOM      1  C14 ZIN A   1      20.666  -0.462  11.110  0.00  0.00     0.269 C 
ENDROOT
BRANCH   1   2
ATOM      2  N11 ZIN A   1      20.466  -0.293   9.665  0.00  0.00    -0.068 N 
ATOM      3  H12 ZIN A   1      20.419  -1.200   9.224  0.00  0.00     0.277 HD
ATOM      4  H13 ZIN A   1      21.237   0.229   9.276  0.00  0.00     0.277 HD
BRANCH   2   5
ATOM      5  C8  ZIN A   1      19.212   0.433   9.424  0.00  0.00     0.186 C 
ATOM      6  C10 ZIN A   1      18.498  -0.169   8.212  0.00  0.00     0.040 C 
BRANCH   5   7
ATOM      7  C7  ZIN A   1      19.519   1.908   9.156  0.00  0.00     0.071 C 
BRANCH   7   8
ATOM      8  C6  ZIN A   1      19.024   2.743  10.309  0.00  0.00    -0.056 A 
ATOM      9  C5  ZIN A   1      17.688   3.088  10.387  0.00  0.00     0.010 A 
ATOM     10  C4  ZIN A   1      17.233   3.853  11.443  0.00  0.00     0.037 A 
ATOM     11  C3  ZIN A   1      18.117   4.275  12.425  0.00  0.00     0.068 A 
ATOM     12  C29 ZIN A   1      19.458   3.931  12.341  0.00  0.00     0.037 A 
ATOM     13  C28 ZIN A   1      19.909   3.162  11.285  0.00  0.00     0.010 A 
BRANCH  11  14
ATOM     14  O2  ZIN A   1      17.671   5.028  13.465  0.00  0.00    -0.356 OA
ATOM     15  C1  ZIN A   1      16.614   5.949  13.193  0.00  0.00     0.210 C 
ENDBRANCH  11  14
ENDBRANCH   7   8
ENDBRANCH   5   7
ENDBRANCH   2   5
ENDBRANCH   1   2
BRANCH   1  16
ATOM     16  C15 ZIN A   1      19.662  -1.482  11.649  0.00  0.00     0.176 C 
BRANCH  16  17
ATOM     17  O17 ZIN A   1      20.351  -2.675  12.027  0.00  0.00    -0.389 OA
ATOM     18  H42 ZIN A   1      20.665  -3.203  11.279  0.00  0.00     0.210 HD
ENDBRANCH  16  17
BRANCH  16  19
ATOM     19  C18 ZIN A   1      18.957  -0.907  12.850  0.00  0.00    -0.026 A 
ATOM     20  C27 ZIN A   1      19.118  -1.495  14.091  0.00  0.00     0.042 A 
ATOM     21  C23 ZIN A   1      18.475  -0.964  15.198  0.00  0.00     0.068 A 
ATOM     22  C21 ZIN A   1      17.657   0.155  15.055  0.00  0.00     0.092 A 
ATOM     23  C20 ZIN A   1      17.496   0.735  13.807  0.00  0.00     0.039 A 
ATOM     24  C19 ZIN A   1      18.146   0.203  12.708  0.00  0.00     0.012 A 
BRANCH  21  25
ATOM     25  N24 ZIN A   1      18.642  -1.554  16.459  0.00  0.00    -0.332 N 
ATOM     26  H46 ZIN A   1      18.143  -2.353  16.689  0.00  0.00     0.168 HD
BRANCH  25  27
ATOM     27  C25 ZIN A   1      19.495  -1.011  17.349  0.00  0.00     0.353 C 
ATOM     28  O26 ZIN A   1      19.069  -0.358  18.279  0.00  0.00    -0.283 OA
ENDBRANCH  25  27
ENDBRANCH  21  25
BRANCH  22  29
ATOM     29  O22 ZIN A   1      17.019   0.678  16.136  0.00  0.00    -0.358 OA
ATOM     30  H45 ZIN A   1      17.186   0.199  16.959  0.00  0.00     0.217 HD
ENDBRANCH  22  29
ENDBRANCH  16  19
ENDBRANCH   1  16
TORSDOF 11
ENDMDL
MODEL 4
REMARK VINA RESULT:      -7.8      2.599      5.053
REMARK  11 active torsions:
REMARK  status: ('A' for Active; 'I' for Inactive)
REMARK    1  A    between atoms: O2_2  and  C3_3 
REMARK    2  A    between atoms: C6_6  and  C7_7 
REMARK    3  A    between atoms: C7_7  and  C8_8 
REMARK    4  A    between atoms: C8_8  and  N11_10 
REMARK    5  A    between atoms: N11_10  and  C14_13 
REMARK    6  A    between atoms: C14_13  and  C15_14 
REMARK    7  A    between atoms: C15_14  and  O17_15 
REMARK    8  A    between atoms: C15_14  and  C18_16 
REMARK    9  A    between atoms: C21_19  and  O22_20 
REMARK   10  A    between atoms: C23_21  and  N24_22 
REMARK   11  A    between atoms: N24_22  and  C25_23 
ROOT
ATOM      1  C14 ZIN A   1      17.755  -0.895  10.581  0.00  0.00     0.269 C 
ENDROOT
BRANCH   1   2
ATOM      2  N11 ZIN A   1      18.767  -0.294   9.702  0.00  0.00    -0.068 N 
ATOM      3  H12 ZIN A   1      19.112  -0.993   9.060  0.00  0.00     0.277 HD
ATOM      4  H13 ZIN A   1      19.532   0.056  10.258  0.00  0.00     0.277 HD
BRANCH   2   5
ATOM      5  C8  ZIN A   1      18.166   0.812   8.945  0.00  0.00     0.186 C 
ATOM      6  C10 ZIN A   1      17.861   0.348   7.519  0.00  0.00     0.040 C 
BRANCH   5   7
ATOM      7  C7  ZIN A   1      19.141   1.990   8.902  0.00  0.00     0.071 C 
BRANCH   7   8
ATOM      8  C6  ZIN A   1      18.943   2.852  10.122  0.00  0.00    -0.056 A 
ATOM      9  C5  ZIN A   1      19.885   2.843  11.133  0.00  0.00     0.010 A 
ATOM     10  C4  ZIN A   1      19.705   3.632  12.252  0.00  0.00     0.037 A 
ATOM     11  C3  ZIN A   1      18.578   4.434  12.362  0.00  0.00     0.068 A 
ATOM     12  C29 ZIN A   1      17.632   4.437  11.347  0.00  0.00     0.037 A 
ATOM     13  C28 ZIN A   1      17.818   3.649  10.228  0.00  0.00     0.010 A 
BRANCH  11  14
ATOM     14  O2  ZIN A   1      18.400   5.211  13.462  0.00  0.00    -0.356 OA
ATOM     15  C1  ZIN A   1      19.576   5.677  14.125  0.00  0.00     0.210 C 
ENDBRANCH  11  14
ENDBRANCH   7   8
ENDBRANCH   5   7
ENDBRANCH   2   5
ENDBRANCH   1   2
BRANCH   1  16
ATOM     16  C15 ZIN A   1      17.176   0.180  11.502  0.00  0.00     0.176 C 
BRANCH  16  17
ATOM     17  O17 ZIN A   1      15.752   0.068  11.529  0.00  0.00    -0.389 OA
ATOM     18  H42 ZIN A   1      15.423  -0.642  12.098  0.00  0.00     0.210 HD
ENDBRANCH  16  17
BRANCH  16  19
ATOM     19  C18 ZIN A   1      17.721  -0.005  12.895  0.00  0.00    -0.026 A 
ATOM     20  C27 ZIN A   1      17.595   1.010  13.825  0.00  0.00     0.042 A 
ATOM     21  C23 ZIN A   1      18.090   0.839  15.108  0.00  0.00     0.068 A 
ATOM     22  C21 ZIN A   1      18.725  -0.353  15.454  0.00  0.00     0.092 A 
ATOM     23  C20 ZIN A   1      18.852  -1.363  14.514  0.00  0.00     0.039 A 
ATOM     24  C19 ZIN A   1      18.350  -1.187  13.238  0.00  0.00     0.012 A 
BRANCH  21  25
ATOM     25  N24 ZIN A   1      17.959   1.864  16.055  0.00  0.00    -0.332 N 
ATOM     26  H46 ZIN A   1      17.136   1.956  16.560  0.00  0.00     0.168 HD
BRANCH  25  27
ATOM     27  C25 ZIN A   1      18.978   2.721  16.264  0.00  0.00     0.353 C 
ATOM     28  O26 ZIN A   1      19.711   2.573  17.219  0.00  0.00    -0.283 OA
ENDBRANCH  25  27
ENDBRANCH  21  25
BRANCH  22  29
ATOM     29  O22 ZIN A   1      19.218  -0.525  16.709  0.00  0.00    -0.358 OA
ATOM     30  H45 ZIN A   1      19.292  -1.451  16.978  0.00  0.00     0.217 HD
ENDBRANCH  22  29
ENDBRANCH  16  19
ENDBRANCH   1  16
TORSDOF 11
ENDMDL
MODEL 5
REMARK VINA RESULT:      -7.8      2.248      8.694
REMARK  11 active torsions:
REMARK  status: ('A' for Active; 'I' for Inactive)
REMARK    1  A    between atoms: O2_2  and  C3_3 
REMARK    2  A    between atoms: C6_6  and  C7_7 
REMARK    3  A    between atoms: C7_7  and  C8_8 
REMARK    4  A    between atoms: C8_8  and  N11_10 
REMARK    5  A    between atoms: N11_10  and  C14_13 
REMARK    6  A    between atoms: C14_13  and  C15_14 
REMARK    7  A    between atoms: C15_14  and  O17_15 
REMARK    8  A    between atoms: C15_14  and  C18_16 
REMARK    9  A    between atoms: C21_19  and  O22_20 
REMARK   10  A    between atoms: C23_21  and  N24_22 
REMARK   11  A    between atoms: N24_22  and  C25_23 
ROOT
ATOM      1  C14 ZIN A   1      19.972  -2.120  11.109  0.00  0.00     0.269 C 
ENDROOT
BRANCH   1   2
ATOM      2  N11 ZIN A   1      19.716  -2.277  12.546  0.00  0.00    -0.068 N 
ATOM      3  H12 ZIN A   1      20.075  -1.473  13.041  0.00  0.00     0.277 HD
ATOM      4  H13 ZIN A   1      20.176  -3.109  12.882  0.00  0.00     0.277 HD
BRANCH   2   5
ATOM      5  C8  ZIN A   1      18.270  -2.389  12.778  0.00  0.00     0.186 C 
ATOM      6  C10 ZIN A   1      17.624  -3.146  11.616  0.00  0.00     0.040 C 
BRANCH   5   7
ATOM      7  C7  ZIN A   1      17.659  -0.991  12.881  0.00  0.00     0.071 C 
BRANCH   7   8
ATOM      8  C6  ZIN A   1      18.155  -0.315  14.133  0.00  0.00    -0.056 A 
ATOM      9  C5  ZIN A   1      18.016  -0.942  15.357  0.00  0.00     0.010 A 
ATOM     10  C4  ZIN A   1      18.470  -0.324  16.506  0.00  0.00     0.037 A 
ATOM     11  C3  ZIN A   1      19.067   0.926  16.431  0.00  0.00     0.068 A 
ATOM     12  C29 ZIN A   1      19.201   1.555  15.201  0.00  0.00     0.037 A 
ATOM     13  C28 ZIN A   1      18.749   0.931  14.054  0.00  0.00     0.010 A 
BRANCH  11  14
ATOM     14  O2  ZIN A   1      19.514   1.536  17.560  0.00  0.00    -0.356 OA
ATOM     15  C1  ZIN A   1      18.538   1.875  18.545  0.00  0.00     0.210 C 
ENDBRANCH  11  14
ENDBRANCH   7   8
ENDBRANCH   5   7
ENDBRANCH   2   5
ENDBRANCH   1   2
BRANCH   1  16
ATOM     16  C15 ZIN A   1      20.342  -0.666  10.812  0.00  0.00     0.176 C 
BRANCH  16  17
ATOM     17  O17 ZIN A   1      21.765  -0.536  10.764  0.00  0.00    -0.389 OA
ATOM     18  H42 ZIN A   1      22.087  -0.011  10.019  0.00  0.00     0.210 HD
ENDBRANCH  16  17
BRANCH  16  19
ATOM     19  C18 ZIN A   1      19.756  -0.259   9.485  0.00  0.00    -0.026 A 
ATOM     20  C27 ZIN A   1      19.327  -1.226   8.595  0.00  0.00     0.042 A 
ATOM     21  C23 ZIN A   1      18.782  -0.854   7.376  0.00  0.00     0.068 A 
ATOM     22  C21 ZIN A   1      18.679   0.496   7.046  0.00  0.00     0.092 A 
ATOM     23  C20 ZIN A   1      19.117   1.459   7.941  0.00  0.00     0.039 A 
ATOM     24  C19 ZIN A   1      19.653   1.080   9.157  0.00  0.00     0.012 A 
BRANCH  21  25
ATOM     25  N24 ZIN A   1      18.342  -1.832   6.473  0.00  0.00    -0.332 N 
ATOM     26  H46 ZIN A   1      17.413  -2.112   6.477  0.00  0.00     0.168 HD
BRANCH  25  27
ATOM     27  C25 ZIN A   1      19.210  -2.383   5.602  0.00  0.00     0.353 C 
ATOM     28  O26 ZIN A   1      19.639  -1.728   4.676  0.00  0.00    -0.283 OA
ENDBRANCH  25  27
ENDBRANCH  21  25
BRANCH  22  29
ATOM     29  O22 ZIN A   1      18.151   0.868   5.849  0.00  0.00    -0.358 OA
ATOM     30  H45 ZIN A   1      17.230   0.600   5.727  0.00  0.00     0.217 HD
ENDBRANCH  22  29
ENDBRANCH  16  19
ENDBRANCH   1  16
TORSDOF 11
ENDMDL
MODEL 6
REMARK VINA RESULT:      -7.8      2.336      3.057
REMARK  11 active torsions:
REMARK  status: ('A' for Active; 'I' for Inactive)
REMARK    1  A    between atoms: O2_2  and  C3_3 
REMARK    2  A    between atoms: C6_6  and  C7_7 
REMARK    3  A    between atoms: C7_7  and  C8_8 
REMARK    4  A    between atoms: C8_8  and  N11_10 
REMARK    5  A    between atoms: N11_10  and  C14_13 
REMARK    6  A    between atoms: C14_13  and  C15_14 
REMARK    7  A    between atoms: C15_14  and  O17_15 
REMARK    8  A    between atoms: C15_14  and  C18_16 
REMARK    9  A    between atoms: C21_19  and  O22_20 
REMARK   10  A    between atoms: C23_21  and  N24_22 
REMARK   11  A    between atoms: N24_22  and  C25_23 
ROOT
ATOM      1  C14 ZIN A   1      19.858   2.231  11.967  0.00  0.00     0.269 C 
ENDROOT
BRANCH   1   2
ATOM      2  N11 ZIN A   1      18.650   2.278  11.134  0.00  0.00    -0.068 N 
ATOM      3  H12 ZIN A   1      18.561   3.195  10.722  0.00  0.00     0.277 HD
ATOM      4  H13 ZIN A   1      17.839   2.087  11.704  0.00  0.00     0.277 HD
BRANCH   2   5
ATOM      5  C8  ZIN A   1      18.748   1.271  10.069  0.00  0.00     0.186 C 
ATOM      6  C10 ZIN A   1      19.068   1.961   8.742  0.00  0.00     0.040 C 
BRANCH   5   7
ATOM      7  C7  ZIN A   1      17.419   0.523   9.949  0.00  0.00     0.071 C 
BRANCH   7   8
ATOM      8  C6  ZIN A   1      17.657  -0.956  10.112  0.00  0.00    -0.056 A 
ATOM      9  C5  ZIN A   1      17.412  -1.564  11.329  0.00  0.00     0.010 A 
ATOM     10  C4  ZIN A   1      17.630  -2.920  11.481  0.00  0.00     0.037 A 
ATOM     11  C3  ZIN A   1      18.095  -3.671  10.411  0.00  0.00     0.068 A 
ATOM     12  C29 ZIN A   1      18.344  -3.057   9.193  0.00  0.00     0.037 A 
ATOM     13  C28 ZIN A   1      18.121  -1.701   9.044  0.00  0.00     0.010 A 
BRANCH  11  14
ATOM     14  O2  ZIN A   1      18.309  -5.005  10.559  0.00  0.00    -0.356 OA
ATOM     15  C1  ZIN A   1      18.680  -5.735   9.389  0.00  0.00     0.210 C 
ENDBRANCH  11  14
ENDBRANCH   7   8
ENDBRANCH   5   7
ENDBRANCH   2   5
ENDBRANCH   1   2
BRANCH   1  16
ATOM     16  C15 ZIN A   1      20.215   0.775  12.268  0.00  0.00     0.176 C 
BRANCH  16  17
ATOM     17  O17 ZIN A   1      21.634   0.614  12.236  0.00  0.00    -0.389 OA
ATOM     18  H42 ZIN A   1      22.122   1.341  12.647  0.00  0.00     0.210 HD
ENDBRANCH  16  17
BRANCH  16  19
ATOM     19  C18 ZIN A   1      19.699   0.404  13.635  0.00  0.00    -0.026 A 
ATOM     20  C27 ZIN A   1      19.289   1.394  14.509  0.00  0.00     0.042 A 
ATOM     21  C23 ZIN A   1      18.809   1.054  15.764  0.00  0.00     0.068 A 
ATOM     22  C21 ZIN A   1      18.751  -0.285  16.146  0.00  0.00     0.092 A 
ATOM     23  C20 ZIN A   1      19.169  -1.270  15.266  0.00  0.00     0.039 A 
ATOM     24  C19 ZIN A   1      19.641  -0.924  14.014  0.00  0.00     0.012 A 
BRANCH  21  25
ATOM     25  N24 ZIN A   1      18.388   2.055  16.651  0.00  0.00    -0.332 N 
ATOM     26  H46 ZIN A   1      17.458   2.328  16.668  0.00  0.00     0.168 HD
BRANCH  25  27
ATOM     27  C25 ZIN A   1      19.277   2.637  17.480  0.00  0.00     0.353 C 
ATOM     28  O26 ZIN A   1      19.641   2.060  18.483  0.00  0.00    -0.283 OA
ENDBRANCH  25  27
ENDBRANCH  21  25
BRANCH  22  29
ATOM     29  O22 ZIN A   1      18.286  -0.624  17.378  0.00  0.00    -0.358 OA
ATOM     30  H45 ZIN A   1      17.327  -0.543  17.471  0.00  0.00     0.217 HD
ENDBRANCH  22  29
ENDBRANCH  16  19
ENDBRANCH   1  16
TORSDOF 11
ENDMDL
MODEL 7
REMARK VINA RESULT:      -7.7      2.613      4.675
REMARK  11 active torsions:
REMARK  status: ('A' for Active; 'I' for Inactive)
REMARK    1  A    between atoms: O2_2  and  C3_3 
REMARK    2  A    between atoms: C6_6  and  C7_7 
REMARK    3  A    between atoms: C7_7  and  C8_8 
REMARK    4  A    between atoms: C8_8  and  N11_10 
REMARK    5  A    between atoms: N11_10  and  C14_13 
REMARK    6  A    between atoms: C14_13  and  C15_14 
REMARK    7  A    between atoms: C15_14  and  O17_15 
REMARK    8  A    between atoms: C15_14  and  C18_16 
REMARK    9  A    between atoms: C21_19  and  O22_20 
REMARK   10  A    between atoms: C23_21  and  N24_22 
REMARK   11  A    between atoms: N24_22  and  C25_23 
ROOT
ATOM      1  C14 ZIN A   1      19.544   1.721  12.276  0.00  0.00     0.269 C 
ENDROOT
BRANCH   1   2
ATOM      2  N11 ZIN A   1      20.019   2.832  11.441  0.00  0.00    -0.068 N 
ATOM      3  H12 ZIN A   1      20.805   2.524  10.887  0.00  0.00     0.277 HD
ATOM      4  H13 ZIN A   1      20.304   3.599  12.030  0.00  0.00     0.277 HD
BRANCH   2   5
ATOM      5  C8  ZIN A   1      18.937   3.274  10.551  0.00  0.00     0.186 C 
ATOM      6  C10 ZIN A   1      18.335   4.575  11.087  0.00  0.00     0.040 C 
BRANCH   5   7
ATOM      7  C7  ZIN A   1      17.853   2.197  10.489  0.00  0.00     0.071 C 
BRANCH   7   8
ATOM      8  C6  ZIN A   1      18.000   1.408   9.212  0.00  0.00    -0.056 A 
ATOM      9  C5  ZIN A   1      18.846   1.859   8.217  0.00  0.00     0.010 A 
ATOM     10  C4  ZIN A   1      18.982   1.138   7.046  0.00  0.00     0.037 A 
ATOM     11  C3  ZIN A   1      18.269  -0.039   6.871  0.00  0.00     0.068 A 
ATOM     12  C29 ZIN A   1      17.418  -0.486   7.870  0.00  0.00     0.037 A 
ATOM     13  C28 ZIN A   1      17.288   0.236   9.041  0.00  0.00     0.010 A 
BRANCH  11  14
ATOM     14  O2  ZIN A   1      18.402  -0.750   5.720  0.00  0.00    -0.356 OA
ATOM     15  C1  ZIN A   1      19.446  -0.354   4.830  0.00  0.00     0.210 C 
ENDBRANCH  11  14
ENDBRANCH   7   8
ENDBRANCH   5   7
ENDBRANCH   2   5
ENDBRANCH   1   2
BRANCH   1  16
ATOM     16  C15 ZIN A   1      20.416   0.489  12.030  0.00  0.00     0.176 C 
BRANCH  16  17
ATOM     17  O17 ZIN A   1      21.203   0.222  13.192  0.00  0.00    -0.389 OA
ATOM     18  H42 ZIN A   1      20.706  -0.174  13.922  0.00  0.00     0.210 HD
ENDBRANCH  16  17
BRANCH  16  19
ATOM     19  C18 ZIN A   1      19.536  -0.699  11.736  0.00  0.00    -0.026 A 
ATOM     20  C27 ZIN A   1      19.923  -1.625  10.785  0.00  0.00     0.042 A 
ATOM     21  C23 ZIN A   1      19.117  -2.721  10.518  0.00  0.00     0.068 A 
ATOM     22  C21 ZIN A   1      17.912  -2.880  11.200  0.00  0.00     0.092 A 
ATOM     23  C20 ZIN A   1      17.529  -1.944  12.147  0.00  0.00     0.039 A 
ATOM     24  C19 ZIN A   1      18.341  -0.856  12.412  0.00  0.00     0.012 A 
BRANCH  21  25
ATOM     25  N24 ZIN A   1      19.510  -3.666   9.559  0.00  0.00    -0.332 N 
ATOM     26  H46 ZIN A   1      20.086  -4.403   9.812  0.00  0.00     0.168 HD
BRANCH  25  27
ATOM     27  C25 ZIN A   1      19.085  -3.547   8.286  0.00  0.00     0.353 C 
ATOM     28  O26 ZIN A   1      18.022  -4.028   7.952  0.00  0.00    -0.283 OA
ENDBRANCH  25  27
ENDBRANCH  21  25
BRANCH  22  29
ATOM     29  O22 ZIN A   1      17.115  -3.950  10.939  0.00  0.00    -0.358 OA
ATOM     30  H45 ZIN A   1      16.665  -4.303  11.718  0.00  0.00     0.217 HD
ENDBRANCH  22  29
ENDBRANCH  16  19
ENDBRANCH   1  16
TORSDOF 11
ENDMDL
MODEL 8
REMARK VINA RESULT:      -7.6      2.866      4.764
REMARK  11 active torsions:
REMARK  status: ('A' for Active; 'I' for Inactive)
REMARK    1  A    between atoms: O2_2  and  C3_3 
REMARK    2  A    between atoms: C6_6  and  C7_7 
REMARK    3  A    between atoms: C7_7  and  C8_8 
REMARK    4  A    between atoms: C8_8  and  N11_10 
REMARK    5  A    between atoms: N11_10  and  C14_13 
REMARK    6  A    between atoms: C14_13  and  C15_14 
REMARK    7  A    between atoms: C15_14  and  O17_15 
REMARK    8  A    between atoms: C15_14  and  C18_16 
REMARK    9  A    between atoms: C21_19  and  O22_20 
REMARK   10  A    between atoms: C23_21  and  N24_22 
REMARK   11  A    between atoms: N24_22  and  C25_23 
ROOT
ATOM      1  C14 ZIN A   1      18.189   1.593  13.766  0.00  0.00     0.269 C 
ENDROOT
BRANCH   1   2
ATOM      2  N11 ZIN A   1      19.231   2.600  13.525  0.00  0.00    -0.068 N 
ATOM      3  H12 ZIN A   1      20.140   2.169  13.605  0.00  0.00     0.277 HD
ATOM      4  H13 ZIN A   1      19.150   3.339  14.207  0.00  0.00     0.277 HD
BRANCH   2   5
ATOM      5  C8  ZIN A   1      19.072   3.158  12.176  0.00  0.00     0.186 C 
ATOM      6  C10 ZIN A   1      19.027   4.685  12.258  0.00  0.00     0.040 C 
BRANCH   5   7
ATOM      7  C7  ZIN A   1      17.770   2.641  11.560  0.00  0.00     0.071 C 
BRANCH   7   8
ATOM      8  C6  ZIN A   1      18.074   1.924  10.270  0.00  0.00    -0.056 A 
ATOM      9  C5  ZIN A   1      19.127   2.344   9.479  0.00  0.00     0.010 A 
ATOM     10  C4  ZIN A   1      19.407   1.687   8.296  0.00  0.00     0.037 A 
ATOM     11  C3  ZIN A   1      18.632   0.606   7.902  0.00  0.00     0.068 A 
ATOM     12  C29 ZIN A   1      17.573   0.190   8.697  0.00  0.00     0.037 A 
ATOM     13  C28 ZIN A   1      17.299   0.847   9.881  0.00  0.00     0.010 A 
BRANCH  11  14
ATOM     14  O2  ZIN A   1      18.906  -0.041   6.740  0.00  0.00    -0.356 OA
ATOM     15  C1  ZIN A   1      18.496  -1.405   6.644  0.00  0.00     0.210 C 
ENDBRANCH  11  14
ENDBRANCH   7   8
ENDBRANCH   5   7
ENDBRANCH   2   5
ENDBRANCH   1   2
BRANCH   1  16
ATOM     16  C15 ZIN A   1      18.842   0.271  14.172  0.00  0.00     0.176 C 
BRANCH  16  17
ATOM     17  O17 ZIN A   1      18.015  -0.396  15.128  0.00  0.00    -0.389 OA
ATOM     18  H42 ZIN A   1      17.260   0.129  15.430  0.00  0.00     0.210 HD
ENDBRANCH  16  17
BRANCH  16  19
ATOM     19  C18 ZIN A   1      19.006  -0.603  12.955  0.00  0.00    -0.026 A 
ATOM     20  C27 ZIN A   1      18.073  -1.586  12.681  0.00  0.00     0.042 A 
ATOM     21  C23 ZIN A   1      18.219  -2.387  11.559  0.00  0.00     0.068 A 
ATOM     22  C21 ZIN A   1      19.314  -2.205  10.715  0.00  0.00     0.092 A 
ATOM     23  C20 ZIN A   1      20.246  -1.221  11.000  0.00  0.00     0.039 A 
ATOM     24  C19 ZIN A   1      20.090  -0.423  12.118  0.00  0.00     0.012 A 
BRANCH  21  25
ATOM     25  N24 ZIN A   1      17.272  -3.381  11.276  0.00  0.00    -0.332 N 
ATOM     26  H46 ZIN A   1      16.477  -3.162  10.766  0.00  0.00     0.168 HD
BRANCH  25  27
ATOM     27  C25 ZIN A   1      17.469  -4.641  11.713  0.00  0.00     0.353 C 
ATOM     28  O26 ZIN A   1      17.960  -5.470  10.976  0.00  0.00    -0.283 OA
ENDBRANCH  25  27
ENDBRANCH  21  25
BRANCH  22  29
ATOM     29  O22 ZIN A   1      19.466  -2.991   9.616  0.00  0.00    -0.358 OA
ATOM     30  H45 ZIN A   1      18.677  -3.043   9.059  0.00  0.00     0.217 HD
ENDBRANCH  22  29
ENDBRANCH  16  19
ENDBRANCH   1  16
TORSDOF 11
ENDMDL
MODEL 9
REMARK VINA RESULT:      -7.6      3.011      7.231
REMARK  11 active torsions:
REMARK  status: ('A' for Active; 'I' for Inactive)
REMARK    1  A    between atoms: O2_2  and  C3_3 
REMARK    2  A    between atoms: C6_6  and  C7_7 
REMARK    3  A    between atoms: C7_7  and  C8_8 
REMARK    4  A    between atoms: C8_8  and  N11_10 
REMARK    5  A    between atoms: N11_10  and  C14_13 
REMARK    6  A    between atoms: C14_13  and  C15_14 
REMARK    7  A    between atoms: C15_14  and  O17_15 
REMARK    8  A    between atoms: C15_14  and  C18_16 
REMARK    9  A    between atoms: C21_19  and  O22_20 
REMARK   10  A    between atoms: C23_21  and  N24_22 
REMARK   11  A    between atoms: N24_22  and  C25_23 
ROOT
ATOM      1  C14 ZIN A   1      20.620  -0.205  10.677  0.00  0.00     0.269 C 
ENDROOT
BRANCH   1   2
ATOM      2  N11 ZIN A   1      20.763  -0.140  12.137  0.00  0.00    -0.068 N 
ATOM      3  H12 ZIN A   1      21.101   0.774  12.401  0.00  0.00     0.277 HD
ATOM      4  H13 ZIN A   1      21.420  -0.841  12.443  0.00  0.00     0.277 HD
BRANCH   2   5
ATOM      5  C8  ZIN A   1      19.459  -0.381  12.769  0.00  0.00     0.186 C 
ATOM      6  C10 ZIN A   1      19.257   0.612  13.916  0.00  0.00     0.040 C 
BRANCH   5   7
ATOM      7  C7  ZIN A   1      19.413  -1.809  13.316  0.00  0.00     0.071 C 
BRANCH   7   8
ATOM      8  C6  ZIN A   1      19.017  -2.757  12.212  0.00  0.00    -0.056 A 
ATOM      9  C5  ZIN A   1      17.739  -2.712  11.690  0.00  0.00     0.010 A 
ATOM     10  C4  ZIN A   1      17.375  -3.581  10.679  0.00  0.00     0.037 A 
ATOM     11  C3  ZIN A   1      18.293  -4.497  10.188  0.00  0.00     0.068 A 
ATOM     12  C29 ZIN A   1      19.574  -4.542  10.718  0.00  0.00     0.037 A 
ATOM     13  C28 ZIN A   1      19.935  -3.669  11.727  0.00  0.00     0.010 A 
BRANCH  11  14
ATOM     14  O2  ZIN A   1      17.937  -5.351   9.194  0.00  0.00    -0.356 OA
ATOM     15  C1  ZIN A   1      18.940  -6.250   8.720  0.00  0.00     0.210 C 
ENDBRANCH  11  14
ENDBRANCH   7   8
ENDBRANCH   5   7
ENDBRANCH   2   5
ENDBRANCH   1   2
BRANCH   1  16
ATOM     16  C15 ZIN A   1      19.463   0.694  10.237  0.00  0.00     0.176 C 
BRANCH  16  17
ATOM     17  O17 ZIN A   1      19.865   2.063  10.319  0.00  0.00    -0.389 OA
ATOM     18  H42 ZIN A   1      19.449   2.552  11.042  0.00  0.00     0.210 HD
ENDBRANCH  16  17
BRANCH  16  19
ATOM     19  C18 ZIN A   1      19.086   0.366   8.815  0.00  0.00    -0.026 A 
ATOM     20  C27 ZIN A   1      18.761  -0.933   8.470  0.00  0.00     0.042 A 
ATOM     21  C23 ZIN A   1      18.407  -1.235   7.164  0.00  0.00     0.068 A 
ATOM     22  C21 ZIN A   1      18.393  -0.230   6.199  0.00  0.00     0.092 A 
ATOM     23  C20 ZIN A   1      18.725   1.068   6.552  0.00  0.00     0.039 A 
ATOM     24  C19 ZIN A   1      19.071   1.362   7.858  0.00  0.00     0.012 A 
BRANCH  21  25
ATOM     25  N24 ZIN A   1      18.072  -2.550   6.812  0.00  0.00    -0.332 N 
ATOM     26  H46 ZIN A   1      17.152  -2.850   6.878  0.00  0.00     0.168 HD
BRANCH  25  27
ATOM     27  C25 ZIN A   1      19.028  -3.396   6.382  0.00  0.00     0.353 C 
ATOM     28  O26 ZIN A   1      19.937  -2.985   5.692  0.00  0.00    -0.283 OA
ENDBRANCH  25  27
ENDBRANCH  21  25
BRANCH  22  29
ATOM     29  O22 ZIN A   1      18.052  -0.521   4.915  0.00  0.00    -0.358 OA
ATOM     30  H45 ZIN A   1      17.257  -0.066   4.607  0.00  0.00     0.217 HD
ENDBRANCH  22  29
ENDBRANCH  16  19
ENDBRANCH   1  16
TORSDOF 11
ENDMDL
