MODEL 1
REMARK VINA RESULT:      -4.1      0.000      0.000
REMARK  3 active torsions:
REMARK  status: ('A' for Active; 'I' for Inactive)
REMARK    1  A    between atoms: C2_2  and  C4_4 
REMARK    2  A    between atoms: C4_4  and  N6_5 
REMARK    3  A    between atoms: C4_4  and  C10_9 
ROOT
ATOM      1  C4  ZIN A   1      18.347  -0.136   6.075  0.00  0.00     0.286 C 
ENDROOT
BRANCH   1   2
ATOM      2  C2  ZIN A   1      18.627   0.097   7.561  0.00  0.00     0.018 C 
ATOM      3  C1  ZIN A   1      19.115   1.532   7.769  0.00  0.00     0.012 C 
ATOM      4  C3  ZIN A   1      17.343  -0.128   8.363  0.00  0.00     0.012 C 
ENDBRANCH   1   2
BRANCH   1   5
ATOM      5  N6  ZIN A   1      16.988  -0.671   5.911  0.00  0.00    -0.065 N 
ATOM      6  H7  ZIN A   1      16.863  -0.987   4.962  0.00  0.00     0.275 HD
ATOM      7  H8  ZIN A   1      16.853  -1.446   6.544  0.00  0.00     0.275 HD
ATOM      8  H9  ZIN A   1      16.315   0.052   6.116  0.00  0.00     0.275 HD
ENDBRANCH   1   5
BRANCH   1   9
ATOM      9  C10 ZIN A   1      19.345  -1.122   5.524  0.00  0.00     0.204 C 
ATOM     10  O11 ZIN A   1      19.585  -2.151   6.131  0.00  0.00    -0.646 OA
ATOM     11  O12 ZIN A   1      19.910  -0.889   4.469  0.00  0.00    -0.646 OA
ENDBRANCH   1   9
TORSDOF 3
ENDMDL
MODEL 2
REMARK VINA RESULT:      -4.1      9.940     10.755
REMARK  3 active torsions:
REMARK  status: ('A' for Active; 'I' for Inactive)
REMARK    1  A    between atoms: C2_2  and  C4_4 
REMARK    2  A    between atoms: C4_4  and  N6_5 
REMARK    3  A    between atoms: C4_4  and  C10_9 
ROOT
ATOM      1  C4  ZIN A   1      18.722   1.087  16.355  0.00  0.00     0.286 C 
ENDROOT
BRANCH   1   2
ATOM      2  C2  ZIN A   1      18.621  -0.435  16.477  0.00  0.00     0.018 C 
ATOM      3  C1  ZIN A   1      17.174  -0.827  16.787  0.00  0.00     0.012 C 
ATOM      4  C3  ZIN A   1      19.053  -1.081  15.158  0.00  0.00     0.012 C 
ENDBRANCH   1   2
BRANCH   1   5
ATOM      5  N6  ZIN A   1      19.480   1.432  15.144  0.00  0.00    -0.065 N 
ATOM      6  H7  ZIN A   1      18.888   1.323  14.335  0.00  0.00     0.275 HD
ATOM      7  H8  ZIN A   1      19.793   2.389  15.205  0.00  0.00     0.275 HD
ATOM      8  H9  ZIN A   1      20.278   0.821  15.062  0.00  0.00     0.275 HD
ENDBRANCH   1   5
BRANCH   1   9
ATOM      9  C10 ZIN A   1      19.429   1.642  17.565  0.00  0.00     0.204 C 
ATOM     10  O11 ZIN A   1      19.849   0.888  18.425  0.00  0.00    -0.646 OA
ATOM     11  O12 ZIN A   1      19.580   2.847  17.682  0.00  0.00    -0.646 OA
ENDBRANCH   1   9
TORSDOF 3
ENDMDL
MODEL 3
REMARK VINA RESULT:      -3.8      1.611      2.244
REMARK  3 active torsions:
REMARK  status: ('A' for Active; 'I' for Inactive)
REMARK    1  A    between atoms: C2_2  and  C4_4 
REMARK    2  A    between atoms: C4_4  and  N6_5 
REMARK    3  A    between atoms: C4_4  and  C10_9 
ROOT
ATOM      1  C4  ZIN A   1      18.796  -1.494   6.872  0.00  0.00     0.286 C 
ENDROOT
BRANCH   1   2
ATOM      2  C2  ZIN A   1      18.459  -0.044   6.520  0.00  0.00     0.018 C 
ATOM      3  C1  ZIN A   1      16.956   0.084   6.266  0.00  0.00     0.012 C 
ATOM      4  C3  ZIN A   1      18.861   0.868   7.681  0.00  0.00     0.012 C 
ENDBRANCH   1   2
BRANCH   1   5
ATOM      5  N6  ZIN A   1      19.671  -1.522   8.052  0.00  0.00    -0.065 N 
ATOM      6  H7  ZIN A   1      20.557  -1.933   7.803  0.00  0.00     0.275 HD
ATOM      7  H8  ZIN A   1      19.817  -0.581   8.383  0.00  0.00     0.275 HD
ATOM      8  H9  ZIN A   1      19.238  -2.071   8.779  0.00  0.00     0.275 HD
ENDBRANCH   1   5
BRANCH   1   9
ATOM      9  C10 ZIN A   1      19.501  -2.144   5.709  0.00  0.00     0.204 C 
ATOM     10  O11 ZIN A   1      19.774  -1.488   4.718  0.00  0.00    -0.646 OA
ATOM     11  O12 ZIN A   1      19.798  -3.325   5.760  0.00  0.00    -0.646 OA
ENDBRANCH   1   9
TORSDOF 3
ENDMDL
MODEL 4
REMARK VINA RESULT:      -3.8      4.767      5.573
REMARK  3 active torsions:
REMARK  status: ('A' for Active; 'I' for Inactive)
REMARK    1  A    between atoms: C2_2  and  C4_4 
REMARK    2  A    between atoms: C4_4  and  N6_5 
REMARK    3  A    between atoms: C4_4  and  C10_9 
ROOT
ATOM      1  C4  ZIN A   1      18.847   2.556   9.963  0.00  0.00     0.286 C 
ENDROOT
BRANCH   1   2
ATOM      2  C2  ZIN A   1      18.763   1.297   9.098  0.00  0.00     0.018 C 
ATOM      3  C1  ZIN A   1      19.120   1.647   7.652  0.00  0.00     0.012 C 
ATOM      4  C3  ZIN A   1      19.745   0.249   9.627  0.00  0.00     0.012 C 
ENDBRANCH   1   2
BRANCH   1   5
ATOM      5  N6  ZIN A   1      19.993   2.447  10.877  0.00  0.00    -0.065 N 
ATOM      6  H7  ZIN A   1      20.784   2.934  10.483  0.00  0.00     0.275 HD
ATOM      7  H8  ZIN A   1      19.754   2.857  11.766  0.00  0.00     0.275 HD
ATOM      8  H9  ZIN A   1      20.228   1.474  11.006  0.00  0.00     0.275 HD
ENDBRANCH   1   5
BRANCH   1   9
ATOM      9  C10 ZIN A   1      17.579   2.701  10.765  0.00  0.00     0.204 C 
ATOM     10  O11 ZIN A   1      17.014   3.780  10.822  0.00  0.00    -0.646 OA
ATOM     11  O12 ZIN A   1      17.118   1.739  11.355  0.00  0.00    -0.646 OA
ENDBRANCH   1   9
TORSDOF 3
ENDMDL
MODEL 5
REMARK VINA RESULT:      -3.7      6.307      7.195
REMARK  3 active torsions:
REMARK  status: ('A' for Active; 'I' for Inactive)
REMARK    1  A    between atoms: C2_2  and  C4_4 
REMARK    2  A    between atoms: C4_4  and  N6_5 
REMARK    3  A    between atoms: C4_4  and  C10_9 
ROOT
ATOM      1  C4  ZIN A   1      19.765   3.356  11.463  0.00  0.00     0.286 C 
ENDROOT
BRANCH   1   2
ATOM      2  C2  ZIN A   1      18.540   3.002  10.618  0.00  0.00     0.018 C 
ATOM      3  C1  ZIN A   1      17.809   4.285  10.216  0.00  0.00     0.012 C 
ATOM      4  C3  ZIN A   1      18.987   2.253   9.361  0.00  0.00     0.012 C 
ENDBRANCH   1   2
BRANCH   1   5
ATOM      5  N6  ZIN A   1      20.537   2.137  11.742  0.00  0.00    -0.065 N 
ATOM      6  H7  ZIN A   1      21.387   2.381  12.226  0.00  0.00     0.275 HD
ATOM      7  H8  ZIN A   1      19.988   1.517  12.318  0.00  0.00     0.275 HD
ATOM      8  H9  ZIN A   1      20.764   1.677  10.874  0.00  0.00     0.275 HD
ENDBRANCH   1   5
BRANCH   1   9
ATOM      9  C10 ZIN A   1      19.318   3.977  12.762  0.00  0.00     0.204 C 
ATOM     10  O11 ZIN A   1      18.556   3.372  13.496  0.00  0.00    -0.646 OA
ATOM     11  O12 ZIN A   1      19.721   5.084  13.078  0.00  0.00    -0.646 OA
ENDBRANCH   1   9
TORSDOF 3
ENDMDL
MODEL 6
REMARK VINA RESULT:      -3.6      4.265      5.010
REMARK  3 active torsions:
REMARK  status: ('A' for Active; 'I' for Inactive)
REMARK    1  A    between atoms: C2_2  and  C4_4 
REMARK    2  A    between atoms: C4_4  and  N6_5 
REMARK    3  A    between atoms: C4_4  and  C10_9 
ROOT
ATOM      1  C4  ZIN A   1      18.221   0.087  10.695  0.00  0.00     0.286 C 
ENDROOT
BRANCH   1   2
ATOM      2  C2  ZIN A   1      17.773   0.888   9.471  0.00  0.00     0.018 C 
ATOM      3  C1  ZIN A   1      18.906   1.817   9.028  0.00  0.00     0.012 C 
ATOM      4  C3  ZIN A   1      17.425  -0.073   8.332  0.00  0.00     0.012 C 
ENDBRANCH   1   2
BRANCH   1   5
ATOM      5  N6  ZIN A   1      19.134  -0.984  10.272  0.00  0.00    -0.065 N 
ATOM      6  H7  ZIN A   1      18.713  -1.507   9.519  0.00  0.00     0.275 HD
ATOM      7  H8  ZIN A   1      20.003  -0.580   9.958  0.00  0.00     0.275 HD
ATOM      8  H9  ZIN A   1      19.312  -1.601  11.051  0.00  0.00     0.275 HD
ENDBRANCH   1   5
BRANCH   1   9
ATOM      9  C10 ZIN A   1      17.015  -0.518  11.368  0.00  0.00     0.204 C 
ATOM     10  O11 ZIN A   1      16.022   0.160  11.563  0.00  0.00    -0.646 OA
ATOM     11  O12 ZIN A   1      17.035  -1.687  11.717  0.00  0.00    -0.646 OA
ENDBRANCH   1   9
TORSDOF 3
ENDMDL
MODEL 7
REMARK VINA RESULT:      -3.6      6.156      7.131
REMARK  3 active torsions:
REMARK  status: ('A' for Active; 'I' for Inactive)
REMARK    1  A    between atoms: C2_2  and  C4_4 
REMARK    2  A    between atoms: C4_4  and  N6_5 
REMARK    3  A    between atoms: C4_4  and  C10_9 
ROOT
ATOM      1  C4  ZIN A   1      18.043   0.008  12.874  0.00  0.00     0.286 C 
ENDROOT
BRANCH   1   2
ATOM      2  C2  ZIN A   1      18.012  -0.670  14.245  0.00  0.00     0.018 C 
ATOM      3  C1  ZIN A   1      19.396  -1.238  14.565  0.00  0.00     0.012 C 
ATOM      4  C3  ZIN A   1      17.622   0.356  15.312  0.00  0.00     0.012 C 
ENDBRANCH   1   2
BRANCH   1   5
ATOM      5  N6  ZIN A   1      17.800   1.448  13.034  0.00  0.00    -0.065 N 
ATOM      6  H7  ZIN A   1      16.826   1.604  13.240  0.00  0.00     0.275 HD
ATOM      7  H8  ZIN A   1      18.365   1.802  13.791  0.00  0.00     0.275 HD
ATOM      8  H9  ZIN A   1      18.044   1.927  12.179  0.00  0.00     0.275 HD
ENDBRANCH   1   5
BRANCH   1   9
ATOM      9  C10 ZIN A   1      16.973  -0.587  11.994  0.00  0.00     0.204 C 
ATOM     10  O11 ZIN A   1      16.065   0.113  11.581  0.00  0.00    -0.646 OA
ATOM     11  O12 ZIN A   1      17.018  -1.769  11.697  0.00  0.00    -0.646 OA
ENDBRANCH   1   9
TORSDOF 3
ENDMDL
MODEL 8
REMARK VINA RESULT:      -3.5      5.160      5.939
REMARK  3 active torsions:
REMARK  status: ('A' for Active; 'I' for Inactive)
REMARK    1  A    between atoms: C2_2  and  C4_4 
REMARK    2  A    between atoms: C4_4  and  N6_5 
REMARK    3  A    between atoms: C4_4  and  C10_9 
ROOT
ATOM      1  C4  ZIN A   1      19.505   1.777  11.769  0.00  0.00     0.286 C 
ENDROOT
BRANCH   1   2
ATOM      2  C2  ZIN A   1      18.748   1.543  10.460  0.00  0.00     0.018 C 
ATOM      3  C1  ZIN A   1      17.380   0.928  10.765  0.00  0.00     0.012 C 
ATOM      4  C3  ZIN A   1      18.558   2.877   9.736  0.00  0.00     0.012 C 
ENDBRANCH   1   2
BRANCH   1   5
ATOM      5  N6  ZIN A   1      20.437   2.901  11.601  0.00  0.00    -0.065 N 
ATOM      6  H7  ZIN A   1      19.960   3.669  11.155  0.00  0.00     0.275 HD
ATOM      7  H8  ZIN A   1      20.774   3.195  12.505  0.00  0.00     0.275 HD
ATOM      8  H9  ZIN A   1      21.215   2.611  11.029  0.00  0.00     0.275 HD
ENDBRANCH   1   5
BRANCH   1   9
ATOM      9  C10 ZIN A   1      20.278   0.535  12.132  0.00  0.00     0.204 C 
ATOM     10  O11 ZIN A   1      20.462   0.252  13.303  0.00  0.00    -0.646 OA
ATOM     11  O12 ZIN A   1      20.719  -0.186  11.253  0.00  0.00    -0.646 OA
ENDBRANCH   1   9
TORSDOF 3
ENDMDL
MODEL 9
REMARK VINA RESULT:      -3.4      6.195      7.065
REMARK  3 active torsions:
REMARK  status: ('A' for Active; 'I' for Inactive)
REMARK    1  A    between atoms: C2_2  and  C4_4 
REMARK    2  A    between atoms: C4_4  and  N6_5 
REMARK    3  A    between atoms: C4_4  and  C10_9 
ROOT
ATOM      1  C4  ZIN A   1      19.250   2.868  11.981  0.00  0.00     0.286 C 
ENDROOT
BRANCH   1   2
ATOM      2  C2  ZIN A   1      18.798   3.893  13.023  0.00  0.00     0.018 C 
ATOM      3  C1  ZIN A   1      18.712   3.222  14.395  0.00  0.00     0.012 C 
ATOM      4  C3  ZIN A   1      19.808   5.042  13.079  0.00  0.00     0.012 C 
ENDBRANCH   1   2
BRANCH   1   5
ATOM      5  N6  ZIN A   1      20.639   3.147  11.589  0.00  0.00    -0.065 N 
ATOM      6  H7  ZIN A   1      21.114   2.279  11.393  0.00  0.00     0.275 HD
ATOM      7  H8  ZIN A   1      20.645   3.728  10.765  0.00  0.00     0.275 HD
ATOM      8  H9  ZIN A   1      21.111   3.626  12.342  0.00  0.00     0.275 HD
ENDBRANCH   1   5
BRANCH   1   9
ATOM      9  C10 ZIN A   1      18.359   2.955  10.769  0.00  0.00     0.204 C 
ATOM     10  O11 ZIN A   1      18.838   2.859   9.652  0.00  0.00    -0.646 OA
ATOM     11  O12 ZIN A   1      17.159   3.123  10.907  0.00  0.00    -0.646 OA
ENDBRANCH   1   9
TORSDOF 3
ENDMDL
