MODEL 1
REMARK VINA RESULT:      -8.8      0.000      0.000
REMARK  7 active torsions:
REMARK  status: ('A' for Active; 'I' for Inactive)
REMARK       I    between atoms: C2_2  and  N4_4 
REMARK    1  A    between atoms: N7_7  and  C8_8 
REMARK    2  A    between atoms: C11_11  and  O12_12 
REMARK    3  A    between atoms: O12_12  and  C13_13 
REMARK    4  A    between atoms: C13_13  and  C14_14 
REMARK    5  A    between atoms: C18_17  and  C19_18 
REMARK    6  A    between atoms: C18_17  and  C26_25 
REMARK    7  A    between atoms: C19_18  and  N20_19 
ROOT
ATOM      1  C14 <0> d   1      19.941  -1.668  11.108  0.00  0.00     0.173 C 
ATOM      2  C16 <0> d   1      20.178  -0.223  11.613  0.00  0.00     0.206 C 
ATOM      3  O17 <0> d   1      19.743   0.560  10.475  0.00  0.00    -0.347 OA
ATOM      4  C18 <0> d   1      18.628  -0.166   9.932  0.00  0.00     0.212 C 
ATOM      5  O34 <0> d   1      18.747  -1.547  10.307  0.00  0.00    -0.340 OA
ENDROOT
BRANCH   1   6
ATOM      6  C13 <0> d   1      19.709  -2.620  12.283  0.00  0.00     0.209 C 
BRANCH   6   7
ATOM      7  O12 <0> d   1      20.101  -3.943  11.909  0.00  0.00    -0.349 OA
BRANCH   7   8
ATOM      8  C11 <0> d   1      19.248  -4.637  11.110  0.00  0.00     0.069 A 
ATOM      9  C10 <0> d   1      19.697  -5.164   9.908  0.00  0.00     0.039 A 
ATOM     10  C9  <0> d   1      18.831  -5.869   9.095  0.00  0.00     0.032 A 
ATOM     11  C8  <0> d   1      17.510  -6.051   9.482  0.00  0.00     0.030 A 
ATOM     12  C36 <0> d   1      17.059  -5.519  10.683  0.00  0.00     0.032 A 
ATOM     13  C35 <0> d   1      17.927  -4.818  11.496  0.00  0.00     0.039 A 
BRANCH  11  14
ATOM     14  N7  <0> d   1      16.632  -6.765   8.658  0.00  0.00    -0.378 N 
ATOM     15  C6  <0> d   1      15.322  -6.204   8.297  0.00  0.00     0.143 C 
ATOM     16  C5  <0> d   1      15.204  -6.184   6.768  0.00  0.00     0.145 C 
ATOM     17  N4  <0> d   1      15.574  -7.510   6.251  0.00  0.00    -0.349 N 
ATOM     18  C2  <0> d   1      14.727  -8.197   5.460  0.00  0.00     0.215 C 
ATOM     19  C38 <0> d   1      16.881  -8.073   6.618  0.00  0.00     0.145 C 
ATOM     20  C1  <0> d   1      13.391  -7.607   5.092  0.00  0.00     0.117 C 
ATOM     21  O3  <0> d   1      15.041  -9.293   5.043  0.00  0.00    -0.274 OA
ATOM     22  C37 <0> d   1      17.002  -8.090   8.142  0.00  0.00     0.143 C 
ENDBRANCH  11  14
ENDBRANCH   7   8
ENDBRANCH   6   7
ENDBRANCH   1   6
BRANCH   4  23
ATOM     23  C19 <0> d   1      17.323   0.407  10.487  0.00  0.00     0.203 C 
BRANCH  23  24
ATOM     24  N20 <0> d   1      17.581   1.716  11.091  0.00  0.00    -0.346 N 
ATOM     25  C25 <0> d   1      17.709   1.980  12.410  0.00  0.00     0.182 A 
ATOM     26  N23 <0> d   1      17.935   3.256  12.561  0.00  0.00    -0.361 N 
ATOM     27  C22 <0> d   1      17.950   3.849  11.357  0.00  0.00     0.106 A 
ATOM     28  H24 <0> d   1      18.067   3.706  13.410  0.00  0.00     0.166 HD
ATOM     29  C21 <0> d   1      17.731   2.903  10.425  0.00  0.00     0.109 A 
ENDBRANCH  23  24
ENDBRANCH   4  23
BRANCH   4  30
ATOM     30  C26 <0> d   1      18.633  -0.054   8.429  0.00  0.00     0.027 A 
ATOM     31  C32 <0> d   1      18.205  -1.116   7.654  0.00  0.00     0.047 A 
ATOM     32  C31 <0> d   1      18.204  -1.011   6.276  0.00  0.00     0.048 A 
ATOM     33 Cl33 <0> d   1      17.657  -2.578   8.413  0.00  0.00    -0.084 Cl
ATOM     34  C29 <0> d   1      18.642   0.154   5.671  0.00  0.00     0.035 A 
ATOM     35  C28 <0> d   1      19.075   1.214   6.446  0.00  0.00     0.024 A 
ATOM     36 Cl30 <0> d   1      18.648   0.285   3.940  0.00  0.00    -0.084 Cl
ATOM     37  C27 <0> d   1      19.071   1.110   7.825  0.00  0.00     0.016 A 
ENDBRANCH   4  30
TORSDOF 7
ENDMDL
MODEL 2
REMARK VINA RESULT:      -8.7      3.814     10.286
REMARK  7 active torsions:
REMARK  status: ('A' for Active; 'I' for Inactive)
REMARK       I    between atoms: C2_2  and  N4_4 
REMARK    1  A    between atoms: N7_7  and  C8_8 
REMARK    2  A    between atoms: C11_11  and  O12_12 
REMARK    3  A    between atoms: O12_12  and  C13_13 
REMARK    4  A    between atoms: C13_13  and  C14_14 
REMARK    5  A    between atoms: C18_17  and  C19_18 
REMARK    6  A    between atoms: C18_17  and  C26_25 
REMARK    7  A    between atoms: C19_18  and  N20_19 
ROOT
ATOM      1  C14 <0> d   1      18.405   0.854   9.184  0.00  0.00     0.173 C 
ATOM      2  C16 <0> d   1      17.333   0.426  10.218  0.00  0.00     0.206 C 
ATOM      3  O17 <0> d   1      17.214  -0.992   9.947  0.00  0.00    -0.347 OA
ATOM      4  C18 <0> d   1      18.547  -1.416   9.617  0.00  0.00     0.212 C 
ATOM      5  O34 <0> d   1      19.288  -0.286   9.133  0.00  0.00    -0.340 OA
ENDROOT
BRANCH   1   6
ATOM      6  C13 <0> d   1      19.155   2.097   9.667  0.00  0.00     0.209 C 
BRANCH   6   7
ATOM      7  O12 <0> d   1      18.293   3.234   9.591  0.00  0.00    -0.349 OA
BRANCH   7   8
ATOM      8  C11 <0> d   1      18.115   3.952  10.732  0.00  0.00     0.069 A 
ATOM      9  C10 <0> d   1      19.089   3.937  11.720  0.00  0.00     0.039 A 
ATOM     10  C9  <0> d   1      18.909   4.666  12.879  0.00  0.00     0.032 A 
ATOM     11  C8  <0> d   1      17.753   5.413  13.056  0.00  0.00     0.030 A 
ATOM     12  C36 <0> d   1      16.775   5.424  12.069  0.00  0.00     0.032 A 
ATOM     13  C35 <0> d   1      16.959   4.698  10.909  0.00  0.00     0.039 A 
BRANCH  11  14
ATOM     14  N7  <0> d   1      17.569   6.152  14.231  0.00  0.00    -0.378 N 
ATOM     15  C6  <0> d   1      16.219   6.401  14.755  0.00  0.00     0.143 C 
ATOM     16  C5  <0> d   1      16.158   5.906  16.204  0.00  0.00     0.145 C 
ATOM     17  N4  <0> d   1      17.313   6.447  16.935  0.00  0.00    -0.349 N 
ATOM     18  C2  <0> d   1      17.135   7.159  18.065  0.00  0.00     0.215 C 
ATOM     19  C38 <0> d   1      18.662   6.203  16.408  0.00  0.00     0.145 C 
ATOM     20  C1  <0> d   1      15.746   7.401  18.594  0.00  0.00     0.117 C 
ATOM     21  O3  <0> d   1      18.095   7.606  18.657  0.00  0.00    -0.274 OA
ATOM     22  C37 <0> d   1      18.724   6.694  14.961  0.00  0.00     0.143 C 
ENDBRANCH  11  14
ENDBRANCH   7   8
ENDBRANCH   6   7
ENDBRANCH   1   6
BRANCH   4  23
ATOM     23  C19 <0> d   1      19.229  -1.983  10.864  0.00  0.00     0.203 C 
BRANCH  23  24
ATOM     24  N20 <0> d   1      19.956  -0.915  11.553  0.00  0.00    -0.346 N 
ATOM     25  C25 <0> d   1      21.170  -0.426  11.219  0.00  0.00     0.182 A 
ATOM     26  N23 <0> d   1      21.487   0.518  12.063  0.00  0.00    -0.361 N 
ATOM     27  C22 <0> d   1      20.501   0.658  12.962  0.00  0.00     0.106 A 
ATOM     28  H24 <0> d   1      22.308   1.033  12.046  0.00  0.00     0.166 HD
ATOM     29  C21 <0> d   1      19.534  -0.228  12.660  0.00  0.00     0.109 A 
ENDBRANCH  23  24
ENDBRANCH   4  23
BRANCH   4  30
ATOM     30  C26 <0> d   1      18.491  -2.474   8.546  0.00  0.00     0.027 A 
ATOM     31  C32 <0> d   1      17.875  -3.686   8.801  0.00  0.00     0.047 A 
ATOM     32  C31 <0> d   1      17.818  -4.654   7.816  0.00  0.00     0.048 A 
ATOM     33 Cl33 <0> d   1      17.161  -3.986  10.355  0.00  0.00    -0.084 Cl
ATOM     34  C29 <0> d   1      18.388  -4.415   6.578  0.00  0.00     0.035 A 
ATOM     35  C28 <0> d   1      19.009  -3.206   6.325  0.00  0.00     0.024 A 
ATOM     36 Cl30 <0> d   1      18.324  -5.633   5.343  0.00  0.00    -0.084 Cl
ATOM     37  C27 <0> d   1      19.060  -2.235   7.309  0.00  0.00     0.016 A 
ENDBRANCH   4  30
TORSDOF 7
ENDMDL
MODEL 3
REMARK VINA RESULT:      -8.6      4.109     10.665
REMARK  7 active torsions:
REMARK  status: ('A' for Active; 'I' for Inactive)
REMARK       I    between atoms: C2_2  and  N4_4 
REMARK    1  A    between atoms: N7_7  and  C8_8 
REMARK    2  A    between atoms: C11_11  and  O12_12 
REMARK    3  A    between atoms: O12_12  and  C13_13 
REMARK    4  A    between atoms: C13_13  and  C14_14 
REMARK    5  A    between atoms: C18_17  and  C19_18 
REMARK    6  A    between atoms: C18_17  and  C26_25 
REMARK    7  A    between atoms: C19_18  and  N20_19 
ROOT
ATOM      1  C14 <0> d   1      19.491   0.489  10.695  0.00  0.00     0.173 C 
ATOM      2  C16 <0> d   1      20.019  -0.950  10.468  0.00  0.00     0.206 C 
ATOM      3  O17 <0> d   1      19.756  -1.565  11.752  0.00  0.00    -0.347 OA
ATOM      4  C18 <0> d   1      18.516  -0.985  12.191  0.00  0.00     0.212 C 
ATOM      5  O34 <0> d   1      18.349   0.291  11.553  0.00  0.00    -0.340 OA
ENDROOT
BRANCH   1   6
ATOM      6  C13 <0> d   1      19.068   1.125   9.370  0.00  0.00     0.209 C 
BRANCH   6   7
ATOM      7  O12 <0> d   1      19.424   2.509   9.370  0.00  0.00    -0.349 OA
BRANCH   7   8
ATOM      8  C11 <0> d   1      18.994   3.257  10.421  0.00  0.00     0.069 A 
ATOM      9  C10 <0> d   1      17.703   3.763  10.431  0.00  0.00     0.039 A 
ATOM     10  C9  <0> d   1      17.266   4.524  11.498  0.00  0.00     0.032 A 
ATOM     11  C8  <0> d   1      18.121   4.782  12.561  0.00  0.00     0.030 A 
ATOM     12  C36 <0> d   1      19.417   4.279  12.549  0.00  0.00     0.032 A 
ATOM     13  C35 <0> d   1      19.850   3.516  11.483  0.00  0.00     0.039 A 
BRANCH  11  14
ATOM     14  N7  <0> d   1      17.680   5.552  13.643  0.00  0.00    -0.378 N 
ATOM     15  C6  <0> d   1      16.408   6.284  13.572  0.00  0.00     0.143 C 
ATOM     16  C5  <0> d   1      15.535   5.865  14.761  0.00  0.00     0.145 C 
ATOM     17  N4  <0> d   1      16.338   5.958  15.989  0.00  0.00    -0.349 N 
ATOM     18  C2  <0> d   1      15.913   6.701  17.030  0.00  0.00     0.215 C 
ATOM     19  C38 <0> d   1      17.613   5.231  16.058  0.00  0.00     0.145 C 
ATOM     20  C1  <0> d   1      14.604   7.440  16.945  0.00  0.00     0.117 C 
ATOM     21  O3  <0> d   1      16.587   6.774  18.036  0.00  0.00    -0.274 OA
ATOM     22  C37 <0> d   1      18.483   5.645  14.871  0.00  0.00     0.143 C 
ENDBRANCH  11  14
ENDBRANCH   7   8
ENDBRANCH   6   7
ENDBRANCH   1   6
BRANCH   4  23
ATOM     23  C19 <0> d   1      17.355  -1.907  11.811  0.00  0.00     0.203 C 
BRANCH  23  24
ATOM     24  N20 <0> d   1      17.877  -3.100  11.141  0.00  0.00    -0.346 N 
ATOM     25  C25 <0> d   1      18.530  -4.128  11.727  0.00  0.00     0.182 A 
ATOM     26  N23 <0> d   1      18.837  -5.005  10.810  0.00  0.00    -0.361 N 
ATOM     27  C22 <0> d   1      18.404  -4.568   9.618  0.00  0.00     0.106 A 
ATOM     28  H24 <0> d   1      19.308  -5.838  10.966  0.00  0.00     0.166 HD
ATOM     29  C21 <0> d   1      17.800  -3.379   9.803  0.00  0.00     0.109 A 
ENDBRANCH  23  24
ENDBRANCH   4  23
BRANCH   4  30
ATOM     30  C26 <0> d   1      18.545  -0.797  13.686  0.00  0.00     0.027 A 
ATOM     31  C32 <0> d   1      17.873   0.266  14.263  0.00  0.00     0.047 A 
ATOM     32  C31 <0> d   1      17.895   0.436  15.634  0.00  0.00     0.048 A 
ATOM     33 Cl33 <0> d   1      16.992   1.380  13.264  0.00  0.00    -0.084 Cl
ATOM     34  C29 <0> d   1      18.598  -0.452  16.429  0.00  0.00     0.035 A 
ATOM     35  C28 <0> d   1      19.274  -1.511  15.852  0.00  0.00     0.024 A 
ATOM     36 Cl30 <0> d   1      18.633  -0.236  18.151  0.00  0.00    -0.084 Cl
ATOM     37  C27 <0> d   1      19.247  -1.683  14.480  0.00  0.00     0.016 A 
ENDBRANCH   4  30
TORSDOF 7
ENDMDL
MODEL 4
REMARK VINA RESULT:      -8.5      3.186      9.543
REMARK  7 active torsions:
REMARK  status: ('A' for Active; 'I' for Inactive)
REMARK       I    between atoms: C2_2  and  N4_4 
REMARK    1  A    between atoms: N7_7  and  C8_8 
REMARK    2  A    between atoms: C11_11  and  O12_12 
REMARK    3  A    between atoms: O12_12  and  C13_13 
REMARK    4  A    between atoms: C13_13  and  C14_14 
REMARK    5  A    between atoms: C18_17  and  C19_18 
REMARK    6  A    between atoms: C18_17  and  C26_25 
REMARK    7  A    between atoms: C19_18  and  N20_19 
ROOT
ATOM      1  C14 <0> d   1      18.699  -3.678  11.561  0.00  0.00     0.173 C 
ATOM      2  C16 <0> d   1      20.027  -4.305  11.065  0.00  0.00     0.206 C 
ATOM      3  O17 <0> d   1      19.596  -4.996   9.867  0.00  0.00    -0.347 OA
ATOM      4  C18 <0> d   1      18.587  -4.146   9.296  0.00  0.00     0.212 C 
ATOM      5  O34 <0> d   1      18.018  -3.337  10.336  0.00  0.00    -0.340 OA
ENDROOT
BRANCH   1   6
ATOM      6  C13 <0> d   1      18.972  -2.425  12.395  0.00  0.00     0.209 C 
BRANCH   6   7
ATOM      7  O12 <0> d   1      17.862  -1.531  12.289  0.00  0.00    -0.349 OA
BRANCH   7   8
ATOM      8  C11 <0> d   1      18.052  -0.256  12.722  0.00  0.00     0.069 A 
ATOM      9  C10 <0> d   1      17.371   0.790  12.119  0.00  0.00     0.039 A 
ATOM     10  C9  <0> d   1      17.563   2.086  12.558  0.00  0.00     0.032 A 
ATOM     11  C8  <0> d   1      18.439   2.340  13.605  0.00  0.00     0.030 A 
ATOM     12  C36 <0> d   1      19.126   1.292  14.206  0.00  0.00     0.032 A 
ATOM     13  C35 <0> d   1      18.928  -0.003  13.768  0.00  0.00     0.039 A 
BRANCH  11  14
ATOM     14  N7  <0> d   1      18.636   3.652  14.051  0.00  0.00    -0.378 N 
ATOM     15  C6  <0> d   1      18.312   4.794  13.184  0.00  0.00     0.143 C 
ATOM     16  C5  <0> d   1      17.338   5.713  13.930  0.00  0.00     0.145 C 
ATOM     17  N4  <0> d   1      17.874   5.974  15.274  0.00  0.00    -0.349 N 
ATOM     18  C2  <0> d   1      18.064   7.237  15.703  0.00  0.00     0.215 C 
ATOM     19  C38 <0> d   1      18.204   4.832  16.138  0.00  0.00     0.145 C 
ATOM     20  C1  <0> d   1      17.721   8.398  14.806  0.00  0.00     0.117 C 
ATOM     21  O3  <0> d   1      18.512   7.440  16.812  0.00  0.00    -0.274 OA
ATOM     22  C37 <0> d   1      19.172   3.912  15.394  0.00  0.00     0.143 C 
ENDBRANCH  11  14
ENDBRANCH   7   8
ENDBRANCH   6   7
ENDBRANCH   1   6
BRANCH   4  23
ATOM     23  C19 <0> d   1      19.216  -3.248   8.229  0.00  0.00     0.203 C 
BRANCH  23  24
ATOM     24  N20 <0> d   1      18.846  -1.854   8.483  0.00  0.00    -0.346 N 
ATOM     25  C25 <0> d   1      19.613  -0.915   9.078  0.00  0.00     0.182 A 
ATOM     26  N23 <0> d   1      18.945   0.204   9.126  0.00  0.00    -0.361 N 
ATOM     27  C22 <0> d   1      17.735   0.020   8.576  0.00  0.00     0.106 A 
ATOM     28  H24 <0> d   1      19.269   1.036   9.503  0.00  0.00     0.166 HD
ATOM     29  C21 <0> d   1      17.653  -1.260   8.167  0.00  0.00     0.109 A 
ENDBRANCH  23  24
ENDBRANCH   4  23
BRANCH   4  30
ATOM     30  C26 <0> d   1      17.506  -4.992   8.672  0.00  0.00     0.027 A 
ATOM     31  C32 <0> d   1      17.774  -5.726   7.531  0.00  0.00     0.047 A 
ATOM     32  C31 <0> d   1      16.785  -6.506   6.962  0.00  0.00     0.048 A 
ATOM     33 Cl33 <0> d   1      19.357  -5.678   6.821  0.00  0.00    -0.084 Cl
ATOM     34  C29 <0> d   1      15.523  -6.544   7.529  0.00  0.00     0.035 A 
ATOM     35  C28 <0> d   1      15.254  -5.805   8.666  0.00  0.00     0.024 A 
ATOM     36 Cl30 <0> d   1      14.277  -7.517   6.811  0.00  0.00    -0.084 Cl
ATOM     37  C27 <0> d   1      16.246  -5.029   9.238  0.00  0.00     0.016 A 
ENDBRANCH   4  30
TORSDOF 7
ENDMDL
MODEL 5
REMARK VINA RESULT:      -8.5      4.395      6.919
REMARK  7 active torsions:
REMARK  status: ('A' for Active; 'I' for Inactive)
REMARK       I    between atoms: C2_2  and  N4_4 
REMARK    1  A    between atoms: N7_7  and  C8_8 
REMARK    2  A    between atoms: C11_11  and  O12_12 
REMARK    3  A    between atoms: O12_12  and  C13_13 
REMARK    4  A    between atoms: C13_13  and  C14_14 
REMARK    5  A    between atoms: C18_17  and  C19_18 
REMARK    6  A    between atoms: C18_17  and  C26_25 
REMARK    7  A    between atoms: C19_18  and  N20_19 
ROOT
ATOM      1  C14 <0> d   1      18.341   3.264  11.255  0.00  0.00     0.173 C 
ATOM      2  C16 <0> d   1      19.836   3.521  11.570  0.00  0.00     0.206 C 
ATOM      3  O17 <0> d   1      19.747   4.466  12.663  0.00  0.00    -0.347 OA
ATOM      4  C18 <0> d   1      18.597   4.048  13.418  0.00  0.00     0.212 C 
ATOM      5  O34 <0> d   1      17.716   3.315  12.554  0.00  0.00    -0.340 OA
ENDROOT
BRANCH   1   6
ATOM      6  C13 <0> d   1      18.152   1.886  10.618  0.00  0.00     0.209 C 
BRANCH   6   7
ATOM      7  O12 <0> d   1      19.345   1.513   9.925  0.00  0.00    -0.349 OA
BRANCH   7   8
ATOM      8  C11 <0> d   1      19.211   0.642   8.889  0.00  0.00     0.069 A 
ATOM      9  C10 <0> d   1      18.858   1.108   7.632  0.00  0.00     0.039 A 
ATOM     10  C9  <0> d   1      18.722   0.224   6.579  0.00  0.00     0.032 A 
ATOM     11  C8  <0> d   1      18.938  -1.132   6.781  0.00  0.00     0.030 A 
ATOM     12  C36 <0> d   1      19.287  -1.600   8.042  0.00  0.00     0.032 A 
ATOM     13  C35 <0> d   1      19.427  -0.714   9.092  0.00  0.00     0.039 A 
BRANCH  11  14
ATOM     14  N7  <0> d   1      18.800  -2.030   5.716  0.00  0.00    -0.378 N 
ATOM     15  C6  <0> d   1      19.167  -3.444   5.876  0.00  0.00     0.143 C 
ATOM     16  C5  <0> d   1      17.959  -4.309   5.496  0.00  0.00     0.145 C 
ATOM     17  N4  <0> d   1      17.445  -3.853   4.196  0.00  0.00    -0.349 N 
ATOM     18  C2  <0> d   1      17.313  -4.717   3.171  0.00  0.00     0.215 C 
ATOM     19  C38 <0> d   1      17.084  -2.438   4.034  0.00  0.00     0.145 C 
ATOM     20  C1  <0> d   1      17.687  -6.165   3.351  0.00  0.00     0.117 C 
ATOM     21  O3  <0> d   1      16.893  -4.328   2.101  0.00  0.00    -0.274 OA
ATOM     22  C37 <0> d   1      18.286  -1.574   4.417  0.00  0.00     0.143 C 
ENDBRANCH  11  14
ENDBRANCH   7   8
ENDBRANCH   6   7
ENDBRANCH   1   6
BRANCH   4  23
ATOM     23  C19 <0> d   1      19.042   3.155  14.578  0.00  0.00     0.203 C 
BRANCH  23  24
ATOM     24  N20 <0> d   1      18.797   1.752  14.238  0.00  0.00    -0.346 N 
ATOM     25  C25 <0> d   1      19.707   0.868  13.774  0.00  0.00     0.182 A 
ATOM     26  N23 <0> d   1      19.117  -0.281  13.588  0.00  0.00    -0.361 N 
ATOM     27  C22 <0> d   1      17.820  -0.171  13.914  0.00  0.00     0.106 A 
ATOM     28  H24 <0> d   1      19.547  -1.086  13.261  0.00  0.00     0.166 HD
ATOM     29  C21 <0> d   1      17.599   1.093  14.323  0.00  0.00     0.109 A 
ENDBRANCH  23  24
ENDBRANCH   4  23
BRANCH   4  30
ATOM     30  C26 <0> d   1      17.877   5.257  13.957  0.00  0.00     0.027 A 
ATOM     31  C32 <0> d   1      18.591   6.269  14.575  0.00  0.00     0.047 A 
ATOM     32  C31 <0> d   1      17.931   7.381  15.064  0.00  0.00     0.048 A 
ATOM     33 Cl33 <0> d   1      20.316   6.147  14.724  0.00  0.00    -0.084 Cl
ATOM     34  C29 <0> d   1      16.556   7.477  14.945  0.00  0.00     0.035 A 
ATOM     35  C28 <0> d   1      15.843   6.463  14.333  0.00  0.00     0.024 A 
ATOM     36 Cl30 <0> d   1      15.726   8.870  15.566  0.00  0.00    -0.084 Cl
ATOM     37  C27 <0> d   1      16.504   5.353  13.839  0.00  0.00     0.016 A 
ENDBRANCH   4  30
TORSDOF 7
ENDMDL
MODEL 6
REMARK VINA RESULT:      -8.4      3.323      5.268
REMARK  7 active torsions:
REMARK  status: ('A' for Active; 'I' for Inactive)
REMARK       I    between atoms: C2_2  and  N4_4 
REMARK    1  A    between atoms: N7_7  and  C8_8 
REMARK    2  A    between atoms: C11_11  and  O12_12 
REMARK    3  A    between atoms: O12_12  and  C13_13 
REMARK    4  A    between atoms: C13_13  and  C14_14 
REMARK    5  A    between atoms: C18_17  and  C19_18 
REMARK    6  A    between atoms: C18_17  and  C26_25 
REMARK    7  A    between atoms: C19_18  and  N20_19 
ROOT
ATOM      1  C14 <0> d   1      17.442   0.564  13.610  0.00  0.00     0.173 C 
ATOM      2  C16 <0> d   1      17.165   0.611  12.087  0.00  0.00     0.206 C 
ATOM      3  O17 <0> d   1      17.200   2.034  11.826  0.00  0.00    -0.347 OA
ATOM      4  C18 <0> d   1      18.224   2.543  12.698  0.00  0.00     0.212 C 
ATOM      5  O34 <0> d   1      18.373   1.647  13.810  0.00  0.00    -0.340 OA
ENDROOT
BRANCH   1   6
ATOM      6  C13 <0> d   1      18.076  -0.772  14.003  0.00  0.00     0.209 C 
BRANCH   6   7
ATOM      7  O12 <0> d   1      19.109  -1.102  13.072  0.00  0.00    -0.349 OA
BRANCH   7   8
ATOM      8  C11 <0> d   1      18.923  -2.214  12.311  0.00  0.00     0.069 A 
ATOM      9  C10 <0> d   1      19.998  -2.793  11.655  0.00  0.00     0.039 A 
ATOM     10  C9  <0> d   1      19.810  -3.922  10.882  0.00  0.00     0.032 A 
ATOM     11  C8  <0> d   1      18.542  -4.476  10.761  0.00  0.00     0.030 A 
ATOM     12  C36 <0> d   1      17.464  -3.892  11.413  0.00  0.00     0.032 A 
ATOM     13  C35 <0> d   1      17.655  -2.766  12.190  0.00  0.00     0.039 A 
BRANCH  11  14
ATOM     14  N7  <0> d   1      18.350  -5.620   9.977  0.00  0.00    -0.378 N 
ATOM     15  C6  <0> d   1      17.159  -6.462  10.162  0.00  0.00     0.143 C 
ATOM     16  C5  <0> d   1      16.440  -6.596   8.814  0.00  0.00     0.145 C 
ATOM     17  N4  <0> d   1      17.426  -6.976   7.792  0.00  0.00    -0.349 N 
ATOM     18  C2  <0> d   1      17.241  -8.077   7.038  0.00  0.00     0.215 C 
ATOM     19  C38 <0> d   1      18.619  -6.137   7.611  0.00  0.00     0.145 C 
ATOM     20  C1  <0> d   1      16.013  -8.928   7.234  0.00  0.00     0.117 C 
ATOM     21  O3  <0> d   1      18.063  -8.385   6.201  0.00  0.00    -0.274 OA
ATOM     22  C37 <0> d   1      19.335  -6.000   8.955  0.00  0.00     0.143 C 
ENDBRANCH  11  14
ENDBRANCH   7   8
ENDBRANCH   6   7
ENDBRANCH   1   6
BRANCH   4  23
ATOM     23  C19 <0> d   1      19.547   2.640  11.934  0.00  0.00     0.203 C 
BRANCH  23  24
ATOM     24  N20 <0> d   1      19.360   2.147  10.568  0.00  0.00    -0.346 N 
ATOM     25  C25 <0> d   1      18.860   2.845   9.525  0.00  0.00     0.182 A 
ATOM     26  N23 <0> d   1      18.849   2.073   8.472  0.00  0.00    -0.361 N 
ATOM     27  C22 <0> d   1      19.329   0.865   8.805  0.00  0.00     0.106 A 
ATOM     28  H24 <0> d   1      18.539   2.331   7.591  0.00  0.00     0.166 HD
ATOM     29  C21 <0> d   1      19.654   0.891  10.111  0.00  0.00     0.109 A 
ENDBRANCH  23  24
ENDBRANCH   4  23
BRANCH   4  30
ATOM     30  C26 <0> d   1      17.829   3.906  13.202  0.00  0.00     0.027 A 
ATOM     31  C32 <0> d   1      18.268   4.340  14.441  0.00  0.00     0.047 A 
ATOM     32  C31 <0> d   1      17.911   5.593  14.901  0.00  0.00     0.048 A 
ATOM     33 Cl33 <0> d   1      19.278   3.314  15.411  0.00  0.00    -0.084 Cl
ATOM     34  C29 <0> d   1      17.104   6.410  14.128  0.00  0.00     0.035 A 
ATOM     35  C28 <0> d   1      16.661   5.974  12.893  0.00  0.00     0.024 A 
ATOM     36 Cl30 <0> d   1      16.648   7.981  14.709  0.00  0.00    -0.084 Cl
ATOM     37  C27 <0> d   1      17.024   4.722  12.430  0.00  0.00     0.016 A 
ENDBRANCH   4  30
TORSDOF 7
ENDMDL
MODEL 7
REMARK VINA RESULT:      -8.2      3.993      6.226
REMARK  7 active torsions:
REMARK  status: ('A' for Active; 'I' for Inactive)
REMARK       I    between atoms: C2_2  and  N4_4 
REMARK    1  A    between atoms: N7_7  and  C8_8 
REMARK    2  A    between atoms: C11_11  and  O12_12 
REMARK    3  A    between atoms: O12_12  and  C13_13 
REMARK    4  A    between atoms: C13_13  and  C14_14 
REMARK    5  A    between atoms: C18_17  and  C19_18 
REMARK    6  A    between atoms: C18_17  and  C26_25 
REMARK    7  A    between atoms: C19_18  and  N20_19 
ROOT
ATOM      1  C14 <0> d   1      18.755   3.086  11.440  0.00  0.00     0.173 C 
ATOM      2  C16 <0> d   1      20.139   3.707  11.755  0.00  0.00     0.206 C 
ATOM      3  O17 <0> d   1      19.803   4.667  12.784  0.00  0.00    -0.347 OA
ATOM      4  C18 <0> d   1      18.764   4.036  13.552  0.00  0.00     0.212 C 
ATOM      5  O34 <0> d   1      18.102   3.066  12.726  0.00  0.00    -0.340 OA
ENDROOT
BRANCH   1   6
ATOM      6  C13 <0> d   1      18.911   1.667  10.891  0.00  0.00     0.209 C 
BRANCH   6   7
ATOM      7  O12 <0> d   1      17.966   0.803  11.526  0.00  0.00    -0.349 OA
BRANCH   7   8
ATOM      8  C11 <0> d   1      17.913  -0.483  11.089  0.00  0.00     0.069 A 
ATOM      9  C10 <0> d   1      18.336  -0.798   9.806  0.00  0.00     0.039 A 
ATOM     10  C9  <0> d   1      18.283  -2.105   9.361  0.00  0.00     0.032 A 
ATOM     11  C8  <0> d   1      17.806  -3.104  10.199  0.00  0.00     0.030 A 
ATOM     12  C36 <0> d   1      17.377  -2.788  11.483  0.00  0.00     0.032 A 
ATOM     13  C35 <0> d   1      17.435  -1.481  11.927  0.00  0.00     0.039 A 
BRANCH  11  14
ATOM     14  N7  <0> d   1      17.751  -4.428   9.750  0.00  0.00    -0.378 N 
ATOM     15  C6  <0> d   1      16.545  -5.241   9.961  0.00  0.00     0.143 C 
ATOM     16  C5  <0> d   1      16.074  -5.779   8.605  0.00  0.00     0.145 C 
ATOM     17  N4  <0> d   1      17.223  -6.382   7.914  0.00  0.00    -0.349 N 
ATOM     18  C2  <0> d   1      17.171  -7.658   7.482  0.00  0.00     0.215 C 
ATOM     19  C38 <0> d   1      18.432  -5.571   7.709  0.00  0.00     0.145 C 
ATOM     20  C1  <0> d   1      15.925  -8.477   7.700  0.00  0.00     0.117 C 
ATOM     21  O3  <0> d   1      18.127  -8.147   6.919  0.00  0.00    -0.274 OA
ATOM     22  C37 <0> d   1      18.900  -5.031   9.060  0.00  0.00     0.143 C 
ENDBRANCH  11  14
ENDBRANCH   7   8
ENDBRANCH   6   7
ENDBRANCH   1   6
BRANCH   4  23
ATOM     23  C19 <0> d   1      19.375   3.344  14.772  0.00  0.00     0.203 C 
BRANCH  23  24
ATOM     24  N20 <0> d   1      18.929   1.950  14.818  0.00  0.00    -0.346 N 
ATOM     25  C25 <0> d   1      19.628   0.870  14.404  0.00  0.00     0.182 A 
ATOM     26  N23 <0> d   1      18.905  -0.198  14.605  0.00  0.00    -0.361 N 
ATOM     27  C22 <0> d   1      17.728   0.159  15.141  0.00  0.00     0.106 A 
ATOM     28  H24 <0> d   1      19.175  -1.105  14.396  0.00  0.00     0.166 HD
ATOM     29  C21 <0> d   1      17.723   1.498  15.283  0.00  0.00     0.109 A 
ENDBRANCH  23  24
ENDBRANCH   4  23
BRANCH   4  30
ATOM     30  C26 <0> d   1      17.767   5.072  14.004  0.00  0.00     0.027 A 
ATOM     31  C32 <0> d   1      18.193   6.177  14.719  0.00  0.00     0.047 A 
ATOM     32  C31 <0> d   1      17.280   7.130  15.129  0.00  0.00     0.048 A 
ATOM     33 Cl33 <0> d   1      19.878   6.373  15.090  0.00  0.00    -0.084 Cl
ATOM     34  C29 <0> d   1      15.937   6.973  14.833  0.00  0.00     0.035 A 
ATOM     35  C28 <0> d   1      15.511   5.866  14.123  0.00  0.00     0.024 A 
ATOM     36 Cl30 <0> d   1      14.788   8.165  15.354  0.00  0.00    -0.084 Cl
ATOM     37  C27 <0> d   1      16.426   4.915  13.709  0.00  0.00     0.016 A 
ENDBRANCH   4  30
TORSDOF 7
ENDMDL
MODEL 8
REMARK VINA RESULT:      -8.2      2.590      3.835
REMARK  7 active torsions:
REMARK  status: ('A' for Active; 'I' for Inactive)
REMARK       I    between atoms: C2_2  and  N4_4 
REMARK    1  A    between atoms: N7_7  and  C8_8 
REMARK    2  A    between atoms: C11_11  and  O12_12 
REMARK    3  A    between atoms: O12_12  and  C13_13 
REMARK    4  A    between atoms: C13_13  and  C14_14 
REMARK    5  A    between atoms: C18_17  and  C19_18 
REMARK    6  A    between atoms: C18_17  and  C26_25 
REMARK    7  A    between atoms: C19_18  and  N20_19 
ROOT
ATOM      1  C14 <0> d   1      18.502  -1.753  11.561  0.00  0.00     0.173 C 
ATOM      2  C16 <0> d   1      20.046  -1.695  11.451  0.00  0.00     0.206 C 
ATOM      3  O17 <0> d   1      20.286  -0.268  11.428  0.00  0.00    -0.347 OA
ATOM      4  C18 <0> d   1      19.300   0.286  12.315  0.00  0.00     0.212 C 
ATOM      5  O34 <0> d   1      18.187  -0.619  12.395  0.00  0.00    -0.340 OA
ENDROOT
BRANCH   1   6
ATOM      6  C13 <0> d   1      18.055  -3.055  12.228  0.00  0.00     0.209 C 
BRANCH   6   7
ATOM      7  O12 <0> d   1      18.732  -4.158  11.622  0.00  0.00    -0.349 OA
BRANCH   7   8
ATOM      8  C11 <0> d   1      18.199  -4.655  10.474  0.00  0.00     0.069 A 
ATOM      9  C10 <0> d   1      16.827  -4.824  10.363  0.00  0.00     0.039 A 
ATOM     10  C9  <0> d   1      16.284  -5.328   9.197  0.00  0.00     0.032 A 
ATOM     11  C8  <0> d   1      17.114  -5.667   8.137  0.00  0.00     0.030 A 
ATOM     12  C36 <0> d   1      18.488  -5.504   8.250  0.00  0.00     0.032 A 
ATOM     13  C35 <0> d   1      19.028  -4.995   9.415  0.00  0.00     0.039 A 
BRANCH  11  14
ATOM     14  N7  <0> d   1      16.565  -6.180   6.955  0.00  0.00    -0.378 N 
ATOM     15  C6  <0> d   1      15.341  -6.992   6.988  0.00  0.00     0.143 C 
ATOM     16  C5  <0> d   1      14.307  -6.356   6.052  0.00  0.00     0.145 C 
ATOM     17  N4  <0> d   1      14.947  -6.092   4.755  0.00  0.00    -0.349 N 
ATOM     18  C2  <0> d   1      14.420  -6.586   3.617  0.00  0.00     0.215 C 
ATOM     19  C38 <0> d   1      16.175  -5.286   4.722  0.00  0.00     0.145 C 
ATOM     20  C1  <0> d   1      13.160  -7.412   3.666  0.00  0.00     0.117 C 
ATOM     21  O3  <0> d   1      14.960  -6.367   2.553  0.00  0.00    -0.274 OA
ATOM     22  C37 <0> d   1      17.206  -5.917   5.659  0.00  0.00     0.143 C 
ENDBRANCH  11  14
ENDBRANCH   7   8
ENDBRANCH   6   7
ENDBRANCH   1   6
BRANCH   4  23
ATOM     23  C19 <0> d   1      19.910   0.476  13.706  0.00  0.00     0.203 C 
BRANCH  23  24
ATOM     24  N20 <0> d   1      19.034  -0.130  14.711  0.00  0.00    -0.346 N 
ATOM     25  C25 <0> d   1      17.914   0.417  15.233  0.00  0.00     0.182 A 
ATOM     26  N23 <0> d   1      17.404  -0.419  16.096  0.00  0.00    -0.361 N 
ATOM     27  C22 <0> d   1      18.177  -1.514  16.161  0.00  0.00     0.106 A 
ATOM     28  H24 <0> d   1      16.596  -0.270  16.611  0.00  0.00     0.166 HD
ATOM     29  C21 <0> d   1      19.201  -1.353  15.303  0.00  0.00     0.109 A 
ENDBRANCH  23  24
ENDBRANCH   4  23
BRANCH   4  30
ATOM     30  C26 <0> d   1      18.828   1.614  11.784  0.00  0.00     0.027 A 
ATOM     31  C32 <0> d   1      18.569   1.767  10.433  0.00  0.00     0.047 A 
ATOM     32  C31 <0> d   1      18.130   2.984   9.946  0.00  0.00     0.048 A 
ATOM     33 Cl33 <0> d   1      18.783   0.426   9.352  0.00  0.00    -0.084 Cl
ATOM     34  C29 <0> d   1      17.960   4.053  10.808  0.00  0.00     0.035 A 
ATOM     35  C28 <0> d   1      18.224   3.901  12.157  0.00  0.00     0.024 A 
ATOM     36 Cl30 <0> d   1      17.417   5.584  10.196  0.00  0.00    -0.084 Cl
ATOM     37  C27 <0> d   1      18.658   2.682  12.644  0.00  0.00     0.016 A 
ENDBRANCH   4  30
TORSDOF 7
ENDMDL
MODEL 9
REMARK VINA RESULT:      -8.1      3.569      8.725
REMARK  7 active torsions:
REMARK  status: ('A' for Active; 'I' for Inactive)
REMARK       I    between atoms: C2_2  and  N4_4 
REMARK    1  A    between atoms: N7_7  and  C8_8 
REMARK    2  A    between atoms: C11_11  and  O12_12 
REMARK    3  A    between atoms: O12_12  and  C13_13 
REMARK    4  A    between atoms: C13_13  and  C14_14 
REMARK    5  A    between atoms: C18_17  and  C19_18 
REMARK    6  A    between atoms: C18_17  and  C26_25 
REMARK    7  A    between atoms: C19_18  and  N20_19 
ROOT
ATOM      1  C14 <0> d   1      16.742  -5.973   8.511  0.00  0.00     0.173 C 
ATOM      2  C16 <0> d   1      17.531  -7.242   8.101  0.00  0.00     0.206 C 
ATOM      3  O17 <0> d   1      17.219  -7.338   6.690  0.00  0.00    -0.347 OA
ATOM      4  C18 <0> d   1      17.156  -5.977   6.233  0.00  0.00     0.212 C 
ATOM      5  O34 <0> d   1      16.850  -5.126   7.348  0.00  0.00    -0.340 OA
ENDROOT
BRANCH   1   6
ATOM      6  C13 <0> d   1      17.386  -5.305   9.727  0.00  0.00     0.209 C 
BRANCH   6   7
ATOM      7  O12 <0> d   1      17.583  -3.915   9.459  0.00  0.00    -0.349 OA
BRANCH   7   8
ATOM      8  C11 <0> d   1      17.990  -3.138  10.498  0.00  0.00     0.069 A 
ATOM      9  C10 <0> d   1      17.377  -1.916  10.731  0.00  0.00     0.039 A 
ATOM     10  C9  <0> d   1      17.789  -1.125  11.786  0.00  0.00     0.032 A 
ATOM     11  C8  <0> d   1      18.818  -1.554  12.613  0.00  0.00     0.030 A 
ATOM     12  C36 <0> d   1      19.437  -2.775  12.376  0.00  0.00     0.032 A 
ATOM     13  C35 <0> d   1      19.020  -3.566  11.323  0.00  0.00     0.039 A 
BRANCH  11  14
ATOM     14  N7  <0> d   1      19.238  -0.753  13.682  0.00  0.00    -0.378 N 
ATOM     15  C6  <0> d   1      19.299   0.709  13.543  0.00  0.00     0.143 C 
ATOM     16  C5  <0> d   1      18.459   1.342  14.660  0.00  0.00     0.145 C 
ATOM     17  N4  <0> d   1      18.848   0.735  15.941  0.00  0.00    -0.349 N 
ATOM     18  C2  <0> d   1      19.252   1.505  16.970  0.00  0.00     0.215 C 
ATOM     19  C38 <0> d   1      18.792  -0.728  16.077  0.00  0.00     0.145 C 
ATOM     20  C1  <0> d   1      19.304   3.003  16.815  0.00  0.00     0.117 C 
ATOM     21  O3  <0> d   1      19.576   0.993  18.021  0.00  0.00    -0.274 OA
ATOM     22  C37 <0> d   1      19.626  -1.360  14.962  0.00  0.00     0.143 C 
ENDBRANCH  11  14
ENDBRANCH   7   8
ENDBRANCH   6   7
ENDBRANCH   1   6
BRANCH   4  23
ATOM     23  C19 <0> d   1      18.505  -5.575   5.633  0.00  0.00     0.203 C 
BRANCH  23  24
ATOM     24  N20 <0> d   1      18.952  -4.316   6.234  0.00  0.00    -0.346 N 
ATOM     25  C25 <0> d   1      19.868  -4.177   7.217  0.00  0.00     0.182 A 
ATOM     26  N23 <0> d   1      20.002  -2.908   7.487  0.00  0.00    -0.361 N 
ATOM     27  C22 <0> d   1      19.179  -2.198   6.699  0.00  0.00     0.106 A 
ATOM     28  H24 <0> d   1      20.600  -2.536   8.154  0.00  0.00     0.166 HD
ATOM     29  C21 <0> d   1      18.514  -3.060   5.909  0.00  0.00     0.109 A 
ENDBRANCH  23  24
ENDBRANCH   4  23
BRANCH   4  30
ATOM     30  C26 <0> d   1      16.077  -5.842   5.190  0.00  0.00     0.027 A 
ATOM     31  C32 <0> d   1      14.838  -6.422   5.396  0.00  0.00     0.047 A 
ATOM     32  C31 <0> d   1      13.846  -6.293   4.442  0.00  0.00     0.048 A 
ATOM     33 Cl33 <0> d   1      14.525  -7.300   6.860  0.00  0.00    -0.084 Cl
ATOM     34  C29 <0> d   1      14.097  -5.593   3.275  0.00  0.00     0.035 A 
ATOM     35  C28 <0> d   1      15.337  -5.019   3.066  0.00  0.00     0.024 A 
ATOM     36 Cl30 <0> d   1      12.854  -5.438   2.072  0.00  0.00    -0.084 Cl
ATOM     37  C27 <0> d   1      16.327  -5.144   4.024  0.00  0.00     0.016 A 
ENDBRANCH   4  30
TORSDOF 7
ENDMDL
