MODEL 1
REMARK VINA RESULT:      -7.8      0.000      0.000
REMARK  9 active torsions:
REMARK  status: ('A' for Active; 'I' for Inactive)
REMARK    1  A    between atoms: O2_2  and  C3_3 
REMARK    2  A    between atoms: C4_4  and  C5_5 
REMARK    3  A    between atoms: C5_5  and  C7_6 
REMARK    4  A    between atoms: C5_5  and  C13_12 
REMARK    5  A    between atoms: C13_12  and  O14_13 
REMARK    6  A    between atoms: C13_12  and  C15_14 
REMARK    7  A    between atoms: C13_12  and  C20_19 
REMARK    8  A    between atoms: C15_14  and  C16_15 
REMARK    9  A    between atoms: C16_15  and  N17_16 
ROOT
ATOM      1  C5  ZIN A   1      19.044  -3.102   7.751  0.00  0.00     0.095 C 
ENDROOT
BRANCH   1   2
ATOM      2  C4  ZIN A   1      18.643  -4.181   6.778  0.00  0.00     0.007 A 
ATOM      3  C3  ZIN A   1      19.234  -5.448   6.852  0.00  0.00     0.171 A 
ATOM      4  N38 ZIN A   1      18.910  -6.410   6.016  0.00  0.00    -0.224 NA
ATOM      5  C37 ZIN A   1      17.992  -6.220   5.062  0.00  0.00     0.070 A 
ATOM      6  C31 ZIN A   1      17.358  -4.960   4.933  0.00  0.00    -0.005 A 
ATOM      7  C36 ZIN A   1      17.647  -7.254   4.173  0.00  0.00     0.034 A 
ATOM      8  C30 ZIN A   1      17.704  -3.925   5.823  0.00  0.00     0.026 A 
ATOM      9  C32 ZIN A   1      16.399  -4.766   3.926  0.00  0.00     0.032 A 
ATOM     10  C33 ZIN A   1      16.091  -5.791   3.083  0.00  0.00     0.011 A 
ATOM     11 Br34 ZIN A   1      14.800  -5.528   1.726  0.00  0.00    -0.051 Br
ATOM     12  C35 ZIN A   1      16.714  -7.031   3.208  0.00  0.00     0.021 A 
BRANCH   3  13
ATOM     13  O2  ZIN A   1      20.165  -5.688   7.808  0.00  0.00    -0.339 OA
ATOM     14  C1  ZIN A   1      21.535  -5.530   7.433  0.00  0.00     0.211 C 
ENDBRANCH   3  13
ENDBRANCH   1   2
BRANCH   1  15
ATOM     15  C7  ZIN A   1      19.133  -1.783   7.029  0.00  0.00    -0.046 A 
ATOM     16  C12 ZIN A   1      19.257  -1.755   5.652  0.00  0.00     0.008 A 
ATOM     17  C11 ZIN A   1      19.333  -0.545   4.989  0.00  0.00     0.001 A 
ATOM     18  C10 ZIN A   1      19.296   0.637   5.703  0.00  0.00     0.000 A 
ATOM     19  C9  ZIN A   1      19.178   0.611   7.080  0.00  0.00     0.001 A 
ATOM     20  C8  ZIN A   1      19.097  -0.600   7.743  0.00  0.00     0.008 A 
ENDBRANCH   1  15
BRANCH   1  21
ATOM     21  C13 ZIN A   1      17.999  -3.006   8.864  0.00  0.00     0.099 C 
BRANCH  21  22
ATOM     22  O14 ZIN A   1      17.140  -1.891   8.616  0.00  0.00    -0.384 OA
ATOM     23  H47 ZIN A   1      16.368  -1.852   9.198  0.00  0.00     0.211 HD
ENDBRANCH  21  22
BRANCH  21  24
ATOM     24  C15 ZIN A   1      17.170  -4.291   8.899  0.00  0.00     0.074 C 
BRANCH  24  25
ATOM     25  C16 ZIN A   1      16.529  -4.448  10.278  0.00  0.00     0.274 C 
BRANCH  25  26
ATOM     26  N17 ZIN A   1      16.728  -5.822  10.758  0.00  0.00     0.080 N 
ATOM     27  C18 ZIN A   1      17.413  -6.638   9.746  0.00  0.00     0.309 C 
ATOM     28  C19 ZIN A   1      17.462  -5.834  12.030  0.00  0.00     0.309 C 
ENDBRANCH  25  26
ENDBRANCH  24  25
ENDBRANCH  21  24
BRANCH  21  29
ATOM     29  C20 ZIN A   1      18.693  -2.821  10.190  0.00  0.00    -0.012 A 
ATOM     30  C29 ZIN A   1      19.733  -3.628  10.535  0.00  0.00     0.011 A 
ATOM     31  C28 ZIN A   1      20.390  -3.468  11.755  0.00  0.00     0.002 A 
ATOM     32  C27 ZIN A   1      20.005  -2.507  12.638  0.00  0.00     0.012 A 
ATOM     33  C26 ZIN A   1      18.931  -1.659  12.318  0.00  0.00    -0.025 A 
ATOM     34  C21 ZIN A   1      18.265  -1.819  11.076  0.00  0.00    -0.017 A 
ATOM     35  C25 ZIN A   1      18.503  -0.656  13.205  0.00  0.00     0.012 A 
ATOM     36  C22 ZIN A   1      17.191  -0.971  10.757  0.00  0.00     0.013 A 
ATOM     37  C23 ZIN A   1      16.805  -0.011  11.641  0.00  0.00     0.001 A 
ATOM     38  C24 ZIN A   1      17.459   0.146  12.862  0.00  0.00     0.001 A 
ENDBRANCH  21  29
ENDBRANCH   1  21
TORSDOF 9
ENDMDL
MODEL 2
REMARK VINA RESULT:      -7.4      3.668      8.812
REMARK  9 active torsions:
REMARK  status: ('A' for Active; 'I' for Inactive)
REMARK    1  A    between atoms: O2_2  and  C3_3 
REMARK    2  A    between atoms: C4_4  and  C5_5 
REMARK    3  A    between atoms: C5_5  and  C7_6 
REMARK    4  A    between atoms: C5_5  and  C13_12 
REMARK    5  A    between atoms: C13_12  and  O14_13 
REMARK    6  A    between atoms: C13_12  and  C15_14 
REMARK    7  A    between atoms: C13_12  and  C20_19 
REMARK    8  A    between atoms: C15_14  and  C16_15 
REMARK    9  A    between atoms: C16_15  and  N17_16 
ROOT
ATOM      1  C5  ZIN A   1      15.475  -7.470   6.338  0.00  0.00     0.095 C 
ENDROOT
BRANCH   1   2
ATOM      2  C4  ZIN A   1      16.538  -6.927   7.259  0.00  0.00     0.007 A 
ATOM      3  C3  ZIN A   1      17.780  -7.567   7.351  0.00  0.00     0.171 A 
ATOM      4  N38 ZIN A   1      18.728  -7.123   8.147  0.00  0.00    -0.224 NA
ATOM      5  C37 ZIN A   1      18.547  -6.030   8.898  0.00  0.00     0.070 A 
ATOM      6  C31 ZIN A   1      17.312  -5.337   8.851  0.00  0.00    -0.005 A 
ATOM      7  C36 ZIN A   1      19.565  -5.557   9.744  0.00  0.00     0.034 A 
ATOM      8  C30 ZIN A   1      16.293  -5.811   8.003  0.00  0.00     0.026 A 
ATOM      9  C32 ZIN A   1      17.128  -4.194   9.645  0.00  0.00     0.032 A 
ATOM     10  C33 ZIN A   1      18.138  -3.766  10.453  0.00  0.00     0.011 A 
ATOM     11 Br34 ZIN A   1      17.888  -2.226  11.523  0.00  0.00    -0.051 Br
ATOM     12  C35 ZIN A   1      19.352  -4.447  10.501  0.00  0.00     0.021 A 
BRANCH   3  13
ATOM     13  O2  ZIN A   1      18.010  -8.676   6.604  0.00  0.00    -0.339 OA
ATOM     14  C1  ZIN A   1      17.568  -9.923   7.142  0.00  0.00     0.211 C 
ENDBRANCH   3  13
ENDBRANCH   1   2
BRANCH   1  15
ATOM     15  C7  ZIN A   1      14.162  -7.541   7.075  0.00  0.00    -0.046 A 
ATOM     16  C12 ZIN A   1      13.570  -6.383   7.544  0.00  0.00     0.008 A 
ATOM     17  C11 ZIN A   1      12.363  -6.447   8.215  0.00  0.00     0.001 A 
ATOM     18  C10 ZIN A   1      11.754  -7.669   8.426  0.00  0.00     0.000 A 
ATOM     19  C9  ZIN A   1      12.349  -8.828   7.962  0.00  0.00     0.001 A 
ATOM     20  C8  ZIN A   1      13.553  -8.763   7.286  0.00  0.00     0.008 A 
ENDBRANCH   1  15
BRANCH   1  21
ATOM     21  C13 ZIN A   1      15.332  -6.548   5.126  0.00  0.00     0.099 C 
BRANCH  21  22
ATOM     22  O14 ZIN A   1      14.580  -5.390   5.494  0.00  0.00    -0.384 OA
ATOM     23  H47 ZIN A   1      14.641  -4.663   4.859  0.00  0.00     0.211 HD
ENDBRANCH  21  22
BRANCH  21  24
ATOM     24  C15 ZIN A   1      16.718  -6.123   4.641  0.00  0.00     0.074 C 
BRANCH  24  25
ATOM     25  C16 ZIN A   1      16.596  -4.856   3.793  0.00  0.00     0.274 C 
BRANCH  25  26
ATOM     26  N17 ZIN A   1      17.725  -3.962   4.083  0.00  0.00     0.080 N 
ATOM     27  C18 ZIN A   1      17.293  -2.557   4.101  0.00  0.00     0.309 C 
ATOM     28  C19 ZIN A   1      18.376  -4.329   5.348  0.00  0.00     0.309 C 
ENDBRANCH  25  26
ENDBRANCH  24  25
ENDBRANCH  21  24
BRANCH  21  29
ATOM     29  C20 ZIN A   1      14.616  -7.281   4.020  0.00  0.00    -0.012 A 
ATOM     30  C29 ZIN A   1      13.363  -6.901   3.648  0.00  0.00     0.011 A 
ATOM     31  C28 ZIN A   1      12.687  -7.564   2.624  0.00  0.00     0.002 A 
ATOM     32  C27 ZIN A   1      13.257  -8.616   1.974  0.00  0.00     0.012 A 
ATOM     33  C26 ZIN A   1      14.546  -9.040   2.336  0.00  0.00    -0.025 A 
ATOM     34  C21 ZIN A   1      15.235  -8.363   3.374  0.00  0.00    -0.017 A 
ATOM     35  C25 ZIN A   1      15.167 -10.122   1.689  0.00  0.00     0.012 A 
ATOM     36  C22 ZIN A   1      16.525  -8.789   3.736  0.00  0.00     0.013 A 
ATOM     37  C23 ZIN A   1      17.094  -9.841   3.087  0.00  0.00     0.001 A 
ATOM     38  C24 ZIN A   1      16.416 -10.506   2.066  0.00  0.00     0.001 A 
ENDBRANCH  21  29
ENDBRANCH   1  21
TORSDOF 9
ENDMDL
MODEL 3
REMARK VINA RESULT:      -7.2      6.617     11.548
REMARK  9 active torsions:
REMARK  status: ('A' for Active; 'I' for Inactive)
REMARK    1  A    between atoms: O2_2  and  C3_3 
REMARK    2  A    between atoms: C4_4  and  C5_5 
REMARK    3  A    between atoms: C5_5  and  C7_6 
REMARK    4  A    between atoms: C5_5  and  C13_12 
REMARK    5  A    between atoms: C13_12  and  O14_13 
REMARK    6  A    between atoms: C13_12  and  C15_14 
REMARK    7  A    between atoms: C13_12  and  C20_19 
REMARK    8  A    between atoms: C15_14  and  C16_15 
REMARK    9  A    between atoms: C16_15  and  N17_16 
ROOT
ATOM      1  C5  ZIN A   1      19.090   3.273  14.657  0.00  0.00     0.095 C 
ENDROOT
BRANCH   1   2
ATOM      2  C4  ZIN A   1      18.550   4.673  14.795  0.00  0.00     0.007 A 
ATOM      3  C3  ZIN A   1      19.409   5.771  14.674  0.00  0.00     0.171 A 
ATOM      4  N38 ZIN A   1      18.971   7.006  14.793  0.00  0.00    -0.224 NA
ATOM      5  C37 ZIN A   1      17.680   7.265  15.025  0.00  0.00     0.070 A 
ATOM      6  C31 ZIN A   1      16.758   6.197  15.159  0.00  0.00    -0.005 A 
ATOM      7  C36 ZIN A   1      17.217   8.586  15.147  0.00  0.00     0.034 A 
ATOM      8  C30 ZIN A   1      17.223   4.873  15.037  0.00  0.00     0.026 A 
ATOM      9  C32 ZIN A   1      15.405   6.475  15.408  0.00  0.00     0.032 A 
ATOM     10  C33 ZIN A   1      14.993   7.769  15.520  0.00  0.00     0.011 A 
ATOM     11 Br34 ZIN A   1      13.170   8.143  15.856  0.00  0.00    -0.051 Br
ATOM     12  C35 ZIN A   1      15.898   8.821  15.390  0.00  0.00     0.021 A 
BRANCH   3  13
ATOM     13  O2  ZIN A   1      20.726   5.557  14.432  0.00  0.00    -0.339 OA
ATOM     14  C1  ZIN A   1      21.644   5.936  15.459  0.00  0.00     0.211 C 
ENDBRANCH   3  13
ENDBRANCH   1   2
BRANCH   1  15
ATOM     15  C7  ZIN A   1      19.071   2.593  16.003  0.00  0.00    -0.046 A 
ATOM     16  C12 ZIN A   1      19.025   3.351  17.158  0.00  0.00     0.008 A 
ATOM     17  C11 ZIN A   1      19.002   2.728  18.392  0.00  0.00     0.001 A 
ATOM     18  C10 ZIN A   1      19.035   1.349  18.471  0.00  0.00     0.000 A 
ATOM     19  C9  ZIN A   1      19.087   0.591  17.315  0.00  0.00     0.001 A 
ATOM     20  C8  ZIN A   1      19.105   1.214  16.081  0.00  0.00     0.008 A 
ENDBRANCH   1  15
BRANCH   1  21
ATOM     21  C13 ZIN A   1      18.220   2.485  13.675  0.00  0.00     0.099 C 
BRANCH  21  22
ATOM     22  O14 ZIN A   1      17.212   1.773  14.396  0.00  0.00    -0.384 OA
ATOM     23  H47 ZIN A   1      16.670   2.332  14.969  0.00  0.00     0.211 HD
ENDBRANCH  21  22
BRANCH  21  24
ATOM     24  C15 ZIN A   1      17.558   3.451  12.692  0.00  0.00     0.074 C 
BRANCH  24  25
ATOM     25  C16 ZIN A   1      18.550   3.814  11.586  0.00  0.00     0.274 C 
BRANCH  25  26
ATOM     26  N17 ZIN A   1      17.902   3.660  10.277  0.00  0.00     0.080 N 
ATOM     27  C18 ZIN A   1      17.701   4.965   9.632  0.00  0.00     0.309 C 
ATOM     28  C19 ZIN A   1      18.673   2.758   9.410  0.00  0.00     0.309 C 
ENDBRANCH  25  26
ENDBRANCH  24  25
ENDBRANCH  21  24
BRANCH  21  29
ATOM     29  C20 ZIN A   1      19.081   1.507  12.916  0.00  0.00    -0.012 A 
ATOM     30  C29 ZIN A   1      20.419   1.723  12.798  0.00  0.00     0.011 A 
ATOM     31  C28 ZIN A   1      21.232   0.827  12.104  0.00  0.00     0.002 A 
ATOM     32  C27 ZIN A   1      20.708  -0.284  11.517  0.00  0.00     0.012 A 
ATOM     33  C26 ZIN A   1      19.329  -0.536  11.613  0.00  0.00    -0.025 A 
ATOM     34  C21 ZIN A   1      18.504   0.373  12.322  0.00  0.00    -0.017 A 
ATOM     35  C25 ZIN A   1      18.752  -1.672  11.019  0.00  0.00     0.012 A 
ATOM     36  C22 ZIN A   1      17.124   0.120  12.418  0.00  0.00     0.013 A 
ATOM     37  C23 ZIN A   1      16.601  -0.990  11.829  0.00  0.00     0.001 A 
ATOM     38  C24 ZIN A   1      17.413  -1.884  11.132  0.00  0.00     0.001 A 
ENDBRANCH  21  29
ENDBRANCH   1  21
TORSDOF 9
ENDMDL
MODEL 4
REMARK VINA RESULT:      -7.1      6.158     11.107
REMARK  9 active torsions:
REMARK  status: ('A' for Active; 'I' for Inactive)
REMARK    1  A    between atoms: O2_2  and  C3_3 
REMARK    2  A    between atoms: C4_4  and  C5_5 
REMARK    3  A    between atoms: C5_5  and  C7_6 
REMARK    4  A    between atoms: C5_5  and  C13_12 
REMARK    5  A    between atoms: C13_12  and  O14_13 
REMARK    6  A    between atoms: C13_12  and  C15_14 
REMARK    7  A    between atoms: C13_12  and  C20_19 
REMARK    8  A    between atoms: C15_14  and  C16_15 
REMARK    9  A    between atoms: C16_15  and  N17_16 
ROOT
ATOM      1  C5  ZIN A   1      19.023   1.722  14.883  0.00  0.00     0.095 C 
ENDROOT
BRANCH   1   2
ATOM      2  C4  ZIN A   1      18.563   2.941  15.641  0.00  0.00     0.007 A 
ATOM      3  C3  ZIN A   1      19.023   3.173  16.943  0.00  0.00     0.171 A 
ATOM      4  N38 ZIN A   1      18.638   4.224  17.634  0.00  0.00    -0.224 NA
ATOM      5  C37 ZIN A   1      17.796   5.125  17.115  0.00  0.00     0.070 A 
ATOM      6  C31 ZIN A   1      17.294   4.948  15.802  0.00  0.00    -0.005 A 
ATOM      7  C36 ZIN A   1      17.392   6.248  17.856  0.00  0.00     0.034 A 
ATOM      8  C30 ZIN A   1      17.699   3.821  15.060  0.00  0.00     0.026 A 
ATOM      9  C32 ZIN A   1      16.407   5.894  15.266  0.00  0.00     0.032 A 
ATOM     10  C33 ZIN A   1      16.037   6.971  16.014  0.00  0.00     0.011 A 
ATOM     11 Br34 ZIN A   1      14.841   8.245  15.291  0.00  0.00    -0.051 Br
ATOM     12  C35 ZIN A   1      16.529   7.146  17.306  0.00  0.00     0.021 A 
BRANCH   3  13
ATOM     13  O2  ZIN A   1      19.883   2.289  17.508  0.00  0.00    -0.339 OA
ATOM     14  C1  ZIN A   1      19.414   1.566  18.648  0.00  0.00     0.211 C 
ENDBRANCH   3  13
ENDBRANCH   1   2
BRANCH   1  15
ATOM     15  C7  ZIN A   1      18.506   0.482  15.567  0.00  0.00    -0.046 A 
ATOM     16  C12 ZIN A   1      19.299  -0.648  15.639  0.00  0.00     0.008 A 
ATOM     17  C11 ZIN A   1      18.828  -1.783  16.271  0.00  0.00     0.001 A 
ATOM     18  C10 ZIN A   1      17.560  -1.792  16.821  0.00  0.00     0.000 A 
ATOM     19  C9  ZIN A   1      16.765  -0.664  16.744  0.00  0.00     0.001 A 
ATOM     20  C8  ZIN A   1      17.239   0.474  16.117  0.00  0.00     0.008 A 
ENDBRANCH   1  15
BRANCH   1  21
ATOM     21  C13 ZIN A   1      18.484   1.778  13.452  0.00  0.00     0.099 C 
BRANCH  21  22
ATOM     22  O14 ZIN A   1      17.115   1.370  13.442  0.00  0.00    -0.384 OA
ATOM     23  H47 ZIN A   1      16.505   2.043  13.109  0.00  0.00     0.211 HD
ENDBRANCH  21  22
BRANCH  21  24
ATOM     24  C15 ZIN A   1      18.593   3.209  12.922  0.00  0.00     0.074 C 
BRANCH  24  25
ATOM     25  C16 ZIN A   1      17.604   3.403  11.772  0.00  0.00     0.274 C 
BRANCH  25  26
ATOM     26  N17 ZIN A   1      18.309   3.954  10.607  0.00  0.00     0.080 N 
ATOM     27  C18 ZIN A   1      18.566   2.911   9.605  0.00  0.00     0.309 C 
ATOM     28  C19 ZIN A   1      17.561   5.074  10.020  0.00  0.00     0.309 C 
ENDBRANCH  25  26
ENDBRANCH  24  25
ENDBRANCH  21  24
BRANCH  21  29
ATOM     29  C20 ZIN A   1      19.291   0.855  12.576  0.00  0.00    -0.012 A 
ATOM     30  C29 ZIN A   1      20.566   1.182  12.228  0.00  0.00     0.011 A 
ATOM     31  C28 ZIN A   1      21.328   0.338  11.423  0.00  0.00     0.002 A 
ATOM     32  C27 ZIN A   1      20.817  -0.833  10.953  0.00  0.00     0.012 A 
ATOM     33  C26 ZIN A   1      19.503  -1.201  11.285  0.00  0.00    -0.025 A 
ATOM     34  C21 ZIN A   1      18.729  -0.344  12.108  0.00  0.00    -0.017 A 
ATOM     35  C25 ZIN A   1      18.940  -2.401  10.818  0.00  0.00     0.012 A 
ATOM     36  C22 ZIN A   1      17.413  -0.713  12.440  0.00  0.00     0.013 A 
ATOM     37  C23 ZIN A   1      16.902  -1.882  11.968  0.00  0.00     0.001 A 
ATOM     38  C24 ZIN A   1      17.664  -2.724  11.160  0.00  0.00     0.001 A 
ENDBRANCH  21  29
ENDBRANCH   1  21
TORSDOF 9
ENDMDL
MODEL 5
REMARK VINA RESULT:      -7.0      2.303      2.670
REMARK  9 active torsions:
REMARK  status: ('A' for Active; 'I' for Inactive)
REMARK    1  A    between atoms: O2_2  and  C3_3 
REMARK    2  A    between atoms: C4_4  and  C5_5 
REMARK    3  A    between atoms: C5_5  and  C7_6 
REMARK    4  A    between atoms: C5_5  and  C13_12 
REMARK    5  A    between atoms: C13_12  and  O14_13 
REMARK    6  A    between atoms: C13_12  and  C15_14 
REMARK    7  A    between atoms: C13_12  and  C20_19 
REMARK    8  A    between atoms: C15_14  and  C16_15 
REMARK    9  A    between atoms: C16_15  and  N17_16 
ROOT
ATOM      1  C5  ZIN A   1      19.034  -2.658   8.208  0.00  0.00     0.095 C 
ENDROOT
BRANCH   1   2
ATOM      2  C4  ZIN A   1      18.513  -4.069   8.119  0.00  0.00     0.007 A 
ATOM      3  C3  ZIN A   1      19.398  -5.151   8.211  0.00  0.00     0.171 A 
ATOM      4  N38 ZIN A   1      18.977  -6.394   8.133  0.00  0.00    -0.224 NA
ATOM      5  C37 ZIN A   1      17.680  -6.679   7.972  0.00  0.00     0.070 A 
ATOM      6  C31 ZIN A   1      16.733  -5.629   7.871  0.00  0.00    -0.005 A 
ATOM      7  C36 ZIN A   1      17.235  -8.010   7.894  0.00  0.00     0.034 A 
ATOM      8  C30 ZIN A   1      17.179  -4.296   7.950  0.00  0.00     0.026 A 
ATOM      9  C32 ZIN A   1      15.375  -5.935   7.698  0.00  0.00     0.032 A 
ATOM     10  C33 ZIN A   1      14.981  -7.237   7.625  0.00  0.00     0.011 A 
ATOM     11 Br34 ZIN A   1      13.150  -7.648   7.390  0.00  0.00    -0.051 Br
ATOM     12  C35 ZIN A   1      15.910  -8.271   7.723  0.00  0.00     0.021 A 
BRANCH   3  13
ATOM     13  O2  ZIN A   1      20.722  -4.910   8.381  0.00  0.00    -0.339 OA
ATOM     14  C1  ZIN A   1      21.627  -5.664   7.572  0.00  0.00     0.211 C 
ENDBRANCH   3  13
ENDBRANCH   1   2
BRANCH   1  15
ATOM     15  C7  ZIN A   1      18.940  -2.002   6.855  0.00  0.00    -0.046 A 
ATOM     16  C12 ZIN A   1      18.633  -2.760   5.740  0.00  0.00     0.008 A 
ATOM     17  C11 ZIN A   1      18.541  -2.158   4.499  0.00  0.00     0.001 A 
ATOM     18  C10 ZIN A   1      18.767  -0.801   4.371  0.00  0.00     0.000 A 
ATOM     19  C9  ZIN A   1      19.080  -0.043   5.485  0.00  0.00     0.001 A 
ATOM     20  C8  ZIN A   1      19.166  -0.645   6.727  0.00  0.00     0.008 A 
ENDBRANCH   1  15
BRANCH   1  21
ATOM     21  C13 ZIN A   1      18.198  -1.868   9.217  0.00  0.00     0.099 C 
BRANCH  21  22
ATOM     22  O14 ZIN A   1      17.290  -1.014   8.519  0.00  0.00    -0.384 OA
ATOM     23  H47 ZIN A   1      17.477  -0.071   8.624  0.00  0.00     0.211 HD
ENDBRANCH  21  22
BRANCH  21  24
ATOM     24  C15 ZIN A   1      17.410  -2.839  10.098  0.00  0.00     0.074 C 
BRANCH  24  25
ATOM     25  C16 ZIN A   1      17.918  -2.749  11.538  0.00  0.00     0.274 C 
BRANCH  25  26
ATOM     26  N17 ZIN A   1      18.150  -4.102  12.061  0.00  0.00     0.080 N 
ATOM     27  C18 ZIN A   1      17.097  -5.026  11.619  0.00  0.00     0.309 C 
ATOM     28  C19 ZIN A   1      19.479  -4.594  11.676  0.00  0.00     0.309 C 
ENDBRANCH  25  26
ENDBRANCH  24  25
ENDBRANCH  21  24
BRANCH  21  29
ATOM     29  C20 ZIN A   1      19.110  -1.034  10.081  0.00  0.00    -0.012 A 
ATOM     30  C29 ZIN A   1      20.327  -1.515  10.455  0.00  0.00     0.011 A 
ATOM     31  C28 ZIN A   1      21.185  -0.756  11.249  0.00  0.00     0.002 A 
ATOM     32  C27 ZIN A   1      20.827   0.484  11.681  0.00  0.00     0.012 A 
ATOM     33  C26 ZIN A   1      19.576   1.011  11.320  0.00  0.00    -0.025 A 
ATOM     34  C21 ZIN A   1      18.705   0.241  10.509  0.00  0.00    -0.017 A 
ATOM     35  C25 ZIN A   1      19.170   2.287  11.747  0.00  0.00     0.012 A 
ATOM     36  C22 ZIN A   1      17.452   0.769  10.148  0.00  0.00     0.013 A 
ATOM     37  C23 ZIN A   1      17.094   2.008  10.582  0.00  0.00     0.001 A 
ATOM     38  C24 ZIN A   1      17.951   2.765  11.379  0.00  0.00     0.001 A 
ENDBRANCH  21  29
ENDBRANCH   1  21
TORSDOF 9
ENDMDL
MODEL 6
REMARK VINA RESULT:      -6.8      7.665     11.236
REMARK  9 active torsions:
REMARK  status: ('A' for Active; 'I' for Inactive)
REMARK    1  A    between atoms: O2_2  and  C3_3 
REMARK    2  A    between atoms: C4_4  and  C5_5 
REMARK    3  A    between atoms: C5_5  and  C7_6 
REMARK    4  A    between atoms: C5_5  and  C13_12 
REMARK    5  A    between atoms: C13_12  and  O14_13 
REMARK    6  A    between atoms: C13_12  and  C15_14 
REMARK    7  A    between atoms: C13_12  and  C20_19 
REMARK    8  A    between atoms: C15_14  and  C16_15 
REMARK    9  A    between atoms: C16_15  and  N17_16 
ROOT
ATOM      1  C5  ZIN A   1      17.755   2.901  15.737  0.00  0.00     0.095 C 
ENDROOT
BRANCH   1   2
ATOM      2  C4  ZIN A   1      17.697   3.320  14.291  0.00  0.00     0.007 A 
ATOM      3  C3  ZIN A   1      17.026   4.493  13.926  0.00  0.00     0.171 A 
ATOM      4  N38 ZIN A   1      16.953   4.885  12.673  0.00  0.00    -0.224 NA
ATOM      5  C37 ZIN A   1      17.528   4.181  11.691  0.00  0.00     0.070 A 
ATOM      6  C31 ZIN A   1      18.221   2.983  11.994  0.00  0.00    -0.005 A 
ATOM      7  C36 ZIN A   1      17.450   4.607  10.354  0.00  0.00     0.034 A 
ATOM      8  C30 ZIN A   1      18.299   2.557  13.334  0.00  0.00     0.026 A 
ATOM      9  C32 ZIN A   1      18.818   2.247  10.958  0.00  0.00     0.032 A 
ATOM     10  C33 ZIN A   1      18.721   2.690   9.674  0.00  0.00     0.011 A 
ATOM     11 Br34 ZIN A   1      19.524   1.696   8.280  0.00  0.00    -0.051 Br
ATOM     12  C35 ZIN A   1      18.038   3.867   9.374  0.00  0.00     0.021 A 
BRANCH   3  13
ATOM     13  O2  ZIN A   1      16.433   5.242  14.889  0.00  0.00    -0.339 OA
ATOM     14  C1  ZIN A   1      15.291   6.009  14.503  0.00  0.00     0.211 C 
ENDBRANCH   3  13
ENDBRANCH   1   2
BRANCH   1  15
ATOM     15  C7  ZIN A   1      18.049   1.425  15.821  0.00  0.00    -0.046 A 
ATOM     16  C12 ZIN A   1      19.131   0.897  15.142  0.00  0.00     0.008 A 
ATOM     17  C11 ZIN A   1      19.405  -0.456  15.224  0.00  0.00     0.001 A 
ATOM     18  C10 ZIN A   1      18.590  -1.281  15.974  0.00  0.00     0.000 A 
ATOM     19  C9  ZIN A   1      17.504  -0.754  16.649  0.00  0.00     0.001 A 
ATOM     20  C8  ZIN A   1      17.234   0.600  16.572  0.00  0.00     0.008 A 
ENDBRANCH   1  15
BRANCH   1  21
ATOM     21  C13 ZIN A   1      18.860   3.683  16.451  0.00  0.00     0.099 C 
BRANCH  21  22
ATOM     22  O14 ZIN A   1      19.602   2.799  17.293  0.00  0.00    -0.384 OA
ATOM     23  H47 ZIN A   1      20.283   2.293  16.830  0.00  0.00     0.211 HD
ENDBRANCH  21  22
BRANCH  21  24
ATOM     24  C15 ZIN A   1      19.796   4.305  15.414  0.00  0.00     0.074 C 
BRANCH  24  25
ATOM     25  C16 ZIN A   1      21.098   4.732  16.093  0.00  0.00     0.274 C 
BRANCH  25  26
ATOM     26  N17 ZIN A   1      21.571   5.990  15.499  0.00  0.00     0.080 N 
ATOM     27  C18 ZIN A   1      23.008   5.923  15.198  0.00  0.00     0.309 C 
ATOM     28  C19 ZIN A   1      20.796   6.329  14.298  0.00  0.00     0.309 C 
ENDBRANCH  25  26
ENDBRANCH  24  25
ENDBRANCH  21  24
BRANCH  21  29
ATOM     29  C20 ZIN A   1      18.241   4.774  17.288  0.00  0.00    -0.012 A 
ATOM     30  C29 ZIN A   1      18.387   6.078  16.926  0.00  0.00     0.011 A 
ATOM     31  C28 ZIN A   1      17.819   7.100  17.685  0.00  0.00     0.002 A 
ATOM     32  C27 ZIN A   1      17.109   6.824  18.814  0.00  0.00     0.012 A 
ATOM     33  C26 ZIN A   1      16.944   5.490  19.221  0.00  0.00    -0.025 A 
ATOM     34  C21 ZIN A   1      17.519   4.450  18.447  0.00  0.00    -0.017 A 
ATOM     35  C25 ZIN A   1      16.220   5.165  20.382  0.00  0.00     0.012 A 
ATOM     36  C22 ZIN A   1      17.353   3.115  18.856  0.00  0.00     0.013 A 
ATOM     37  C23 ZIN A   1      16.646   2.840  19.985  0.00  0.00     0.001 A 
ATOM     38  C24 ZIN A   1      16.081   3.862  20.746  0.00  0.00     0.001 A 
ENDBRANCH  21  29
ENDBRANCH   1  21
TORSDOF 9
ENDMDL
MODEL 7
REMARK VINA RESULT:      -6.7      5.516      9.577
REMARK  9 active torsions:
REMARK  status: ('A' for Active; 'I' for Inactive)
REMARK    1  A    between atoms: O2_2  and  C3_3 
REMARK    2  A    between atoms: C4_4  and  C5_5 
REMARK    3  A    between atoms: C5_5  and  C7_6 
REMARK    4  A    between atoms: C5_5  and  C13_12 
REMARK    5  A    between atoms: C13_12  and  O14_13 
REMARK    6  A    between atoms: C13_12  and  C15_14 
REMARK    7  A    between atoms: C13_12  and  C20_19 
REMARK    8  A    between atoms: C15_14  and  C16_15 
REMARK    9  A    between atoms: C16_15  and  N17_16 
ROOT
ATOM      1  C5  ZIN A   1      17.662   2.097  14.287  0.00  0.00     0.095 C 
ENDROOT
BRANCH   1   2
ATOM      2  C4  ZIN A   1      17.773   1.861  12.803  0.00  0.00     0.007 A 
ATOM      3  C3  ZIN A   1      17.381   2.860  11.903  0.00  0.00     0.171 A 
ATOM      4  N38 ZIN A   1      17.461   2.685  10.602  0.00  0.00    -0.224 NA
ATOM      5  C37 ZIN A   1      17.931   1.546  10.082  0.00  0.00     0.070 A 
ATOM      6  C31 ZIN A   1      18.344   0.496  10.939  0.00  0.00    -0.005 A 
ATOM      7  C36 ZIN A   1      18.018   1.367   8.690  0.00  0.00     0.034 A 
ATOM      8  C30 ZIN A   1      18.256   0.676  12.333  0.00  0.00     0.026 A 
ATOM      9  C32 ZIN A   1      18.831  -0.699  10.387  0.00  0.00     0.032 A 
ATOM     10  C33 ZIN A   1      18.900  -0.837   9.033  0.00  0.00     0.011 A 
ATOM     11 Br34 ZIN A   1      19.557  -2.447   8.291  0.00  0.00    -0.051 Br
ATOM     12  C35 ZIN A   1      18.494   0.195   8.189  0.00  0.00     0.021 A 
BRANCH   3  13
ATOM     13  O2  ZIN A   1      16.904   4.034  12.385  0.00  0.00    -0.339 OA
ATOM     14  C1  ZIN A   1      16.558   5.036  11.426  0.00  0.00     0.211 C 
ENDBRANCH   3  13
ENDBRANCH   1   2
BRANCH   1  15
ATOM     15  C7  ZIN A   1      17.773   0.781  15.014  0.00  0.00    -0.046 A 
ATOM     16  C12 ZIN A   1      16.867   0.462  16.008  0.00  0.00     0.008 A 
ATOM     17  C11 ZIN A   1      16.965  -0.748  16.670  0.00  0.00     0.001 A 
ATOM     18  C10 ZIN A   1      17.976  -1.633  16.346  0.00  0.00     0.000 A 
ATOM     19  C9  ZIN A   1      18.886  -1.312  15.356  0.00  0.00     0.001 A 
ATOM     20  C8  ZIN A   1      18.784  -0.104  14.689  0.00  0.00     0.008 A 
ENDBRANCH   1  15
BRANCH   1  21
ATOM     21  C13 ZIN A   1      18.788   3.027  14.741  0.00  0.00     0.099 C 
BRANCH  21  22
ATOM     22  O14 ZIN A   1      20.051   2.431  14.437  0.00  0.00    -0.384 OA
ATOM     23  H47 ZIN A   1      20.152   1.530  14.773  0.00  0.00     0.211 HD
ENDBRANCH  21  22
BRANCH  21  24
ATOM     24  C15 ZIN A   1      18.668   4.367  14.014  0.00  0.00     0.074 C 
BRANCH  24  25
ATOM     25  C16 ZIN A   1      20.057   4.838  13.578  0.00  0.00     0.274 C 
BRANCH  25  26
ATOM     26  N17 ZIN A   1      20.388   6.091  14.268  0.00  0.00     0.080 N 
ATOM     27  C18 ZIN A   1      19.182   6.897  14.505  0.00  0.00     0.309 C 
ATOM     28  C19 ZIN A   1      21.100   5.828  15.526  0.00  0.00     0.309 C 
ENDBRANCH  25  26
ENDBRANCH  24  25
ENDBRANCH  21  24
BRANCH  21  29
ATOM     29  C20 ZIN A   1      18.685   3.252  16.229  0.00  0.00    -0.012 A 
ATOM     30  C29 ZIN A   1      19.439   2.512  17.086  0.00  0.00     0.011 A 
ATOM     31  C28 ZIN A   1      19.360   2.709  18.464  0.00  0.00     0.002 A 
ATOM     32  C27 ZIN A   1      18.520   3.641  18.992  0.00  0.00     0.012 A 
ATOM     33  C26 ZIN A   1      17.721   4.420  18.137  0.00  0.00    -0.025 A 
ATOM     34  C21 ZIN A   1      17.804   4.222  16.736  0.00  0.00    -0.017 A 
ATOM     35  C25 ZIN A   1      16.840   5.391  18.645  0.00  0.00     0.012 A 
ATOM     36  C22 ZIN A   1      17.004   5.001  15.881  0.00  0.00     0.013 A 
ATOM     37  C23 ZIN A   1      16.163   5.931  16.410  0.00  0.00     0.001 A 
ATOM     38  C24 ZIN A   1      16.081   6.125  17.787  0.00  0.00     0.001 A 
ENDBRANCH  21  29
ENDBRANCH   1  21
TORSDOF 9
ENDMDL
MODEL 8
REMARK VINA RESULT:      -6.5      3.354      7.745
REMARK  9 active torsions:
REMARK  status: ('A' for Active; 'I' for Inactive)
REMARK    1  A    between atoms: O2_2  and  C3_3 
REMARK    2  A    between atoms: C4_4  and  C5_5 
REMARK    3  A    between atoms: C5_5  and  C7_6 
REMARK    4  A    between atoms: C5_5  and  C13_12 
REMARK    5  A    between atoms: C13_12  and  O14_13 
REMARK    6  A    between atoms: C13_12  and  C15_14 
REMARK    7  A    between atoms: C13_12  and  C20_19 
REMARK    8  A    between atoms: C15_14  and  C16_15 
REMARK    9  A    between atoms: C16_15  and  N17_16 
ROOT
ATOM      1  C5  ZIN A   1      19.246  -2.246  10.177  0.00  0.00     0.095 C 
ENDROOT
BRANCH   1   2
ATOM      2  C4  ZIN A   1      19.016  -0.956  10.922  0.00  0.00     0.007 A 
ATOM      3  C3  ZIN A   1      19.298  -0.877  12.291  0.00  0.00     0.171 A 
ATOM      4  N38 ZIN A   1      19.104   0.232  12.972  0.00  0.00    -0.224 NA
ATOM      5  C37 ZIN A   1      18.637   1.337  12.381  0.00  0.00     0.070 A 
ATOM      6  C31 ZIN A   1      18.330   1.321  10.997  0.00  0.00    -0.005 A 
ATOM      7  C36 ZIN A   1      18.435   2.520  13.113  0.00  0.00     0.034 A 
ATOM      8  C30 ZIN A   1      18.532   0.136  10.264  0.00  0.00     0.026 A 
ATOM      9  C32 ZIN A   1      17.835   2.483  10.384  0.00  0.00     0.032 A 
ATOM     10  C33 ZIN A   1      17.652   3.611  11.126  0.00  0.00     0.011 A 
ATOM     11 Br34 ZIN A   1      16.984   5.175  10.298  0.00  0.00    -0.051 Br
ATOM     12  C35 ZIN A   1      17.952   3.627  12.487  0.00  0.00     0.021 A 
BRANCH   3  13
ATOM     13  O2  ZIN A   1      19.780  -1.971  12.932  0.00  0.00    -0.339 OA
ATOM     14  C1  ZIN A   1      19.627  -2.010  14.352  0.00  0.00     0.211 C 
ENDBRANCH   3  13
ENDBRANCH   1   2
BRANCH   1  15
ATOM     15  C7  ZIN A   1      18.618  -3.384  10.939  0.00  0.00    -0.046 A 
ATOM     16  C12 ZIN A   1      17.377  -3.220  11.527  0.00  0.00     0.008 A 
ATOM     17  C11 ZIN A   1      16.798  -4.266  12.221  0.00  0.00     0.001 A 
ATOM     18  C10 ZIN A   1      17.463  -5.472  12.335  0.00  0.00     0.000 A 
ATOM     19  C9  ZIN A   1      18.706  -5.635  11.752  0.00  0.00     0.001 A 
ATOM     20  C8  ZIN A   1      19.283  -4.590  11.053  0.00  0.00     0.008 A 
ENDBRANCH   1  15
BRANCH   1  21
ATOM     21  C13 ZIN A   1      18.615  -2.151   8.787  0.00  0.00     0.099 C 
BRANCH  21  22
ATOM     22  O14 ZIN A   1      17.204  -1.968   8.915  0.00  0.00    -0.384 OA
ATOM     23  H47 ZIN A   1      16.678  -2.564   8.365  0.00  0.00     0.211 HD
ENDBRANCH  21  22
BRANCH  21  24
ATOM     24  C15 ZIN A   1      19.217  -0.964   8.033  0.00  0.00     0.074 C 
BRANCH  24  25
ATOM     25  C16 ZIN A   1      18.250  -0.511   6.938  0.00  0.00     0.274 C 
BRANCH  25  26
ATOM     26  N17 ZIN A   1      18.770  -0.917   5.626  0.00  0.00     0.080 N 
ATOM     27  C18 ZIN A   1      17.756  -1.657   4.863  0.00  0.00     0.309 C 
ATOM     28  C19 ZIN A   1      19.253   0.246   4.869  0.00  0.00     0.309 C 
ENDBRANCH  25  26
ENDBRANCH  24  25
ENDBRANCH  21  24
BRANCH  21  29
ATOM     29  C20 ZIN A   1      18.889  -3.422   8.024  0.00  0.00    -0.012 A 
ATOM     30  C29 ZIN A   1      20.046  -3.560   7.319  0.00  0.00     0.011 A 
ATOM     31  C28 ZIN A   1      20.319  -4.730   6.611  0.00  0.00     0.002 A 
ATOM     32  C27 ZIN A   1      19.432  -5.764   6.597  0.00  0.00     0.012 A 
ATOM     33  C26 ZIN A   1      18.225  -5.654   7.308  0.00  0.00    -0.025 A 
ATOM     34  C21 ZIN A   1      17.950  -4.466   8.030  0.00  0.00    -0.017 A 
ATOM     35  C25 ZIN A   1      17.285  -6.699   7.315  0.00  0.00     0.012 A 
ATOM     36  C22 ZIN A   1      16.742  -4.357   8.741  0.00  0.00     0.013 A 
ATOM     37  C23 ZIN A   1      15.856  -5.389   8.725  0.00  0.00     0.001 A 
ATOM     38  C24 ZIN A   1      16.127  -6.557   8.014  0.00  0.00     0.001 A 
ENDBRANCH  21  29
ENDBRANCH   1  21
TORSDOF 9
ENDMDL
MODEL 9
REMARK VINA RESULT:      -6.4      7.412     12.696
REMARK  9 active torsions:
REMARK  status: ('A' for Active; 'I' for Inactive)
REMARK    1  A    between atoms: O2_2  and  C3_3 
REMARK    2  A    between atoms: C4_4  and  C5_5 
REMARK    3  A    between atoms: C5_5  and  C7_6 
REMARK    4  A    between atoms: C5_5  and  C13_12 
REMARK    5  A    between atoms: C13_12  and  O14_13 
REMARK    6  A    between atoms: C13_12  and  C15_14 
REMARK    7  A    between atoms: C13_12  and  C20_19 
REMARK    8  A    between atoms: C15_14  and  C16_15 
REMARK    9  A    between atoms: C16_15  and  N17_16 
ROOT
ATOM      1  C5  ZIN A   1      18.974   3.163  15.579  0.00  0.00     0.095 C 
ENDROOT
BRANCH   1   2
ATOM      2  C4  ZIN A   1      18.538   4.322  16.438  0.00  0.00     0.007 A 
ATOM      3  C3  ZIN A   1      19.125   5.582  16.267  0.00  0.00     0.171 A 
ATOM      4  N38 ZIN A   1      18.772   6.613  17.003  0.00  0.00    -0.224 NA
ATOM      5  C37 ZIN A   1      17.825   6.503  17.942  0.00  0.00     0.070 A 
ATOM      6  C31 ZIN A   1      17.193   5.255  18.166  0.00  0.00    -0.005 A 
ATOM      7  C36 ZIN A   1      17.448   7.610  18.722  0.00  0.00     0.034 A 
ATOM      8  C30 ZIN A   1      17.571   4.146  17.383  0.00  0.00     0.026 A 
ATOM      9  C32 ZIN A   1      16.205   5.146  19.156  0.00  0.00     0.032 A 
ATOM     10  C33 ZIN A   1      15.866   6.240  19.893  0.00  0.00     0.011 A 
ATOM     11 Br34 ZIN A   1      14.534   6.091  21.228  0.00  0.00    -0.051 Br
ATOM     12  C35 ZIN A   1      16.487   7.468  19.676  0.00  0.00     0.021 A 
BRANCH   3  13
ATOM     13  O2  ZIN A   1      20.085   5.741  15.323  0.00  0.00    -0.339 OA
ATOM     14  C1  ZIN A   1      21.442   5.594  15.746  0.00  0.00     0.211 C 
ENDBRANCH   3  13
ENDBRANCH   1   2
BRANCH   1  15
ATOM     15  C7  ZIN A   1      19.072   1.920  16.426  0.00  0.00    -0.046 A 
ATOM     16  C12 ZIN A   1      19.124   2.025  17.804  0.00  0.00     0.008 A 
ATOM     17  C11 ZIN A   1      19.207   0.884  18.580  0.00  0.00     0.001 A 
ATOM     18  C10 ZIN A   1      19.251  -0.359  17.980  0.00  0.00     0.000 A 
ATOM     19  C9  ZIN A   1      19.205  -0.464  16.602  0.00  0.00     0.001 A 
ATOM     20  C8  ZIN A   1      19.116   0.677  15.825  0.00  0.00     0.008 A 
ENDBRANCH   1  15
BRANCH   1  21
ATOM     21  C13 ZIN A   1      17.951   2.942  14.464  0.00  0.00     0.099 C 
BRANCH  21  22
ATOM     22  O14 ZIN A   1      17.264   1.708  14.684  0.00  0.00    -0.384 OA
ATOM     23  H47 ZIN A   1      16.974   1.269  13.873  0.00  0.00     0.211 HD
ENDBRANCH  21  22
BRANCH  21  24
ATOM     24  C15 ZIN A   1      16.943   4.093  14.460  0.00  0.00     0.074 C 
BRANCH  24  25
ATOM     25  C16 ZIN A   1      17.132   4.932  13.195  0.00  0.00     0.274 C 
BRANCH  25  26
ATOM     26  N17 ZIN A   1      16.317   6.150  13.289  0.00  0.00     0.080 N 
ATOM     27  C18 ZIN A   1      15.080   5.899  14.042  0.00  0.00     0.309 C 
ATOM     28  C19 ZIN A   1      17.083   7.251  13.888  0.00  0.00     0.309 C 
ENDBRANCH  25  26
ENDBRANCH  24  25
ENDBRANCH  21  24
BRANCH  21  29
ATOM     29  C20 ZIN A   1      18.660   2.891  13.135  0.00  0.00    -0.012 A 
ATOM     30  C29 ZIN A   1      19.650   3.783  12.854  0.00  0.00     0.011 A 
ATOM     31  C28 ZIN A   1      20.321   3.748  11.632  0.00  0.00     0.002 A 
ATOM     32  C27 ZIN A   1      19.999   2.828  10.681  0.00  0.00     0.012 A 
ATOM     33  C26 ZIN A   1      18.978   1.896  10.934  0.00  0.00    -0.025 A 
ATOM     34  C21 ZIN A   1      18.299   1.929  12.178  0.00  0.00    -0.017 A 
ATOM     35  C25 ZIN A   1      18.616   0.932   9.977  0.00  0.00     0.012 A 
ATOM     36  C22 ZIN A   1      17.277   0.997  12.430  0.00  0.00     0.013 A 
ATOM     37  C23 ZIN A   1      16.954   0.079  11.478  0.00  0.00     0.001 A 
ATOM     38  C24 ZIN A   1      17.622   0.046  10.255  0.00  0.00     0.001 A 
ENDBRANCH  21  29
ENDBRANCH   1  21
TORSDOF 9
ENDMDL
