MODEL 1
REMARK VINA RESULT:      -6.2      0.000      0.000
REMARK  5 active torsions:
REMARK  status: ('A' for Active; 'I' for Inactive)
REMARK    1  A    between atoms: C2_2  and  C3_3 
REMARK    2  A    between atoms: C3_3  and  S4_4 
REMARK    3  A    between atoms: S4_4  and  C5_5 
REMARK    4  A    between atoms: C10_10  and  N11_11 
REMARK       I    between atoms: N11_11  and  C12_12 
REMARK    5  A    between atoms: C12_12  and  O14_14 
ROOT
ATOM      1  C5  ZIN A   1      18.101   1.437  10.200  0.00  0.00     0.002 A 
ATOM      2  C6  ZIN A   1      18.906   2.249   9.404  0.00  0.00     0.021 A 
ATOM      3  C7  ZIN A   1      19.160   1.909   8.095  0.00  0.00     0.036 A 
ATOM      4  C8  ZIN A   1      18.609   0.743   7.559  0.00  0.00     0.103 A 
ATOM      5  N9  ZIN A   1      18.676   0.158   6.333  0.00  0.00    -0.062 NA
ATOM      6  C10 ZIN A   1      17.974  -0.946   6.334  0.00  0.00     0.710 A 
ATOM      7  N16 ZIN A   1      17.410  -1.137   7.564  0.00  0.00    -0.187 N 
ATOM      8  C17 ZIN A   1      17.799  -0.075   8.363  0.00  0.00     0.080 A 
ATOM      9  C18 ZIN A   1      17.553   0.273   9.683  0.00  0.00     0.051 A 
ATOM     10  H32 ZIN A   1      16.842  -1.878   7.828  0.00  0.00     0.184 HD
ENDROOT
BRANCH   6  11
ATOM     11  N11 ZIN A   1      17.822  -1.794   5.249  0.00  0.00    -0.133 N 
ATOM     12  C12 ZIN A   1      18.729  -2.764   5.022  0.00  0.00     0.378 C 
ATOM     13  O13 ZIN A   1      19.678  -2.896   5.769  0.00  0.00    -0.238 OA
ATOM     14  H28 ZIN A   1      17.065  -1.688   4.653  0.00  0.00     0.190 HD
BRANCH  12  15
ATOM     15  O14 ZIN A   1      18.583  -3.588   3.967  0.00  0.00    -0.308 OA
ATOM     16  C15 ZIN A   1      17.226  -3.886   3.546  0.00  0.00     0.215 C 
ENDBRANCH  12  15
ENDBRANCH   6  11
BRANCH   1  17
ATOM     17  S4  ZIN A   1      17.785   1.886  11.875  0.00  0.00    -0.130 SA
BRANCH  17  18
ATOM     18  C3  ZIN A   1      18.425   3.581  11.971  0.00  0.00     0.079 C 
BRANCH  18  19
ATOM     19  C2  ZIN A   1      17.255   4.564  12.042  0.00  0.00     0.006 C 
ATOM     20  C1  ZIN A   1      16.937   5.080  10.636  0.00  0.00     0.006 C 
ENDBRANCH  18  19
ENDBRANCH  17  18
ENDBRANCH   1  17
TORSDOF 5
ENDMDL
MODEL 2
REMARK VINA RESULT:      -6.2      4.662      7.190
REMARK  5 active torsions:
REMARK  status: ('A' for Active; 'I' for Inactive)
REMARK    1  A    between atoms: C2_2  and  C3_3 
REMARK    2  A    between atoms: C3_3  and  S4_4 
REMARK    3  A    between atoms: S4_4  and  C5_5 
REMARK    4  A    between atoms: C10_10  and  N11_11 
REMARK       I    between atoms: N11_11  and  C12_12 
REMARK    5  A    between atoms: C12_12  and  O14_14 
ROOT
ATOM      1  C5  ZIN A   1      19.119   1.187   8.049  0.00  0.00     0.002 A 
ATOM      2  C6  ZIN A   1      18.871   2.432   8.623  0.00  0.00     0.021 A 
ATOM      3  C7  ZIN A   1      18.994   2.611   9.982  0.00  0.00     0.036 A 
ATOM      4  C8  ZIN A   1      19.370   1.537  10.794  0.00  0.00     0.103 A 
ATOM      5  N9  ZIN A   1      19.572   1.406  12.132  0.00  0.00    -0.062 NA
ATOM      6  C10 ZIN A   1      19.920   0.175  12.406  0.00  0.00     0.710 A 
ATOM      7  N16 ZIN A   1      19.965  -0.562  11.256  0.00  0.00    -0.187 N 
ATOM      8  C17 ZIN A   1      19.619   0.282  10.213  0.00  0.00     0.080 A 
ATOM      9  C18 ZIN A   1      19.486   0.112   8.844  0.00  0.00     0.051 A 
ATOM     10  H32 ZIN A   1      20.196  -1.501  11.183  0.00  0.00     0.184 HD
ENDROOT
BRANCH   6  11
ATOM     11  N11 ZIN A   1      20.202  -0.309  13.672  0.00  0.00    -0.133 N 
ATOM     12  C12 ZIN A   1      19.305  -1.084  14.312  0.00  0.00     0.378 C 
ATOM     13  O13 ZIN A   1      18.249  -1.358  13.779  0.00  0.00    -0.238 OA
ATOM     14  H28 ZIN A   1      21.046  -0.089  14.098  0.00  0.00     0.190 HD
BRANCH  12  15
ATOM     15  O14 ZIN A   1      19.579  -1.554  15.544  0.00  0.00    -0.308 OA
ATOM     16  C15 ZIN A   1      18.815  -1.000  16.647  0.00  0.00     0.215 C 
ENDBRANCH  12  15
ENDBRANCH   6  11
BRANCH   1  17
ATOM     17  S4  ZIN A   1      18.955   0.975   6.308  0.00  0.00    -0.130 SA
BRANCH  17  18
ATOM     18  C3  ZIN A   1      17.447  -0.023   6.158  0.00  0.00     0.079 C 
BRANCH  18  19
ATOM     19  C2  ZIN A   1      17.648  -1.091   5.081  0.00  0.00     0.006 C 
ATOM     20  C1  ZIN A   1      19.087  -1.030   4.565  0.00  0.00     0.006 C 
ENDBRANCH  18  19
ENDBRANCH  17  18
ENDBRANCH   1  17
TORSDOF 5
ENDMDL
MODEL 3
REMARK VINA RESULT:      -6.1      3.223      4.027
REMARK  5 active torsions:
REMARK  status: ('A' for Active; 'I' for Inactive)
REMARK    1  A    between atoms: C2_2  and  C3_3 
REMARK    2  A    between atoms: C3_3  and  S4_4 
REMARK    3  A    between atoms: S4_4  and  C5_5 
REMARK    4  A    between atoms: C10_10  and  N11_11 
REMARK       I    between atoms: N11_11  and  C12_12 
REMARK    5  A    between atoms: C12_12  and  O14_14 
ROOT
ATOM      1  C5  ZIN A   1      18.935  -0.287  12.641  0.00  0.00     0.002 A 
ATOM      2  C6  ZIN A   1      17.780  -1.066  12.604  0.00  0.00     0.021 A 
ATOM      3  C7  ZIN A   1      17.439  -1.752  11.461  0.00  0.00     0.036 A 
ATOM      4  C8  ZIN A   1      18.254  -1.670  10.330  0.00  0.00     0.103 A 
ATOM      5  N9  ZIN A   1      18.184  -2.219   9.088  0.00  0.00    -0.062 NA
ATOM      6  C10 ZIN A   1      19.209  -1.828   8.376  0.00  0.00     0.710 A 
ATOM      7  N16 ZIN A   1      20.004  -1.001   9.120  0.00  0.00    -0.187 N 
ATOM      8  C17 ZIN A   1      19.418  -0.884  10.369  0.00  0.00     0.080 A 
ATOM      9  C18 ZIN A   1      19.750  -0.192  11.523  0.00  0.00     0.051 A 
ATOM     10  H32 ZIN A   1      20.825  -0.576   8.827  0.00  0.00     0.184 HD
ENDROOT
BRANCH   6  11
ATOM     11  N11 ZIN A   1      19.454  -2.197   7.063  0.00  0.00    -0.133 N 
ATOM     12  C12 ZIN A   1      19.364  -1.281   6.079  0.00  0.00     0.378 C 
ATOM     13  O13 ZIN A   1      19.071  -0.132   6.342  0.00  0.00    -0.238 OA
ATOM     14  H28 ZIN A   1      19.688  -3.114   6.853  0.00  0.00     0.190 HD
BRANCH  12  15
ATOM     15  O14 ZIN A   1      19.602  -1.640   4.803  0.00  0.00    -0.308 OA
ATOM     16  C15 ZIN A   1      18.900  -2.809   4.305  0.00  0.00     0.215 C 
ENDBRANCH  12  15
ENDBRANCH   6  11
BRANCH   1  17
ATOM     17  S4  ZIN A   1      19.357   0.587  14.111  0.00  0.00    -0.130 SA
BRANCH  17  18
ATOM     18  C3  ZIN A   1      17.795   0.612  15.034  0.00  0.00     0.079 C 
BRANCH  18  19
ATOM     19  C2  ZIN A   1      18.010  -0.008  16.417  0.00  0.00     0.006 C 
ATOM     20  C1  ZIN A   1      18.148  -1.525  16.278  0.00  0.00     0.006 C 
ENDBRANCH  18  19
ENDBRANCH  17  18
ENDBRANCH   1  17
TORSDOF 5
ENDMDL
MODEL 4
REMARK VINA RESULT:      -6.1      4.284      7.090
REMARK  5 active torsions:
REMARK  status: ('A' for Active; 'I' for Inactive)
REMARK    1  A    between atoms: C2_2  and  C3_3 
REMARK    2  A    between atoms: C3_3  and  S4_4 
REMARK    3  A    between atoms: S4_4  and  C5_5 
REMARK    4  A    between atoms: C10_10  and  N11_11 
REMARK       I    between atoms: N11_11  and  C12_12 
REMARK    5  A    between atoms: C12_12  and  O14_14 
ROOT
ATOM      1  C5  ZIN A   1      18.938  -0.432   6.355  0.00  0.00     0.002 A 
ATOM      2  C6  ZIN A   1      18.868   0.930   6.641  0.00  0.00     0.021 A 
ATOM      3  C7  ZIN A   1      19.095   1.386   7.919  0.00  0.00     0.036 A 
ATOM      4  C8  ZIN A   1      19.398   0.480   8.938  0.00  0.00     0.103 A 
ATOM      5  N9  ZIN A   1      19.666   0.623  10.264  0.00  0.00    -0.062 NA
ATOM      6  C10 ZIN A   1      19.890  -0.551  10.796  0.00  0.00     0.710 A 
ATOM      7  N16 ZIN A   1      19.780  -1.523   9.841  0.00  0.00    -0.187 N 
ATOM      8  C17 ZIN A   1      19.467  -0.892   8.648  0.00  0.00     0.080 A 
ATOM      9  C18 ZIN A   1      19.231  -1.343   7.358  0.00  0.00     0.051 A 
ATOM     10  H32 ZIN A   1      19.900  -2.476   9.974  0.00  0.00     0.184 HD
ENDROOT
BRANCH   6  11
ATOM     11  N11 ZIN A   1      20.194  -0.776  12.128  0.00  0.00    -0.133 N 
ATOM     12  C12 ZIN A   1      19.314  -1.417  12.921  0.00  0.00     0.378 C 
ATOM     13  O13 ZIN A   1      18.254  -1.798  12.468  0.00  0.00    -0.238 OA
ATOM     14  H28 ZIN A   1      21.041  -0.470  12.490  0.00  0.00     0.190 HD
BRANCH  12  15
ATOM     15  O14 ZIN A   1      19.609  -1.635  14.217  0.00  0.00    -0.308 OA
ATOM     16  C15 ZIN A   1      18.877  -0.858  15.200  0.00  0.00     0.215 C 
ENDBRANCH  12  15
ENDBRANCH   6  11
BRANCH   1  17
ATOM     17  S4  ZIN A   1      18.644  -1.000   4.714  0.00  0.00    -0.130 SA
BRANCH  17  18
ATOM     18  C3  ZIN A   1      19.093  -2.756   4.802  0.00  0.00     0.079 C 
BRANCH  18  19
ATOM     19  C2  ZIN A   1      17.832  -3.612   4.671  0.00  0.00     0.006 C 
ATOM     20  C1  ZIN A   1      16.798  -2.870   3.821  0.00  0.00     0.006 C 
ENDBRANCH  18  19
ENDBRANCH  17  18
ENDBRANCH   1  17
TORSDOF 5
ENDMDL
MODEL 5
REMARK VINA RESULT:      -6.0      1.445      2.338
REMARK  5 active torsions:
REMARK  status: ('A' for Active; 'I' for Inactive)
REMARK    1  A    between atoms: C2_2  and  C3_3 
REMARK    2  A    between atoms: C3_3  and  S4_4 
REMARK    3  A    between atoms: S4_4  and  C5_5 
REMARK    4  A    between atoms: C10_10  and  N11_11 
REMARK       I    between atoms: N11_11  and  C12_12 
REMARK    5  A    between atoms: C12_12  and  O14_14 
ROOT
ATOM      1  C5  ZIN A   1      18.071   1.390  10.229  0.00  0.00     0.002 A 
ATOM      2  C6  ZIN A   1      18.865   2.230   9.451  0.00  0.00     0.021 A 
ATOM      3  C7  ZIN A   1      19.132   1.918   8.137  0.00  0.00     0.036 A 
ATOM      4  C8  ZIN A   1      18.604   0.752   7.578  0.00  0.00     0.103 A 
ATOM      5  N9  ZIN A   1      18.686   0.190   6.342  0.00  0.00    -0.062 NA
ATOM      6  C10 ZIN A   1      18.003  -0.926   6.321  0.00  0.00     0.710 A 
ATOM      7  N16 ZIN A   1      17.437  -1.148   7.544  0.00  0.00    -0.187 N 
ATOM      8  C17 ZIN A   1      17.804  -0.094   8.364  0.00  0.00     0.080 A 
ATOM      9  C18 ZIN A   1      17.546   0.226   9.688  0.00  0.00     0.051 A 
ATOM     10  H32 ZIN A   1      16.881  -1.904   7.792  0.00  0.00     0.184 HD
ENDROOT
BRANCH   6  11
ATOM     11  N11 ZIN A   1      17.871  -1.757   5.220  0.00  0.00    -0.133 N 
ATOM     12  C12 ZIN A   1      18.762  -2.746   5.014  0.00  0.00     0.378 C 
ATOM     13  O13 ZIN A   1      19.679  -2.911   5.793  0.00  0.00    -0.238 OA
ATOM     14  H28 ZIN A   1      17.138  -1.625   4.598  0.00  0.00     0.190 HD
BRANCH  12  15
ATOM     15  O14 ZIN A   1      18.634  -3.554   3.944  0.00  0.00    -0.308 OA
ATOM     16  C15 ZIN A   1      17.401  -4.312   3.833  0.00  0.00     0.215 C 
ENDBRANCH  12  15
ENDBRANCH   6  11
BRANCH   1  17
ATOM     17  S4  ZIN A   1      17.741   1.803  11.909  0.00  0.00    -0.130 SA
BRANCH  17  18
ATOM     18  C3  ZIN A   1      17.227   0.218  12.627  0.00  0.00     0.079 C 
BRANCH  18  19
ATOM     19  C2  ZIN A   1      18.434  -0.465  13.271  0.00  0.00     0.006 C 
ATOM     20  C1  ZIN A   1      18.452  -1.944  12.879  0.00  0.00     0.006 C 
ENDBRANCH  18  19
ENDBRANCH  17  18
ENDBRANCH   1  17
TORSDOF 5
ENDMDL
MODEL 6
REMARK VINA RESULT:      -6.0      5.652      8.276
REMARK  5 active torsions:
REMARK  status: ('A' for Active; 'I' for Inactive)
REMARK    1  A    between atoms: C2_2  and  C3_3 
REMARK    2  A    between atoms: C3_3  and  S4_4 
REMARK    3  A    between atoms: S4_4  and  C5_5 
REMARK    4  A    between atoms: C10_10  and  N11_11 
REMARK       I    between atoms: N11_11  and  C12_12 
REMARK    5  A    between atoms: C12_12  and  O14_14 
ROOT
ATOM      1  C5  ZIN A   1      18.909   2.323   9.752  0.00  0.00     0.002 A 
ATOM      2  C6  ZIN A   1      18.176   3.493   9.948  0.00  0.00     0.021 A 
ATOM      3  C7  ZIN A   1      17.991   3.995  11.215  0.00  0.00     0.036 A 
ATOM      4  C8  ZIN A   1      18.541   3.331  12.314  0.00  0.00     0.103 A 
ATOM      5  N9  ZIN A   1      18.531   3.576  13.652  0.00  0.00    -0.062 NA
ATOM      6  C10 ZIN A   1      19.202   2.641  14.275  0.00  0.00     0.710 A 
ATOM      7  N16 ZIN A   1      19.685   1.736  13.372  0.00  0.00    -0.187 N 
ATOM      8  C17 ZIN A   1      19.279   2.152  12.115  0.00  0.00     0.080 A 
ATOM      9  C18 ZIN A   1      19.454   1.651  10.835  0.00  0.00     0.051 A 
ATOM     10  H32 ZIN A   1      20.215   0.949  13.574  0.00  0.00     0.184 HD
ENDROOT
BRANCH   6  11
ATOM     11  N11 ZIN A   1      19.394   2.578  15.645  0.00  0.00    -0.133 N 
ATOM     12  C12 ZIN A   1      19.002   1.486  16.330  0.00  0.00     0.378 C 
ATOM     13  O13 ZIN A   1      18.482   0.556  15.746  0.00  0.00    -0.238 OA
ATOM     14  H28 ZIN A   1      19.809   3.320  16.111  0.00  0.00     0.190 HD
BRANCH  12  15
ATOM     15  O14 ZIN A   1      19.188   1.425  17.662  0.00  0.00    -0.308 OA
ATOM     16  C15 ZIN A   1      19.321   0.104  18.250  0.00  0.00     0.215 C 
ENDBRANCH  12  15
ENDBRANCH   6  11
BRANCH   1  17
ATOM     17  S4  ZIN A   1      19.135   1.692   8.123  0.00  0.00    -0.130 SA
BRANCH  17  18
ATOM     18  C3  ZIN A   1      19.010  -0.102   8.358  0.00  0.00     0.079 C 
BRANCH  18  19
ATOM     19  C2  ZIN A   1      17.607  -0.570   7.968  0.00  0.00     0.006 C 
ATOM     20  C1  ZIN A   1      17.233   0.019   6.606  0.00  0.00     0.006 C 
ENDBRANCH  18  19
ENDBRANCH  17  18
ENDBRANCH   1  17
TORSDOF 5
ENDMDL
MODEL 7
REMARK VINA RESULT:      -6.0      1.606      2.192
REMARK  5 active torsions:
REMARK  status: ('A' for Active; 'I' for Inactive)
REMARK    1  A    between atoms: C2_2  and  C3_3 
REMARK    2  A    between atoms: C3_3  and  S4_4 
REMARK    3  A    between atoms: S4_4  and  C5_5 
REMARK    4  A    between atoms: C10_10  and  N11_11 
REMARK       I    between atoms: N11_11  and  C12_12 
REMARK    5  A    between atoms: C12_12  and  O14_14 
ROOT
ATOM      1  C5  ZIN A   1      18.191   0.550   8.399  0.00  0.00     0.002 A 
ATOM      2  C6  ZIN A   1      18.824   1.400   7.494  0.00  0.00     0.021 A 
ATOM      3  C7  ZIN A   1      19.096   0.977   6.214  0.00  0.00     0.036 A 
ATOM      4  C8  ZIN A   1      18.737  -0.314   5.816  0.00  0.00     0.103 A 
ATOM      5  N9  ZIN A   1      18.869  -1.001   4.650  0.00  0.00    -0.062 NA
ATOM      6  C10 ZIN A   1      18.364  -2.200   4.787  0.00  0.00     0.710 A 
ATOM      7  N16 ZIN A   1      17.875  -2.356   6.053  0.00  0.00    -0.187 N 
ATOM      8  C17 ZIN A   1      18.099  -1.169   6.730  0.00  0.00     0.080 A 
ATOM      9  C18 ZIN A   1      17.834  -0.735   8.020  0.00  0.00     0.051 A 
ATOM     10  H32 ZIN A   1      17.449  -3.151   6.411  0.00  0.00     0.184 HD
ENDROOT
BRANCH   6  11
ATOM     11  N11 ZIN A   1      18.329  -3.166   3.796  0.00  0.00    -0.133 N 
ATOM     12  C12 ZIN A   1      17.148  -3.663   3.380  0.00  0.00     0.378 C 
ATOM     13  O13 ZIN A   1      16.113  -3.262   3.874  0.00  0.00    -0.238 OA
ATOM     14  H28 ZIN A   1      19.156  -3.487   3.402  0.00  0.00     0.190 HD
BRANCH  12  15
ATOM     15  O14 ZIN A   1      17.114  -4.603   2.417  0.00  0.00    -0.308 OA
ATOM     16  C15 ZIN A   1      16.122  -4.440   1.370  0.00  0.00     0.215 C 
ENDBRANCH  12  15
ENDBRANCH   6  11
BRANCH   1  17
ATOM     17  S4  ZIN A   1      17.850   1.108  10.036  0.00  0.00    -0.130 SA
BRANCH  17  18
ATOM     18  C3  ZIN A   1      18.596   2.761  10.068  0.00  0.00     0.079 C 
BRANCH  18  19
ATOM     19  C2  ZIN A   1      17.816   3.653  11.035  0.00  0.00     0.006 C 
ATOM     20  C1  ZIN A   1      17.380   4.929  10.312  0.00  0.00     0.006 C 
ENDBRANCH  18  19
ENDBRANCH  17  18
ENDBRANCH   1  17
TORSDOF 5
ENDMDL
MODEL 8
REMARK VINA RESULT:      -6.0      5.215      7.955
REMARK  5 active torsions:
REMARK  status: ('A' for Active; 'I' for Inactive)
REMARK    1  A    between atoms: C2_2  and  C3_3 
REMARK    2  A    between atoms: C3_3  and  S4_4 
REMARK    3  A    between atoms: S4_4  and  C5_5 
REMARK    4  A    between atoms: C10_10  and  N11_11 
REMARK       I    between atoms: N11_11  and  C12_12 
REMARK    5  A    between atoms: C12_12  and  O14_14 
ROOT
ATOM      1  C5  ZIN A   1      18.119   0.815   9.036  0.00  0.00     0.002 A 
ATOM      2  C6  ZIN A   1      18.822   2.018   9.000  0.00  0.00     0.021 A 
ATOM      3  C7  ZIN A   1      19.032   2.737  10.154  0.00  0.00     0.036 A 
ATOM      4  C8  ZIN A   1      18.537   2.260  11.371  0.00  0.00     0.103 A 
ATOM      5  N9  ZIN A   1      18.583   2.732  12.646  0.00  0.00    -0.062 NA
ATOM      6  C10 ZIN A   1      17.959   1.904  13.444  0.00  0.00     0.710 A 
ATOM      7  N16 ZIN A   1      17.474   0.846  12.728  0.00  0.00    -0.187 N 
ATOM      8  C17 ZIN A   1      17.828   1.048  11.405  0.00  0.00     0.080 A 
ATOM      9  C18 ZIN A   1      17.618   0.334  10.235  0.00  0.00     0.051 A 
ATOM     10  H32 ZIN A   1      16.974   0.093  13.081  0.00  0.00     0.184 HD
ENDROOT
BRANCH   6  11
ATOM     11  N11 ZIN A   1      17.813   2.074  14.810  0.00  0.00    -0.133 N 
ATOM     12  C12 ZIN A   1      18.515   1.303  15.663  0.00  0.00     0.378 C 
ATOM     13  O13 ZIN A   1      19.276   0.459  15.234  0.00  0.00    -0.238 OA
ATOM     14  H28 ZIN A   1      17.204   2.748  15.153  0.00  0.00     0.190 HD
BRANCH  12  15
ATOM     15  O14 ZIN A   1      18.373   1.467  16.992  0.00  0.00    -0.308 OA
ATOM     16  C15 ZIN A   1      19.316   0.771  17.848  0.00  0.00     0.215 C 
ENDBRANCH  12  15
ENDBRANCH   6  11
BRANCH   1  17
ATOM     17  S4  ZIN A   1      17.859  -0.093   7.549  0.00  0.00    -0.130 SA
BRANCH  17  18
ATOM     18  C3  ZIN A   1      18.616   0.966   6.285  0.00  0.00     0.079 C 
BRANCH  18  19
ATOM     19  C2  ZIN A   1      19.319   0.094   5.243  0.00  0.00     0.006 C 
ATOM     20  C1  ZIN A   1      18.273  -0.582   4.354  0.00  0.00     0.006 C 
ENDBRANCH  18  19
ENDBRANCH  17  18
ENDBRANCH   1  17
TORSDOF 5
ENDMDL
MODEL 9
REMARK VINA RESULT:      -6.0      4.296      7.366
REMARK  5 active torsions:
REMARK  status: ('A' for Active; 'I' for Inactive)
REMARK    1  A    between atoms: C2_2  and  C3_3 
REMARK    2  A    between atoms: C3_3  and  S4_4 
REMARK    3  A    between atoms: S4_4  and  C5_5 
REMARK    4  A    between atoms: C10_10  and  N11_11 
REMARK       I    between atoms: N11_11  and  C12_12 
REMARK    5  A    between atoms: C12_12  and  O14_14 
ROOT
ATOM      1  C5  ZIN A   1      19.196  -1.434   6.683  0.00  0.00     0.002 A 
ATOM      2  C6  ZIN A   1      19.025  -0.369   5.800  0.00  0.00     0.021 A 
ATOM      3  C7  ZIN A   1      18.964   0.923   6.269  0.00  0.00     0.036 A 
ATOM      4  C8  ZIN A   1      19.075   1.171   7.640  0.00  0.00     0.103 A 
ATOM      5  N9  ZIN A   1      19.054   2.308   8.386  0.00  0.00    -0.062 NA
ATOM      6  C10 ZIN A   1      19.199   2.006   9.651  0.00  0.00     0.710 A 
ATOM      7  N16 ZIN A   1      19.322   0.653   9.794  0.00  0.00    -0.187 N 
ATOM      8  C17 ZIN A   1      19.247   0.097   8.528  0.00  0.00     0.080 A 
ATOM      9  C18 ZIN A   1      19.301  -1.202   8.046  0.00  0.00     0.051 A 
ATOM     10  H32 ZIN A   1      19.441   0.171  10.628  0.00  0.00     0.184 HD
ENDROOT
BRANCH   6  11
ATOM     11  N11 ZIN A   1      19.224   2.922  10.689  0.00  0.00    -0.133 N 
ATOM     12  C12 ZIN A   1      18.140   3.081  11.473  0.00  0.00     0.378 C 
ATOM     13  O13 ZIN A   1      17.141   2.421  11.270  0.00  0.00    -0.238 OA
ATOM     14  H28 ZIN A   1      20.022   3.450  10.851  0.00  0.00     0.190 HD
BRANCH  12  15
ATOM     15  O14 ZIN A   1      18.164   3.972  12.483  0.00  0.00    -0.308 OA
ATOM     16  C15 ZIN A   1      19.439   4.601  12.777  0.00  0.00     0.215 C 
ENDBRANCH  12  15
ENDBRANCH   6  11
BRANCH   1  17
ATOM     17  S4  ZIN A   1      19.271  -3.082   6.066  0.00  0.00    -0.130 SA
BRANCH  17  18
ATOM     18  C3  ZIN A   1      18.985  -4.087   7.549  0.00  0.00     0.079 C 
BRANCH  18  19
ATOM     19  C2  ZIN A   1      20.049  -5.183   7.634  0.00  0.00     0.006 C 
ATOM     20  C1  ZIN A   1      20.075  -5.758   9.052  0.00  0.00     0.006 C 
ENDBRANCH  18  19
ENDBRANCH  17  18
ENDBRANCH   1  17
TORSDOF 5
ENDMDL
