MODEL 1
REMARK VINA RESULT:      -6.3      0.000      0.000
REMARK  11 active torsions:
REMARK  status: ('A' for Active; 'I' for Inactive)
REMARK    1  A    between atoms: O2_2  and  C3_3 
REMARK    2  A    between atoms: C3_3  and  C4_4 
REMARK    3  A    between atoms: C4_4  and  C5_5 
REMARK    4  A    between atoms: C5_5  and  C6_6 
REMARK    5  A    between atoms: C6_6  and  C7_7 
REMARK    6  A    between atoms: C7_7  and  C16_16 
REMARK    7  A    between atoms: N8_8  and  O9_9 
REMARK    8  A    between atoms: O9_9  and  C10_10 
REMARK    9  A    between atoms: C10_10  and  C11_11 
REMARK   10  A    between atoms: C11_11  and  N12_12 
REMARK   11  A    between atoms: C19_19  and  C20_20 
ROOT
ATOM      1  C7  ZIN A   1      17.597   1.231  11.384  0.00  0.00     0.072 C 
ATOM      2  N8  ZIN A   1      17.289   2.430  11.758  0.00  0.00    -0.138 NA
ENDROOT
BRANCH   1   3
ATOM      3  C6  ZIN A   1      17.606   0.108  12.389  0.00  0.00     0.062 C 
BRANCH   3   4
ATOM      4  C5  ZIN A   1      19.001  -0.519  12.442  0.00  0.00     0.008 C 
BRANCH   4   5
ATOM      5  C4  ZIN A   1      19.944   0.399  13.222  0.00  0.00     0.027 C 
BRANCH   5   6
ATOM      6  C3  ZIN A   1      19.382   0.631  14.627  0.00  0.00     0.167 C 
BRANCH   6   7
ATOM      7  O2  ZIN A   1      19.204   2.032  14.843  0.00  0.00    -0.396 OA
ATOM      8  C1  ZIN A   1      19.216   2.414  16.219  0.00  0.00     0.201 C 
ENDBRANCH   6   7
ENDBRANCH   5   6
ENDBRANCH   4   5
ENDBRANCH   3   4
ENDBRANCH   1   3
BRANCH   1   9
ATOM      9  C16 ZIN A   1      17.939   0.962   9.974  0.00  0.00    -0.009 A 
ATOM     10  C25 ZIN A   1      19.018   1.617   9.377  0.00  0.00     0.014 A 
ATOM     11  C24 ZIN A   1      19.336   1.357   8.060  0.00  0.00     0.017 A 
ATOM     12  C19 ZIN A   1      18.582   0.457   7.327  0.00  0.00     0.048 A 
ATOM     13  C18 ZIN A   1      17.508  -0.191   7.910  0.00  0.00     0.017 A 
ATOM     14  C17 ZIN A   1      17.183   0.056   9.228  0.00  0.00     0.014 A 
BRANCH  12  15
ATOM     15  C20 ZIN A   1      18.932   0.182   5.888  0.00  0.00     0.417 C 
ATOM     16  F21 ZIN A   1      19.700   1.239   5.385  0.00  0.00    -0.166 F 
ATOM     17  F22 ZIN A   1      19.664  -1.007   5.805  0.00  0.00    -0.166 F 
ATOM     18  F23 ZIN A   1      17.758   0.061   5.137  0.00  0.00    -0.166 F 
ENDBRANCH  12  15
ENDBRANCH   1   9
BRANCH   2  19
ATOM     19  O9  ZIN A   1      17.152   3.458  10.794  0.00  0.00    -0.255 OA
BRANCH  19  20
ATOM     20  C10 ZIN A   1      17.749   4.699  11.178  0.00  0.00     0.231 C 
BRANCH  20  21
ATOM     21  C11 ZIN A   1      18.393   4.549  12.557  0.00  0.00     0.258 C 
BRANCH  21  22
ATOM     22  N12 ZIN A   1      19.736   3.972  12.411  0.00  0.00    -0.077 N 
ATOM     23  H13 ZIN A   1      20.380   4.462  13.014  0.00  0.00     0.274 HD
ATOM     24  H14 ZIN A   1      19.713   2.996  12.665  0.00  0.00     0.274 HD
ATOM     25  H15 ZIN A   1      20.037   4.063  11.452  0.00  0.00     0.274 HD
ENDBRANCH  21  22
ENDBRANCH  20  21
ENDBRANCH  19  20
ENDBRANCH   2  19
TORSDOF 11
ENDMDL
MODEL 2
REMARK VINA RESULT:      -6.3      1.763      2.647
REMARK  11 active torsions:
REMARK  status: ('A' for Active; 'I' for Inactive)
REMARK    1  A    between atoms: O2_2  and  C3_3 
REMARK    2  A    between atoms: C3_3  and  C4_4 
REMARK    3  A    between atoms: C4_4  and  C5_5 
REMARK    4  A    between atoms: C5_5  and  C6_6 
REMARK    5  A    between atoms: C6_6  and  C7_7 
REMARK    6  A    between atoms: C7_7  and  C16_16 
REMARK    7  A    between atoms: N8_8  and  O9_9 
REMARK    8  A    between atoms: O9_9  and  C10_10 
REMARK    9  A    between atoms: C10_10  and  C11_11 
REMARK   10  A    between atoms: C11_11  and  N12_12 
REMARK   11  A    between atoms: C19_19  and  C20_20 
ROOT
ATOM      1  C7  ZIN A   1      17.704   1.256  11.532  0.00  0.00     0.072 C 
ATOM      2  N8  ZIN A   1      17.329   2.438  11.900  0.00  0.00    -0.138 NA
ENDROOT
BRANCH   1   3
ATOM      3  C6  ZIN A   1      17.833   0.155  12.554  0.00  0.00     0.062 C 
BRANCH   3   4
ATOM      4  C5  ZIN A   1      19.223  -0.477  12.451  0.00  0.00     0.008 C 
BRANCH   4   5
ATOM      5  C4  ZIN A   1      19.135  -1.963  12.801  0.00  0.00     0.027 C 
BRANCH   5   6
ATOM      6  C3  ZIN A   1      18.158  -2.655  11.848  0.00  0.00     0.167 C 
BRANCH   6   7
ATOM      7  O2  ZIN A   1      18.890  -3.346  10.834  0.00  0.00    -0.396 OA
ATOM      8  C1  ZIN A   1      20.019  -4.072  11.325  0.00  0.00     0.201 C 
ENDBRANCH   6   7
ENDBRANCH   5   6
ENDBRANCH   4   5
ENDBRANCH   3   4
ENDBRANCH   1   3
BRANCH   1   9
ATOM      9  C16 ZIN A   1      18.005   0.985  10.113  0.00  0.00    -0.009 A 
ATOM     10  C25 ZIN A   1      19.084   1.618   9.493  0.00  0.00     0.014 A 
ATOM     11  C24 ZIN A   1      19.364   1.356   8.167  0.00  0.00     0.017 A 
ATOM     12  C19 ZIN A   1      18.572   0.476   7.450  0.00  0.00     0.048 A 
ATOM     13  C18 ZIN A   1      17.498  -0.150   8.057  0.00  0.00     0.017 A 
ATOM     14  C17 ZIN A   1      17.211   0.099   9.384  0.00  0.00     0.014 A 
BRANCH  12  15
ATOM     15  C20 ZIN A   1      18.881   0.199   6.002  0.00  0.00     0.417 C 
ATOM     16  F21 ZIN A   1      17.686   0.106   5.280  0.00  0.00    -0.166 F 
ATOM     17  F22 ZIN A   1      19.658   1.240   5.483  0.00  0.00    -0.166 F 
ATOM     18  F23 ZIN A   1      19.585  -1.005   5.897  0.00  0.00    -0.166 F 
ENDBRANCH  12  15
ENDBRANCH   1   9
BRANCH   2  19
ATOM     19  O9  ZIN A   1      17.081   3.436  10.927  0.00  0.00    -0.255 OA
BRANCH  19  20
ATOM     20  C10 ZIN A   1      17.826   4.639  11.125  0.00  0.00     0.231 C 
BRANCH  20  21
ATOM     21  C11 ZIN A   1      18.542   4.579  12.475  0.00  0.00     0.258 C 
BRANCH  21  22
ATOM     22  N12 ZIN A   1      19.917   4.102  12.281  0.00  0.00    -0.077 N 
ATOM     23  H13 ZIN A   1      19.966   3.118  12.500  0.00  0.00     0.274 HD
ATOM     24  H14 ZIN A   1      20.191   4.247  11.320  0.00  0.00     0.274 HD
ATOM     25  H15 ZIN A   1      20.539   4.613  12.889  0.00  0.00     0.274 HD
ENDBRANCH  21  22
ENDBRANCH  20  21
ENDBRANCH  19  20
ENDBRANCH   2  19
TORSDOF 11
ENDMDL
MODEL 3
REMARK VINA RESULT:      -6.3      1.712      3.114
REMARK  11 active torsions:
REMARK  status: ('A' for Active; 'I' for Inactive)
REMARK    1  A    between atoms: O2_2  and  C3_3 
REMARK    2  A    between atoms: C3_3  and  C4_4 
REMARK    3  A    between atoms: C4_4  and  C5_5 
REMARK    4  A    between atoms: C5_5  and  C6_6 
REMARK    5  A    between atoms: C6_6  and  C7_7 
REMARK    6  A    between atoms: C7_7  and  C16_16 
REMARK    7  A    between atoms: N8_8  and  O9_9 
REMARK    8  A    between atoms: O9_9  and  C10_10 
REMARK    9  A    between atoms: C10_10  and  C11_11 
REMARK   10  A    between atoms: C11_11  and  N12_12 
REMARK   11  A    between atoms: C19_19  and  C20_20 
ROOT
ATOM      1  C7  ZIN A   1      17.961   1.703  10.501  0.00  0.00     0.072 C 
ATOM      2  N8  ZIN A   1      18.137   0.946  11.535  0.00  0.00    -0.138 NA
ENDROOT
BRANCH   1   3
ATOM      3  C6  ZIN A   1      17.566   3.146  10.684  0.00  0.00     0.062 C 
BRANCH   3   4
ATOM      4  C5  ZIN A   1      18.782   3.954  11.143  0.00  0.00     0.008 C 
BRANCH   4   5
ATOM      5  C4  ZIN A   1      18.425   4.740  12.406  0.00  0.00     0.027 C 
BRANCH   5   6
ATOM      6  C3  ZIN A   1      18.723   3.885  13.639  0.00  0.00     0.167 C 
BRANCH   6   7
ATOM      7  O2  ZIN A   1      17.643   3.997  14.568  0.00  0.00    -0.396 OA
ATOM      8  C1  ZIN A   1      16.792   5.121  14.338  0.00  0.00     0.201 C 
ENDBRANCH   6   7
ENDBRANCH   5   6
ENDBRANCH   4   5
ENDBRANCH   3   4
ENDBRANCH   1   3
BRANCH   1   9
ATOM      9  C16 ZIN A   1      18.146   1.154   9.144  0.00  0.00    -0.009 A 
ATOM     10  C25 ZIN A   1      17.362   0.085   8.707  0.00  0.00     0.014 A 
ATOM     11  C24 ZIN A   1      17.536  -0.420   7.435  0.00  0.00     0.017 A 
ATOM     12  C19 ZIN A   1      18.493   0.124   6.596  0.00  0.00     0.048 A 
ATOM     13  C18 ZIN A   1      19.277   1.180   7.025  0.00  0.00     0.017 A 
ATOM     14  C17 ZIN A   1      19.109   1.698   8.292  0.00  0.00     0.014 A 
BRANCH  12  15
ATOM     15  C20 ZIN A   1      18.681  -0.436   5.210  0.00  0.00     0.417 C 
ATOM     16  F21 ZIN A   1      19.261   0.537   4.389  0.00  0.00    -0.166 F 
ATOM     17  F22 ZIN A   1      19.517  -1.555   5.269  0.00  0.00    -0.166 F 
ATOM     18  F23 ZIN A   1      17.439  -0.809   4.685  0.00  0.00    -0.166 F 
ENDBRANCH  12  15
ENDBRANCH   1   9
BRANCH   2  19
ATOM     19  O9  ZIN A   1      18.633  -0.370  11.371  0.00  0.00    -0.255 OA
BRANCH  19  20
ATOM     20  C10 ZIN A   1      19.511  -0.794  12.417  0.00  0.00     0.231 C 
BRANCH  20  21
ATOM     21  C11 ZIN A   1      20.288   0.410  12.950  0.00  0.00     0.258 C 
BRANCH  21  22
ATOM     22  N12 ZIN A   1      21.492   0.617  12.135  0.00  0.00    -0.077 N 
ATOM     23  H13 ZIN A   1      21.574   1.594  11.898  0.00  0.00     0.274 HD
ATOM     24  H14 ZIN A   1      22.306   0.328  12.657  0.00  0.00     0.274 HD
ATOM     25  H15 ZIN A   1      21.424   0.070  11.290  0.00  0.00     0.274 HD
ENDBRANCH  21  22
ENDBRANCH  20  21
ENDBRANCH  19  20
ENDBRANCH   2  19
TORSDOF 11
ENDMDL
MODEL 4
REMARK VINA RESULT:      -6.2      4.478      7.273
REMARK  11 active torsions:
REMARK  status: ('A' for Active; 'I' for Inactive)
REMARK    1  A    between atoms: O2_2  and  C3_3 
REMARK    2  A    between atoms: C3_3  and  C4_4 
REMARK    3  A    between atoms: C4_4  and  C5_5 
REMARK    4  A    between atoms: C5_5  and  C6_6 
REMARK    5  A    between atoms: C6_6  and  C7_7 
REMARK    6  A    between atoms: C7_7  and  C16_16 
REMARK    7  A    between atoms: N8_8  and  O9_9 
REMARK    8  A    between atoms: O9_9  and  C10_10 
REMARK    9  A    between atoms: C10_10  and  C11_11 
REMARK   10  A    between atoms: C11_11  and  N12_12 
REMARK   11  A    between atoms: C19_19  and  C20_20 
ROOT
ATOM      1  C7  ZIN A   1      18.837   1.439   9.501  0.00  0.00     0.072 C 
ATOM      2  N8  ZIN A   1      18.698   0.189   9.802  0.00  0.00    -0.138 NA
ENDROOT
BRANCH   1   3
ATOM      3  C6  ZIN A   1      19.152   1.842   8.084  0.00  0.00     0.062 C 
BRANCH   3   4
ATOM      4  C5  ZIN A   1      18.922   0.651   7.151  0.00  0.00     0.008 C 
BRANCH   4   5
ATOM      5  C4  ZIN A   1      19.351   1.025   5.731  0.00  0.00     0.027 C 
BRANCH   5   6
ATOM      6  C3  ZIN A   1      18.799  -0.007   4.744  0.00  0.00     0.167 C 
BRANCH   6   7
ATOM      7  O2  ZIN A   1      19.737  -1.075   4.598  0.00  0.00    -0.396 OA
ATOM      8  C1  ZIN A   1      19.138  -2.370   4.531  0.00  0.00     0.201 C 
ENDBRANCH   6   7
ENDBRANCH   5   6
ENDBRANCH   4   5
ENDBRANCH   3   4
ENDBRANCH   1   3
BRANCH   1   9
ATOM      9  C16 ZIN A   1      18.688   2.471  10.546  0.00  0.00    -0.009 A 
ATOM     10  C25 ZIN A   1      17.472   3.140  10.702  0.00  0.00     0.014 A 
ATOM     11  C24 ZIN A   1      17.338   4.100  11.685  0.00  0.00     0.017 A 
ATOM     12  C19 ZIN A   1      18.407   4.407  12.507  0.00  0.00     0.048 A 
ATOM     13  C18 ZIN A   1      19.617   3.752  12.354  0.00  0.00     0.017 A 
ATOM     14  C17 ZIN A   1      19.762   2.786  11.379  0.00  0.00     0.014 A 
BRANCH  12  15
ATOM     15  C20 ZIN A   1      18.255   5.460  13.574  0.00  0.00     0.417 C 
ATOM     16  F21 ZIN A   1      17.297   6.397  13.171  0.00  0.00    -0.166 F 
ATOM     17  F22 ZIN A   1      17.844   4.857  14.768  0.00  0.00    -0.166 F 
ATOM     18  F23 ZIN A   1      19.481   6.102  13.774  0.00  0.00    -0.166 F 
ENDBRANCH  12  15
ENDBRANCH   1   9
BRANCH   2  19
ATOM     19  O9  ZIN A   1      18.274  -0.183  11.101  0.00  0.00    -0.255 OA
BRANCH  19  20
ATOM     20  C10 ZIN A   1      19.251  -0.914  11.844  0.00  0.00     0.231 C 
BRANCH  20  21
ATOM     21  C11 ZIN A   1      20.335  -1.428  10.895  0.00  0.00     0.258 C 
BRANCH  21  22
ATOM     22  N12 ZIN A   1      21.531  -0.584  11.014  0.00  0.00    -0.077 N 
ATOM     23  H13 ZIN A   1      21.502   0.141  10.313  0.00  0.00     0.274 HD
ATOM     24  H14 ZIN A   1      21.558  -0.165  11.932  0.00  0.00     0.274 HD
ATOM     25  H15 ZIN A   1      22.355  -1.150  10.878  0.00  0.00     0.274 HD
ENDBRANCH  21  22
ENDBRANCH  20  21
ENDBRANCH  19  20
ENDBRANCH   2  19
TORSDOF 11
ENDMDL
MODEL 5
REMARK VINA RESULT:      -6.2      1.718      2.397
REMARK  11 active torsions:
REMARK  status: ('A' for Active; 'I' for Inactive)
REMARK    1  A    between atoms: O2_2  and  C3_3 
REMARK    2  A    between atoms: C3_3  and  C4_4 
REMARK    3  A    between atoms: C4_4  and  C5_5 
REMARK    4  A    between atoms: C5_5  and  C6_6 
REMARK    5  A    between atoms: C6_6  and  C7_7 
REMARK    6  A    between atoms: C7_7  and  C16_16 
REMARK    7  A    between atoms: N8_8  and  O9_9 
REMARK    8  A    between atoms: O9_9  and  C10_10 
REMARK    9  A    between atoms: C10_10  and  C11_11 
REMARK   10  A    between atoms: C11_11  and  N12_12 
REMARK   11  A    between atoms: C19_19  and  C20_20 
ROOT
ATOM      1  C7  ZIN A   1      18.125   1.938  11.764  0.00  0.00     0.072 C 
ATOM      2  N8  ZIN A   1      17.452   3.001  12.064  0.00  0.00    -0.138 NA
ENDROOT
BRANCH   1   3
ATOM      3  C6  ZIN A   1      18.768   1.121  12.856  0.00  0.00     0.062 C 
BRANCH   3   4
ATOM      4  C5  ZIN A   1      17.692   0.327  13.601  0.00  0.00     0.008 C 
BRANCH   4   5
ATOM      5  C4  ZIN A   1      17.739  -1.136  13.158  0.00  0.00     0.027 C 
BRANCH   5   6
ATOM      6  C3  ZIN A   1      19.165  -1.495  12.735  0.00  0.00     0.167 C 
BRANCH   6   7
ATOM      7  O2  ZIN A   1      19.142  -2.686  11.946  0.00  0.00    -0.396 OA
ATOM      8  C1  ZIN A   1      17.900  -2.916  11.277  0.00  0.00     0.201 C 
ENDBRANCH   6   7
ENDBRANCH   5   6
ENDBRANCH   4   5
ENDBRANCH   3   4
ENDBRANCH   1   3
BRANCH   1   9
ATOM      9  C16 ZIN A   1      18.264   1.526  10.354  0.00  0.00    -0.009 A 
ATOM     10  C25 ZIN A   1      19.192   2.162   9.526  0.00  0.00     0.014 A 
ATOM     11  C24 ZIN A   1      19.321   1.768   8.210  0.00  0.00     0.017 A 
ATOM     12  C19 ZIN A   1      18.526   0.752   7.707  0.00  0.00     0.048 A 
ATOM     13  C18 ZIN A   1      17.601   0.122   8.520  0.00  0.00     0.017 A 
ATOM     14  C17 ZIN A   1      17.466   0.503   9.839  0.00  0.00     0.014 A 
BRANCH  12  15
ATOM     15  C20 ZIN A   1      18.669   0.331   6.268  0.00  0.00     0.417 C 
ATOM     16  F21 ZIN A   1      19.521   1.222   5.604  0.00  0.00    -0.166 F 
ATOM     17  F22 ZIN A   1      19.207  -0.959   6.210  0.00  0.00    -0.166 F 
ATOM     18  F23 ZIN A   1      17.413   0.341   5.652  0.00  0.00    -0.166 F 
ENDBRANCH  12  15
ENDBRANCH   1   9
BRANCH   2  19
ATOM     19  O9  ZIN A   1      16.739   3.695  11.057  0.00  0.00    -0.255 OA
BRANCH  19  20
ATOM     20  C10 ZIN A   1      16.709   5.112  11.237  0.00  0.00     0.231 C 
BRANCH  20  21
ATOM     21  C11 ZIN A   1      16.399   5.434  12.700  0.00  0.00     0.258 C 
BRANCH  21  22
ATOM     22  N12 ZIN A   1      17.655   5.636  13.435  0.00  0.00    -0.077 N 
ATOM     23  H13 ZIN A   1      18.002   6.567  13.256  0.00  0.00     0.274 HD
ATOM     24  H14 ZIN A   1      17.489   5.523  14.424  0.00  0.00     0.274 HD
ATOM     25  H15 ZIN A   1      18.336   4.958  13.129  0.00  0.00     0.274 HD
ENDBRANCH  21  22
ENDBRANCH  20  21
ENDBRANCH  19  20
ENDBRANCH   2  19
TORSDOF 11
ENDMDL
MODEL 6
REMARK VINA RESULT:      -6.2      3.982      4.969
REMARK  11 active torsions:
REMARK  status: ('A' for Active; 'I' for Inactive)
REMARK    1  A    between atoms: O2_2  and  C3_3 
REMARK    2  A    between atoms: C3_3  and  C4_4 
REMARK    3  A    between atoms: C4_4  and  C5_5 
REMARK    4  A    between atoms: C5_5  and  C6_6 
REMARK    5  A    between atoms: C6_6  and  C7_7 
REMARK    6  A    between atoms: C7_7  and  C16_16 
REMARK    7  A    between atoms: N8_8  and  O9_9 
REMARK    8  A    between atoms: O9_9  and  C10_10 
REMARK    9  A    between atoms: C10_10  and  C11_11 
REMARK   10  A    between atoms: C11_11  and  N12_12 
REMARK   11  A    between atoms: C19_19  and  C20_20 
ROOT
ATOM      1  C7  ZIN A   1      19.396  -1.285  12.880  0.00  0.00     0.072 C 
ATOM      2  N8  ZIN A   1      19.694  -0.182  12.273  0.00  0.00    -0.138 NA
ENDROOT
BRANCH   1   3
ATOM      3  C6  ZIN A   1      19.456  -1.356  14.385  0.00  0.00     0.062 C 
BRANCH   3   4
ATOM      4  C5  ZIN A   1      18.170  -0.776  14.976  0.00  0.00     0.008 C 
BRANCH   4   5
ATOM      5  C4  ZIN A   1      17.947  -1.351  16.376  0.00  0.00     0.027 C 
BRANCH   5   6
ATOM      6  C3  ZIN A   1      17.421  -0.251  17.301  0.00  0.00     0.167 C 
BRANCH   6   7
ATOM      7  O2  ZIN A   1      18.303  -0.104  18.415  0.00  0.00    -0.396 OA
ATOM      8  C1  ZIN A   1      19.414   0.759  18.167  0.00  0.00     0.201 C 
ENDBRANCH   6   7
ENDBRANCH   5   6
ENDBRANCH   4   5
ENDBRANCH   3   4
ENDBRANCH   1   3
BRANCH   1   9
ATOM      9  C16 ZIN A   1      18.998  -2.473  12.100  0.00  0.00    -0.009 A 
ATOM     10  C25 ZIN A   1      19.959  -3.403  11.700  0.00  0.00     0.014 A 
ATOM     11  C24 ZIN A   1      19.579  -4.514  10.976  0.00  0.00     0.017 A 
ATOM     12  C19 ZIN A   1      18.251  -4.703  10.637  0.00  0.00     0.048 A 
ATOM     13  C18 ZIN A   1      17.294  -3.782  11.026  0.00  0.00     0.017 A 
ATOM     14  C17 ZIN A   1      17.659  -2.670  11.755  0.00  0.00     0.014 A 
BRANCH  12  15
ATOM     15  C20 ZIN A   1      17.844  -5.916   9.842  0.00  0.00     0.417 C 
ATOM     16  F21 ZIN A   1      18.983  -6.517   9.294  0.00  0.00    -0.166 F 
ATOM     17  F22 ZIN A   1      17.194  -6.828  10.681  0.00  0.00    -0.166 F 
ATOM     18  F23 ZIN A   1      16.979  -5.531   8.812  0.00  0.00    -0.166 F 
ENDBRANCH  12  15
ENDBRANCH   1   9
BRANCH   2  19
ATOM     19  O9  ZIN A   1      19.512  -0.074  10.873  0.00  0.00    -0.255 OA
BRANCH  19  20
ATOM     20  C10 ZIN A   1      19.324   1.266  10.413  0.00  0.00     0.231 C 
BRANCH  20  21
ATOM     21  C11 ZIN A   1      19.376   2.226  11.603  0.00  0.00     0.258 C 
BRANCH  21  22
ATOM     22  N12 ZIN A   1      20.706   2.846  11.674  0.00  0.00    -0.077 N 
ATOM     23  H13 ZIN A   1      21.307   2.433  10.977  0.00  0.00     0.274 HD
ATOM     24  H14 ZIN A   1      20.625   3.837  11.505  0.00  0.00     0.274 HD
ATOM     25  H15 ZIN A   1      21.099   2.692  12.590  0.00  0.00     0.274 HD
ENDBRANCH  21  22
ENDBRANCH  20  21
ENDBRANCH  19  20
ENDBRANCH   2  19
TORSDOF 11
ENDMDL
MODEL 7
REMARK VINA RESULT:      -6.1      4.065      6.798
REMARK  11 active torsions:
REMARK  status: ('A' for Active; 'I' for Inactive)
REMARK    1  A    between atoms: O2_2  and  C3_3 
REMARK    2  A    between atoms: C3_3  and  C4_4 
REMARK    3  A    between atoms: C4_4  and  C5_5 
REMARK    4  A    between atoms: C5_5  and  C6_6 
REMARK    5  A    between atoms: C6_6  and  C7_7 
REMARK    6  A    between atoms: C7_7  and  C16_16 
REMARK    7  A    between atoms: N8_8  and  O9_9 
REMARK    8  A    between atoms: O9_9  and  C10_10 
REMARK    9  A    between atoms: C10_10  and  C11_11 
REMARK   10  A    between atoms: C11_11  and  N12_12 
REMARK   11  A    between atoms: C19_19  and  C20_20 
ROOT
ATOM      1  C7  ZIN A   1      18.347  -0.659   8.756  0.00  0.00     0.072 C 
ATOM      2  N8  ZIN A   1      19.215  -1.505   9.207  0.00  0.00    -0.138 NA
ENDROOT
BRANCH   1   3
ATOM      3  C6  ZIN A   1      17.451  -1.042   7.605  0.00  0.00     0.062 C 
BRANCH   3   4
ATOM      4  C5  ZIN A   1      17.406   0.102   6.590  0.00  0.00     0.008 C 
BRANCH   4   5
ATOM      5  C4  ZIN A   1      17.803  -0.425   5.210  0.00  0.00     0.027 C 
BRANCH   5   6
ATOM      6  C3  ZIN A   1      19.320  -0.316   5.040  0.00  0.00     0.167 C 
BRANCH   6   7
ATOM      7  O2  ZIN A   1      19.813  -1.493   4.398  0.00  0.00    -0.396 OA
ATOM      8  C1  ZIN A   1      19.006  -2.653   4.611  0.00  0.00     0.201 C 
ENDBRANCH   6   7
ENDBRANCH   5   6
ENDBRANCH   4   5
ENDBRANCH   3   4
ENDBRANCH   1   3
BRANCH   1   9
ATOM      9  C16 ZIN A   1      18.233   0.680   9.366  0.00  0.00    -0.009 A 
ATOM     10  C25 ZIN A   1      17.400   0.880  10.467  0.00  0.00     0.014 A 
ATOM     11  C24 ZIN A   1      17.303   2.133  11.037  0.00  0.00     0.017 A 
ATOM     12  C19 ZIN A   1      18.021   3.192  10.511  0.00  0.00     0.048 A 
ATOM     13  C18 ZIN A   1      18.845   3.002   9.416  0.00  0.00     0.017 A 
ATOM     14  C17 ZIN A   1      18.955   1.753   8.841  0.00  0.00     0.014 A 
BRANCH  12  15
ATOM     15  C20 ZIN A   1      17.906   4.559  11.135  0.00  0.00     0.417 C 
ATOM     16  F21 ZIN A   1      16.828   4.576  12.027  0.00  0.00    -0.166 F 
ATOM     17  F22 ZIN A   1      19.086   4.858  11.824  0.00  0.00    -0.166 F 
ATOM     18  F23 ZIN A   1      17.697   5.513  10.133  0.00  0.00    -0.166 F 
ENDBRANCH  12  15
ENDBRANCH   1   9
BRANCH   2  19
ATOM     19  O9  ZIN A   1      19.965  -1.197  10.367  0.00  0.00    -0.255 OA
BRANCH  19  20
ATOM     20  C10 ZIN A   1      19.909  -2.203  11.381  0.00  0.00     0.231 C 
BRANCH  20  21
ATOM     21  C11 ZIN A   1      18.579  -2.098  12.130  0.00  0.00     0.258 C 
BRANCH  21  22
ATOM     22  N12 ZIN A   1      17.582  -2.959  11.483  0.00  0.00    -0.077 N 
ATOM     23  H13 ZIN A   1      16.732  -2.437  11.334  0.00  0.00     0.274 HD
ATOM     24  H14 ZIN A   1      17.939  -3.281  10.596  0.00  0.00     0.274 HD
ATOM     25  H15 ZIN A   1      17.389  -3.753  12.075  0.00  0.00     0.274 HD
ENDBRANCH  21  22
ENDBRANCH  20  21
ENDBRANCH  19  20
ENDBRANCH   2  19
TORSDOF 11
ENDMDL
MODEL 8
REMARK VINA RESULT:      -6.0      5.182      7.371
REMARK  11 active torsions:
REMARK  status: ('A' for Active; 'I' for Inactive)
REMARK    1  A    between atoms: O2_2  and  C3_3 
REMARK    2  A    between atoms: C3_3  and  C4_4 
REMARK    3  A    between atoms: C4_4  and  C5_5 
REMARK    4  A    between atoms: C5_5  and  C6_6 
REMARK    5  A    between atoms: C6_6  and  C7_7 
REMARK    6  A    between atoms: C7_7  and  C16_16 
REMARK    7  A    between atoms: N8_8  and  O9_9 
REMARK    8  A    between atoms: O9_9  and  C10_10 
REMARK    9  A    between atoms: C10_10  and  C11_11 
REMARK   10  A    between atoms: C11_11  and  N12_12 
REMARK   11  A    between atoms: C19_19  and  C20_20 
ROOT
ATOM      1  C7  ZIN A   1      18.354  -1.061  11.077  0.00  0.00     0.072 C 
ATOM      2  N8  ZIN A   1      17.710  -2.071  10.589  0.00  0.00    -0.138 NA
ENDROOT
BRANCH   1   3
ATOM      3  C6  ZIN A   1      19.010  -0.069  10.152  0.00  0.00     0.062 C 
BRANCH   3   4
ATOM      4  C5  ZIN A   1      17.950   0.873   9.578  0.00  0.00     0.008 C 
BRANCH   4   5
ATOM      5  C4  ZIN A   1      18.612   2.181   9.142  0.00  0.00     0.027 C 
BRANCH   5   6
ATOM      6  C3  ZIN A   1      18.634   3.159  10.319  0.00  0.00     0.167 C 
BRANCH   6   7
ATOM      7  O2  ZIN A   1      17.387   3.096  11.013  0.00  0.00    -0.396 OA
ATOM      8  C1  ZIN A   1      17.383   3.782  12.266  0.00  0.00     0.201 C 
ENDBRANCH   6   7
ENDBRANCH   5   6
ENDBRANCH   4   5
ENDBRANCH   3   4
ENDBRANCH   1   3
BRANCH   1   9
ATOM      9  C16 ZIN A   1      18.446  -0.881  12.539  0.00  0.00    -0.009 A 
ATOM     10  C25 ZIN A   1      19.383  -1.606  13.277  0.00  0.00     0.014 A 
ATOM     11  C24 ZIN A   1      19.468  -1.429  14.643  0.00  0.00     0.017 A 
ATOM     12  C19 ZIN A   1      18.620  -0.542  15.283  0.00  0.00     0.048 A 
ATOM     13  C18 ZIN A   1      17.685   0.175  14.558  0.00  0.00     0.017 A 
ATOM     14  C17 ZIN A   1      17.593   0.011  13.191  0.00  0.00     0.014 A 
BRANCH  12  15
ATOM     15  C20 ZIN A   1      18.715  -0.358  16.775  0.00  0.00     0.417 C 
ATOM     16  F21 ZIN A   1      19.332   0.867  17.055  0.00  0.00    -0.166 F 
ATOM     17  F22 ZIN A   1      17.431  -0.371  17.329  0.00  0.00    -0.166 F 
ATOM     18  F23 ZIN A   1      19.471  -1.398  17.326  0.00  0.00    -0.166 F 
ENDBRANCH  12  15
ENDBRANCH   1   9
BRANCH   2  19
ATOM     19  O9  ZIN A   1      16.984  -2.930  11.450  0.00  0.00    -0.255 OA
BRANCH  19  20
ATOM     20  C10 ZIN A   1      17.158  -4.320  11.166  0.00  0.00     0.231 C 
BRANCH  20  21
ATOM     21  C11 ZIN A   1      17.887  -4.481   9.831  0.00  0.00     0.258 C 
BRANCH  21  22
ATOM     22  N12 ZIN A   1      16.919  -4.391   8.730  0.00  0.00    -0.077 N 
ATOM     23  H13 ZIN A   1      16.466  -3.490   8.754  0.00  0.00     0.274 HD
ATOM     24  H14 ZIN A   1      17.400  -4.503   7.849  0.00  0.00     0.274 HD
ATOM     25  H15 ZIN A   1      16.228  -5.118   8.830  0.00  0.00     0.274 HD
ENDBRANCH  21  22
ENDBRANCH  20  21
ENDBRANCH  19  20
ENDBRANCH   2  19
TORSDOF 11
ENDMDL
MODEL 9
REMARK VINA RESULT:      -5.8      3.834      5.363
REMARK  11 active torsions:
REMARK  status: ('A' for Active; 'I' for Inactive)
REMARK    1  A    between atoms: O2_2  and  C3_3 
REMARK    2  A    between atoms: C3_3  and  C4_4 
REMARK    3  A    between atoms: C4_4  and  C5_5 
REMARK    4  A    between atoms: C5_5  and  C6_6 
REMARK    5  A    between atoms: C6_6  and  C7_7 
REMARK    6  A    between atoms: C7_7  and  C16_16 
REMARK    7  A    between atoms: N8_8  and  O9_9 
REMARK    8  A    between atoms: O9_9  and  C10_10 
REMARK    9  A    between atoms: C10_10  and  C11_11 
REMARK   10  A    between atoms: C11_11  and  N12_12 
REMARK   11  A    between atoms: C19_19  and  C20_20 
ROOT
ATOM      1  C7  ZIN A   1      18.497  -1.371   8.720  0.00  0.00     0.072 C 
ATOM      2  N8  ZIN A   1      18.113  -1.702   7.530  0.00  0.00    -0.138 NA
ENDROOT
BRANCH   1   3
ATOM      3  C6  ZIN A   1      19.081  -2.412   9.640  0.00  0.00     0.062 C 
BRANCH   3   4
ATOM      4  C5  ZIN A   1      17.952  -3.246  10.249  0.00  0.00     0.008 C 
BRANCH   4   5
ATOM      5  C4  ZIN A   1      17.956  -3.076  11.769  0.00  0.00     0.027 C 
BRANCH   5   6
ATOM      6  C3  ZIN A   1      19.270  -2.427  12.206  0.00  0.00     0.167 C 
BRANCH   6   7
ATOM      7  O2  ZIN A   1      19.014  -1.490  13.254  0.00  0.00    -0.396 OA
ATOM      8  C1  ZIN A   1      19.709  -0.250  13.109  0.00  0.00     0.201 C 
ENDBRANCH   6   7
ENDBRANCH   5   6
ENDBRANCH   4   5
ENDBRANCH   3   4
ENDBRANCH   1   3
BRANCH   1   9
ATOM      9  C16 ZIN A   1      18.363   0.026   9.176  0.00  0.00    -0.009 A 
ATOM     10  C25 ZIN A   1      19.133   1.033   8.590  0.00  0.00     0.014 A 
ATOM     11  C24 ZIN A   1      18.998   2.338   9.018  0.00  0.00     0.017 A 
ATOM     12  C19 ZIN A   1      18.111   2.648  10.033  0.00  0.00     0.048 A 
ATOM     13  C18 ZIN A   1      17.350   1.655  10.623  0.00  0.00     0.017 A 
ATOM     14  C17 ZIN A   1      17.471   0.347  10.201  0.00  0.00     0.014 A 
BRANCH  12  15
ATOM     15  C20 ZIN A   1      17.974   4.075  10.499  0.00  0.00     0.417 C 
ATOM     16  F21 ZIN A   1      17.972   4.929   9.390  0.00  0.00    -0.166 F 
ATOM     17  F22 ZIN A   1      16.774   4.222  11.203  0.00  0.00    -0.166 F 
ATOM     18  F23 ZIN A   1      19.048   4.398  11.335  0.00  0.00    -0.166 F 
ENDBRANCH  12  15
ENDBRANCH   1   9
BRANCH   2  19
ATOM     19  O9  ZIN A   1      17.687  -0.704   6.621  0.00  0.00    -0.255 OA
BRANCH  19  20
ATOM     20  C10 ZIN A   1      17.763  -1.097   5.248  0.00  0.00     0.231 C 
BRANCH  20  21
ATOM     21  C11 ZIN A   1      19.207  -0.971   4.760  0.00  0.00     0.258 C 
BRANCH  21  22
ATOM     22  N12 ZIN A   1      19.640   0.428   4.867  0.00  0.00    -0.077 N 
ATOM     23  H13 ZIN A   1      20.637   0.461   5.021  0.00  0.00     0.274 HD
ATOM     24  H14 ZIN A   1      19.416   0.916   4.012  0.00  0.00     0.274 HD
ATOM     25  H15 ZIN A   1      19.165   0.869   5.640  0.00  0.00     0.274 HD
ENDBRANCH  21  22
ENDBRANCH  20  21
ENDBRANCH  19  20
ENDBRANCH   2  19
TORSDOF 11
ENDMDL
