MODEL 1
REMARK VINA RESULT:      -7.6      0.000      0.000
REMARK  5 active torsions:
REMARK  status: ('A' for Active; 'I' for Inactive)
REMARK    1  A    between atoms: C2_2  and  C4_4 
REMARK    2  A    between atoms: C4_4  and  S5_5 
REMARK    3  A    between atoms: S5_5  and  C6_6 
REMARK    4  A    between atoms: N11_11  and  C12_12 
REMARK    5  A    between atoms: C19_19  and  C20_20 
ROOT
ATOM      1  C12 ZIN A   1      18.932   2.911  13.455  0.00  0.00     0.055 A 
ATOM      2  C13 ZIN A   1      18.087   3.690  12.635  0.00  0.00     0.002 A 
ATOM      3  C14 ZIN A   1      17.253   4.679  13.180  0.00  0.00     0.014 A 
ATOM      4  C15 ZIN A   1      16.451   5.411  12.359  0.00  0.00     0.001 A 
ATOM      5  C16 ZIN A   1      16.446   5.194  10.983  0.00  0.00     0.001 A 
ATOM      6  C17 ZIN A   1      17.241   4.245  10.419  0.00  0.00     0.013 A 
ATOM      7  C18 ZIN A   1      18.083   3.468  11.236  0.00  0.00    -0.017 A 
ATOM      8  C19 ZIN A   1      18.918   2.480  10.689  0.00  0.00    -0.043 A 
ATOM      9  C23 ZIN A   1      19.722   1.744  11.504  0.00  0.00     0.011 A 
ATOM     10  C24 ZIN A   1      19.740   1.956  12.879  0.00  0.00     0.031 A 
ENDROOT
BRANCH   1  11
ATOM     11  N11 ZIN A   1      18.952   3.112  14.840  0.00  0.00    -0.265 N 
ATOM     12  C6  ZIN A   1      18.464   2.272  15.805  0.00  0.00     0.197 A 
ATOM     13  N7  ZIN A   1      18.689   2.848  16.964  0.00  0.00    -0.121 NA
ATOM     14  N8  ZIN A   1      19.275   3.978  16.785  0.00  0.00    -0.121 NA
ATOM     15  C9  ZIN A   1      19.457   4.194  15.513  0.00  0.00     0.206 A 
ATOM     16 Br10 ZIN A   1      20.275   5.714  14.739  0.00  0.00    -0.006 Br
BRANCH  12  17
ATOM     17  S5  ZIN A   1      17.685   0.714  15.543  0.00  0.00    -0.079 SA
BRANCH  17  18
ATOM     18  C4  ZIN A   1      17.659   0.087  17.240  0.00  0.00     0.195 C 
BRANCH  18  19
ATOM     19  C2  ZIN A   1      19.006  -0.499  17.579  0.00  0.00     0.182 C 
ATOM     20  O1  ZIN A   1      19.408  -1.488  16.990  0.00  0.00    -0.647 OA
ATOM     21  O3  ZIN A   1      19.698   0.021  18.440  0.00  0.00    -0.647 OA
ENDBRANCH  18  19
ENDBRANCH  17  18
ENDBRANCH  12  17
ENDBRANCH   1  11
BRANCH   8  22
ATOM     22  C20 ZIN A   1      18.923   2.235   9.202  0.00  0.00     0.019 A 
ATOM     23  C22 ZIN A   1      18.109   1.049   8.679  0.00  0.00     0.010 A 
ATOM     24  C21 ZIN A   1      19.637   0.980   8.695  0.00  0.00     0.010 A 
ENDBRANCH   8  22
TORSDOF 5
ENDMDL
MODEL 2
REMARK VINA RESULT:      -7.4      6.571      8.999
REMARK  5 active torsions:
REMARK  status: ('A' for Active; 'I' for Inactive)
REMARK    1  A    between atoms: C2_2  and  C4_4 
REMARK    2  A    between atoms: C4_4  and  S5_5 
REMARK    3  A    between atoms: S5_5  and  C6_6 
REMARK    4  A    between atoms: N11_11  and  C12_12 
REMARK    5  A    between atoms: C19_19  and  C20_20 
ROOT
ATOM      1  C12 ZIN A   1      19.003  -2.425   8.885  0.00  0.00     0.055 A 
ATOM      2  C13 ZIN A   1      18.158  -3.289   9.613  0.00  0.00     0.002 A 
ATOM      3  C14 ZIN A   1      17.350  -4.235   8.963  0.00  0.00     0.014 A 
ATOM      4  C15 ZIN A   1      16.546  -5.053   9.698  0.00  0.00     0.001 A 
ATOM      5  C16 ZIN A   1      16.513  -4.964  11.088  0.00  0.00     0.001 A 
ATOM      6  C17 ZIN A   1      17.283  -4.059  11.752  0.00  0.00     0.013 A 
ATOM      7  C18 ZIN A   1      18.126  -3.198  11.026  0.00  0.00    -0.017 A 
ATOM      8  C19 ZIN A   1      18.935  -2.252  11.678  0.00  0.00    -0.043 A 
ATOM      9  C23 ZIN A   1      19.740  -1.432  10.949  0.00  0.00     0.011 A 
ATOM     10  C24 ZIN A   1      19.785  -1.515   9.561  0.00  0.00     0.031 A 
ENDROOT
BRANCH   1  11
ATOM     11  N11 ZIN A   1      19.051  -2.496   7.487  0.00  0.00    -0.265 N 
ATOM     12  C6  ZIN A   1      18.471  -1.635   6.595  0.00  0.00     0.197 A 
ATOM     13  N7  ZIN A   1      18.765  -2.073   5.393  0.00  0.00    -0.121 NA
ATOM     14  N8  ZIN A   1      19.477  -3.140   5.477  0.00  0.00    -0.121 NA
ATOM     15  C9  ZIN A   1      19.680  -3.447   6.728  0.00  0.00     0.206 A 
ATOM     16 Br10 ZIN A   1      20.666  -4.926   7.373  0.00  0.00    -0.006 Br
BRANCH  12  17
ATOM     17  S5  ZIN A   1      17.516  -0.206   6.985  0.00  0.00    -0.079 SA
BRANCH  17  18
ATOM     18  C4  ZIN A   1      18.842   1.000   7.229  0.00  0.00     0.195 C 
BRANCH  18  19
ATOM     19  C2  ZIN A   1      18.713   1.617   8.598  0.00  0.00     0.182 C 
ATOM     20  O1  ZIN A   1      17.781   1.309   9.321  0.00  0.00    -0.647 OA
ATOM     21  O3  ZIN A   1      19.545   2.421   8.986  0.00  0.00    -0.647 OA
ENDBRANCH  18  19
ENDBRANCH  17  18
ENDBRANCH  12  17
ENDBRANCH   1  11
BRANCH   8  22
ATOM     22  C20 ZIN A   1      18.910  -2.146  13.181  0.00  0.00     0.019 A 
ATOM     23  C22 ZIN A   1      18.055  -1.036  13.796  0.00  0.00     0.010 A 
ATOM     24  C21 ZIN A   1      19.581  -0.925  13.814  0.00  0.00     0.010 A 
ENDBRANCH   8  22
TORSDOF 5
ENDMDL
MODEL 3
REMARK VINA RESULT:      -7.1      3.690      6.299
REMARK  5 active torsions:
REMARK  status: ('A' for Active; 'I' for Inactive)
REMARK    1  A    between atoms: C2_2  and  C4_4 
REMARK    2  A    between atoms: C4_4  and  S5_5 
REMARK    3  A    between atoms: S5_5  and  C6_6 
REMARK    4  A    between atoms: N11_11  and  C12_12 
REMARK    5  A    between atoms: C19_19  and  C20_20 
ROOT
ATOM      1  C12 ZIN A   1      17.923   2.654  13.158  0.00  0.00     0.055 A 
ATOM      2  C13 ZIN A   1      18.614   3.155  14.282  0.00  0.00     0.002 A 
ATOM      3  C14 ZIN A   1      19.195   4.433  14.269  0.00  0.00     0.014 A 
ATOM      4  C15 ZIN A   1      19.855   4.884  15.371  0.00  0.00     0.001 A 
ATOM      5  C16 ZIN A   1      19.963   4.094  16.515  0.00  0.00     0.001 A 
ATOM      6  C17 ZIN A   1      19.413   2.851  16.563  0.00  0.00     0.013 A 
ATOM      7  C18 ZIN A   1      18.723   2.352  15.443  0.00  0.00    -0.017 A 
ATOM      8  C19 ZIN A   1      18.141   1.073  15.458  0.00  0.00    -0.043 A 
ATOM      9  C23 ZIN A   1      17.480   0.616  14.359  0.00  0.00     0.011 A 
ATOM     10  C24 ZIN A   1      17.361   1.398  13.214  0.00  0.00     0.031 A 
ENDROOT
BRANCH   1  11
ATOM     11  N11 ZIN A   1      17.803   3.431  11.999  0.00  0.00    -0.265 N 
ATOM     12  C6  ZIN A   1      18.365   3.182  10.775  0.00  0.00     0.197 A 
ATOM     13  N7  ZIN A   1      17.997   4.159   9.979  0.00  0.00    -0.121 NA
ATOM     14  N8  ZIN A   1      17.257   4.992  10.621  0.00  0.00    -0.121 NA
ATOM     15  C9  ZIN A   1      17.107   4.602  11.855  0.00  0.00     0.206 A 
ATOM     16 Br10 ZIN A   1      16.108   5.485  13.196  0.00  0.00    -0.006 Br
BRANCH  12  17
ATOM     17  S5  ZIN A   1      19.382   1.809  10.348  0.00  0.00    -0.079 SA
BRANCH  17  18
ATOM     18  C4  ZIN A   1      19.113   1.763   8.559  0.00  0.00     0.195 C 
BRANCH  18  19
ATOM     19  C2  ZIN A   1      18.621   0.395   8.161  0.00  0.00     0.182 C 
ATOM     20  O1  ZIN A   1      17.430   0.199   7.996  0.00  0.00    -0.647 OA
ATOM     21  O3  ZIN A   1      19.417  -0.515   7.998  0.00  0.00    -0.647 OA
ENDBRANCH  18  19
ENDBRANCH  17  18
ENDBRANCH  12  17
ENDBRANCH   1  11
BRANCH   8  22
ATOM     22  C20 ZIN A   1      18.250   0.209  16.687  0.00  0.00     0.019 A 
ATOM     23  C22 ZIN A   1      18.940  -1.149  16.538  0.00  0.00     0.010 A 
ATOM     24  C21 ZIN A   1      17.424  -1.079  16.721  0.00  0.00     0.010 A 
ENDBRANCH   8  22
TORSDOF 5
ENDMDL
MODEL 4
REMARK VINA RESULT:      -7.1      6.963      8.519
REMARK  5 active torsions:
REMARK  status: ('A' for Active; 'I' for Inactive)
REMARK    1  A    between atoms: C2_2  and  C4_4 
REMARK    2  A    between atoms: C4_4  and  S5_5 
REMARK    3  A    between atoms: S5_5  and  C6_6 
REMARK    4  A    between atoms: N11_11  and  C12_12 
REMARK    5  A    between atoms: C19_19  and  C20_20 
ROOT
ATOM      1  C12 ZIN A   1      18.351  -3.320   9.059  0.00  0.00     0.055 A 
ATOM      2  C13 ZIN A   1      18.025  -1.970   9.314  0.00  0.00     0.002 A 
ATOM      3  C14 ZIN A   1      17.456  -1.575  10.535  0.00  0.00     0.014 A 
ATOM      4  C15 ZIN A   1      17.155  -0.265  10.745  0.00  0.00     0.001 A 
ATOM      5  C16 ZIN A   1      17.404   0.694   9.765  0.00  0.00     0.001 A 
ATOM      6  C17 ZIN A   1      17.954   0.349   8.569  0.00  0.00     0.013 A 
ATOM      7  C18 ZIN A   1      18.279  -0.997   8.316  0.00  0.00    -0.017 A 
ATOM      8  C19 ZIN A   1      18.849  -1.390   7.094  0.00  0.00    -0.043 A 
ATOM      9  C23 ZIN A   1      19.153  -2.699   6.877  0.00  0.00     0.011 A 
ATOM     10  C24 ZIN A   1      18.914  -3.664   7.851  0.00  0.00     0.031 A 
ENDROOT
BRANCH   1  11
ATOM     11  N11 ZIN A   1      18.109  -4.299  10.031  0.00  0.00    -0.265 N 
ATOM     12  C6  ZIN A   1      17.107  -5.233  10.032  0.00  0.00     0.197 A 
ATOM     13  N7  ZIN A   1      17.251  -5.947  11.124  0.00  0.00    -0.121 NA
ATOM     14  N8  ZIN A   1      18.260  -5.521  11.797  0.00  0.00    -0.121 NA
ATOM     15  C9  ZIN A   1      18.819  -4.517  11.182  0.00  0.00     0.206 A 
ATOM     16 Br10 ZIN A   1      20.334  -3.547  11.766  0.00  0.00    -0.006 Br
BRANCH  12  17
ATOM     17  S5  ZIN A   1      15.866  -5.440   8.800  0.00  0.00    -0.079 SA
BRANCH  17  18
ATOM     18  C4  ZIN A   1      16.371  -7.035   8.110  0.00  0.00     0.195 C 
BRANCH  18  19
ATOM     19  C2  ZIN A   1      17.234  -6.806   6.896  0.00  0.00     0.182 C 
ATOM     20  O1  ZIN A   1      16.884  -6.010   6.041  0.00  0.00    -0.647 OA
ATOM     21  O3  ZIN A   1      18.285  -7.412   6.771  0.00  0.00    -0.647 OA
ENDBRANCH  18  19
ENDBRANCH  17  18
ENDBRANCH  12  17
ENDBRANCH   1  11
BRANCH   8  22
ATOM     22  C20 ZIN A   1      19.123  -0.364   6.025  0.00  0.00     0.019 A 
ATOM     23  C22 ZIN A   1      18.038  -0.135   4.971  0.00  0.00     0.010 A 
ATOM     24  C21 ZIN A   1      19.326  -0.870   4.595  0.00  0.00     0.010 A 
ENDBRANCH   8  22
TORSDOF 5
ENDMDL
MODEL 5
REMARK VINA RESULT:      -6.8      6.880      9.230
REMARK  5 active torsions:
REMARK  status: ('A' for Active; 'I' for Inactive)
REMARK    1  A    between atoms: C2_2  and  C4_4 
REMARK    2  A    between atoms: C4_4  and  S5_5 
REMARK    3  A    between atoms: S5_5  and  C6_6 
REMARK    4  A    between atoms: N11_11  and  C12_12 
REMARK    5  A    between atoms: C19_19  and  C20_20 
ROOT
ATOM      1  C12 ZIN A   1      18.991  -2.123   8.808  0.00  0.00     0.055 A 
ATOM      2  C13 ZIN A   1      18.192  -3.009   9.561  0.00  0.00     0.002 A 
ATOM      3  C14 ZIN A   1      17.367  -3.957   8.934  0.00  0.00     0.014 A 
ATOM      4  C15 ZIN A   1      16.609  -4.796   9.693  0.00  0.00     0.001 A 
ATOM      5  C16 ZIN A   1      16.640  -4.730  11.084  0.00  0.00     0.001 A 
ATOM      6  C17 ZIN A   1      17.428  -3.824  11.726  0.00  0.00     0.013 A 
ATOM      7  C18 ZIN A   1      18.224  -2.940  10.975  0.00  0.00    -0.017 A 
ATOM      8  C19 ZIN A   1      19.050  -1.993  11.604  0.00  0.00    -0.043 A 
ATOM      9  C23 ZIN A   1      19.810  -1.151  10.851  0.00  0.00     0.011 A 
ATOM     10  C24 ZIN A   1      19.792  -1.212   9.461  0.00  0.00     0.031 A 
ENDROOT
BRANCH   1  11
ATOM     11  N11 ZIN A   1      18.974  -2.173   7.409  0.00  0.00    -0.265 N 
ATOM     12  C6  ZIN A   1      19.544  -3.127   6.609  0.00  0.00     0.197 A 
ATOM     13  N7  ZIN A   1      19.289  -2.787   5.366  0.00  0.00    -0.121 NA
ATOM     14  N8  ZIN A   1      18.609  -1.696   5.341  0.00  0.00    -0.121 NA
ATOM     15  C9  ZIN A   1      18.391  -1.274   6.555  0.00  0.00     0.206 A 
ATOM     16 Br10 ZIN A   1      17.439   0.285   7.045  0.00  0.00    -0.006 Br
BRANCH  12  17
ATOM     17  S5  ZIN A   1      20.445  -4.542   7.144  0.00  0.00    -0.079 SA
BRANCH  17  18
ATOM     18  C4  ZIN A   1      19.323  -5.853   6.597  0.00  0.00     0.195 C 
BRANCH  18  19
ATOM     19  C2  ZIN A   1      18.985  -6.743   7.766  0.00  0.00     0.182 C 
ATOM     20  O1  ZIN A   1      18.114  -7.589   7.656  0.00  0.00    -0.647 OA
ATOM     21  O3  ZIN A   1      19.587  -6.621   8.820  0.00  0.00    -0.647 OA
ENDBRANCH  18  19
ENDBRANCH  17  18
ENDBRANCH  12  17
ENDBRANCH   1  11
BRANCH   8  22
ATOM     22  C20 ZIN A   1      19.094  -1.910  13.107  0.00  0.00     0.019 A 
ATOM     23  C22 ZIN A   1      18.151  -0.914  13.787  0.00  0.00     0.010 A 
ATOM     24  C21 ZIN A   1      19.653  -0.628  13.728  0.00  0.00     0.010 A 
ENDBRANCH   8  22
TORSDOF 5
ENDMDL
MODEL 6
REMARK VINA RESULT:      -6.7      3.969      4.928
REMARK  5 active torsions:
REMARK  status: ('A' for Active; 'I' for Inactive)
REMARK    1  A    between atoms: C2_2  and  C4_4 
REMARK    2  A    between atoms: C4_4  and  S5_5 
REMARK    3  A    between atoms: S5_5  and  C6_6 
REMARK    4  A    between atoms: N11_11  and  C12_12 
REMARK    5  A    between atoms: C19_19  and  C20_20 
ROOT
ATOM      1  C12 ZIN A   1      18.072   4.357  14.134  0.00  0.00     0.055 A 
ATOM      2  C13 ZIN A   1      17.999   4.122  12.745  0.00  0.00     0.002 A 
ATOM      3  C14 ZIN A   1      17.837   5.179  11.834  0.00  0.00     0.014 A 
ATOM      4  C15 ZIN A   1      17.770   4.914  10.501  0.00  0.00     0.001 A 
ATOM      5  C16 ZIN A   1      17.861   3.608  10.023  0.00  0.00     0.001 A 
ATOM      6  C17 ZIN A   1      18.019   2.559  10.875  0.00  0.00     0.013 A 
ATOM      7  C18 ZIN A   1      18.092   2.794  12.261  0.00  0.00    -0.017 A 
ATOM      8  C19 ZIN A   1      18.256   1.735  13.170  0.00  0.00    -0.043 A 
ATOM      9  C23 ZIN A   1      18.323   1.992  14.505  0.00  0.00     0.011 A 
ATOM     10  C24 ZIN A   1      18.239   3.293  14.993  0.00  0.00     0.031 A 
ENDROOT
BRANCH   1  11
ATOM     11  N11 ZIN A   1      17.982   5.662  14.635  0.00  0.00    -0.265 N 
ATOM     12  C6  ZIN A   1      16.845   6.405  14.805  0.00  0.00     0.197 A 
ATOM     13  N7  ZIN A   1      17.216   7.564  15.298  0.00  0.00    -0.121 NA
ATOM     14  N8  ZIN A   1      18.493   7.592  15.439  0.00  0.00    -0.121 NA
ATOM     15  C9  ZIN A   1      19.013   6.463  15.048  0.00  0.00     0.206 A 
ATOM     16 Br10 ZIN A   1      20.850   6.011  15.059  0.00  0.00    -0.006 Br
BRANCH  12  17
ATOM     17  S5  ZIN A   1      15.197   5.901  14.439  0.00  0.00    -0.079 SA
BRANCH  17  18
ATOM     18  C4  ZIN A   1      14.303   6.778  15.744  0.00  0.00     0.195 C 
BRANCH  18  19
ATOM     19  C2  ZIN A   1      12.850   6.380  15.712  0.00  0.00     0.182 C 
ATOM     20  O1  ZIN A   1      12.436   5.653  14.824  0.00  0.00    -0.647 OA
ATOM     21  O3  ZIN A   1      12.088   6.780  16.576  0.00  0.00    -0.647 OA
ENDBRANCH  18  19
ENDBRANCH  17  18
ENDBRANCH  12  17
ENDBRANCH   1  11
BRANCH   8  22
ATOM     22  C20 ZIN A   1      18.356   0.318  12.668  0.00  0.00     0.019 A 
ATOM     23  C22 ZIN A   1      17.056  -0.477  12.531  0.00  0.00     0.010 A 
ATOM     24  C21 ZIN A   1      18.039  -0.806  13.656  0.00  0.00     0.010 A 
ENDBRANCH   8  22
TORSDOF 5
ENDMDL
MODEL 7
REMARK VINA RESULT:      -6.6      3.176      5.155
REMARK  5 active torsions:
REMARK  status: ('A' for Active; 'I' for Inactive)
REMARK    1  A    between atoms: C2_2  and  C4_4 
REMARK    2  A    between atoms: C4_4  and  S5_5 
REMARK    3  A    between atoms: S5_5  and  C6_6 
REMARK    4  A    between atoms: N11_11  and  C12_12 
REMARK    5  A    between atoms: C19_19  and  C20_20 
ROOT
ATOM      1  C12 ZIN A   1      18.299   4.224  15.619  0.00  0.00     0.055 A 
ATOM      2  C13 ZIN A   1      18.082   3.466  14.449  0.00  0.00     0.002 A 
ATOM      3  C14 ZIN A   1      17.825   4.086  13.216  0.00  0.00     0.014 A 
ATOM      4  C15 ZIN A   1      17.621   3.323  12.108  0.00  0.00     0.001 A 
ATOM      5  C16 ZIN A   1      17.662   1.931  12.178  0.00  0.00     0.001 A 
ATOM      6  C17 ZIN A   1      17.908   1.296  13.356  0.00  0.00     0.013 A 
ATOM      7  C18 ZIN A   1      18.124   2.052  14.522  0.00  0.00    -0.017 A 
ATOM      8  C19 ZIN A   1      18.382   1.429  15.755  0.00  0.00    -0.043 A 
ATOM      9  C23 ZIN A   1      18.587   2.187  16.867  0.00  0.00     0.011 A 
ATOM     10  C24 ZIN A   1      18.554   3.577  16.808  0.00  0.00     0.031 A 
ENDROOT
BRANCH   1  11
ATOM     11  N11 ZIN A   1      18.261   5.623  15.570  0.00  0.00    -0.265 N 
ATOM     12  C6  ZIN A   1      17.156   6.425  15.682  0.00  0.00     0.197 A 
ATOM     13  N7  ZIN A   1      17.572   7.666  15.581  0.00  0.00    -0.121 NA
ATOM     14  N8  ZIN A   1      18.847   7.689  15.412  0.00  0.00    -0.121 NA
ATOM     15  C9  ZIN A   1      19.319   6.474  15.393  0.00  0.00     0.206 A 
ATOM     16 Br10 ZIN A   1      21.132   5.980  15.171  0.00  0.00    -0.006 Br
BRANCH  12  17
ATOM     17  S5  ZIN A   1      15.494   5.893  15.922  0.00  0.00    -0.079 SA
BRANCH  17  18
ATOM     18  C4  ZIN A   1      15.204   6.515  17.596  0.00  0.00     0.195 C 
BRANCH  18  19
ATOM     19  C2  ZIN A   1      15.948   5.657  18.586  0.00  0.00     0.182 C 
ATOM     20  O1  ZIN A   1      17.040   6.008  18.998  0.00  0.00    -0.647 OA
ATOM     21  O3  ZIN A   1      15.454   4.614  18.981  0.00  0.00    -0.647 OA
ENDBRANCH  18  19
ENDBRANCH  17  18
ENDBRANCH  12  17
ENDBRANCH   1  11
BRANCH   8  22
ATOM     22  C20 ZIN A   1      18.429  -0.074  15.846  0.00  0.00     0.019 A 
ATOM     23  C22 ZIN A   1      17.301  -0.772  16.607  0.00  0.00     0.010 A 
ATOM     24  C21 ZIN A   1      18.700  -0.691  17.220  0.00  0.00     0.010 A 
ENDBRANCH   8  22
TORSDOF 5
ENDMDL
MODEL 8
REMARK VINA RESULT:      -6.6      7.395      9.817
REMARK  5 active torsions:
REMARK  status: ('A' for Active; 'I' for Inactive)
REMARK    1  A    between atoms: C2_2  and  C4_4 
REMARK    2  A    between atoms: C4_4  and  S5_5 
REMARK    3  A    between atoms: S5_5  and  C6_6 
REMARK    4  A    between atoms: N11_11  and  C12_12 
REMARK    5  A    between atoms: C19_19  and  C20_20 
ROOT
ATOM      1  C12 ZIN A   1      18.043  -2.993   8.601  0.00  0.00     0.055 A 
ATOM      2  C13 ZIN A   1      18.753  -3.033   9.820  0.00  0.00     0.002 A 
ATOM      3  C14 ZIN A   1      19.291  -4.233  10.311  0.00  0.00     0.014 A 
ATOM      4  C15 ZIN A   1      19.970  -4.234  11.491  0.00  0.00     0.001 A 
ATOM      5  C16 ZIN A   1      20.141  -3.058  12.221  0.00  0.00     0.001 A 
ATOM      6  C17 ZIN A   1      19.635  -1.877  11.775  0.00  0.00     0.013 A 
ATOM      7  C18 ZIN A   1      18.927  -1.837  10.560  0.00  0.00    -0.017 A 
ATOM      8  C19 ZIN A   1      18.391  -0.635  10.069  0.00  0.00    -0.043 A 
ATOM      9  C23 ZIN A   1      17.710  -0.627   8.890  0.00  0.00     0.011 A 
ATOM     10  C24 ZIN A   1      17.538  -1.793   8.151  0.00  0.00     0.031 A 
ENDROOT
BRANCH   1  11
ATOM     11  N11 ZIN A   1      17.860  -4.163   7.853  0.00  0.00    -0.265 N 
ATOM     12  C6  ZIN A   1      18.451  -4.483   6.661  0.00  0.00     0.197 A 
ATOM     13  N7  ZIN A   1      17.999  -5.666   6.314  0.00  0.00    -0.121 NA
ATOM     14  N8  ZIN A   1      17.172  -6.095   7.200  0.00  0.00    -0.121 NA
ATOM     15  C9  ZIN A   1      17.045  -5.221   8.158  0.00  0.00     0.206 A 
ATOM     16 Br10 ZIN A   1      15.947  -5.387   9.689  0.00  0.00    -0.006 Br
BRANCH  12  17
ATOM     17  S5  ZIN A   1      19.604  -3.498   5.764  0.00  0.00    -0.079 SA
BRANCH  17  18
ATOM     18  C4  ZIN A   1      18.484  -2.696   4.590  0.00  0.00     0.195 C 
BRANCH  18  19
ATOM     19  C2  ZIN A   1      18.879  -1.250   4.428  0.00  0.00     0.182 C 
ATOM     20  O1  ZIN A   1      20.002  -0.887   4.732  0.00  0.00    -0.647 OA
ATOM     21  O3  ZIN A   1      18.076  -0.445   3.987  0.00  0.00    -0.647 OA
ENDBRANCH  18  19
ENDBRANCH  17  18
ENDBRANCH  12  17
ENDBRANCH   1  11
BRANCH   8  22
ATOM     22  C20 ZIN A   1      18.568   0.643  10.847  0.00  0.00     0.019 A 
ATOM     23  C22 ZIN A   1      17.385   1.129  11.687  0.00  0.00     0.010 A 
ATOM     24  C21 ZIN A   1      17.759   1.862  10.398  0.00  0.00     0.010 A 
ENDBRANCH   8  22
TORSDOF 5
ENDMDL
MODEL 9
REMARK VINA RESULT:      -6.6      2.341      3.774
REMARK  5 active torsions:
REMARK  status: ('A' for Active; 'I' for Inactive)
REMARK    1  A    between atoms: C2_2  and  C4_4 
REMARK    2  A    between atoms: C4_4  and  S5_5 
REMARK    3  A    between atoms: S5_5  and  C6_6 
REMARK    4  A    between atoms: N11_11  and  C12_12 
REMARK    5  A    between atoms: C19_19  and  C20_20 
ROOT
ATOM      1  C12 ZIN A   1      18.399   2.178  11.046  0.00  0.00     0.055 A 
ATOM      2  C13 ZIN A   1      18.049   0.815  10.939  0.00  0.00     0.002 A 
ATOM      3  C14 ZIN A   1      17.522   0.109  12.033  0.00  0.00     0.014 A 
ATOM      4  C15 ZIN A   1      17.196  -1.205  11.893  0.00  0.00     0.001 A 
ATOM      5  C16 ZIN A   1      17.377  -1.863  10.678  0.00  0.00     0.001 A 
ATOM      6  C17 ZIN A   1      17.884  -1.212   9.596  0.00  0.00     0.013 A 
ATOM      7  C18 ZIN A   1      18.233   0.147   9.703  0.00  0.00    -0.017 A 
ATOM      8  C19 ZIN A   1      18.758   0.852   8.607  0.00  0.00    -0.043 A 
ATOM      9  C23 ZIN A   1      19.087   2.166   8.740  0.00  0.00     0.011 A 
ATOM     10  C24 ZIN A   1      18.905   2.835   9.947  0.00  0.00     0.031 A 
ENDROOT
BRANCH   1  11
ATOM     11  N11 ZIN A   1      18.226   2.857  12.258  0.00  0.00    -0.265 N 
ATOM     12  C6  ZIN A   1      18.706   2.491  13.487  0.00  0.00     0.197 A 
ATOM     13  N7  ZIN A   1      18.312   3.408  14.341  0.00  0.00    -0.121 NA
ATOM     14  N8  ZIN A   1      17.623   4.306  13.732  0.00  0.00    -0.121 NA
ATOM     15  C9  ZIN A   1      17.534   4.022  12.463  0.00  0.00     0.206 A 
ATOM     16 Br10 ZIN A   1      16.626   5.034  11.148  0.00  0.00    -0.006 Br
BRANCH  12  17
ATOM     17  S5  ZIN A   1      19.673   1.065  13.853  0.00  0.00    -0.079 SA
BRANCH  17  18
ATOM     18  C4  ZIN A   1      19.190   0.792  15.576  0.00  0.00     0.195 C 
BRANCH  18  19
ATOM     19  C2  ZIN A   1      18.160  -0.306  15.639  0.00  0.00     0.182 C 
ATOM     20  O1  ZIN A   1      17.038  -0.067  16.052  0.00  0.00    -0.647 OA
ATOM     21  O3  ZIN A   1      18.447  -1.433  15.272  0.00  0.00    -0.647 OA
ENDBRANCH  18  19
ENDBRANCH  17  18
ENDBRANCH  12  17
ENDBRANCH   1  11
BRANCH   8  22
ATOM     22  C20 ZIN A   1      18.959   0.153   7.287  0.00  0.00     0.019 A 
ATOM     23  C22 ZIN A   1      18.958   1.016   6.023  0.00  0.00     0.010 A 
ATOM     24  C21 ZIN A   1      17.769   0.102   6.326  0.00  0.00     0.010 A 
ENDBRANCH   8  22
TORSDOF 5
ENDMDL
