MODEL 1
REMARK VINA RESULT:      -8.0      0.000      0.000
REMARK  5 active torsions:
REMARK  status: ('A' for Active; 'I' for Inactive)
REMARK    1  A    between atoms: O2_2  and  C3_3 
REMARK    2  A    between atoms: C8_8  and  S9_9 
REMARK    3  A    between atoms: S9_9  and  C11_11 
REMARK    4  A    between atoms: C11_11  and  C12_12 
REMARK    5  A    between atoms: C17_17  and  O18_18 
ROOT
ATOM      1  S9  <0> d   1      17.227   0.216  11.368  0.00  0.00     0.091 S 
ATOM      2  O10 <0> d   1      15.820   0.050  11.477  0.00  0.00    -0.249 OA
ENDROOT
BRANCH   1   3
ATOM      3  C8  <0> d   1      17.768   0.129  13.043  0.00  0.00     0.198 A 
ATOM      4  N7  <0> d   1      17.965  -1.021  13.739  0.00  0.00    -0.331 N 
ATOM      5  C6  <0> d   1      18.387  -0.667  15.007  0.00  0.00     0.063 A 
ATOM      6  H30 <0> d   1      17.834  -1.924  13.408  0.00  0.00     0.168 HD
ATOM      7  C5  <0> d   1      18.737  -1.384  16.142  0.00  0.00     0.035 A 
ATOM      8  C23 <0> d   1      18.429   0.738  15.023  0.00  0.00     0.089 A 
ATOM      9  C4  <0> d   1      19.126  -0.717  17.283  0.00  0.00     0.039 A 
ATOM     10  C3  <0> d   1      19.170   0.673  17.306  0.00  0.00     0.070 A 
ATOM     11  C24 <0> d   1      18.819   1.402  16.187  0.00  0.00     0.070 A 
ATOM     12  N22 <0> d   1      18.039   1.159  13.792  0.00  0.00    -0.220 NA
BRANCH  10  13
ATOM     13  O2  <0> d   1      19.556   1.319  18.440  0.00  0.00    -0.356 OA
ATOM     14  C1  <0> d   1      19.221   2.704  18.545  0.00  0.00     0.210 C 
ENDBRANCH  10  13
ENDBRANCH   1   3
BRANCH   1  15
ATOM     15  C11 <0> d   1      17.955  -1.272  10.626  0.00  0.00     0.177 C 
BRANCH  15  16
ATOM     16  C12 <0> d   1      18.314  -0.992   9.190  0.00  0.00     0.054 A 
ATOM     17  C20 <0> d   1      18.877  -1.992   8.422  0.00  0.00    -0.003 A 
ATOM     18  C17 <0> d   1      19.199  -1.724   7.093  0.00  0.00     0.083 A 
ATOM     19  C21 <0> d   1      19.128  -3.357   9.009  0.00  0.00     0.053 C 
ATOM     20  C15 <0> d   1      18.948  -0.447   6.597  0.00  0.00    -0.011 A 
ATOM     21  C14 <0> d   1      18.388   0.499   7.432  0.00  0.00     0.126 A 
ATOM     22  C16 <0> d   1      19.283  -0.103   5.169  0.00  0.00     0.052 C 
ATOM     23  N13 <0> d   1      18.091   0.206   8.684  0.00  0.00    -0.263 NA
BRANCH  18  24
ATOM     24  O18 <0> d   1      19.749  -2.682   6.305  0.00  0.00    -0.355 OA
ATOM     25  C19 <0> d   1      18.849  -3.499   5.554  0.00  0.00     0.210 C 
ENDBRANCH  18  24
ENDBRANCH  15  16
ENDBRANCH   1  15
TORSDOF 5
ENDMDL
MODEL 2
REMARK VINA RESULT:      -7.9      1.362      9.111
REMARK  5 active torsions:
REMARK  status: ('A' for Active; 'I' for Inactive)
REMARK    1  A    between atoms: O2_2  and  C3_3 
REMARK    2  A    between atoms: C8_8  and  S9_9 
REMARK    3  A    between atoms: S9_9  and  C11_11 
REMARK    4  A    between atoms: C11_11  and  C12_12 
REMARK    5  A    between atoms: C17_17  and  O18_18 
ROOT
ATOM      1  S9  <0> d   1      17.206  -0.089  11.649  0.00  0.00     0.091 S 
ATOM      2  O10 <0> d   1      15.803   0.082  11.509  0.00  0.00    -0.249 OA
ENDROOT
BRANCH   1   3
ATOM      3  C8  <0> d   1      17.777  -0.084   9.982  0.00  0.00     0.198 A 
ATOM      4  N7  <0> d   1      17.978   1.030   9.231  0.00  0.00    -0.331 N 
ATOM      5  C6  <0> d   1      18.425   0.615   7.990  0.00  0.00     0.063 A 
ATOM      6  H30 <0> d   1      17.835   1.948   9.514  0.00  0.00     0.168 HD
ATOM      7  C5  <0> d   1      18.791   1.276   6.827  0.00  0.00     0.035 A 
ATOM      8  C23 <0> d   1      18.477  -0.788   8.048  0.00  0.00     0.089 A 
ATOM      9  C4  <0> d   1      19.205   0.554   5.728  0.00  0.00     0.039 A 
ATOM     10  C3  <0> d   1      19.258  -0.836   5.777  0.00  0.00     0.070 A 
ATOM     11  C24 <0> d   1      18.892  -1.508   6.926  0.00  0.00     0.070 A 
ATOM     12  N22 <0> d   1      18.068  -1.149   9.292  0.00  0.00    -0.220 NA
BRANCH  10  13
ATOM     13  O2  <0> d   1      19.669  -1.535   4.686  0.00  0.00    -0.356 OA
ATOM     14  C1  <0> d   1      18.992  -2.763   4.409  0.00  0.00     0.210 C 
ENDBRANCH  10  13
ENDBRANCH   1   3
BRANCH   1  15
ATOM     15  C11 <0> d   1      17.934   1.426  12.334  0.00  0.00     0.177 C 
BRANCH  15  16
ATOM     16  C12 <0> d   1      18.290   1.203  13.781  0.00  0.00     0.054 A 
ATOM     17  C20 <0> d   1      18.766   2.256  14.535  0.00  0.00    -0.003 A 
ATOM     18  C17 <0> d   1      19.086   2.040  15.874  0.00  0.00     0.083 A 
ATOM     19  C21 <0> d   1      18.924   3.624  13.923  0.00  0.00     0.053 C 
ATOM     20  C15 <0> d   1      18.923   0.758  16.392  0.00  0.00    -0.011 A 
ATOM     21  C14 <0> d   1      18.447  -0.243  15.570  0.00  0.00     0.126 A 
ATOM     22  C16 <0> d   1      19.261   0.468  17.832  0.00  0.00     0.052 C 
ATOM     23  N13 <0> d   1      18.149   0.002  14.308  0.00  0.00    -0.263 NA
BRANCH  18  24
ATOM     24  O18 <0> d   1      19.552   3.051  16.649  0.00  0.00    -0.355 OA
ATOM     25  C19 <0> d   1      18.583   3.817  17.368  0.00  0.00     0.210 C 
ENDBRANCH  18  24
ENDBRANCH  15  16
ENDBRANCH   1  15
TORSDOF 5
ENDMDL
MODEL 3
REMARK VINA RESULT:      -7.8      2.580      7.850
REMARK  5 active torsions:
REMARK  status: ('A' for Active; 'I' for Inactive)
REMARK    1  A    between atoms: O2_2  and  C3_3 
REMARK    2  A    between atoms: C8_8  and  S9_9 
REMARK    3  A    between atoms: S9_9  and  C11_11 
REMARK    4  A    between atoms: C11_11  and  C12_12 
REMARK    5  A    between atoms: C17_17  and  O18_18 
ROOT
ATOM      1  S9  <0> d   1      17.787   3.550  12.156  0.00  0.00     0.091 S 
ATOM      2  O10 <0> d   1      17.931   4.875  11.663  0.00  0.00    -0.249 OA
ENDROOT
BRANCH   1   3
ATOM      3  C8  <0> d   1      17.967   2.564  10.707  0.00  0.00     0.198 A 
ATOM      4  N7  <0> d   1      17.376   1.357  10.508  0.00  0.00    -0.331 N 
ATOM      5  C6  <0> d   1      17.763   0.910   9.258  0.00  0.00     0.063 A 
ATOM      6  H30 <0> d   1      16.791   0.893  11.129  0.00  0.00     0.168 HD
ATOM      7  C5  <0> d   1      17.492  -0.229   8.515  0.00  0.00     0.035 A 
ATOM      8  C23 <0> d   1      18.604   1.907   8.735  0.00  0.00     0.089 A 
ATOM      9  C4  <0> d   1      18.047  -0.381   7.263  0.00  0.00     0.039 A 
ATOM     10  C3  <0> d   1      18.881   0.602   6.738  0.00  0.00     0.070 A 
ATOM     11  C24 <0> d   1      19.165   1.739   7.467  0.00  0.00     0.070 A 
ATOM     12  N22 <0> d   1      18.686   2.888   9.671  0.00  0.00    -0.220 NA
BRANCH  10  13
ATOM     13  O2  <0> d   1      19.422   0.438   5.501  0.00  0.00    -0.356 OA
ATOM     14  C1  <0> d   1      19.252  -0.838   4.881  0.00  0.00     0.210 C 
ENDBRANCH  10  13
ENDBRANCH   1   3
BRANCH   1  15
ATOM     15  C11 <0> d   1      19.249   3.107  13.136  0.00  0.00     0.177 C 
BRANCH  15  16
ATOM     16  C12 <0> d   1      18.971   1.846  13.912  0.00  0.00     0.054 A 
ATOM     17  C20 <0> d   1      19.537   0.656  13.503  0.00  0.00    -0.003 A 
ATOM     18  C17 <0> d   1      19.277  -0.503  14.232  0.00  0.00     0.083 A 
ATOM     19  C21 <0> d   1      20.432   0.612  12.291  0.00  0.00     0.053 C 
ATOM     20  C15 <0> d   1      18.444  -0.410  15.343  0.00  0.00    -0.011 A 
ATOM     21  C14 <0> d   1      17.912   0.817  15.684  0.00  0.00     0.126 A 
ATOM     22  C16 <0> d   1      18.125  -1.634  16.163  0.00  0.00     0.052 C 
ATOM     23  N13 <0> d   1      18.186   1.894  14.971  0.00  0.00    -0.263 NA
BRANCH  18  24
ATOM     24  O18 <0> d   1      19.819  -1.691  13.864  0.00  0.00    -0.355 OA
ATOM     25  C19 <0> d   1      19.178  -2.394  12.797  0.00  0.00     0.210 C 
ENDBRANCH  18  24
ENDBRANCH  15  16
ENDBRANCH   1  15
TORSDOF 5
ENDMDL
MODEL 4
REMARK VINA RESULT:      -7.8      1.971      8.601
REMARK  5 active torsions:
REMARK  status: ('A' for Active; 'I' for Inactive)
REMARK    1  A    between atoms: O2_2  and  C3_3 
REMARK    2  A    between atoms: C8_8  and  S9_9 
REMARK    3  A    between atoms: S9_9  and  C11_11 
REMARK    4  A    between atoms: C11_11  and  C12_12 
REMARK    5  A    between atoms: C17_17  and  O18_18 
ROOT
ATOM      1  S9  <0> d   1      19.297  -1.787  12.538  0.00  0.00     0.091 S 
ATOM      2  O10 <0> d   1      19.060  -3.145  12.195  0.00  0.00    -0.249 OA
ENDROOT
BRANCH   1   3
ATOM      3  C8  <0> d   1      19.159  -0.956  10.991  0.00  0.00     0.198 A 
ATOM      4  N7  <0> d   1      19.458   0.353  10.781  0.00  0.00    -0.331 N 
ATOM      5  C6  <0> d   1      19.221   0.620   9.445  0.00  0.00     0.063 A 
ATOM      6  H30 <0> d   1      19.778   0.984  11.445  0.00  0.00     0.168 HD
ATOM      7  C5  <0> d   1      19.338   1.753   8.653  0.00  0.00     0.035 A 
ATOM      8  C23 <0> d   1      18.772  -0.587   8.883  0.00  0.00     0.089 A 
ATOM      9  C4  <0> d   1      19.014   1.692   7.314  0.00  0.00     0.039 A 
ATOM     10  C3  <0> d   1      18.569   0.499   6.751  0.00  0.00     0.070 A 
ATOM     11  C24 <0> d   1      18.442  -0.635   7.527  0.00  0.00     0.070 A 
ATOM     12  N22 <0> d   1      18.758  -1.508   9.882  0.00  0.00    -0.220 NA
BRANCH  10  13
ATOM     13  O2  <0> d   1      18.253   0.453   5.429  0.00  0.00    -0.356 OA
ATOM     14  C1  <0> d   1      19.109  -0.318   4.583  0.00  0.00     0.210 C 
ENDBRANCH  10  13
ENDBRANCH   1   3
BRANCH   1  15
ATOM     15  C11 <0> d   1      17.880  -1.145  13.473  0.00  0.00     0.177 C 
BRANCH  15  16
ATOM     16  C12 <0> d   1      18.324   0.020  14.320  0.00  0.00     0.054 A 
ATOM     17  C20 <0> d   1      18.613  -0.180  15.655  0.00  0.00    -0.003 A 
ATOM     18  C17 <0> d   1      19.029   0.902  16.427  0.00  0.00     0.083 A 
ATOM     19  C21 <0> d   1      18.494  -1.553  16.265  0.00  0.00     0.053 C 
ATOM     20  C15 <0> d   1      19.123   2.151  15.817  0.00  0.00    -0.011 A 
ATOM     21  C14 <0> d   1      18.809   2.269  14.478  0.00  0.00     0.126 A 
ATOM     22  C16 <0> d   1      19.560   3.356  16.609  0.00  0.00     0.052 C 
ATOM     23  N13 <0> d   1      18.425   1.218  13.778  0.00  0.00    -0.263 NA
BRANCH  18  24
ATOM     24  O18 <0> d   1      19.327   0.745  17.741  0.00  0.00    -0.355 OA
ATOM     25  C19 <0> d   1      18.248   0.861  18.671  0.00  0.00     0.210 C 
ENDBRANCH  18  24
ENDBRANCH  15  16
ENDBRANCH   1  15
TORSDOF 5
ENDMDL
MODEL 5
REMARK VINA RESULT:      -7.8      2.231      8.745
REMARK  5 active torsions:
REMARK  status: ('A' for Active; 'I' for Inactive)
REMARK    1  A    between atoms: O2_2  and  C3_3 
REMARK    2  A    between atoms: C8_8  and  S9_9 
REMARK    3  A    between atoms: S9_9  and  C11_11 
REMARK    4  A    between atoms: C11_11  and  C12_12 
REMARK    5  A    between atoms: C17_17  and  O18_18 
ROOT
ATOM      1  S9  <0> d   1      17.732   3.553  12.417  0.00  0.00     0.091 S 
ATOM      2  O10 <0> d   1      17.940   4.890  11.984  0.00  0.00    -0.249 OA
ENDROOT
BRANCH   1   3
ATOM      3  C8  <0> d   1      17.951   2.618  10.940  0.00  0.00     0.198 A 
ATOM      4  N7  <0> d   1      17.426   1.385  10.714  0.00  0.00    -0.331 N 
ATOM      5  C6  <0> d   1      17.823   0.995   9.448  0.00  0.00     0.063 A 
ATOM      6  H30 <0> d   1      16.875   0.873  11.327  0.00  0.00     0.168 HD
ATOM      7  C5  <0> d   1      17.607  -0.138   8.677  0.00  0.00     0.035 A 
ATOM      8  C23 <0> d   1      18.601   2.051   8.944  0.00  0.00     0.089 A 
ATOM      9  C4  <0> d   1      18.156  -0.225   7.416  0.00  0.00     0.039 A 
ATOM     10  C3  <0> d   1      18.927   0.817   6.909  0.00  0.00     0.070 A 
ATOM     11  C24 <0> d   1      19.156   1.948   7.667  0.00  0.00     0.070 A 
ATOM     12  N22 <0> d   1      18.638   3.009   9.905  0.00  0.00    -0.220 NA
BRANCH  10  13
ATOM     13  O2  <0> d   1      19.462   0.717   5.663  0.00  0.00    -0.356 OA
ATOM     14  C1  <0> d   1      19.033  -0.383   4.858  0.00  0.00     0.210 C 
ENDBRANCH  10  13
ENDBRANCH   1   3
BRANCH   1  15
ATOM     15  C11 <0> d   1      19.133   3.026  13.444  0.00  0.00     0.177 C 
BRANCH  15  16
ATOM     16  C12 <0> d   1      18.700   1.898  14.343  0.00  0.00     0.054 A 
ATOM     17  C20 <0> d   1      18.891   2.001  15.706  0.00  0.00    -0.003 A 
ATOM     18  C17 <0> d   1      18.481   0.953  16.528  0.00  0.00     0.083 A 
ATOM     19  C21 <0> d   1      19.522   3.234  16.298  0.00  0.00     0.053 C 
ATOM     20  C15 <0> d   1      17.903  -0.165  15.933  0.00  0.00    -0.011 A 
ATOM     21  C14 <0> d   1      17.752  -0.194  14.562  0.00  0.00     0.126 A 
ATOM     22  C16 <0> d   1      17.448  -1.329  16.776  0.00  0.00     0.052 C 
ATOM     23  N13 <0> d   1      18.148   0.821  13.816  0.00  0.00    -0.263 NA
BRANCH  18  24
ATOM     24  O18 <0> d   1      18.647   1.020  17.873  0.00  0.00    -0.355 OA
ATOM     25  C19 <0> d   1      17.556   1.537  18.637  0.00  0.00     0.210 C 
ENDBRANCH  18  24
ENDBRANCH  15  16
ENDBRANCH   1  15
TORSDOF 5
ENDMDL
MODEL 6
REMARK VINA RESULT:      -7.8      2.031      8.515
REMARK  5 active torsions:
REMARK  status: ('A' for Active; 'I' for Inactive)
REMARK    1  A    between atoms: O2_2  and  C3_3 
REMARK    2  A    between atoms: C8_8  and  S9_9 
REMARK    3  A    between atoms: S9_9  and  C11_11 
REMARK    4  A    between atoms: C11_11  and  C12_12 
REMARK    5  A    between atoms: C17_17  and  O18_18 
ROOT
ATOM      1  S9  <0> d   1      17.162  -0.890  11.625  0.00  0.00     0.091 S 
ATOM      2  O10 <0> d   1      16.259   0.196  11.777  0.00  0.00    -0.249 OA
ENDROOT
BRANCH   1   3
ATOM      3  C8  <0> d   1      17.717  -0.718   9.962  0.00  0.00     0.198 A 
ATOM      4  N7  <0> d   1      17.857   0.465   9.306  0.00  0.00    -0.331 N 
ATOM      5  C6  <0> d   1      18.312   0.177   8.033  0.00  0.00     0.063 A 
ATOM      6  H30 <0> d   1      17.671   1.347   9.666  0.00  0.00     0.168 HD
ATOM      7  C5  <0> d   1      18.634   0.951   6.927  0.00  0.00     0.035 A 
ATOM      8  C23 <0> d   1      18.434  -1.221   7.972  0.00  0.00     0.089 A 
ATOM      9  C4  <0> d   1      19.074   0.346   5.770  0.00  0.00     0.039 A 
ATOM     10  C3  <0> d   1      19.197  -1.039   5.702  0.00  0.00     0.070 A 
ATOM     11  C24 <0> d   1      18.875  -1.823   6.792  0.00  0.00     0.070 A 
ATOM     12  N22 <0> d   1      18.054  -1.705   9.183  0.00  0.00    -0.220 NA
BRANCH  10  13
ATOM     13  O2  <0> d   1      19.632  -1.623   4.554  0.00  0.00    -0.356 OA
ATOM     14  C1  <0> d   1      19.022  -2.862   4.184  0.00  0.00     0.210 C 
ENDBRANCH  10  13
ENDBRANCH   1   3
BRANCH   1  15
ATOM     15  C11 <0> d   1      18.664  -0.567  12.592  0.00  0.00     0.177 C 
BRANCH  15  16
ATOM     16  C12 <0> d   1      18.811   0.916  12.811  0.00  0.00     0.054 A 
ATOM     17  C20 <0> d   1      18.459   1.464  14.028  0.00  0.00    -0.003 A 
ATOM     18  C17 <0> d   1      18.605   2.836  14.220  0.00  0.00     0.083 A 
ATOM     19  C21 <0> d   1      17.937   0.588  15.137  0.00  0.00     0.053 C 
ATOM     20  C15 <0> d   1      19.092   3.603  13.165  0.00  0.00    -0.011 A 
ATOM     21  C14 <0> d   1      19.416   2.980  11.977  0.00  0.00     0.126 A 
ATOM     22  C16 <0> d   1      19.263   5.092  13.318  0.00  0.00     0.052 C 
ATOM     23  N13 <0> d   1      19.269   1.676  11.834  0.00  0.00    -0.263 NA
BRANCH  18  24
ATOM     24  O18 <0> d   1      18.275   3.411  15.405  0.00  0.00    -0.355 OA
ATOM     25  C19 <0> d   1      19.299   3.481  16.400  0.00  0.00     0.210 C 
ENDBRANCH  18  24
ENDBRANCH  15  16
ENDBRANCH   1  15
TORSDOF 5
ENDMDL
MODEL 7
REMARK VINA RESULT:      -7.8      1.752      2.952
REMARK  5 active torsions:
REMARK  status: ('A' for Active; 'I' for Inactive)
REMARK    1  A    between atoms: O2_2  and  C3_3 
REMARK    2  A    between atoms: C8_8  and  S9_9 
REMARK    3  A    between atoms: S9_9  and  C11_11 
REMARK    4  A    between atoms: C11_11  and  C12_12 
REMARK    5  A    between atoms: C17_17  and  O18_18 
ROOT
ATOM      1  S9  <0> d   1      17.410   0.532  11.581  0.00  0.00     0.091 S 
ATOM      2  O10 <0> d   1      16.196  -0.206  11.558  0.00  0.00    -0.249 OA
ENDROOT
BRANCH   1   3
ATOM      3  C8  <0> d   1      17.884   0.468  13.276  0.00  0.00     0.198 A 
ATOM      4  N7  <0> d   1      17.916  -0.660  14.034  0.00  0.00    -0.331 N 
ATOM      5  C6  <0> d   1      18.338  -0.295  15.298  0.00  0.00     0.063 A 
ATOM      6  H30 <0> d   1      17.685  -1.556  13.741  0.00  0.00     0.168 HD
ATOM      7  C5  <0> d   1      18.561  -0.989  16.478  0.00  0.00     0.035 A 
ATOM      8  C23 <0> d   1      18.552   1.093  15.249  0.00  0.00     0.089 A 
ATOM      9  C4  <0> d   1      18.994  -0.316  17.600  0.00  0.00     0.039 A 
ATOM     10  C3  <0> d   1      19.208   1.058  17.559  0.00  0.00     0.070 A 
ATOM     11  C24 <0> d   1      18.985   1.765  16.394  0.00  0.00     0.070 A 
ATOM     12  N22 <0> d   1      18.256   1.494  13.985  0.00  0.00    -0.220 NA
BRANCH  10  13
ATOM     13  O2  <0> d   1      19.635   1.710  18.674  0.00  0.00    -0.356 OA
ATOM     14  C1  <0> d   1      19.026   2.970  18.963  0.00  0.00     0.210 C 
ENDBRANCH  10  13
ENDBRANCH   1   3
BRANCH   1  15
ATOM     15  C11 <0> d   1      18.713  -0.424  10.756  0.00  0.00     0.177 C 
BRANCH  15  16
ATOM     16  C12 <0> d   1      18.327  -1.880  10.727  0.00  0.00     0.054 A 
ATOM     17  C20 <0> d   1      17.966  -2.465   9.531  0.00  0.00    -0.003 A 
ATOM     18  C17 <0> d   1      17.617  -3.814   9.516  0.00  0.00     0.083 A 
ATOM     19  C21 <0> d   1      17.961  -1.660   8.257  0.00  0.00     0.053 C 
ATOM     20  C15 <0> d   1      17.636  -4.515  10.719  0.00  0.00    -0.011 A 
ATOM     21  C14 <0> d   1      18.004  -3.855  11.874  0.00  0.00     0.126 A 
ATOM     22  C16 <0> d   1      17.261  -5.974  10.759  0.00  0.00     0.052 C 
ATOM     23  N13 <0> d   1      18.334  -2.577  11.848  0.00  0.00    -0.263 NA
BRANCH  18  24
ATOM     24  O18 <0> d   1      17.261  -4.427   8.358  0.00  0.00    -0.355 OA
ATOM     25  C19 <0> d   1      18.307  -5.030   7.595  0.00  0.00     0.210 C 
ENDBRANCH  18  24
ENDBRANCH  15  16
ENDBRANCH   1  15
TORSDOF 5
ENDMDL
MODEL 8
REMARK VINA RESULT:      -7.7      1.713      2.411
REMARK  5 active torsions:
REMARK  status: ('A' for Active; 'I' for Inactive)
REMARK    1  A    between atoms: O2_2  and  C3_3 
REMARK    2  A    between atoms: C8_8  and  S9_9 
REMARK    3  A    between atoms: S9_9  and  C11_11 
REMARK    4  A    between atoms: C11_11  and  C12_12 
REMARK    5  A    between atoms: C17_17  and  O18_18 
ROOT
ATOM      1  S9  <0> d   1      19.337   1.782  10.325  0.00  0.00     0.091 S 
ATOM      2  O10 <0> d   1      19.066   3.158  10.557  0.00  0.00    -0.249 OA
ENDROOT
BRANCH   1   3
ATOM      3  C8  <0> d   1      19.209   1.074  11.933  0.00  0.00     0.198 A 
ATOM      4  N7  <0> d   1      19.316  -0.252  12.211  0.00  0.00    -0.331 N 
ATOM      5  C6  <0> d   1      19.160  -0.400  13.576  0.00  0.00     0.063 A 
ATOM      6  H30 <0> d   1      19.473  -0.963  11.569  0.00  0.00     0.168 HD
ATOM      7  C5  <0> d   1      19.168  -1.490  14.435  0.00  0.00     0.035 A 
ATOM      8  C23 <0> d   1      18.958   0.894  14.085  0.00  0.00     0.089 A 
ATOM      9  C4  <0> d   1      18.979  -1.301  15.787  0.00  0.00     0.039 A 
ATOM     10  C3  <0> d   1      18.778  -0.022  16.298  0.00  0.00     0.070 A 
ATOM     11  C24 <0> d   1      18.761   1.072  15.456  0.00  0.00     0.070 A 
ATOM     12  N22 <0> d   1      19.000   1.746  13.028  0.00  0.00    -0.220 NA
BRANCH  10  13
ATOM     13  O2  <0> d   1      18.592   0.150  17.634  0.00  0.00    -0.356 OA
ATOM     14  C1  <0> d   1      19.210   1.291  18.234  0.00  0.00     0.210 C 
ENDBRANCH  10  13
ENDBRANCH   1   3
BRANCH   1  15
ATOM     15  C11 <0> d   1      17.941   1.034   9.437  0.00  0.00     0.177 C 
BRANCH  15  16
ATOM     16  C12 <0> d   1      18.417  -0.185   8.690  0.00  0.00     0.054 A 
ATOM     17  C20 <0> d   1      18.820  -0.063   7.375  0.00  0.00    -0.003 A 
ATOM     18  C17 <0> d   1      19.264  -1.195   6.696  0.00  0.00     0.083 A 
ATOM     19  C21 <0> d   1      18.792   1.278   6.689  0.00  0.00     0.053 C 
ATOM     20  C15 <0> d   1      19.270  -2.412   7.374  0.00  0.00    -0.011 A 
ATOM     21  C14 <0> d   1      18.846  -2.451   8.686  0.00  0.00     0.126 A 
ATOM     22  C16 <0> d   1      19.734  -3.668   6.683  0.00  0.00     0.052 C 
ATOM     23  N13 <0> d   1      18.438  -1.355   9.298  0.00  0.00    -0.263 NA
BRANCH  18  24
ATOM     24  O18 <0> d   1      19.673  -1.115   5.404  0.00  0.00    -0.355 OA
ATOM     25  C19 <0> d   1      18.670  -1.255   4.396  0.00  0.00     0.210 C 
ENDBRANCH  18  24
ENDBRANCH  15  16
ENDBRANCH   1  15
TORSDOF 5
ENDMDL
MODEL 9
REMARK VINA RESULT:      -7.4      2.131      8.212
REMARK  5 active torsions:
REMARK  status: ('A' for Active; 'I' for Inactive)
REMARK    1  A    between atoms: O2_2  and  C3_3 
REMARK    2  A    between atoms: C8_8  and  S9_9 
REMARK    3  A    between atoms: S9_9  and  C11_11 
REMARK    4  A    between atoms: C11_11  and  C12_12 
REMARK    5  A    between atoms: C17_17  and  O18_18 
ROOT
ATOM      1  S9  <0> d   1      17.751  -2.422  11.865  0.00  0.00     0.091 S 
ATOM      2  O10 <0> d   1      16.775  -1.390  11.845  0.00  0.00    -0.249 OA
ENDROOT
BRANCH   1   3
ATOM      3  C8  <0> d   1      18.238  -2.542  10.176  0.00  0.00     0.198 A 
ATOM      4  N7  <0> d   1      18.599  -3.693   9.549  0.00  0.00    -0.331 N 
ATOM      5  C6  <0> d   1      18.908  -3.369   8.241  0.00  0.00     0.063 A 
ATOM      6  H30 <0> d   1      18.634  -4.578   9.947  0.00  0.00     0.168 HD
ATOM      7  C5  <0> d   1      19.332  -4.101   7.142  0.00  0.00     0.035 A 
ATOM      8  C23 <0> d   1      18.712  -1.982   8.129  0.00  0.00     0.089 A 
ATOM      9  C4  <0> d   1      19.560  -3.466   5.940  0.00  0.00     0.039 A 
ATOM     10  C3  <0> d   1      19.368  -2.093   5.821  0.00  0.00     0.070 A 
ATOM     11  C24 <0> d   1      18.952  -1.349   6.908  0.00  0.00     0.070 A 
ATOM     12  N22 <0> d   1      18.304  -1.541   9.347  0.00  0.00    -0.220 NA
BRANCH  10  13
ATOM     13  O2  <0> d   1      19.596  -1.479   4.630  0.00  0.00    -0.356 OA
ATOM     14  C1  <0> d   1      19.057  -0.166   4.461  0.00  0.00     0.210 C 
ENDBRANCH  10  13
ENDBRANCH   1   3
BRANCH   1  15
ATOM     15  C11 <0> d   1      19.254  -1.816  12.682  0.00  0.00     0.177 C 
BRANCH  15  16
ATOM     16  C12 <0> d   1      19.215  -0.312  12.754  0.00  0.00     0.054 A 
ATOM     17  C20 <0> d   1      18.764   0.303  13.904  0.00  0.00    -0.003 A 
ATOM     18  C17 <0> d   1      18.739   1.695  13.961  0.00  0.00     0.083 A 
ATOM     19  C21 <0> d   1      18.318  -0.519  15.085  0.00  0.00     0.053 C 
ATOM     20  C15 <0> d   1      19.161   2.410  12.843  0.00  0.00    -0.011 A 
ATOM     21  C14 <0> d   1      19.592   1.720  11.729  0.00  0.00     0.126 A 
ATOM     22  C16 <0> d   1      19.147   3.917  12.851  0.00  0.00     0.052 C 
ATOM     23  N13 <0> d   1      19.607   0.400  11.714  0.00  0.00    -0.263 NA
BRANCH  18  24
ATOM     24  O18 <0> d   1      18.307   2.337  15.076  0.00  0.00    -0.355 OA
ATOM     25  C19 <0> d   1      19.287   2.641  16.071  0.00  0.00     0.210 C 
ENDBRANCH  18  24
ENDBRANCH  15  16
ENDBRANCH   1  15
TORSDOF 5
ENDMDL
