MODEL 1
REMARK VINA RESULT:      -8.0      0.000      0.000
REMARK  8 active torsions:
REMARK  status: ('A' for Active; 'I' for Inactive)
REMARK    1  A    between atoms: C2_2  and  C3_3 
REMARK    2  A    between atoms: C3_3  and  C24_24 
REMARK    3  A    between atoms: C4_4  and  C5_5 
REMARK    4  A    between atoms: C4_4  and  C11_11 
REMARK    5  A    between atoms: C14_14  and  O15_15 
REMARK    6  A    between atoms: O15_15  and  C16_16 
REMARK    7  A    between atoms: C16_16  and  C17_17 
REMARK    8  A    between atoms: C17_17  and  N18_18 
ROOT
ATOM      1  C3  <0> d   1      18.982  -0.703  12.314  0.00  0.00    -0.036 C 
ATOM      2  C4  <0> d   1      18.816   0.263  11.376  0.00  0.00    -0.009 C 
ENDROOT
BRANCH   2   3
ATOM      3  C5  <0> d   1      18.854   1.690  11.770  0.00  0.00    -0.025 A 
ATOM      4  C10 <0> d   1      17.728   2.293  12.330  0.00  0.00     0.012 A 
ATOM      5  C9  <0> d   1      17.773   3.621  12.701  0.00  0.00     0.001 A 
ATOM      6  C8  <0> d   1      18.927   4.358  12.505  0.00  0.00     0.000 A 
ATOM      7  C7  <0> d   1      20.045   3.767  11.945  0.00  0.00     0.001 A 
ATOM      8  C6  <0> d   1      20.016   2.438  11.576  0.00  0.00     0.012 A 
ENDBRANCH   2   3
BRANCH   2   9
ATOM      9  C11 <0> d   1      18.596  -0.109   9.962  0.00  0.00    -0.024 A 
ATOM     10  C23 <0> d   1      17.346   0.088   9.372  0.00  0.00     0.015 A 
ATOM     11  C22 <0> d   1      17.147  -0.255   8.052  0.00  0.00     0.037 A 
ATOM     12  C14 <0> d   1      18.184  -0.806   7.312  0.00  0.00     0.068 A 
ATOM     13  C13 <0> d   1      19.427  -1.008   7.896  0.00  0.00     0.037 A 
ATOM     14  C12 <0> d   1      19.636  -0.663   9.214  0.00  0.00     0.015 A 
BRANCH  12  15
ATOM     15  O15 <0> d   1      17.982  -1.149   6.013  0.00  0.00    -0.350 OA
BRANCH  15  16
ATOM     16  C16 <0> d   1      19.134  -1.517   5.253  0.00  0.00     0.203 C 
BRANCH  16  17
ATOM     17  C17 <0> d   1      18.837  -2.793   4.462  0.00  0.00     0.260 C 
BRANCH  17  18
ATOM     18  N18 <0> d   1      17.532  -3.331   4.873  0.00  0.00    -0.077 N 
ATOM     19  H19 <0> d   1      17.111  -2.711   5.548  0.00  0.00     0.279 HD
ATOM     20  C20 <0> d   1      16.658  -3.446   3.699  0.00  0.00     0.269 C 
ATOM     21  C21 <0> d   1      17.719  -4.657   5.476  0.00  0.00     0.269 C 
ENDBRANCH  17  18
ENDBRANCH  16  17
ENDBRANCH  15  16
ENDBRANCH  12  15
ENDBRANCH   2   9
BRANCH   1  22
ATOM     22  C2  <0> d   1      19.348  -0.327  13.727  0.00  0.00     0.036 C 
ATOM     23  C1  <0> d   1      18.324  -0.923  14.695  0.00  0.00     0.010 C 
ENDBRANCH   1  22
BRANCH   1  24
ATOM     24  C24 <0> d   1      18.806  -2.117  11.951  0.00  0.00    -0.029 A 
ATOM     25  C29 <0> d   1      17.525  -2.632  11.728  0.00  0.00     0.012 A 
ATOM     26  C28 <0> d   1      17.369  -3.958  11.382  0.00  0.00     0.001 A 
ATOM     27  C27 <0> d   1      18.476  -4.781  11.266  0.00  0.00     0.000 A 
ATOM     28  C26 <0> d   1      19.746  -4.280  11.491  0.00  0.00     0.001 A 
ATOM     29  C25 <0> d   1      19.920  -2.956  11.831  0.00  0.00     0.012 A 
ENDBRANCH   1  24
TORSDOF 8
ENDMDL
MODEL 2
REMARK VINA RESULT:      -7.8      0.430      1.360
REMARK  8 active torsions:
REMARK  status: ('A' for Active; 'I' for Inactive)
REMARK    1  A    between atoms: C2_2  and  C3_3 
REMARK    2  A    between atoms: C3_3  and  C24_24 
REMARK    3  A    between atoms: C4_4  and  C5_5 
REMARK    4  A    between atoms: C4_4  and  C11_11 
REMARK    5  A    between atoms: C14_14  and  O15_15 
REMARK    6  A    between atoms: O15_15  and  C16_16 
REMARK    7  A    between atoms: C16_16  and  C17_17 
REMARK    8  A    between atoms: C17_17  and  N18_18 
ROOT
ATOM      1  C3  <0> d   1      18.959  -0.701  12.290  0.00  0.00    -0.036 C 
ATOM      2  C4  <0> d   1      18.800   0.266  11.352  0.00  0.00    -0.009 C 
ENDROOT
BRANCH   2   3
ATOM      3  C5  <0> d   1      18.834   1.693  11.747  0.00  0.00    -0.025 A 
ATOM      4  C10 <0> d   1      20.000   2.439  11.574  0.00  0.00     0.012 A 
ATOM      5  C9  <0> d   1      20.024   3.769  11.938  0.00  0.00     0.001 A 
ATOM      6  C8  <0> d   1      18.899   4.360  12.486  0.00  0.00     0.000 A 
ATOM      7  C7  <0> d   1      17.742   3.623  12.664  0.00  0.00     0.001 A 
ATOM      8  C6  <0> d   1      17.703   2.294  12.298  0.00  0.00     0.012 A 
ENDBRANCH   2   3
BRANCH   2   9
ATOM      9  C11 <0> d   1      18.591  -0.104   9.935  0.00  0.00    -0.024 A 
ATOM     10  C23 <0> d   1      17.337   0.066   9.345  0.00  0.00     0.015 A 
ATOM     11  C22 <0> d   1      17.148  -0.276   8.023  0.00  0.00     0.037 A 
ATOM     12  C14 <0> d   1      18.199  -0.800   7.282  0.00  0.00     0.068 A 
ATOM     13  C13 <0> d   1      19.446  -0.975   7.867  0.00  0.00     0.037 A 
ATOM     14  C12 <0> d   1      19.645  -0.631   9.187  0.00  0.00     0.015 A 
BRANCH  12  15
ATOM     15  O15 <0> d   1      18.007  -1.142   5.981  0.00  0.00    -0.350 OA
BRANCH  15  16
ATOM     16  C16 <0> d   1      19.074  -1.832   5.327  0.00  0.00     0.203 C 
BRANCH  16  17
ATOM     17  C17 <0> d   1      18.506  -3.004   4.524  0.00  0.00     0.260 C 
BRANCH  17  18
ATOM     18  N18 <0> d   1      17.729  -3.877   5.415  0.00  0.00    -0.077 N 
ATOM     19  H19 <0> d   1      17.089  -3.317   5.958  0.00  0.00     0.279 HD
ATOM     20  C20 <0> d   1      16.974  -4.847   4.612  0.00  0.00     0.269 C 
ATOM     21  C21 <0> d   1      18.641  -4.592   6.317  0.00  0.00     0.269 C 
ENDBRANCH  17  18
ENDBRANCH  16  17
ENDBRANCH  15  16
ENDBRANCH  12  15
ENDBRANCH   2   9
BRANCH   1  22
ATOM     22  C2  <0> d   1      19.315  -0.326  13.705  0.00  0.00     0.036 C 
ATOM     23  C1  <0> d   1      18.217  -0.815  14.653  0.00  0.00     0.010 C 
ENDBRANCH   1  22
BRANCH   1  24
ATOM     24  C24 <0> d   1      18.787  -2.115  11.924  0.00  0.00    -0.029 A 
ATOM     25  C29 <0> d   1      19.900  -2.952  11.806  0.00  0.00     0.012 A 
ATOM     26  C28 <0> d   1      19.729  -4.278  11.469  0.00  0.00     0.001 A 
ATOM     27  C27 <0> d   1      18.460  -4.778  11.236  0.00  0.00     0.000 A 
ATOM     28  C26 <0> d   1      17.353  -3.954  11.345  0.00  0.00     0.001 A 
ATOM     29  C25 <0> d   1      17.506  -2.628  11.688  0.00  0.00     0.012 A 
ENDBRANCH   1  24
TORSDOF 8
ENDMDL
MODEL 3
REMARK VINA RESULT:      -7.8      1.121      4.803
REMARK  8 active torsions:
REMARK  status: ('A' for Active; 'I' for Inactive)
REMARK    1  A    between atoms: C2_2  and  C3_3 
REMARK    2  A    between atoms: C3_3  and  C24_24 
REMARK    3  A    between atoms: C4_4  and  C5_5 
REMARK    4  A    between atoms: C4_4  and  C11_11 
REMARK    5  A    between atoms: C14_14  and  O15_15 
REMARK    6  A    between atoms: O15_15  and  C16_16 
REMARK    7  A    between atoms: C16_16  and  C17_17 
REMARK    8  A    between atoms: C17_17  and  N18_18 
ROOT
ATOM      1  C3  <0> d   1      18.399  -0.117  12.019  0.00  0.00    -0.036 C 
ATOM      2  C4  <0> d   1      18.463  -0.975  10.970  0.00  0.00    -0.009 C 
ENDROOT
BRANCH   2   3
ATOM      3  C5  <0> d   1      18.482  -2.436  11.211  0.00  0.00    -0.025 A 
ATOM      4  C10 <0> d   1      19.694  -3.126  11.240  0.00  0.00     0.012 A 
ATOM      5  C9  <0> d   1      19.705  -4.486  11.470  0.00  0.00     0.001 A 
ATOM      6  C8  <0> d   1      18.516  -5.168  11.661  0.00  0.00     0.000 A 
ATOM      7  C7  <0> d   1      17.311  -4.490  11.628  0.00  0.00     0.001 A 
ATOM      8  C6  <0> d   1      17.287  -3.129  11.405  0.00  0.00     0.012 A 
ENDBRANCH   2   3
BRANCH   2   9
ATOM      9  C11 <0> d   1      18.514  -0.452   9.588  0.00  0.00    -0.024 A 
ATOM     10  C23 <0> d   1      17.383  -0.519   8.773  0.00  0.00     0.015 A 
ATOM     11  C22 <0> d   1      17.432  -0.026   7.487  0.00  0.00     0.037 A 
ATOM     12  C14 <0> d   1      18.608   0.527   6.998  0.00  0.00     0.068 A 
ATOM     13  C13 <0> d   1      19.737   0.591   7.804  0.00  0.00     0.037 A 
ATOM     14  C12 <0> d   1      19.694   0.105   9.093  0.00  0.00     0.015 A 
BRANCH  12  15
ATOM     15  O15 <0> d   1      18.655   1.006   5.727  0.00  0.00    -0.350 OA
BRANCH  15  16
ATOM     16  C16 <0> d   1      18.321   0.095   4.678  0.00  0.00     0.203 C 
BRANCH  16  17
ATOM     17  C17 <0> d   1      19.395  -0.992   4.587  0.00  0.00     0.260 C 
BRANCH  17  18
ATOM     18  N18 <0> d   1      18.763  -2.278   4.261  0.00  0.00    -0.077 N 
ATOM     19  H19 <0> d   1      19.105  -2.602   3.368  0.00  0.00     0.279 HD
ATOM     20  C20 <0> d   1      19.092  -3.263   5.299  0.00  0.00     0.269 C 
ATOM     21  C21 <0> d   1      17.307  -2.105   4.194  0.00  0.00     0.269 C 
ENDBRANCH  17  18
ENDBRANCH  16  17
ENDBRANCH  15  16
ENDBRANCH  12  15
ENDBRANCH   2   9
BRANCH   1  22
ATOM     22  C2  <0> d   1      18.202  -0.647  13.416  0.00  0.00     0.036 C 
ATOM     23  C1  <0> d   1      19.560  -0.767  14.112  0.00  0.00     0.010 C 
ENDBRANCH   1  22
BRANCH   1  24
ATOM     24  C24 <0> d   1      18.521   1.331  11.791  0.00  0.00    -0.029 A 
ATOM     25  C29 <0> d   1      19.752   1.970  11.968  0.00  0.00     0.012 A 
ATOM     26  C28 <0> d   1      19.859   3.327  11.746  0.00  0.00     0.001 A 
ATOM     27  C27 <0> d   1      18.748   4.058  11.362  0.00  0.00     0.000 A 
ATOM     28  C26 <0> d   1      17.525   3.434  11.191  0.00  0.00     0.001 A 
ATOM     29  C25 <0> d   1      17.403   2.077  11.402  0.00  0.00     0.012 A 
ENDBRANCH   1  24
TORSDOF 8
ENDMDL
MODEL 4
REMARK VINA RESULT:      -7.7      4.376      8.539
REMARK  8 active torsions:
REMARK  status: ('A' for Active; 'I' for Inactive)
REMARK    1  A    between atoms: C2_2  and  C3_3 
REMARK    2  A    between atoms: C3_3  and  C24_24 
REMARK    3  A    between atoms: C4_4  and  C5_5 
REMARK    4  A    between atoms: C4_4  and  C11_11 
REMARK    5  A    between atoms: C14_14  and  O15_15 
REMARK    6  A    between atoms: O15_15  and  C16_16 
REMARK    7  A    between atoms: C16_16  and  C17_17 
REMARK    8  A    between atoms: C17_17  and  N18_18 
ROOT
ATOM      1  C3  <0> d   1      18.279   3.441  11.159  0.00  0.00    -0.036 C 
ATOM      2  C4  <0> d   1      18.380   2.088  11.131  0.00  0.00    -0.009 C 
ENDROOT
BRANCH   2   3
ATOM      3  C5  <0> d   1      18.266   1.365   9.844  0.00  0.00    -0.025 A 
ATOM      4  C10 <0> d   1      19.145   1.651   8.799  0.00  0.00     0.012 A 
ATOM      5  C9  <0> d   1      19.038   0.969   7.605  0.00  0.00     0.001 A 
ATOM      6  C8  <0> d   1      18.053   0.011   7.438  0.00  0.00     0.000 A 
ATOM      7  C7  <0> d   1      17.176  -0.273   8.469  0.00  0.00     0.001 A 
ATOM      8  C6  <0> d   1      17.277   0.397   9.670  0.00  0.00     0.012 A 
ENDBRANCH   2   3
BRANCH   2   9
ATOM      9  C11 <0> d   1      18.604   1.338  12.385  0.00  0.00    -0.024 A 
ATOM     10  C23 <0> d   1      19.893   0.930  12.736  0.00  0.00     0.015 A 
ATOM     11  C22 <0> d   1      20.098   0.235  13.908  0.00  0.00     0.037 A 
ATOM     12  C14 <0> d   1      19.024  -0.070  14.734  0.00  0.00     0.068 A 
ATOM     13  C13 <0> d   1      17.741   0.328  14.385  0.00  0.00     0.037 A 
ATOM     14  C12 <0> d   1      17.528   1.029  13.218  0.00  0.00     0.015 A 
BRANCH  12  15
ATOM     15  O15 <0> d   1      19.231  -0.762  15.885  0.00  0.00    -0.350 OA
BRANCH  15  16
ATOM     16  C16 <0> d   1      18.442  -0.386  17.017  0.00  0.00     0.203 C 
BRANCH  16  17
ATOM     17  C17 <0> d   1      19.357   0.145  18.122  0.00  0.00     0.260 C 
BRANCH  17  18
ATOM     18  N18 <0> d   1      18.884   1.467  18.556  0.00  0.00    -0.077 N 
ATOM     19  H19 <0> d   1      19.345   1.722  19.417  0.00  0.00     0.279 HD
ATOM     20  C20 <0> d   1      19.193   2.461  17.521  0.00  0.00     0.269 C 
ATOM     21  C21 <0> d   1      17.433   1.420  18.772  0.00  0.00     0.269 C 
ENDBRANCH  17  18
ENDBRANCH  16  17
ENDBRANCH  15  16
ENDBRANCH  12  15
ENDBRANCH   2   9
BRANCH   1  22
ATOM     22  C2  <0> d   1      18.196   4.217   9.870  0.00  0.00     0.036 C 
ATOM     23  C1  <0> d   1      17.286   5.432  10.064  0.00  0.00     0.010 C 
ENDBRANCH   1  22
BRANCH   1  24
ATOM     24  C24 <0> d   1      18.252   4.149  12.447  0.00  0.00    -0.029 A 
ATOM     25  C29 <0> d   1      19.441   4.600  13.027  0.00  0.00     0.012 A 
ATOM     26  C28 <0> d   1      19.407   5.269  14.233  0.00  0.00     0.001 A 
ATOM     27  C27 <0> d   1      18.199   5.484  14.874  0.00  0.00     0.000 A 
ATOM     28  C26 <0> d   1      17.018   5.036  14.309  0.00  0.00     0.001 A 
ATOM     29  C25 <0> d   1      17.035   4.372  13.101  0.00  0.00     0.012 A 
ENDBRANCH   1  24
TORSDOF 8
ENDMDL
MODEL 5
REMARK VINA RESULT:      -7.6      4.064      8.597
REMARK  8 active torsions:
REMARK  status: ('A' for Active; 'I' for Inactive)
REMARK    1  A    between atoms: C2_2  and  C3_3 
REMARK    2  A    between atoms: C3_3  and  C24_24 
REMARK    3  A    between atoms: C4_4  and  C5_5 
REMARK    4  A    between atoms: C4_4  and  C11_11 
REMARK    5  A    between atoms: C14_14  and  O15_15 
REMARK    6  A    between atoms: O15_15  and  C16_16 
REMARK    7  A    between atoms: C16_16  and  C17_17 
REMARK    8  A    between atoms: C17_17  and  N18_18 
ROOT
ATOM      1  C3  <0> d   1      18.861  -0.186  10.722  0.00  0.00    -0.036 C 
ATOM      2  C4  <0> d   1      18.654  -1.071  11.729  0.00  0.00    -0.009 C 
ENDROOT
BRANCH   2   3
ATOM      3  C5  <0> d   1      18.556  -2.519  11.434  0.00  0.00    -0.025 A 
ATOM      4  C10 <0> d   1      17.306  -3.128  11.322  0.00  0.00     0.012 A 
ATOM      5  C9  <0> d   1      17.222  -4.475  11.040  0.00  0.00     0.001 A 
ATOM      6  C8  <0> d   1      18.374  -5.226  10.880  0.00  0.00     0.000 A 
ATOM      7  C7  <0> d   1      19.616  -4.628  10.995  0.00  0.00     0.001 A 
ATOM      8  C6  <0> d   1      19.714  -3.280  11.270  0.00  0.00     0.012 A 
ENDBRANCH   2   3
BRANCH   2   9
ATOM      9  C11 <0> d   1      18.528  -0.590  13.122  0.00  0.00    -0.024 A 
ATOM     10  C23 <0> d   1      17.413   0.158  13.505  0.00  0.00     0.015 A 
ATOM     11  C22 <0> d   1      17.296   0.600  14.805  0.00  0.00     0.037 A 
ATOM     12  C14 <0> d   1      18.290   0.312  15.731  0.00  0.00     0.068 A 
ATOM     13  C13 <0> d   1      19.403  -0.427  15.352  0.00  0.00     0.037 A 
ATOM     14  C12 <0> d   1      19.525  -0.878  14.056  0.00  0.00     0.015 A 
BRANCH  12  15
ATOM     15  O15 <0> d   1      18.175   0.756  17.010  0.00  0.00    -0.350 OA
BRANCH  15  16
ATOM     16  C16 <0> d   1      19.210   1.613  17.495  0.00  0.00     0.203 C 
BRANCH  16  17
ATOM     17  C17 <0> d   1      18.593   2.726  18.345  0.00  0.00     0.260 C 
BRANCH  17  18
ATOM     18  N18 <0> d   1      19.016   4.033  17.822  0.00  0.00    -0.077 N 
ATOM     19  H19 <0> d   1      19.612   4.487  18.497  0.00  0.00     0.279 HD
ATOM     20  C20 <0> d   1      19.752   3.842  16.566  0.00  0.00     0.269 C 
ATOM     21  C21 <0> d   1      17.833   4.867  17.574  0.00  0.00     0.269 C 
ENDBRANCH  17  18
ENDBRANCH  16  17
ENDBRANCH  15  16
ENDBRANCH  12  15
ENDBRANCH   2   9
BRANCH   1  22
ATOM     22  C2  <0> d   1      19.134  -0.684   9.326  0.00  0.00     0.036 C 
ATOM     23  C1  <0> d   1      17.841  -0.641   8.508  0.00  0.00     0.010 C 
ENDBRANCH   1  22
BRANCH   1  24
ATOM     24  C24 <0> d   1      18.820   1.258  10.993  0.00  0.00    -0.029 A 
ATOM     25  C29 <0> d   1      19.934   1.904  11.536  0.00  0.00     0.012 A 
ATOM     26  C28 <0> d   1      19.890   3.260  11.782  0.00  0.00     0.001 A 
ATOM     27  C27 <0> d   1      18.741   3.980  11.503  0.00  0.00     0.000 A 
ATOM     28  C26 <0> d   1      17.632   3.347  10.971  0.00  0.00     0.001 A 
ATOM     29  C25 <0> d   1      17.662   1.993  10.714  0.00  0.00     0.012 A 
ENDBRANCH   1  24
TORSDOF 8
ENDMDL
MODEL 6
REMARK VINA RESULT:      -7.6      2.177      4.644
REMARK  8 active torsions:
REMARK  status: ('A' for Active; 'I' for Inactive)
REMARK    1  A    between atoms: C2_2  and  C3_3 
REMARK    2  A    between atoms: C3_3  and  C24_24 
REMARK    3  A    between atoms: C4_4  and  C5_5 
REMARK    4  A    between atoms: C4_4  and  C11_11 
REMARK    5  A    between atoms: C14_14  and  O15_15 
REMARK    6  A    between atoms: O15_15  and  C16_16 
REMARK    7  A    between atoms: C16_16  and  C17_17 
REMARK    8  A    between atoms: C17_17  and  N18_18 
ROOT
ATOM      1  C3  <0> d   1      18.211   0.306  12.205  0.00  0.00    -0.036 C 
ATOM      2  C4  <0> d   1      18.306  -0.848  12.911  0.00  0.00    -0.009 C 
ENDROOT
BRANCH   2   3
ATOM      3  C5  <0> d   1      18.297  -0.813  14.391  0.00  0.00    -0.025 A 
ATOM      4  C10 <0> d   1      19.302  -1.455  15.114  0.00  0.00     0.012 A 
ATOM      5  C9  <0> d   1      19.291  -1.413  16.493  0.00  0.00     0.001 A 
ATOM      6  C8  <0> d   1      18.278  -0.746  17.159  0.00  0.00     0.000 A 
ATOM      7  C7  <0> d   1      17.275  -0.112  16.448  0.00  0.00     0.001 A 
ATOM      8  C6  <0> d   1      17.279  -0.141  15.068  0.00  0.00     0.012 A 
ENDBRANCH   2   3
BRANCH   2   9
ATOM      9  C11 <0> d   1      18.420  -2.141  12.203  0.00  0.00    -0.024 A 
ATOM     10  C23 <0> d   1      17.268  -2.843  11.839  0.00  0.00     0.015 A 
ATOM     11  C22 <0> d   1      17.378  -4.046  11.175  0.00  0.00     0.037 A 
ATOM     12  C14 <0> d   1      18.631  -4.565  10.876  0.00  0.00     0.068 A 
ATOM     13  C13 <0> d   1      19.778  -3.872  11.241  0.00  0.00     0.037 A 
ATOM     14  C12 <0> d   1      19.677  -2.667  11.901  0.00  0.00     0.015 A 
BRANCH  12  15
ATOM     15  O15 <0> d   1      18.734  -5.753  10.226  0.00  0.00    -0.350 OA
BRANCH  15  16
ATOM     16  C16 <0> d   1      17.568  -6.226   9.550  0.00  0.00     0.203 C 
BRANCH  16  17
ATOM     17  C17 <0> d   1      17.660  -5.868   8.065  0.00  0.00     0.260 C 
BRANCH  17  18
ATOM     18  N18 <0> d   1      16.338  -5.446   7.580  0.00  0.00    -0.077 N 
ATOM     19  H19 <0> d   1      16.344  -4.451   7.416  0.00  0.00     0.279 HD
ATOM     20  C20 <0> d   1      16.029  -6.148   6.328  0.00  0.00     0.269 C 
ATOM     21  C21 <0> d   1      15.321  -5.771   8.588  0.00  0.00     0.269 C 
ENDBRANCH  17  18
ENDBRANCH  16  17
ENDBRANCH  15  16
ENDBRANCH  12  15
ENDBRANCH   2   9
BRANCH   1  22
ATOM     22  C2  <0> d   1      17.951   1.607  12.920  0.00  0.00     0.036 C 
ATOM     23  C1  <0> d   1      19.217   2.466  12.893  0.00  0.00     0.010 C 
ENDBRANCH   1  22
BRANCH   1  24
ATOM     24  C24 <0> d   1      18.360   0.287  10.742  0.00  0.00    -0.029 A 
ATOM     25  C29 <0> d   1      17.236   0.157   9.922  0.00  0.00     0.012 A 
ATOM     26  C28 <0> d   1      17.383   0.147   8.551  0.00  0.00     0.001 A 
ATOM     27  C27 <0> d   1      18.643   0.252   7.987  0.00  0.00     0.000 A 
ATOM     28  C26 <0> d   1      19.761   0.375   8.792  0.00  0.00     0.001 A 
ATOM     29  C25 <0> d   1      19.630   0.394  10.164  0.00  0.00     0.012 A 
ENDBRANCH   1  24
TORSDOF 8
ENDMDL
MODEL 7
REMARK VINA RESULT:      -7.5      3.656      7.271
REMARK  8 active torsions:
REMARK  status: ('A' for Active; 'I' for Inactive)
REMARK    1  A    between atoms: C2_2  and  C3_3 
REMARK    2  A    between atoms: C3_3  and  C24_24 
REMARK    3  A    between atoms: C4_4  and  C5_5 
REMARK    4  A    between atoms: C4_4  and  C11_11 
REMARK    5  A    between atoms: C14_14  and  O15_15 
REMARK    6  A    between atoms: O15_15  and  C16_16 
REMARK    7  A    between atoms: C16_16  and  C17_17 
REMARK    8  A    between atoms: C17_17  and  N18_18 
ROOT
ATOM      1  C3  <0> d   1      18.113  -0.719  10.635  0.00  0.00    -0.036 C 
ATOM      2  C4  <0> d   1      18.250   0.448   9.956  0.00  0.00    -0.009 C 
ENDROOT
BRANCH   2   3
ATOM      3  C5  <0> d   1      18.185   0.455   8.477  0.00  0.00    -0.025 A 
ATOM      4  C10 <0> d   1      19.205   1.050   7.735  0.00  0.00     0.012 A 
ATOM      5  C9  <0> d   1      19.142   1.048   6.357  0.00  0.00     0.001 A 
ATOM      6  C8  <0> d   1      18.064   0.469   5.711  0.00  0.00     0.000 A 
ATOM      7  C7  <0> d   1      17.047  -0.117   6.443  0.00  0.00     0.001 A 
ATOM      8  C6  <0> d   1      17.101  -0.128   7.821  0.00  0.00     0.012 A 
ENDBRANCH   2   3
BRANCH   2   9
ATOM      9  C11 <0> d   1      18.462   1.712  10.694  0.00  0.00    -0.024 A 
ATOM     10  C23 <0> d   1      17.416   2.626  10.833  0.00  0.00     0.015 A 
ATOM     11  C22 <0> d   1      17.616   3.800  11.526  0.00  0.00     0.037 A 
ATOM     12  C14 <0> d   1      18.860   4.081  12.075  0.00  0.00     0.068 A 
ATOM     13  C13 <0> d   1      19.904   3.177  11.935  0.00  0.00     0.037 A 
ATOM     14  C12 <0> d   1      19.711   1.997  11.249  0.00  0.00     0.015 A 
BRANCH  12  15
ATOM     15  O15 <0> d   1      19.055   5.243  12.752  0.00  0.00    -0.350 OA
BRANCH  15  16
ATOM     16  C16 <0> d   1      19.253   5.145  14.164  0.00  0.00     0.203 C 
BRANCH  16  17
ATOM     17  C17 <0> d   1      17.899   5.219  14.874  0.00  0.00     0.260 C 
BRANCH  17  18
ATOM     18  N18 <0> d   1      17.832   4.180  15.911  0.00  0.00    -0.077 N 
ATOM     19  H19 <0> d   1      16.906   3.779  15.924  0.00  0.00     0.279 HD
ATOM     20  C20 <0> d   1      18.817   3.132  15.617  0.00  0.00     0.269 C 
ATOM     21  C21 <0> d   1      18.126   4.776  17.220  0.00  0.00     0.269 C 
ENDBRANCH  17  18
ENDBRANCH  16  17
ENDBRANCH  15  16
ENDBRANCH  12  15
ENDBRANCH   2   9
BRANCH   1  22
ATOM     22  C2  <0> d   1      17.753  -1.982   9.896  0.00  0.00     0.036 C 
ATOM     23  C1  <0> d   1      19.026  -2.776   9.593  0.00  0.00     0.010 C 
ENDBRANCH   1  22
BRANCH   1  24
ATOM     24  C24 <0> d   1      18.315  -0.750  12.091  0.00  0.00    -0.029 A 
ATOM     25  C29 <0> d   1      17.355  -0.201  12.946  0.00  0.00     0.012 A 
ATOM     26  C28 <0> d   1      17.549  -0.240  14.311  0.00  0.00     0.001 A 
ATOM     27  C27 <0> d   1      18.697  -0.810  14.834  0.00  0.00     0.000 A 
ATOM     28  C26 <0> d   1      19.654  -1.351  13.994  0.00  0.00     0.001 A 
ATOM     29  C25 <0> d   1      19.472  -1.326  12.628  0.00  0.00     0.012 A 
ENDBRANCH   1  24
TORSDOF 8
ENDMDL
MODEL 8
REMARK VINA RESULT:      -7.4      2.430      5.333
REMARK  8 active torsions:
REMARK  status: ('A' for Active; 'I' for Inactive)
REMARK    1  A    between atoms: C2_2  and  C3_3 
REMARK    2  A    between atoms: C3_3  and  C24_24 
REMARK    3  A    between atoms: C4_4  and  C5_5 
REMARK    4  A    between atoms: C4_4  and  C11_11 
REMARK    5  A    between atoms: C14_14  and  O15_15 
REMARK    6  A    between atoms: O15_15  and  C16_16 
REMARK    7  A    between atoms: C16_16  and  C17_17 
REMARK    8  A    between atoms: C17_17  and  N18_18 
ROOT
ATOM      1  C3  <0> d   1      18.282   2.484  14.034  0.00  0.00    -0.036 C 
ATOM      2  C4  <0> d   1      18.276   1.217  14.520  0.00  0.00    -0.009 C 
ENDROOT
BRANCH   2   3
ATOM      3  C5  <0> d   1      18.280   0.986  15.983  0.00  0.00    -0.025 A 
ATOM      4  C10 <0> d   1      19.305   1.510  16.771  0.00  0.00     0.012 A 
ATOM      5  C9  <0> d   1      19.300   1.297  18.134  0.00  0.00     0.001 A 
ATOM      6  C8  <0> d   1      18.288   0.555  18.718  0.00  0.00     0.000 A 
ATOM      7  C7  <0> d   1      17.273   0.028  17.940  0.00  0.00     0.001 A 
ATOM      8  C6  <0> d   1      17.262   0.240  16.577  0.00  0.00     0.012 A 
ENDBRANCH   2   3
BRANCH   2   9
ATOM      9  C11 <0> d   1      18.263   0.068  13.590  0.00  0.00    -0.024 A 
ATOM     10  C23 <0> d   1      17.170  -0.138  12.746  0.00  0.00     0.015 A 
ATOM     11  C22 <0> d   1      17.165  -1.207  11.876  0.00  0.00     0.037 A 
ATOM     12  C14 <0> d   1      18.239  -2.086  11.847  0.00  0.00     0.068 A 
ATOM     13  C13 <0> d   1      19.326  -1.888  12.688  0.00  0.00     0.037 A 
ATOM     14  C12 <0> d   1      19.342  -0.818  13.556  0.00  0.00     0.015 A 
BRANCH  12  15
ATOM     15  O15 <0> d   1      18.227  -3.142  10.993  0.00  0.00    -0.350 OA
BRANCH  15  16
ATOM     16  C16 <0> d   1      18.938  -2.990   9.762  0.00  0.00     0.203 C 
BRANCH  16  17
ATOM     17  C17 <0> d   1      18.141  -3.641   8.630  0.00  0.00     0.260 C 
BRANCH  17  18
ATOM     18  N18 <0> d   1      17.987  -2.683   7.526  0.00  0.00    -0.077 N 
ATOM     19  H19 <0> d   1      17.094  -2.828   7.079  0.00  0.00     0.279 HD
ATOM     20  C20 <0> d   1      18.056  -1.314   8.052  0.00  0.00     0.269 C 
ATOM     21  C21 <0> d   1      19.063  -2.887   6.548  0.00  0.00     0.269 C 
ENDBRANCH  17  18
ENDBRANCH  16  17
ENDBRANCH  15  16
ENDBRANCH  12  15
ENDBRANCH   2   9
BRANCH   1  22
ATOM     22  C2  <0> d   1      18.148   3.653  14.975  0.00  0.00     0.036 C 
ATOM     23  C1  <0> d   1      19.269   4.658  14.702  0.00  0.00     0.010 C 
ENDBRANCH   1  22
BRANCH   1  24
ATOM     24  C24 <0> d   1      18.418   2.715  12.588  0.00  0.00    -0.029 A 
ATOM     25  C29 <0> d   1      19.590   2.345  11.924  0.00  0.00     0.012 A 
ATOM     26  C28 <0> d   1      19.707   2.559  10.566  0.00  0.00     0.001 A 
ATOM     27  C27 <0> d   1      18.671   3.150   9.864  0.00  0.00     0.000 A 
ATOM     28  C26 <0> d   1      17.510   3.525  10.516  0.00  0.00     0.001 A 
ATOM     29  C25 <0> d   1      17.374   3.311  11.871  0.00  0.00     0.012 A 
ENDBRANCH   1  24
TORSDOF 8
ENDMDL
MODEL 9
REMARK VINA RESULT:      -7.3      2.544      4.953
REMARK  8 active torsions:
REMARK  status: ('A' for Active; 'I' for Inactive)
REMARK    1  A    between atoms: C2_2  and  C3_3 
REMARK    2  A    between atoms: C3_3  and  C24_24 
REMARK    3  A    between atoms: C4_4  and  C5_5 
REMARK    4  A    between atoms: C4_4  and  C11_11 
REMARK    5  A    between atoms: C14_14  and  O15_15 
REMARK    6  A    between atoms: O15_15  and  C16_16 
REMARK    7  A    between atoms: C16_16  and  C17_17 
REMARK    8  A    between atoms: C17_17  and  N18_18 
ROOT
ATOM      1  C3  <0> d   1      18.374   2.959  10.388  0.00  0.00    -0.036 C 
ATOM      2  C4  <0> d   1      18.727   2.540  11.629  0.00  0.00    -0.009 C 
ENDROOT
BRANCH   2   3
ATOM      3  C5  <0> d   1      18.895   3.525  12.722  0.00  0.00    -0.025 A 
ATOM      4  C10 <0> d   1      19.871   4.516  12.628  0.00  0.00     0.012 A 
ATOM      5  C9  <0> d   1      20.019   5.434  13.647  0.00  0.00     0.001 A 
ATOM      6  C8  <0> d   1      19.209   5.365  14.767  0.00  0.00     0.000 A 
ATOM      7  C7  <0> d   1      18.242   4.381  14.868  0.00  0.00     0.001 A 
ATOM      8  C6  <0> d   1      18.080   3.461  13.853  0.00  0.00     0.012 A 
ENDBRANCH   2   3
BRANCH   2   9
ATOM      9  C11 <0> d   1      18.943   1.101  11.890  0.00  0.00    -0.024 A 
ATOM     10  C23 <0> d   1      20.117   0.480  11.458  0.00  0.00     0.015 A 
ATOM     11  C22 <0> d   1      20.317  -0.861  11.708  0.00  0.00     0.037 A 
ATOM     12  C14 <0> d   1      19.349  -1.596  12.377  0.00  0.00     0.068 A 
ATOM     13  C13 <0> d   1      18.178  -0.984  12.803  0.00  0.00     0.037 A 
ATOM     14  C12 <0> d   1      17.973   0.357  12.563  0.00  0.00     0.015 A 
BRANCH  12  15
ATOM     15  O15 <0> d   1      19.548  -2.919  12.615  0.00  0.00    -0.350 OA
BRANCH  15  16
ATOM     16  C16 <0> d   1      19.835  -3.745  11.485  0.00  0.00     0.203 C 
BRANCH  16  17
ATOM     17  C17 <0> d   1      18.579  -4.525  11.091  0.00  0.00     0.260 C 
BRANCH  17  18
ATOM     18  N18 <0> d   1      17.887  -3.821  10.002  0.00  0.00    -0.077 N 
ATOM     19  H19 <0> d   1      17.386  -3.031  10.378  0.00  0.00     0.279 HD
ATOM     20  C20 <0> d   1      18.872  -3.355   9.018  0.00  0.00     0.269 C 
ATOM     21  C21 <0> d   1      16.941  -4.737   9.352  0.00  0.00     0.269 C 
ENDBRANCH  17  18
ENDBRANCH  16  17
ENDBRANCH  15  16
ENDBRANCH  12  15
ENDBRANCH   2   9
BRANCH   1  22
ATOM     22  C2  <0> d   1      18.013   4.404  10.155  0.00  0.00     0.036 C 
ATOM     23  C1  <0> d   1      16.623   4.681  10.731  0.00  0.00     0.010 C 
ENDBRANCH   1  22
BRANCH   1  24
ATOM     24  C24 <0> d   1      18.342   2.003   9.271  0.00  0.00    -0.029 A 
ATOM     25  C29 <0> d   1      17.406   0.966   9.260  0.00  0.00     0.012 A 
ATOM     26  C28 <0> d   1      17.378   0.077   8.206  0.00  0.00     0.001 A 
ATOM     27  C27 <0> d   1      18.283   0.204   7.166  0.00  0.00     0.000 A 
ATOM     28  C26 <0> d   1      19.217   1.225   7.173  0.00  0.00     0.001 A 
ATOM     29  C25 <0> d   1      19.253   2.125   8.216  0.00  0.00     0.012 A 
ENDBRANCH   1  24
TORSDOF 8
ENDMDL
