MODEL 1
REMARK VINA RESULT:      -6.1      0.000      0.000
REMARK  5 active torsions:
REMARK  status: ('A' for Active; 'I' for Inactive)
REMARK    1  A    between atoms: C2_2  and  C3_3 
REMARK    2  A    between atoms: C3_3  and  C4_4 
REMARK    3  A    between atoms: C4_4  and  C5_5 
REMARK    4  A    between atoms: C5_5  and  C8_7 
REMARK    5  A    between atoms: C8_7  and  C9_8 
ROOT
ATOM      1  C4  ZIN A   1      18.746   2.296  10.765  0.00  0.00     0.129 A 
ATOM      2  C11 ZIN A   1      19.673   2.812  11.850  0.00  0.00     0.244 A 
ATOM      3  O12 ZIN A   1      20.580   3.573  11.592  0.00  0.00    -0.272 OA
ATOM      4  N13 ZIN A   1      19.449   2.391  13.113  0.00  0.00    -0.278 N 
ATOM      5  C14 ZIN A   1      18.451   1.553  13.414  0.00  0.00     0.329 A 
ATOM      6  O15 ZIN A   1      18.322   1.225  14.577  0.00  0.00    -0.247 OA
ATOM      7  N16 ZIN A   1      17.586   1.046  12.528  0.00  0.00    -0.278 N 
ATOM      8  C17 ZIN A   1      17.649   1.351  11.215  0.00  0.00     0.244 A 
ATOM      9  O18 ZIN A   1      16.857   0.884  10.423  0.00  0.00    -0.272 OA
ATOM     10  H34 ZIN A   1      20.029   2.707  13.824  0.00  0.00     0.173 HD
ATOM     11  H35 ZIN A   1      16.894   0.443  12.839  0.00  0.00     0.173 HD
ENDROOT
BRANCH   1  12
ATOM     12  C3  ZIN A   1      18.088   3.502  10.089  0.00  0.00     0.056 C 
BRANCH  12  13
ATOM     13  C2  ZIN A   1      17.196   4.207  11.077  0.00  0.00    -0.035 C 
ATOM     14  C1  ZIN A   1      16.945   5.485  10.937  0.00  0.00     0.007 C 
ENDBRANCH  12  13
ENDBRANCH   1  12
BRANCH   1  15
ATOM     15  C5  ZIN A   1      19.599   1.575   9.719  0.00  0.00     0.009 C 
ATOM     16  C7  ZIN A   1      19.559   0.068   9.982  0.00  0.00     0.011 C 
BRANCH  15  17
ATOM     17  C8  ZIN A   1      19.045   1.865   8.323  0.00  0.00     0.005 C 
BRANCH  17  18
ATOM     18  C9  ZIN A   1      18.880   0.550   7.557  0.00  0.00    -0.004 C 
ATOM     19  C10 ZIN A   1      18.962   0.821   6.054  0.00  0.00     0.005 C 
ENDBRANCH  17  18
ENDBRANCH  15  17
ENDBRANCH   1  15
TORSDOF 5
ENDMDL
MODEL 2
REMARK VINA RESULT:      -6.0      2.550      4.245
REMARK  5 active torsions:
REMARK  status: ('A' for Active; 'I' for Inactive)
REMARK    1  A    between atoms: C2_2  and  C3_3 
REMARK    2  A    between atoms: C3_3  and  C4_4 
REMARK    3  A    between atoms: C4_4  and  C5_5 
REMARK    4  A    between atoms: C5_5  and  C8_7 
REMARK    5  A    between atoms: C8_7  and  C9_8 
ROOT
ATOM      1  C4  ZIN A   1      18.331  -0.419  10.881  0.00  0.00     0.129 A 
ATOM      2  C11 ZIN A   1      19.701   0.202  10.675  0.00  0.00     0.244 A 
ATOM      3  O12 ZIN A   1      20.636  -0.457  10.275  0.00  0.00    -0.272 OA
ATOM      4  N13 ZIN A   1      19.838   1.515  10.955  0.00  0.00    -0.278 N 
ATOM      5  C14 ZIN A   1      18.815   2.257  11.396  0.00  0.00     0.329 A 
ATOM      6  O15 ZIN A   1      19.027   3.431  11.623  0.00  0.00    -0.247 OA
ATOM      7  N16 ZIN A   1      17.576   1.799  11.607  0.00  0.00    -0.278 N 
ATOM      8  C17 ZIN A   1      17.243   0.509  11.385  0.00  0.00     0.244 A 
ATOM      9  O18 ZIN A   1      16.116   0.109  11.581  0.00  0.00    -0.272 OA
ATOM     10  H34 ZIN A   1      20.704   1.934  10.831  0.00  0.00     0.173 HD
ATOM     11  H35 ZIN A   1      16.897   2.411  11.931  0.00  0.00     0.173 HD
ENDROOT
BRANCH   1  12
ATOM     12  C3  ZIN A   1      17.872  -1.011   9.546  0.00  0.00     0.056 C 
BRANCH  12  13
ATOM     13  C2  ZIN A   1      17.688   0.096   8.542  0.00  0.00    -0.035 C 
ATOM     14  C1  ZIN A   1      17.276  -0.180   7.330  0.00  0.00     0.007 C 
ENDBRANCH  12  13
ENDBRANCH   1  12
BRANCH   1  15
ATOM     15  C5  ZIN A   1      18.480  -1.567  11.881  0.00  0.00     0.009 C 
ATOM     16  C7  ZIN A   1      18.160  -1.060  13.289  0.00  0.00     0.011 C 
BRANCH  15  17
ATOM     17  C8  ZIN A   1      17.512  -2.693  11.512  0.00  0.00     0.005 C 
BRANCH  17  18
ATOM     18  C9  ZIN A   1      18.200  -4.044  11.716  0.00  0.00    -0.004 C 
ATOM     19  C10 ZIN A   1      19.696  -3.904  11.430  0.00  0.00     0.005 C 
ENDBRANCH  17  18
ENDBRANCH  15  17
ENDBRANCH   1  15
TORSDOF 5
ENDMDL
MODEL 3
REMARK VINA RESULT:      -6.0      2.497      4.460
REMARK  5 active torsions:
REMARK  status: ('A' for Active; 'I' for Inactive)
REMARK    1  A    between atoms: C2_2  and  C3_3 
REMARK    2  A    between atoms: C3_3  and  C4_4 
REMARK    3  A    between atoms: C4_4  and  C5_5 
REMARK    4  A    between atoms: C5_5  and  C8_7 
REMARK    5  A    between atoms: C8_7  and  C9_8 
ROOT
ATOM      1  C4  ZIN A   1      18.341   0.122  10.403  0.00  0.00     0.129 A 
ATOM      2  C11 ZIN A   1      17.237  -0.617  11.138  0.00  0.00     0.244 A 
ATOM      3  O12 ZIN A   1      16.239  -0.042  11.515  0.00  0.00    -0.272 OA
ATOM      4  N13 ZIN A   1      17.408  -1.938  11.355  0.00  0.00    -0.278 N 
ATOM      5  C14 ZIN A   1      18.503  -2.588  10.943  0.00  0.00     0.329 A 
ATOM      6  O15 ZIN A   1      18.575  -3.777  11.181  0.00  0.00    -0.247 OA
ATOM      7  N16 ZIN A   1      19.525  -2.023  10.291  0.00  0.00    -0.278 N 
ATOM      8  C17 ZIN A   1      19.537  -0.709   9.982  0.00  0.00     0.244 A 
ATOM      9  O18 ZIN A   1      20.471  -0.211   9.389  0.00  0.00    -0.272 OA
ATOM     10  H34 ZIN A   1      16.716  -2.431  11.823  0.00  0.00     0.173 HD
ATOM     11  H35 ZIN A   1      20.280  -2.574  10.032  0.00  0.00     0.173 HD
ENDROOT
BRANCH   1  12
ATOM     12  C3  ZIN A   1      17.735   0.755   9.148  0.00  0.00     0.056 C 
BRANCH  12  13
ATOM     13  C2  ZIN A   1      17.303  -0.329   8.196  0.00  0.00    -0.035 C 
ATOM     14  C1  ZIN A   1      17.379  -0.134   6.903  0.00  0.00     0.007 C 
ENDBRANCH  12  13
ENDBRANCH   1  12
BRANCH   1  15
ATOM     15  C5  ZIN A   1      18.838   1.250  11.309  0.00  0.00     0.009 C 
ATOM     16  C7  ZIN A   1      20.062   0.772  12.092  0.00  0.00     0.011 C 
BRANCH  15  17
ATOM     17  C8  ZIN A   1      19.219   2.460  10.454  0.00  0.00     0.005 C 
BRANCH  17  18
ATOM     18  C9  ZIN A   1      18.740   3.741  11.140  0.00  0.00    -0.004 C 
ATOM     19  C10 ZIN A   1      17.671   4.412  10.277  0.00  0.00     0.005 C 
ENDBRANCH  17  18
ENDBRANCH  15  17
ENDBRANCH   1  15
TORSDOF 5
ENDMDL
MODEL 4
REMARK VINA RESULT:      -6.0      2.078      3.067
REMARK  5 active torsions:
REMARK  status: ('A' for Active; 'I' for Inactive)
REMARK    1  A    between atoms: C2_2  and  C3_3 
REMARK    2  A    between atoms: C3_3  and  C4_4 
REMARK    3  A    between atoms: C4_4  and  C5_5 
REMARK    4  A    between atoms: C5_5  and  C8_7 
REMARK    5  A    between atoms: C8_7  and  C9_8 
ROOT
ATOM      1  C4  ZIN A   1      18.150   0.835  11.729  0.00  0.00     0.129 A 
ATOM      2  C11 ZIN A   1      19.584   0.381  11.936  0.00  0.00     0.244 A 
ATOM      3  O12 ZIN A   1      20.499   1.175  11.944  0.00  0.00    -0.272 OA
ATOM      4  N13 ZIN A   1      19.800  -0.940  12.109  0.00  0.00    -0.278 N 
ATOM      5  C14 ZIN A   1      18.800  -1.828  12.103  0.00  0.00     0.329 A 
ATOM      6  O15 ZIN A   1      19.085  -2.998  12.267  0.00  0.00    -0.247 OA
ATOM      7  N16 ZIN A   1      17.509  -1.524  11.929  0.00  0.00    -0.278 N 
ATOM      8  C17 ZIN A   1      17.095  -0.253  11.739  0.00  0.00     0.244 A 
ATOM      9  O18 ZIN A   1      15.920   0.008  11.583  0.00  0.00    -0.272 OA
ATOM     10  H34 ZIN A   1      20.708  -1.254  12.242  0.00  0.00     0.173 HD
ATOM     11  H35 ZIN A   1      16.852  -2.237  11.938  0.00  0.00     0.173 HD
ENDROOT
BRANCH   1  12
ATOM     12  C3  ZIN A   1      17.807   1.843  12.830  0.00  0.00     0.056 C 
BRANCH  12  13
ATOM     13  C2  ZIN A   1      17.824   1.150  14.167  0.00  0.00    -0.035 C 
ATOM     14  C1  ZIN A   1      18.426   1.709  15.187  0.00  0.00     0.007 C 
ENDBRANCH  12  13
ENDBRANCH   1  12
BRANCH   1  15
ATOM     15  C5  ZIN A   1      18.075   1.561  10.384  0.00  0.00     0.009 C 
ATOM     16  C7  ZIN A   1      18.517   3.015  10.565  0.00  0.00     0.011 C 
BRANCH  15  17
ATOM     17  C8  ZIN A   1      18.996   0.868   9.379  0.00  0.00     0.005 C 
BRANCH  17  18
ATOM     18  C9  ZIN A   1      19.308   1.827   8.228  0.00  0.00    -0.004 C 
ATOM     19  C10 ZIN A   1      18.882   1.191   6.904  0.00  0.00     0.005 C 
ENDBRANCH  17  18
ENDBRANCH  15  17
ENDBRANCH   1  15
TORSDOF 5
ENDMDL
MODEL 5
REMARK VINA RESULT:      -5.9      2.304      4.414
REMARK  5 active torsions:
REMARK  status: ('A' for Active; 'I' for Inactive)
REMARK    1  A    between atoms: C2_2  and  C3_3 
REMARK    2  A    between atoms: C3_3  and  C4_4 
REMARK    3  A    between atoms: C4_4  and  C5_5 
REMARK    4  A    between atoms: C5_5  and  C8_7 
REMARK    5  A    between atoms: C8_7  and  C9_8 
ROOT
ATOM      1  C4  ZIN A   1      18.369  -0.450  11.072  0.00  0.00     0.129 A 
ATOM      2  C11 ZIN A   1      17.322   0.008  12.071  0.00  0.00     0.244 A 
ATOM      3  O12 ZIN A   1      16.150   0.073  11.768  0.00  0.00    -0.272 OA
ATOM      4  N13 ZIN A   1      17.745   0.340  13.309  0.00  0.00    -0.278 N 
ATOM      5  C14 ZIN A   1      19.035   0.272  13.659  0.00  0.00     0.329 A 
ATOM      6  O15 ZIN A   1      19.327   0.590  14.795  0.00  0.00    -0.247 OA
ATOM      7  N16 ZIN A   1      20.026  -0.118  12.850  0.00  0.00    -0.278 N 
ATOM      8  C17 ZIN A   1      19.800  -0.489  11.572  0.00  0.00     0.244 A 
ATOM      9  O18 ZIN A   1      20.708  -0.841  10.849  0.00  0.00    -0.272 OA
ATOM     10  H34 ZIN A   1      17.094   0.637  13.965  0.00  0.00     0.173 HD
ATOM     11  H35 ZIN A   1      20.933  -0.134  13.191  0.00  0.00     0.173 HD
ENDROOT
BRANCH   1  12
ATOM     12  C3  ZIN A   1      17.990  -1.855  10.598  0.00  0.00     0.056 C 
BRANCH  12  13
ATOM     13  C2  ZIN A   1      17.974  -2.795  11.775  0.00  0.00    -0.035 C 
ATOM     14  C1  ZIN A   1      18.450  -4.009  11.650  0.00  0.00     0.007 C 
ENDBRANCH  12  13
ENDBRANCH   1  12
BRANCH   1  15
ATOM     15  C5  ZIN A   1      18.310   0.488   9.865  0.00  0.00     0.009 C 
ATOM     16  C7  ZIN A   1      17.344  -0.082   8.824  0.00  0.00     0.011 C 
BRANCH  15  17
ATOM     17  C8  ZIN A   1      17.822   1.867  10.314  0.00  0.00     0.005 C 
BRANCH  17  18
ATOM     18  C9  ZIN A   1      18.934   2.896  10.101  0.00  0.00    -0.004 C 
ATOM     19  C10 ZIN A   1      19.555   3.262  11.450  0.00  0.00     0.005 C 
ENDBRANCH  17  18
ENDBRANCH  15  17
ENDBRANCH   1  15
TORSDOF 5
ENDMDL
MODEL 6
REMARK VINA RESULT:      -5.9      2.165      3.924
REMARK  5 active torsions:
REMARK  status: ('A' for Active; 'I' for Inactive)
REMARK    1  A    between atoms: C2_2  and  C3_3 
REMARK    2  A    between atoms: C3_3  and  C4_4 
REMARK    3  A    between atoms: C4_4  and  C5_5 
REMARK    4  A    between atoms: C5_5  and  C8_7 
REMARK    5  A    between atoms: C8_7  and  C9_8 
ROOT
ATOM      1  C4  ZIN A   1      18.259  -0.213  10.628  0.00  0.00     0.129 A 
ATOM      2  C11 ZIN A   1      17.409   0.095  11.847  0.00  0.00     0.244 A 
ATOM      3  O12 ZIN A   1      16.200   0.136  11.775  0.00  0.00    -0.272 OA
ATOM      4  N13 ZIN A   1      18.049   0.320  13.013  0.00  0.00    -0.278 N 
ATOM      5  C14 ZIN A   1      19.383   0.276  13.109  0.00  0.00     0.329 A 
ATOM      6  O15 ZIN A   1      19.877   0.492  14.198  0.00  0.00    -0.247 OA
ATOM      7  N16 ZIN A   1      20.213   0.014  12.093  0.00  0.00    -0.278 N 
ATOM      8  C17 ZIN A   1      19.760  -0.237  10.847  0.00  0.00     0.244 A 
ATOM      9  O18 ZIN A   1      20.524  -0.473   9.935  0.00  0.00    -0.272 OA
ATOM     10  H34 ZIN A   1      17.527   0.519  13.806  0.00  0.00     0.173 HD
ATOM     11  H35 ZIN A   1      21.169   0.005  12.257  0.00  0.00     0.173 HD
ENDROOT
BRANCH   1  12
ATOM     12  C3  ZIN A   1      17.835  -1.579  10.084  0.00  0.00     0.056 C 
BRANCH  12  13
ATOM     13  C2  ZIN A   1      18.133  -2.642  11.109  0.00  0.00    -0.035 C 
ATOM     14  C1  ZIN A   1      17.303  -3.641  11.279  0.00  0.00     0.007 C 
ENDBRANCH  12  13
ENDBRANCH   1  12
BRANCH   1  15
ATOM     15  C5  ZIN A   1      17.950   0.837   9.560  0.00  0.00     0.009 C 
ATOM     16  C7  ZIN A   1      18.872   2.044   9.749  0.00  0.00     0.011 C 
BRANCH  15  17
ATOM     17  C8  ZIN A   1      18.176   0.235   8.172  0.00  0.00     0.005 C 
BRANCH  17  18
ATOM     18  C9  ZIN A   1      18.948   1.230   7.303  0.00  0.00    -0.004 C 
ATOM     19  C10 ZIN A   1      18.980   0.730   5.858  0.00  0.00     0.005 C 
ENDBRANCH  17  18
ENDBRANCH  15  17
ENDBRANCH   1  15
TORSDOF 5
ENDMDL
MODEL 7
REMARK VINA RESULT:      -5.9      2.546      5.193
REMARK  5 active torsions:
REMARK  status: ('A' for Active; 'I' for Inactive)
REMARK    1  A    between atoms: C2_2  and  C3_3 
REMARK    2  A    between atoms: C3_3  and  C4_4 
REMARK    3  A    between atoms: C4_4  and  C5_5 
REMARK    4  A    between atoms: C5_5  and  C8_7 
REMARK    5  A    between atoms: C8_7  and  C9_8 
ROOT
ATOM      1  C4  ZIN A   1      18.288   0.365  12.371  0.00  0.00     0.129 A 
ATOM      2  C11 ZIN A   1      17.312   0.135  11.231  0.00  0.00     0.244 A 
ATOM      3  O12 ZIN A   1      16.117   0.100  11.426  0.00  0.00    -0.272 OA
ATOM      4  N13 ZIN A   1      17.826  -0.028   9.994  0.00  0.00    -0.278 N 
ATOM      5  C14 ZIN A   1      19.143   0.009   9.763  0.00  0.00     0.329 A 
ATOM      6  O15 ZIN A   1      19.519  -0.148   8.618  0.00  0.00    -0.247 OA
ATOM      7  N16 ZIN A   1      20.077   0.205  10.701  0.00  0.00    -0.278 N 
ATOM      8  C17 ZIN A   1      19.758   0.388  11.999  0.00  0.00     0.244 A 
ATOM      9  O18 ZIN A   1      20.616   0.565  12.839  0.00  0.00    -0.272 OA
ATOM     10  H34 ZIN A   1      17.222  -0.177   9.250  0.00  0.00     0.173 HD
ATOM     11  H35 ZIN A   1      21.011   0.215  10.440  0.00  0.00     0.173 HD
ENDROOT
BRANCH   1  12
ATOM     12  C3  ZIN A   1      17.942   1.701  13.032  0.00  0.00     0.056 C 
BRANCH  12  13
ATOM     13  C2  ZIN A   1      18.081   2.811  12.022  0.00  0.00    -0.035 C 
ATOM     14  C1  ZIN A   1      18.752   3.893  12.327  0.00  0.00     0.007 C 
ENDBRANCH  12  13
ENDBRANCH   1  12
BRANCH   1  15
ATOM     15  C5  ZIN A   1      18.075  -0.743  13.405  0.00  0.00     0.009 C 
ATOM     16  C7  ZIN A   1      18.831  -1.999  12.969  0.00  0.00     0.011 C 
BRANCH  15  17
ATOM     17  C8  ZIN A   1      18.599  -0.278  14.765  0.00  0.00     0.005 C 
BRANCH  17  18
ATOM     18  C9  ZIN A   1      18.327  -1.359  15.813  0.00  0.00    -0.004 C 
ATOM     19  C10 ZIN A   1      17.221  -0.887  16.758  0.00  0.00     0.005 C 
ENDBRANCH  17  18
ENDBRANCH  15  17
ENDBRANCH   1  15
TORSDOF 5
ENDMDL
MODEL 8
REMARK VINA RESULT:      -5.9      2.433      4.768
REMARK  5 active torsions:
REMARK  status: ('A' for Active; 'I' for Inactive)
REMARK    1  A    between atoms: C2_2  and  C3_3 
REMARK    2  A    between atoms: C3_3  and  C4_4 
REMARK    3  A    between atoms: C4_4  and  C5_5 
REMARK    4  A    between atoms: C5_5  and  C8_7 
REMARK    5  A    between atoms: C8_7  and  C9_8 
ROOT
ATOM      1  C4  ZIN A   1      18.367  -0.558  11.299  0.00  0.00     0.129 A 
ATOM      2  C11 ZIN A   1      19.791  -0.043  11.198  0.00  0.00     0.244 A 
ATOM      3  O12 ZIN A   1      20.720  -0.799  11.014  0.00  0.00    -0.272 OA
ATOM      4  N13 ZIN A   1      19.983   1.287  11.320  0.00  0.00    -0.278 N 
ATOM      5  C14 ZIN A   1      18.967   2.134  11.521  0.00  0.00     0.329 A 
ATOM      6  O15 ZIN A   1      19.230   3.316  11.620  0.00  0.00    -0.247 OA
ATOM      7  N16 ZIN A   1      17.683   1.775  11.624  0.00  0.00    -0.278 N 
ATOM      8  C17 ZIN A   1      17.292   0.486  11.529  0.00  0.00     0.244 A 
ATOM      9  O18 ZIN A   1      16.123   0.176  11.624  0.00  0.00    -0.272 OA
ATOM     10  H34 ZIN A   1      20.885   1.640  11.259  0.00  0.00     0.173 HD
ATOM     11  H35 ZIN A   1      17.013   2.460  11.772  0.00  0.00     0.173 HD
ENDROOT
BRANCH   1  12
ATOM     12  C3  ZIN A   1      18.038  -1.304  10.003  0.00  0.00     0.056 C 
BRANCH  12  13
ATOM     13  C2  ZIN A   1      18.176  -0.364   8.834  0.00  0.00    -0.035 C 
ATOM     14  C1  ZIN A   1      17.223  -0.288   7.939  0.00  0.00     0.007 C 
ENDBRANCH  12  13
ENDBRANCH   1  12
BRANCH   1  15
ATOM     15  C5  ZIN A   1      18.309  -1.563  12.450  0.00  0.00     0.009 C 
ATOM     16  C7  ZIN A   1      18.907  -2.896  11.993  0.00  0.00     0.011 C 
BRANCH  15  17
ATOM     17  C8  ZIN A   1      19.111  -1.025  13.637  0.00  0.00     0.005 C 
BRANCH  17  18
ATOM     18  C9  ZIN A   1      18.177  -0.818  14.832  0.00  0.00    -0.004 C 
ATOM     19  C10 ZIN A   1      18.801  -1.442  16.081  0.00  0.00     0.005 C 
ENDBRANCH  17  18
ENDBRANCH  15  17
ENDBRANCH   1  15
TORSDOF 5
ENDMDL
MODEL 9
REMARK VINA RESULT:      -5.9      2.421      4.144
REMARK  5 active torsions:
REMARK  status: ('A' for Active; 'I' for Inactive)
REMARK    1  A    between atoms: C2_2  and  C3_3 
REMARK    2  A    between atoms: C3_3  and  C4_4 
REMARK    3  A    between atoms: C4_4  and  C5_5 
REMARK    4  A    between atoms: C5_5  and  C8_7 
REMARK    5  A    between atoms: C8_7  and  C9_8 
ROOT
ATOM      1  C4  ZIN A   1      18.319   0.359  12.318  0.00  0.00     0.129 A 
ATOM      2  C11 ZIN A   1      19.631  -0.354  12.585  0.00  0.00     0.244 A 
ATOM      3  O12 ZIN A   1      20.614   0.254  12.949  0.00  0.00    -0.272 OA
ATOM      4  N13 ZIN A   1      19.662  -1.691  12.403  0.00  0.00    -0.278 N 
ATOM      5  C14 ZIN A   1      18.585  -2.377  12.003  0.00  0.00     0.329 A 
ATOM      6  O15 ZIN A   1      18.702  -3.578  11.864  0.00  0.00    -0.247 OA
ATOM      7  N16 ZIN A   1      17.389  -1.836  11.743  0.00  0.00    -0.278 N 
ATOM      8  C17 ZIN A   1      17.162  -0.512  11.868  0.00  0.00     0.244 A 
ATOM      9  O18 ZIN A   1      16.072  -0.036  11.629  0.00  0.00    -0.272 OA
ATOM     10  H34 ZIN A   1      20.490  -2.169  12.567  0.00  0.00     0.173 HD
ATOM     11  H35 ZIN A   1      16.665  -2.413  11.456  0.00  0.00     0.173 HD
ENDROOT
BRANCH   1  12
ATOM     12  C3  ZIN A   1      17.901   1.083  13.601  0.00  0.00     0.056 C 
BRANCH  12  13
ATOM     13  C2  ZIN A   1      17.727   0.078  14.710  0.00  0.00    -0.035 C 
ATOM     14  C1  ZIN A   1      18.083   0.384  15.932  0.00  0.00     0.007 C 
ENDBRANCH  12  13
ENDBRANCH   1  12
BRANCH   1  15
ATOM     15  C5  ZIN A   1      18.568   1.416  11.240  0.00  0.00     0.009 C 
ATOM     16  C7  ZIN A   1      18.147   0.862   9.877  0.00  0.00     0.011 C 
BRANCH  15  17
ATOM     17  C8  ZIN A   1      17.749   2.669  11.556  0.00  0.00     0.005 C 
BRANCH  17  18
ATOM     18  C9  ZIN A   1      17.907   3.682  10.419  0.00  0.00    -0.004 C 
ATOM     19  C10 ZIN A   1      17.062   4.921  10.719  0.00  0.00     0.005 C 
ENDBRANCH  17  18
ENDBRANCH  15  17
ENDBRANCH   1  15
TORSDOF 5
ENDMDL
