MODEL 1
REMARK VINA RESULT:      -7.7      0.000      0.000
REMARK  7 active torsions:
REMARK  status: ('A' for Active; 'I' for Inactive)
REMARK    1  A    between atoms: C5_5  and  C6_6 
REMARK    2  A    between atoms: C6_6  and  C7_7 
REMARK    3  A    between atoms: C7_7  and  C8_8 
REMARK    4  A    between atoms: C8_8  and  C10_9 
REMARK    5  A    between atoms: C8_8  and  S16_15 
REMARK    6  A    between atoms: C10_9  and  N11_10 
REMARK    7  A    between atoms: S16_15  and  C17_16 
ROOT
ATOM      1  C8  ZIN A   1      18.481   0.426   8.515  0.00  0.00     0.071 C 
ENDROOT
BRANCH   1   2
ATOM      2  C7  ZIN A   1      17.941   1.457   9.508  0.00  0.00     0.022 C 
BRANCH   2   3
ATOM      3  C6  ZIN A   1      18.981   2.560   9.714  0.00  0.00     0.040 C 
BRANCH   3   4
ATOM      4  C5  ZIN A   1      18.489   3.523  10.765  0.00  0.00    -0.058 A 
ATOM      5  C4  ZIN A   1      17.252   4.125  10.625  0.00  0.00     0.009 A 
ATOM      6  C3  ZIN A   1      16.801   5.007  11.589  0.00  0.00     0.024 A 
ATOM      7  C2  ZIN A   1      17.588   5.289  12.692  0.00  0.00     0.034 A 
ATOM      8 Cl1  ZIN A   1      17.022   6.397  13.902  0.00  0.00    -0.084 Cl
ATOM      9  C26 ZIN A   1      18.829   4.692  12.826  0.00  0.00     0.024 A 
ATOM     10  C25 ZIN A   1      19.276   3.804  11.865  0.00  0.00     0.009 A 
ENDBRANCH   3   4
ENDBRANCH   2   3
ENDBRANCH   1   2
BRANCH   1  11
ATOM     11  C10 ZIN A   1      18.862   1.128   7.209  0.00  0.00     0.144 C 
BRANCH  11  12
ATOM     12  N11 ZIN A   1      18.678   0.203   6.088  0.00  0.00    -0.349 N 
ATOM     13  C15 ZIN A   1      19.598  -0.113   5.150  0.00  0.00     0.209 A 
ATOM     14  N14 ZIN A   1      19.071  -0.969   4.320  0.00  0.00    -0.255 NA
ATOM     15  C13 ZIN A   1      17.806  -1.222   4.688  0.00  0.00     0.135 A 
ATOM     16  C12 ZIN A   1      17.541  -0.499   5.792  0.00  0.00     0.111 A 
ENDBRANCH  11  12
ENDBRANCH   1  11
BRANCH   1  17
ATOM     17  S16 ZIN A   1      19.948  -0.378   9.219  0.00  0.00    -0.120 SA
BRANCH  17  18
ATOM     18  C17 ZIN A   1      19.257  -1.577  10.309  0.00  0.00     0.044 A 
ATOM     19  C23 ZIN A   1      19.233  -1.343  11.679  0.00  0.00     0.052 A 
ATOM     20  C22 ZIN A   1      18.684  -2.283  12.530  0.00  0.00     0.025 A 
ATOM     21 Cl24 ZIN A   1      19.878   0.137  12.318  0.00  0.00    -0.083 Cl
ATOM     22  C21 ZIN A   1      18.170  -3.461  12.022  0.00  0.00     0.003 A 
ATOM     23  C20 ZIN A   1      18.197  -3.702  10.661  0.00  0.00     0.025 A 
ATOM     24  C18 ZIN A   1      18.738  -2.764   9.802  0.00  0.00     0.052 A 
ATOM     25 Cl19 ZIN A   1      18.772  -3.067   8.093  0.00  0.00    -0.083 Cl
ENDBRANCH  17  18
ENDBRANCH   1  17
TORSDOF 7
ENDMDL
MODEL 2
REMARK VINA RESULT:      -7.6      0.227      2.055
REMARK  7 active torsions:
REMARK  status: ('A' for Active; 'I' for Inactive)
REMARK    1  A    between atoms: C5_5  and  C6_6 
REMARK    2  A    between atoms: C6_6  and  C7_7 
REMARK    3  A    between atoms: C7_7  and  C8_8 
REMARK    4  A    between atoms: C8_8  and  C10_9 
REMARK    5  A    between atoms: C8_8  and  S16_15 
REMARK    6  A    between atoms: C10_9  and  N11_10 
REMARK    7  A    between atoms: S16_15  and  C17_16 
ROOT
ATOM      1  C8  ZIN A   1      18.490   0.374   8.558  0.00  0.00     0.071 C 
ENDROOT
BRANCH   1   2
ATOM      2  C7  ZIN A   1      17.955   1.397   9.561  0.00  0.00     0.022 C 
BRANCH   2   3
ATOM      3  C6  ZIN A   1      18.876   2.618   9.584  0.00  0.00     0.040 C 
BRANCH   3   4
ATOM      4  C5  ZIN A   1      18.515   3.499  10.752  0.00  0.00    -0.058 A 
ATOM      5  C4  ZIN A   1      19.360   3.581  11.843  0.00  0.00     0.009 A 
ATOM      6  C3  ZIN A   1      19.029   4.389  12.914  0.00  0.00     0.024 A 
ATOM      7  C2  ZIN A   1      17.851   5.115  12.895  0.00  0.00     0.034 A 
ATOM      8 Cl1  ZIN A   1      17.436   6.130  14.240  0.00  0.00    -0.084 Cl
ATOM      9  C26 ZIN A   1      17.003   5.027  11.807  0.00  0.00     0.024 A 
ATOM     10  C25 ZIN A   1      17.338   4.224  10.733  0.00  0.00     0.009 A 
ENDBRANCH   3   4
ENDBRANCH   2   3
ENDBRANCH   1   2
BRANCH   1  11
ATOM     11  C10 ZIN A   1      18.876   1.087   7.260  0.00  0.00     0.144 C 
BRANCH  11  12
ATOM     12  N11 ZIN A   1      18.698   0.172   6.130  0.00  0.00    -0.349 N 
ATOM     13  C15 ZIN A   1      19.627  -0.145   5.201  0.00  0.00     0.209 A 
ATOM     14  N14 ZIN A   1      19.103  -0.990   4.358  0.00  0.00    -0.255 NA
ATOM     15  C13 ZIN A   1      17.831  -1.235   4.708  0.00  0.00     0.135 A 
ATOM     16  C12 ZIN A   1      17.558  -0.517   5.815  0.00  0.00     0.111 A 
ENDBRANCH  11  12
ENDBRANCH   1  11
BRANCH   1  17
ATOM     17  S16 ZIN A   1      19.951  -0.448   9.253  0.00  0.00    -0.120 SA
BRANCH  17  18
ATOM     18  C17 ZIN A   1      19.252  -1.709  10.266  0.00  0.00     0.044 A 
ATOM     19  C23 ZIN A   1      18.798  -2.891   9.693  0.00  0.00     0.052 A 
ATOM     20  C22 ZIN A   1      18.256  -3.880  10.492  0.00  0.00     0.025 A 
ATOM     21 Cl24 ZIN A   1      18.925  -3.131   7.979  0.00  0.00    -0.083 Cl
ATOM     22  C21 ZIN A   1      18.154  -3.690  11.858  0.00  0.00     0.003 A 
ATOM     23  C20 ZIN A   1      18.599  -2.513  12.431  0.00  0.00     0.025 A 
ATOM     24  C18 ZIN A   1      19.148  -1.522  11.640  0.00  0.00     0.052 A 
ATOM     25 Cl19 ZIN A   1      19.706  -0.043  12.360  0.00  0.00    -0.083 Cl
ENDBRANCH  17  18
ENDBRANCH   1  17
TORSDOF 7
ENDMDL
MODEL 3
REMARK VINA RESULT:      -7.6      3.817      7.839
REMARK  7 active torsions:
REMARK  status: ('A' for Active; 'I' for Inactive)
REMARK    1  A    between atoms: C5_5  and  C6_6 
REMARK    2  A    between atoms: C6_6  and  C7_7 
REMARK    3  A    between atoms: C7_7  and  C8_8 
REMARK    4  A    between atoms: C8_8  and  C10_9 
REMARK    5  A    between atoms: C8_8  and  S16_15 
REMARK    6  A    between atoms: C10_9  and  N11_10 
REMARK    7  A    between atoms: S16_15  and  C17_16 
ROOT
ATOM      1  C8  ZIN A   1      18.700   1.381  12.847  0.00  0.00     0.071 C 
ENDROOT
BRANCH   1   2
ATOM      2  C7  ZIN A   1      18.666   0.498  11.599  0.00  0.00     0.022 C 
BRANCH   2   3
ATOM      3  C6  ZIN A   1      17.495   0.919  10.708  0.00  0.00     0.040 C 
BRANCH   3   4
ATOM      4  C5  ZIN A   1      17.890   0.782   9.260  0.00  0.00    -0.058 A 
ATOM      5  C4  ZIN A   1      18.869   1.604   8.731  0.00  0.00     0.009 A 
ATOM      6  C3  ZIN A   1      19.232   1.478   7.403  0.00  0.00     0.024 A 
ATOM      7  C2  ZIN A   1      18.616   0.530   6.604  0.00  0.00     0.034 A 
ATOM      8 Cl1  ZIN A   1      19.073   0.372   4.937  0.00  0.00    -0.084 Cl
ATOM      9  C26 ZIN A   1      17.633  -0.286   7.133  0.00  0.00     0.024 A 
ATOM     10  C25 ZIN A   1      17.275  -0.164   8.463  0.00  0.00     0.009 A 
ENDBRANCH   3   4
ENDBRANCH   2   3
ENDBRANCH   1   2
BRANCH   1  11
ATOM     11  C10 ZIN A   1      19.613   0.744  13.898  0.00  0.00     0.144 C 
BRANCH  11  12
ATOM     12  N11 ZIN A   1      18.798   0.030  14.883  0.00  0.00    -0.349 N 
ATOM     13  C15 ZIN A   1      17.638   0.460  15.427  0.00  0.00     0.209 A 
ATOM     14  N14 ZIN A   1      17.205  -0.447  16.258  0.00  0.00    -0.255 NA
ATOM     15  C13 ZIN A   1      18.067  -1.474  16.282  0.00  0.00     0.135 A 
ATOM     16  C12 ZIN A   1      19.071  -1.196  15.428  0.00  0.00     0.111 A 
ENDBRANCH  11  12
ENDBRANCH   1  11
BRANCH   1  17
ATOM     17  S16 ZIN A   1      19.337   3.023  12.410  0.00  0.00    -0.120 SA
BRANCH  17  18
ATOM     18  C17 ZIN A   1      18.099   4.108  13.038  0.00  0.00     0.044 A 
ATOM     19  C23 ZIN A   1      17.178   4.689  12.175  0.00  0.00     0.052 A 
ATOM     20  C22 ZIN A   1      16.204   5.534  12.672  0.00  0.00     0.025 A 
ATOM     21 Cl24 ZIN A   1      17.240   4.340  10.476  0.00  0.00    -0.083 Cl
ATOM     22  C21 ZIN A   1      16.154   5.813  14.026  0.00  0.00     0.003 A 
ATOM     23  C20 ZIN A   1      17.073   5.242  14.887  0.00  0.00     0.025 A 
ATOM     24  C18 ZIN A   1      18.045   4.391  14.399  0.00  0.00     0.052 A 
ATOM     25 Cl19 ZIN A   1      19.199   3.675  15.481  0.00  0.00    -0.083 Cl
ENDBRANCH  17  18
ENDBRANCH   1  17
TORSDOF 7
ENDMDL
MODEL 4
REMARK VINA RESULT:      -7.6      3.492      5.881
REMARK  7 active torsions:
REMARK  status: ('A' for Active; 'I' for Inactive)
REMARK    1  A    between atoms: C5_5  and  C6_6 
REMARK    2  A    between atoms: C6_6  and  C7_7 
REMARK    3  A    between atoms: C7_7  and  C8_8 
REMARK    4  A    between atoms: C8_8  and  C10_9 
REMARK    5  A    between atoms: C8_8  and  S16_15 
REMARK    6  A    between atoms: C10_9  and  N11_10 
REMARK    7  A    between atoms: S16_15  and  C17_16 
ROOT
ATOM      1  C8  ZIN A   1      18.823  -1.787  11.784  0.00  0.00     0.071 C 
ENDROOT
BRANCH   1   2
ATOM      2  C7  ZIN A   1      19.362  -1.010  12.986  0.00  0.00     0.022 C 
BRANCH   2   3
ATOM      3  C6  ZIN A   1      18.788  -1.601  14.275  0.00  0.00     0.040 C 
BRANCH   3   4
ATOM      4  C5  ZIN A   1      18.899  -0.588  15.386  0.00  0.00    -0.058 A 
ATOM      5  C4  ZIN A   1      18.933  -1.008  16.703  0.00  0.00     0.009 A 
ATOM      6  C3  ZIN A   1      19.036  -0.079  17.721  0.00  0.00     0.024 A 
ATOM      7  C2  ZIN A   1      19.104   1.271  17.422  0.00  0.00     0.034 A 
ATOM      8 Cl1  ZIN A   1      19.233   2.437  18.701  0.00  0.00    -0.084 Cl
ATOM      9  C26 ZIN A   1      19.063   1.690  16.105  0.00  0.00     0.024 A 
ATOM     10  C25 ZIN A   1      18.967   0.759  15.087  0.00  0.00     0.009 A 
ENDBRANCH   3   4
ENDBRANCH   2   3
ENDBRANCH   1   2
BRANCH   1  11
ATOM     11  C10 ZIN A   1      18.432  -3.200  12.225  0.00  0.00     0.144 C 
BRANCH  11  12
ATOM     12  N11 ZIN A   1      18.653  -4.134  11.119  0.00  0.00    -0.349 N 
ATOM     13  C15 ZIN A   1      19.848  -4.485  10.593  0.00  0.00     0.209 A 
ATOM     14  N14 ZIN A   1      19.644  -5.339   9.628  0.00  0.00    -0.255 NA
ATOM     15  C13 ZIN A   1      18.327  -5.556   9.499  0.00  0.00     0.135 A 
ATOM     16  C12 ZIN A   1      17.689  -4.812  10.422  0.00  0.00     0.111 A 
ENDBRANCH  11  12
ENDBRANCH   1  11
BRANCH   1  17
ATOM     17  S16 ZIN A   1      17.363  -0.937  11.120  0.00  0.00    -0.120 SA
BRANCH  17  18
ATOM     18  C17 ZIN A   1      18.060   0.213   9.982  0.00  0.00     0.044 A 
ATOM     19  C23 ZIN A   1      18.471  -0.213   8.725  0.00  0.00     0.052 A 
ATOM     20  C22 ZIN A   1      19.011   0.694   7.832  0.00  0.00     0.025 A 
ATOM     21 Cl24 ZIN A   1      18.293  -1.878   8.270  0.00  0.00    -0.083 Cl
ATOM     22  C21 ZIN A   1      19.153   2.021   8.192  0.00  0.00     0.003 A 
ATOM     23  C20 ZIN A   1      18.751   2.448   9.445  0.00  0.00     0.025 A 
ATOM     24  C18 ZIN A   1      18.204   1.549  10.340  0.00  0.00     0.052 A 
ATOM     25 Cl19 ZIN A   1      17.700   2.086  11.913  0.00  0.00    -0.083 Cl
ENDBRANCH  17  18
ENDBRANCH   1  17
TORSDOF 7
ENDMDL
MODEL 5
REMARK VINA RESULT:      -7.6      3.485      5.613
REMARK  7 active torsions:
REMARK  status: ('A' for Active; 'I' for Inactive)
REMARK    1  A    between atoms: C5_5  and  C6_6 
REMARK    2  A    between atoms: C6_6  and  C7_7 
REMARK    3  A    between atoms: C7_7  and  C8_8 
REMARK    4  A    between atoms: C8_8  and  C10_9 
REMARK    5  A    between atoms: C8_8  and  S16_15 
REMARK    6  A    between atoms: C10_9  and  N11_10 
REMARK    7  A    between atoms: S16_15  and  C17_16 
ROOT
ATOM      1  C8  ZIN A   1      18.757  -1.767  11.761  0.00  0.00     0.071 C 
ENDROOT
BRANCH   1   2
ATOM      2  C7  ZIN A   1      19.335  -1.025  12.968  0.00  0.00     0.022 C 
BRANCH   2   3
ATOM      3  C6  ZIN A   1      18.748  -1.609  14.255  0.00  0.00     0.040 C 
BRANCH   3   4
ATOM      4  C5  ZIN A   1      18.871  -0.598  15.366  0.00  0.00    -0.058 A 
ATOM      5  C4  ZIN A   1      18.926  -1.022  16.681  0.00  0.00     0.009 A 
ATOM      6  C3  ZIN A   1      19.040  -0.096  17.701  0.00  0.00     0.024 A 
ATOM      7  C2  ZIN A   1      19.098   1.255  17.405  0.00  0.00     0.034 A 
ATOM      8 Cl1  ZIN A   1      19.241   2.418  18.686  0.00  0.00    -0.084 Cl
ATOM      9  C26 ZIN A   1      19.036   1.678  16.090  0.00  0.00     0.024 A 
ATOM     10  C25 ZIN A   1      18.929   0.750  15.071  0.00  0.00     0.009 A 
ENDBRANCH   3   4
ENDBRANCH   2   3
ENDBRANCH   1   2
BRANCH   1  11
ATOM     11  C10 ZIN A   1      18.336  -3.177  12.185  0.00  0.00     0.144 C 
BRANCH  11  12
ATOM     12  N11 ZIN A   1      18.610  -4.115  11.094  0.00  0.00    -0.349 N 
ATOM     13  C15 ZIN A   1      19.827  -4.459  10.619  0.00  0.00     0.209 A 
ATOM     14  N14 ZIN A   1      19.670  -5.320   9.652  0.00  0.00    -0.255 NA
ATOM     15  C13 ZIN A   1      18.361  -5.549   9.471  0.00  0.00     0.135 A 
ATOM     16  C12 ZIN A   1      17.680  -4.805  10.364  0.00  0.00     0.111 A 
ENDBRANCH  11  12
ENDBRANCH   1  11
BRANCH   1  17
ATOM     17  S16 ZIN A   1      17.311  -0.868  11.134  0.00  0.00    -0.120 SA
BRANCH  17  18
ATOM     18  C17 ZIN A   1      18.017   0.257   9.976  0.00  0.00     0.044 A 
ATOM     19  C23 ZIN A   1      18.193   1.591  10.320  0.00  0.00     0.052 A 
ATOM     20  C22 ZIN A   1      18.753   2.469   9.411  0.00  0.00     0.025 A 
ATOM     21 Cl24 ZIN A   1      17.726   2.152  11.894  0.00  0.00    -0.083 Cl
ATOM     22  C21 ZIN A   1      19.126   2.024   8.156  0.00  0.00     0.003 A 
ATOM     23  C20 ZIN A   1      18.946   0.698   7.808  0.00  0.00     0.025 A 
ATOM     24  C18 ZIN A   1      18.394  -0.187   8.713  0.00  0.00     0.052 A 
ATOM     25 Cl19 ZIN A   1      18.168  -1.853   8.274  0.00  0.00    -0.083 Cl
ENDBRANCH  17  18
ENDBRANCH   1  17
TORSDOF 7
ENDMDL
MODEL 6
REMARK VINA RESULT:      -7.5      4.028      8.657
REMARK  7 active torsions:
REMARK  status: ('A' for Active; 'I' for Inactive)
REMARK    1  A    between atoms: C5_5  and  C6_6 
REMARK    2  A    between atoms: C6_6  and  C7_7 
REMARK    3  A    between atoms: C7_7  and  C8_8 
REMARK    4  A    between atoms: C8_8  and  C10_9 
REMARK    5  A    between atoms: C8_8  and  S16_15 
REMARK    6  A    between atoms: C10_9  and  N11_10 
REMARK    7  A    between atoms: S16_15  and  C17_16 
ROOT
ATOM      1  C8  ZIN A   1      18.843  -0.557  13.579  0.00  0.00     0.071 C 
ENDROOT
BRANCH   1   2
ATOM      2  C7  ZIN A   1      18.273  -1.585  12.600  0.00  0.00     0.022 C 
BRANCH   2   3
ATOM      3  C6  ZIN A   1      19.331  -2.649  12.305  0.00  0.00     0.040 C 
BRANCH   3   4
ATOM      4  C5  ZIN A   1      18.725  -3.741  11.461  0.00  0.00    -0.058 A 
ATOM      5  C4  ZIN A   1      19.485  -4.365  10.489  0.00  0.00     0.009 A 
ATOM      6  C3  ZIN A   1      18.930  -5.367   9.716  0.00  0.00     0.024 A 
ATOM      7  C2  ZIN A   1      17.612  -5.744   9.913  0.00  0.00     0.034 A 
ATOM      8 Cl1  ZIN A   1      16.915  -7.001   8.941  0.00  0.00    -0.084 Cl
ATOM      9  C26 ZIN A   1      16.851  -5.113  10.880  0.00  0.00     0.024 A 
ATOM     10  C25 ZIN A   1      17.410  -4.116  11.658  0.00  0.00     0.009 A 
ENDBRANCH   3   4
ENDBRANCH   2   3
ENDBRANCH   1   2
BRANCH   1  11
ATOM     11  C10 ZIN A   1      19.329  -1.271  14.842  0.00  0.00     0.144 C 
BRANCH  11  12
ATOM     12  N11 ZIN A   1      18.672  -0.690  16.015  0.00  0.00    -0.349 N 
ATOM     13  C15 ZIN A   1      17.475  -0.063  16.034  0.00  0.00     0.209 A 
ATOM     14  N14 ZIN A   1      17.221   0.314  17.257  0.00  0.00    -0.255 NA
ATOM     15  C13 ZIN A   1      18.239  -0.047  18.052  0.00  0.00     0.135 A 
ATOM     16  C12 ZIN A   1      19.157  -0.677  17.295  0.00  0.00     0.111 A 
ENDBRANCH  11  12
ENDBRANCH   1  11
BRANCH   1  17
ATOM     17  S16 ZIN A   1      20.234   0.311  12.802  0.00  0.00    -0.120 SA
BRANCH  17  18
ATOM     18  C17 ZIN A   1      19.436   1.418  11.687  0.00  0.00     0.044 A 
ATOM     19  C23 ZIN A   1      19.421   1.144  10.324  0.00  0.00     0.052 A 
ATOM     20  C22 ZIN A   1      18.788   2.012   9.454  0.00  0.00     0.025 A 
ATOM     21 Cl24 ZIN A   1      20.181  -0.294   9.719  0.00  0.00    -0.083 Cl
ATOM     22  C21 ZIN A   1      18.182   3.157   9.935  0.00  0.00     0.003 A 
ATOM     23  C20 ZIN A   1      18.201   3.437  11.290  0.00  0.00     0.025 A 
ATOM     24  C18 ZIN A   1      18.825   2.571  12.167  0.00  0.00     0.052 A 
ATOM     25 Cl19 ZIN A   1      18.849   2.923  13.868  0.00  0.00    -0.083 Cl
ENDBRANCH  17  18
ENDBRANCH   1  17
TORSDOF 7
ENDMDL
MODEL 7
REMARK VINA RESULT:      -7.4      4.071      8.490
REMARK  7 active torsions:
REMARK  status: ('A' for Active; 'I' for Inactive)
REMARK    1  A    between atoms: C5_5  and  C6_6 
REMARK    2  A    between atoms: C6_6  and  C7_7 
REMARK    3  A    between atoms: C7_7  and  C8_8 
REMARK    4  A    between atoms: C8_8  and  C10_9 
REMARK    5  A    between atoms: C8_8  and  S16_15 
REMARK    6  A    between atoms: C10_9  and  N11_10 
REMARK    7  A    between atoms: S16_15  and  C17_16 
ROOT
ATOM      1  C8  ZIN A   1      18.756  -0.541  13.628  0.00  0.00     0.071 C 
ENDROOT
BRANCH   1   2
ATOM      2  C7  ZIN A   1      18.204  -1.547  12.616  0.00  0.00     0.022 C 
BRANCH   2   3
ATOM      3  C6  ZIN A   1      19.264  -2.612  12.327  0.00  0.00     0.040 C 
BRANCH   3   4
ATOM      4  C5  ZIN A   1      18.659  -3.706  11.484  0.00  0.00    -0.058 A 
ATOM      5  C4  ZIN A   1      17.317  -4.012  11.609  0.00  0.00     0.009 A 
ATOM      6  C3  ZIN A   1      16.762  -5.015  10.837  0.00  0.00     0.024 A 
ATOM      7  C2  ZIN A   1      17.550  -5.713   9.939  0.00  0.00     0.034 A 
ATOM      8 Cl1  ZIN A   1      16.854  -6.972   8.968  0.00  0.00    -0.084 Cl
ATOM      9  C26 ZIN A   1      18.895  -5.411   9.819  0.00  0.00     0.024 A 
ATOM     10  C25 ZIN A   1      19.447  -4.403  10.588  0.00  0.00     0.009 A 
ENDBRANCH   3   4
ENDBRANCH   2   3
ENDBRANCH   1   2
BRANCH   1  11
ATOM     11  C10 ZIN A   1      19.268  -1.289  14.862  0.00  0.00     0.144 C 
BRANCH  11  12
ATOM     12  N11 ZIN A   1      18.697  -0.686  16.068  0.00  0.00    -0.349 N 
ATOM     13  C15 ZIN A   1      17.570   0.056  16.137  0.00  0.00     0.209 A 
ATOM     14  N14 ZIN A   1      17.380   0.414  17.377  0.00  0.00    -0.255 NA
ATOM     15  C13 ZIN A   1      18.372  -0.076  18.136  0.00  0.00     0.135 A 
ATOM     16  C12 ZIN A   1      19.206  -0.767  17.336  0.00  0.00     0.111 A 
ENDBRANCH  11  12
ENDBRANCH   1  11
BRANCH   1  17
ATOM     17  S16 ZIN A   1      20.121   0.388  12.875  0.00  0.00    -0.120 SA
BRANCH  17  18
ATOM     18  C17 ZIN A   1      19.289   1.526  11.818  0.00  0.00     0.044 A 
ATOM     19  C23 ZIN A   1      18.670   2.649  12.353  0.00  0.00     0.052 A 
ATOM     20  C22 ZIN A   1      18.024   3.543  11.520  0.00  0.00     0.025 A 
ATOM     21 Cl24 ZIN A   1      18.722   2.937  14.064  0.00  0.00    -0.083 Cl
ATOM     22  C21 ZIN A   1      17.983   3.315  10.157  0.00  0.00     0.003 A 
ATOM     23  C20 ZIN A   1      18.592   2.195   9.621  0.00  0.00     0.025 A 
ATOM     24  C18 ZIN A   1      19.245   1.300  10.446  0.00  0.00     0.052 A 
ATOM     25 Cl19 ZIN A   1      20.010  -0.106   9.773  0.00  0.00    -0.083 Cl
ENDBRANCH  17  18
ENDBRANCH   1  17
TORSDOF 7
ENDMDL
MODEL 8
REMARK VINA RESULT:      -7.4      3.380      5.839
REMARK  7 active torsions:
REMARK  status: ('A' for Active; 'I' for Inactive)
REMARK    1  A    between atoms: C5_5  and  C6_6 
REMARK    2  A    between atoms: C6_6  and  C7_7 
REMARK    3  A    between atoms: C7_7  and  C8_8 
REMARK    4  A    between atoms: C8_8  and  C10_9 
REMARK    5  A    between atoms: C8_8  and  S16_15 
REMARK    6  A    between atoms: C10_9  and  N11_10 
REMARK    7  A    between atoms: S16_15  and  C17_16 
ROOT
ATOM      1  C8  ZIN A   1      18.365   0.886  11.366  0.00  0.00     0.071 C 
ENDROOT
BRANCH   1   2
ATOM      2  C7  ZIN A   1      17.412   0.087  12.257  0.00  0.00     0.022 C 
BRANCH   2   3
ATOM      3  C6  ZIN A   1      18.179  -1.052  12.931  0.00  0.00     0.040 C 
BRANCH   3   4
ATOM      4  C5  ZIN A   1      18.262  -0.794  14.414  0.00  0.00    -0.058 A 
ATOM      5  C4  ZIN A   1      17.514   0.222  14.980  0.00  0.00     0.009 A 
ATOM      6  C3  ZIN A   1      17.589   0.459  16.340  0.00  0.00     0.024 A 
ATOM      7  C2  ZIN A   1      18.413  -0.320  17.134  0.00  0.00     0.034 A 
ATOM      8 Cl1  ZIN A   1      18.508  -0.023  18.841  0.00  0.00    -0.084 Cl
ATOM      9  C26 ZIN A   1      19.166  -1.331  16.564  0.00  0.00     0.024 A 
ATOM     10  C25 ZIN A   1      19.084  -1.572  15.205  0.00  0.00     0.009 A 
ENDBRANCH   3   4
ENDBRANCH   2   3
ENDBRANCH   1   2
BRANCH   1  11
ATOM     11  C10 ZIN A   1      18.885   2.102  12.137  0.00  0.00     0.144 C 
BRANCH  11  12
ATOM     12  N11 ZIN A   1      17.968   3.228  11.947  0.00  0.00    -0.349 N 
ATOM     13  C15 ZIN A   1      17.359   3.579  10.793  0.00  0.00     0.209 A 
ATOM     14  N14 ZIN A   1      16.618   4.630  11.015  0.00  0.00    -0.255 NA
ATOM     15  C13 ZIN A   1      16.732   4.988  12.302  0.00  0.00     0.135 A 
ATOM     16  C12 ZIN A   1      17.572   4.124  12.903  0.00  0.00     0.111 A 
ENDBRANCH  11  12
ENDBRANCH   1  11
BRANCH   1  17
ATOM     17  S16 ZIN A   1      19.763  -0.165  10.882  0.00  0.00    -0.120 SA
BRANCH  17  18
ATOM     18  C17 ZIN A   1      19.290  -0.740   9.285  0.00  0.00     0.044 A 
ATOM     19  C23 ZIN A   1      19.183   0.153   8.225  0.00  0.00     0.052 A 
ATOM     20  C22 ZIN A   1      18.819  -0.303   6.973  0.00  0.00     0.025 A 
ATOM     21 Cl24 ZIN A   1      19.523   1.837   8.472  0.00  0.00    -0.083 Cl
ATOM     22  C21 ZIN A   1      18.549  -1.645   6.775  0.00  0.00     0.003 A 
ATOM     23  C20 ZIN A   1      18.648  -2.536   7.828  0.00  0.00     0.025 A 
ATOM     24  C18 ZIN A   1      19.018  -2.089   9.082  0.00  0.00     0.052 A 
ATOM     25 Cl19 ZIN A   1      19.142  -3.209  10.403  0.00  0.00    -0.083 Cl
ENDBRANCH  17  18
ENDBRANCH   1  17
TORSDOF 7
ENDMDL
MODEL 9
REMARK VINA RESULT:      -7.4      4.028      7.378
REMARK  7 active torsions:
REMARK  status: ('A' for Active; 'I' for Inactive)
REMARK    1  A    between atoms: C5_5  and  C6_6 
REMARK    2  A    between atoms: C6_6  and  C7_7 
REMARK    3  A    between atoms: C7_7  and  C8_8 
REMARK    4  A    between atoms: C8_8  and  C10_9 
REMARK    5  A    between atoms: C8_8  and  S16_15 
REMARK    6  A    between atoms: C10_9  and  N11_10 
REMARK    7  A    between atoms: S16_15  and  C17_16 
ROOT
ATOM      1  C8  ZIN A   1      19.136   3.024  12.901  0.00  0.00     0.071 C 
ENDROOT
BRANCH   1   2
ATOM      2  C7  ZIN A   1      19.449   2.180  11.664  0.00  0.00     0.022 C 
BRANCH   2   3
ATOM      3  C6  ZIN A   1      19.027   2.942  10.407  0.00  0.00     0.040 C 
BRANCH   3   4
ATOM      4  C5  ZIN A   1      18.685   1.960   9.315  0.00  0.00    -0.058 A 
ATOM      5  C4  ZIN A   1      17.774   0.949   9.557  0.00  0.00     0.009 A 
ATOM      6  C3  ZIN A   1      17.460   0.049   8.556  0.00  0.00     0.024 A 
ATOM      7  C2  ZIN A   1      18.058   0.160   7.312  0.00  0.00     0.034 A 
ATOM      8 Cl1  ZIN A   1      17.663  -0.970   6.056  0.00  0.00    -0.084 Cl
ATOM      9  C26 ZIN A   1      18.974   1.168   7.074  0.00  0.00     0.024 A 
ATOM     10  C25 ZIN A   1      19.282   2.072   8.074  0.00  0.00     0.009 A 
ENDBRANCH   3   4
ENDBRANCH   2   3
ENDBRANCH   1   2
BRANCH   1  11
ATOM     11  C10 ZIN A   1      18.998   4.493  12.494  0.00  0.00     0.144 C 
BRANCH  11  12
ATOM     12  N11 ZIN A   1      19.135   5.342  13.679  0.00  0.00    -0.349 N 
ATOM     13  C15 ZIN A   1      20.282   5.619  14.339  0.00  0.00     0.209 A 
ATOM     14  N14 ZIN A   1      20.008   6.411  15.338  0.00  0.00    -0.255 NA
ATOM     15  C13 ZIN A   1      18.690   6.660  15.358  0.00  0.00     0.135 A 
ATOM     16  C12 ZIN A   1      18.126   6.000  14.328  0.00  0.00     0.111 A 
ENDBRANCH  11  12
ENDBRANCH   1  11
BRANCH   1  17
ATOM     17  S16 ZIN A   1      17.581   2.454  13.643  0.00  0.00    -0.120 SA
BRANCH  17  18
ATOM     18  C17 ZIN A   1      18.104   1.149  14.705  0.00  0.00     0.044 A 
ATOM     19  C23 ZIN A   1      17.996  -0.173  14.290  0.00  0.00     0.052 A 
ATOM     20  C22 ZIN A   1      18.413  -1.193  15.124  0.00  0.00     0.025 A 
ATOM     21 Cl24 ZIN A   1      17.351  -0.541  12.721  0.00  0.00    -0.083 Cl
ATOM     22  C21 ZIN A   1      18.927  -0.901  16.373  0.00  0.00     0.003 A 
ATOM     23  C20 ZIN A   1      19.031   0.413  16.793  0.00  0.00     0.025 A 
ATOM     24  C18 ZIN A   1      18.622   1.439  15.963  0.00  0.00     0.052 A 
ATOM     25 Cl19 ZIN A   1      18.752   3.089  16.490  0.00  0.00    -0.083 Cl
ENDBRANCH  17  18
ENDBRANCH   1  17
TORSDOF 7
ENDMDL
