MODEL 1
REMARK VINA RESULT:      -5.8      0.000      0.000
REMARK  2 active torsions:
REMARK  status: ('A' for Active; 'I' for Inactive)
REMARK    1  A    between atoms: C8_8  and  N9_9 
REMARK    2  A    between atoms: N9_9  and  C10_10 
ROOT
ATOM      1 Cl1  ZIN A   1      19.290   2.854  15.983  0.00  0.00    -0.082 Cl
ATOM      2  C2  ZIN A   1      18.814   1.188  15.881  0.00  0.00     0.063 A 
ATOM      3  C3  ZIN A   1      17.993   0.642  16.849  0.00  0.00     0.026 A 
ATOM      4  C4  ZIN A   1      17.613  -0.684  16.768  0.00  0.00     0.003 A 
ATOM      5  C5  ZIN A   1      18.053  -1.471  15.720  0.00  0.00     0.026 A 
ATOM      6  C6  ZIN A   1      18.874  -0.932  14.747  0.00  0.00     0.063 A 
ATOM      7 Cl7  ZIN A   1      19.427  -1.919  13.431  0.00  0.00    -0.082 Cl
ATOM      8  C8  ZIN A   1      19.254   0.403  14.822  0.00  0.00     0.092 A 
ENDROOT
BRANCH   8   9
ATOM      9  N9  ZIN A   1      20.086   0.953  13.839  0.00  0.00    -0.187 N 
ATOM     10  H18 ZIN A   1      21.049   0.899  13.934  0.00  0.00     0.184 HD
BRANCH   9  11
ATOM     11  C10 ZIN A   1      19.536   1.569  12.739  0.00  0.00     0.696 A 
ATOM     12  N14 ZIN A   1      20.287   2.236  11.809  0.00  0.00    -0.223 N 
ATOM     13  C13 ZIN A   1      19.381   2.765  10.775  0.00  0.00     0.160 A 
ATOM     14  H23 ZIN A   1      21.250   2.337  11.824  0.00  0.00     0.177 HD
ATOM     15  C12 ZIN A   1      17.989   2.310  11.256  0.00  0.00     0.189 A 
ATOM     16  N11 ZIN A   1      18.266   1.574  12.498  0.00  0.00    -0.106 NA
ENDBRANCH   9  11
ENDBRANCH   8   9
TORSDOF 2
ENDMDL
MODEL 2
REMARK VINA RESULT:      -5.7      0.381      2.444
REMARK  2 active torsions:
REMARK  status: ('A' for Active; 'I' for Inactive)
REMARK    1  A    between atoms: C8_8  and  N9_9 
REMARK    2  A    between atoms: N9_9  and  C10_10 
ROOT
ATOM      1 Cl1  ZIN A   1      19.309  -1.849  13.411  0.00  0.00    -0.082 Cl
ATOM      2  C2  ZIN A   1      18.893  -0.901  14.804  0.00  0.00     0.063 A 
ATOM      3  C3  ZIN A   1      18.175  -1.469  15.839  0.00  0.00     0.026 A 
ATOM      4  C4  ZIN A   1      17.844  -0.715  16.949  0.00  0.00     0.003 A 
ATOM      5  C5  ZIN A   1      18.230   0.611  17.029  0.00  0.00     0.026 A 
ATOM      6  C6  ZIN A   1      18.948   1.186  15.998  0.00  0.00     0.063 A 
ATOM      7 Cl7  ZIN A   1      19.433   2.850  16.098  0.00  0.00    -0.082 Cl
ATOM      8  C8  ZIN A   1      19.288   0.429  14.883  0.00  0.00     0.092 A 
ENDROOT
BRANCH   8   9
ATOM      9  N9  ZIN A   1      20.015   1.008  13.836  0.00  0.00    -0.187 N 
ATOM     10  H18 ZIN A   1      20.976   0.888  13.789  0.00  0.00     0.184 HD
BRANCH   9  11
ATOM     11  C10 ZIN A   1      19.366   1.749  12.875  0.00  0.00     0.696 A 
ATOM     12  N14 ZIN A   1      19.934   2.833  12.263  0.00  0.00    -0.223 N 
ATOM     13  C13 ZIN A   1      18.968   3.379  11.295  0.00  0.00     0.160 A 
ATOM     14  H23 ZIN A   1      20.823   3.179  12.433  0.00  0.00     0.177 HD
ATOM     15  C12 ZIN A   1      17.748   2.449  11.449  0.00  0.00     0.189 A 
ATOM     16  N11 ZIN A   1      18.164   1.484  12.477  0.00  0.00    -0.106 NA
ENDBRANCH   9  11
ENDBRANCH   8   9
TORSDOF 2
ENDMDL
MODEL 3
REMARK VINA RESULT:      -5.7      3.348      5.210
REMARK  2 active torsions:
REMARK  status: ('A' for Active; 'I' for Inactive)
REMARK    1  A    between atoms: C8_8  and  N9_9 
REMARK    2  A    between atoms: N9_9  and  C10_10 
ROOT
ATOM      1 Cl1  ZIN A   1      19.371   1.728   8.210  0.00  0.00    -0.082 Cl
ATOM      2  C2  ZIN A   1      18.934   2.085   9.851  0.00  0.00     0.063 A 
ATOM      3  C3  ZIN A   1      18.050   3.113  10.123  0.00  0.00     0.026 A 
ATOM      4  C4  ZIN A   1      17.700   3.397  11.430  0.00  0.00     0.003 A 
ATOM      5  C5  ZIN A   1      18.233   2.657  12.470  0.00  0.00     0.026 A 
ATOM      6  C6  ZIN A   1      19.117   1.628  12.205  0.00  0.00     0.063 A 
ATOM      7 Cl7  ZIN A   1      19.786   0.699  13.509  0.00  0.00    -0.082 Cl
ATOM      8  C8  ZIN A   1      19.467   1.335  10.892  0.00  0.00     0.092 A 
ENDROOT
BRANCH   8   9
ATOM      9  N9  ZIN A   1      20.363   0.294  10.620  0.00  0.00    -0.187 N 
ATOM     10  H18 ZIN A   1      21.291   0.493  10.422  0.00  0.00     0.184 HD
BRANCH   9  11
ATOM     11  C10 ZIN A   1      19.925  -1.011  10.632  0.00  0.00     0.696 A 
ATOM     12  N14 ZIN A   1      20.585  -2.009  11.296  0.00  0.00    -0.223 N 
ATOM     13  C13 ZIN A   1      19.843  -3.266  11.101  0.00  0.00     0.160 A 
ATOM     14  H23 ZIN A   1      21.399  -1.905  11.811  0.00  0.00     0.177 HD
ATOM     15  C12 ZIN A   1      18.656  -2.842  10.213  0.00  0.00     0.189 A 
ATOM     16  N11 ZIN A   1      18.858  -1.400  10.014  0.00  0.00    -0.106 NA
ENDBRANCH   9  11
ENDBRANCH   8   9
TORSDOF 2
ENDMDL
MODEL 4
REMARK VINA RESULT:      -5.7      3.391      5.079
REMARK  2 active torsions:
REMARK  status: ('A' for Active; 'I' for Inactive)
REMARK    1  A    between atoms: C8_8  and  N9_9 
REMARK    2  A    between atoms: N9_9  and  C10_10 
ROOT
ATOM      1 Cl1  ZIN A   1      19.941   0.612  13.477  0.00  0.00    -0.082 Cl
ATOM      2  C2  ZIN A   1      19.318   1.578  12.177  0.00  0.00     0.063 A 
ATOM      3  C3  ZIN A   1      18.511   2.667  12.450  0.00  0.00     0.026 A 
ATOM      4  C4  ZIN A   1      18.015   3.438  11.415  0.00  0.00     0.003 A 
ATOM      5  C5  ZIN A   1      18.323   3.124  10.104  0.00  0.00     0.026 A 
ATOM      6  C6  ZIN A   1      19.129   2.036   9.824  0.00  0.00     0.063 A 
ATOM      7 Cl7  ZIN A   1      19.515   1.641   8.179  0.00  0.00    -0.082 Cl
ATOM      8  C8  ZIN A   1      19.635   1.262  10.862  0.00  0.00     0.092 A 
ENDROOT
BRANCH   8   9
ATOM      9  N9  ZIN A   1      20.451   0.160  10.582  0.00  0.00    -0.187 N 
ATOM     10  H18 ZIN A   1      21.378   0.294  10.332  0.00  0.00     0.184 HD
BRANCH   9  11
ATOM     11  C10 ZIN A   1      19.936  -1.115  10.662  0.00  0.00     0.696 A 
ATOM     12  N14 ZIN A   1      20.585  -2.138  11.298  0.00  0.00    -0.223 N 
ATOM     13  C13 ZIN A   1      19.754  -3.350  11.194  0.00  0.00     0.160 A 
ATOM     14  H23 ZIN A   1      21.442  -2.076  11.745  0.00  0.00     0.177 HD
ATOM     15  C12 ZIN A   1      18.528  -2.870  10.391  0.00  0.00     0.189 A 
ATOM     16  N11 ZIN A   1      18.802  -1.448  10.139  0.00  0.00    -0.106 NA
ENDBRANCH   9  11
ENDBRANCH   8   9
TORSDOF 2
ENDMDL
MODEL 5
REMARK VINA RESULT:      -5.6      1.862      5.378
REMARK  2 active torsions:
REMARK  status: ('A' for Active; 'I' for Inactive)
REMARK    1  A    between atoms: C8_8  and  N9_9 
REMARK    2  A    between atoms: N9_9  and  C10_10 
ROOT
ATOM      1 Cl1  ZIN A   1      20.308  -1.004  10.702  0.00  0.00    -0.082 Cl
ATOM      2  C2  ZIN A   1      19.705   0.610  10.488  0.00  0.00     0.063 A 
ATOM      3  C3  ZIN A   1      19.129   0.979   9.287  0.00  0.00     0.026 A 
ATOM      4  C4  ZIN A   1      18.647   2.264   9.116  0.00  0.00     0.003 A 
ATOM      5  C5  ZIN A   1      18.740   3.184  10.144  0.00  0.00     0.026 A 
ATOM      6  C6  ZIN A   1      19.315   2.821  11.348  0.00  0.00     0.063 A 
ATOM      7 Cl7  ZIN A   1      19.431   3.976  12.639  0.00  0.00    -0.082 Cl
ATOM      8  C8  ZIN A   1      19.795   1.529  11.526  0.00  0.00     0.092 A 
ENDROOT
BRANCH   8   9
ATOM      9  N9  ZIN A   1      20.378   1.158  12.744  0.00  0.00    -0.187 N 
ATOM     10  H18 ZIN A   1      21.298   1.397  12.933  0.00  0.00     0.184 HD
BRANCH   9  11
ATOM     11  C10 ZIN A   1      19.644   0.454  13.671  0.00  0.00     0.696 A 
ATOM     12  N14 ZIN A   1      19.991  -0.799  14.097  0.00  0.00    -0.223 N 
ATOM     13  C13 ZIN A   1      18.994  -1.247  15.084  0.00  0.00     0.160 A 
ATOM     14  H23 ZIN A   1      20.765  -1.304  13.803  0.00  0.00     0.177 HD
ATOM     15  C12 ZIN A   1      18.011  -0.062  15.156  0.00  0.00     0.189 A 
ATOM     16  N11 ZIN A   1      18.564   0.918  14.211  0.00  0.00    -0.106 NA
ENDBRANCH   9  11
ENDBRANCH   8   9
TORSDOF 2
ENDMDL
MODEL 6
REMARK VINA RESULT:      -5.6      2.498      4.774
REMARK  2 active torsions:
REMARK  status: ('A' for Active; 'I' for Inactive)
REMARK    1  A    between atoms: C8_8  and  N9_9 
REMARK    2  A    between atoms: N9_9  and  C10_10 
ROOT
ATOM      1 Cl1  ZIN A   1      18.942   3.842  14.609  0.00  0.00    -0.082 Cl
ATOM      2  C2  ZIN A   1      18.404   4.028  12.969  0.00  0.00     0.063 A 
ATOM      3  C3  ZIN A   1      17.435   4.964  12.661  0.00  0.00     0.026 A 
ATOM      4  C4  ZIN A   1      17.007   5.113  11.355  0.00  0.00     0.003 A 
ATOM      5  C5  ZIN A   1      17.544   4.327  10.352  0.00  0.00     0.026 A 
ATOM      6  C6  ZIN A   1      18.514   3.389  10.653  0.00  0.00     0.063 A 
ATOM      7 Cl7  ZIN A   1      19.190   2.403   9.395  0.00  0.00    -0.082 Cl
ATOM      8  C8  ZIN A   1      18.952   3.240  11.964  0.00  0.00     0.092 A 
ENDROOT
BRANCH   8   9
ATOM      9  N9  ZIN A   1      19.933   2.291  12.272  0.00  0.00    -0.187 N 
ATOM     10  H18 ZIN A   1      20.869   2.491  12.114  0.00  0.00     0.184 HD
BRANCH   9  11
ATOM     11  C10 ZIN A   1      19.570   1.073  12.800  0.00  0.00     0.696 A 
ATOM     12  N14 ZIN A   1      20.401   0.330  13.594  0.00  0.00    -0.223 N 
ATOM     13  C13 ZIN A   1      19.694  -0.903  13.980  0.00  0.00     0.160 A 
ATOM     14  H23 ZIN A   1      21.299   0.576  13.862  0.00  0.00     0.177 HD
ATOM     15  C12 ZIN A   1      18.328  -0.763  13.278  0.00  0.00     0.189 A 
ATOM     16  N11 ZIN A   1      18.416   0.530  12.584  0.00  0.00    -0.106 NA
ENDBRANCH   9  11
ENDBRANCH   8   9
TORSDOF 2
ENDMDL
MODEL 7
REMARK VINA RESULT:      -5.5      2.567      5.376
REMARK  2 active torsions:
REMARK  status: ('A' for Active; 'I' for Inactive)
REMARK    1  A    between atoms: C8_8  and  N9_9 
REMARK    2  A    between atoms: N9_9  and  C10_10 
ROOT
ATOM      1 Cl1  ZIN A   1      19.801   2.480  10.872  0.00  0.00    -0.082 Cl
ATOM      2  C2  ZIN A   1      18.549   3.566  11.387  0.00  0.00     0.063 A 
ATOM      3  C3  ZIN A   1      17.731   4.171  10.451  0.00  0.00     0.026 A 
ATOM      4  C4  ZIN A   1      16.732   5.036  10.859  0.00  0.00     0.003 A 
ATOM      5  C5  ZIN A   1      16.547   5.299  12.204  0.00  0.00     0.026 A 
ATOM      6  C6  ZIN A   1      17.361   4.697  13.145  0.00  0.00     0.063 A 
ATOM      7 Cl7  ZIN A   1      17.130   5.028  14.833  0.00  0.00    -0.082 Cl
ATOM      8  C8  ZIN A   1      18.363   3.823  12.739  0.00  0.00     0.092 A 
ENDROOT
BRANCH   8   9
ATOM      9  N9  ZIN A   1      19.189   3.212  13.690  0.00  0.00    -0.187 N 
ATOM     10  H18 ZIN A   1      19.936   3.701  14.069  0.00  0.00     0.184 HD
BRANCH   9  11
ATOM     11  C10 ZIN A   1      18.942   1.917  14.085  0.00  0.00     0.696 A 
ATOM     12  N14 ZIN A   1      19.902   0.942  14.075  0.00  0.00    -0.223 N 
ATOM     13  C13 ZIN A   1      19.297  -0.310  14.558  0.00  0.00     0.160 A 
ATOM     14  H23 ZIN A   1      20.825   1.057  13.801  0.00  0.00     0.177 HD
ATOM     15  C12 ZIN A   1      17.834   0.089  14.841  0.00  0.00     0.189 A 
ATOM     16  N11 ZIN A   1      17.782   1.516  14.492  0.00  0.00    -0.106 NA
ENDBRANCH   9  11
ENDBRANCH   8   9
TORSDOF 2
ENDMDL
MODEL 8
REMARK VINA RESULT:      -5.5      3.172      3.714
REMARK  2 active torsions:
REMARK  status: ('A' for Active; 'I' for Inactive)
REMARK    1  A    between atoms: C8_8  and  N9_9 
REMARK    2  A    between atoms: N9_9  and  C10_10 
ROOT
ATOM      1 Cl1  ZIN A   1      20.183   2.039  11.881  0.00  0.00    -0.082 Cl
ATOM      2  C2  ZIN A   1      19.656   0.459  12.368  0.00  0.00     0.063 A 
ATOM      3  C3  ZIN A   1      18.945   0.298  13.543  0.00  0.00     0.026 A 
ATOM      4  C4  ZIN A   1      18.523  -0.960  13.931  0.00  0.00     0.003 A 
ATOM      5  C5  ZIN A   1      18.812  -2.063  13.148  0.00  0.00     0.026 A 
ATOM      6  C6  ZIN A   1      19.522  -1.909  11.972  0.00  0.00     0.063 A 
ATOM      7 Cl7  ZIN A   1      19.884  -3.293  10.988  0.00  0.00    -0.082 Cl
ATOM      8  C8  ZIN A   1      19.942  -0.645  11.575  0.00  0.00     0.092 A 
ENDROOT
BRANCH   8   9
ATOM      9  N9  ZIN A   1      20.662  -0.487  10.385  0.00  0.00    -0.187 N 
ATOM     10  H18 ZIN A   1      21.626  -0.591  10.384  0.00  0.00     0.184 HD
BRANCH   9  11
ATOM     11  C10 ZIN A   1      20.001  -0.181   9.217  0.00  0.00     0.696 A 
ATOM     12  N14 ZIN A   1      19.829   1.102   8.775  0.00  0.00    -0.223 N 
ATOM     13  C13 ZIN A   1      19.088   1.060   7.503  0.00  0.00     0.160 A 
ATOM     14  H23 ZIN A   1      20.146   1.903   9.220  0.00  0.00     0.177 HD
ATOM     15  C12 ZIN A   1      18.849  -0.447   7.283  0.00  0.00     0.189 A 
ATOM     16  N11 ZIN A   1      19.485  -1.082   8.446  0.00  0.00    -0.106 NA
ENDBRANCH   9  11
ENDBRANCH   8   9
TORSDOF 2
ENDMDL
MODEL 9
REMARK VINA RESULT:      -5.5      4.778      7.108
REMARK  2 active torsions:
REMARK  status: ('A' for Active; 'I' for Inactive)
REMARK    1  A    between atoms: C8_8  and  N9_9 
REMARK    2  A    between atoms: N9_9  and  C10_10 
ROOT
ATOM      1 Cl1  ZIN A   1      19.227   1.970   8.906  0.00  0.00    -0.082 Cl
ATOM      2  C2  ZIN A   1      18.871   0.714   7.762  0.00  0.00     0.063 A 
ATOM      3  C3  ZIN A   1      18.121   0.997   6.636  0.00  0.00     0.026 A 
ATOM      4  C4  ZIN A   1      17.837  -0.003   5.724  0.00  0.00     0.003 A 
ATOM      5  C5  ZIN A   1      18.300  -1.289   5.934  0.00  0.00     0.026 A 
ATOM      6  C6  ZIN A   1      19.050  -1.579   7.059  0.00  0.00     0.063 A 
ATOM      7 Cl7  ZIN A   1      19.631  -3.192   7.324  0.00  0.00    -0.082 Cl
ATOM      8  C8  ZIN A   1      19.343  -0.575   7.975  0.00  0.00     0.092 A 
ENDROOT
BRANCH   8   9
ATOM      9  N9  ZIN A   1      20.102  -0.865   9.115  0.00  0.00    -0.187 N 
ATOM     10  H18 ZIN A   1      21.054  -0.685   9.123  0.00  0.00     0.184 HD
BRANCH   9  11
ATOM     11  C10 ZIN A   1      19.495  -1.407  10.226  0.00  0.00     0.696 A 
ATOM     12  N14 ZIN A   1      20.190  -2.052  11.211  0.00  0.00    -0.223 N 
ATOM     13  C13 ZIN A   1      19.234  -2.497  12.239  0.00  0.00     0.160 A 
ATOM     14  H23 ZIN A   1      21.149  -2.189  11.233  0.00  0.00     0.177 HD
ATOM     15  C12 ZIN A   1      17.875  -2.017  11.690  0.00  0.00     0.189 A 
ATOM     16  N11 ZIN A   1      18.218  -1.354  10.424  0.00  0.00    -0.106 NA
ENDBRANCH   9  11
ENDBRANCH   8   9
TORSDOF 2
ENDMDL
