MODEL 1
REMARK VINA RESULT:      -7.3      0.000      0.000
REMARK  9 active torsions:
REMARK  status: ('A' for Active; 'I' for Inactive)
REMARK    1  A    between atoms: C2_2  and  C3_3 
REMARK       I    between atoms: C3_3  and  N5_5 
REMARK    2  A    between atoms: N5_5  and  C6_6 
REMARK    3  A    between atoms: N5_5  and  C12_12 
REMARK    4  A    between atoms: C12_12  and  C13_13 
REMARK    5  A    between atoms: C13_13  and  O14_14 
REMARK    6  A    between atoms: N18_18  and  C19_19 
REMARK    7  A    between atoms: C19_19  and  C20_20 
REMARK    8  A    between atoms: C20_20  and  N21_21 
REMARK    9  A    between atoms: N24_24  and  C25_25 
ROOT
ATOM      1  C12 ZIN A   1      18.046  -0.960  10.940  0.00  0.00     0.065 C 
ATOM      2  C16 ZIN A   1      17.151  -0.052  10.092  0.00  0.00     0.064 C 
ATOM      3  C17 ZIN A   1      18.025   0.928   9.307  0.00  0.00     0.275 C 
ATOM      4  N18 ZIN A   1      18.950   0.181   8.446  0.00  0.00     0.090 N 
ATOM      5  C29 ZIN A   1      19.852  -0.662   9.241  0.00  0.00     0.275 C 
ATOM      6  C30 ZIN A   1      19.031  -1.691  10.025  0.00  0.00     0.064 C 
ENDROOT
BRANCH   1   7
ATOM      7  N5  ZIN A   1      18.787  -0.149  11.910  0.00  0.00    -0.306 N 
ATOM      8  C3  ZIN A   1      19.543  -0.747  12.851  0.00  0.00     0.224 C 
ATOM      9  O4  ZIN A   1      19.837  -1.919  12.739  0.00  0.00    -0.273 OA
BRANCH   8  10
ATOM     10  C2  ZIN A   1      20.025   0.039  14.043  0.00  0.00     0.099 C 
ATOM     11  C1  ZIN A   1      19.048  -0.149  15.206  0.00  0.00     0.014 C 
ENDBRANCH   8  10
BRANCH   7  12
ATOM     12  C6  ZIN A   1      18.710   1.247  11.857  0.00  0.00     0.038 A 
ATOM     13  C11 ZIN A   1      19.806   1.989  11.432  0.00  0.00     0.030 A 
ATOM     14  C10 ZIN A   1      19.725   3.367  11.375  0.00  0.00     0.002 A 
ATOM     15  C9  ZIN A   1      18.559   4.008  11.754  0.00  0.00     0.000 A 
ATOM     16  C8  ZIN A   1      17.471   3.273  12.185  0.00  0.00     0.002 A 
ATOM     17  C7  ZIN A   1      17.542   1.895  12.237  0.00  0.00     0.030 A 
ENDBRANCH   7  12
ENDBRANCH   1   7
BRANCH   1  18
ATOM     18  C13 ZIN A   1      17.183  -1.982  11.682  0.00  0.00     0.198 C 
BRANCH  18  19
ATOM     19  O14 ZIN A   1      17.089  -3.178  10.908  0.00  0.00    -0.393 OA
ATOM     20  C15 ZIN A   1      17.099  -4.377  11.687  0.00  0.00     0.201 C 
ENDBRANCH  18  19
ENDBRANCH   1  18
BRANCH   4  21
ATOM     21  C19 ZIN A   1      19.709   1.088   7.575  0.00  0.00     0.294 C 
BRANCH  21  22
ATOM     22  C20 ZIN A   1      18.936   1.313   6.274  0.00  0.00     0.188 C 
BRANCH  22  23
ATOM     23  N21 ZIN A   1      18.870   0.059   5.521  0.00  0.00    -0.197 N 
ATOM     24  C27 ZIN A   1      17.775  -0.711   5.344  0.00  0.00     0.363 A 
ATOM     25  N24 ZIN A   1      18.164  -1.761   4.590  0.00  0.00    -0.199 N 
ATOM     26  O28 ZIN A   1      16.655  -0.495   5.773  0.00  0.00    -0.243 OA
ATOM     27  N23 ZIN A   1      19.531  -1.606   4.326  0.00  0.00    -0.043 NA
ATOM     28  N22 ZIN A   1      19.935  -0.567   4.859  0.00  0.00    -0.043 NA
BRANCH  25  29
ATOM     29  C25 ZIN A   1      17.315  -2.865   4.137  0.00  0.00     0.153 C 
ATOM     30  C26 ZIN A   1      17.977  -4.198   4.496  0.00  0.00     0.029 C 
ENDBRANCH  25  29
ENDBRANCH  22  23
ENDBRANCH  21  22
ENDBRANCH   4  21
TORSDOF 9
ENDMDL
MODEL 2
REMARK VINA RESULT:      -7.3      1.588      2.109
REMARK  9 active torsions:
REMARK  status: ('A' for Active; 'I' for Inactive)
REMARK    1  A    between atoms: C2_2  and  C3_3 
REMARK       I    between atoms: C3_3  and  N5_5 
REMARK    2  A    between atoms: N5_5  and  C6_6 
REMARK    3  A    between atoms: N5_5  and  C12_12 
REMARK    4  A    between atoms: C12_12  and  C13_13 
REMARK    5  A    between atoms: C13_13  and  O14_14 
REMARK    6  A    between atoms: N18_18  and  C19_19 
REMARK    7  A    between atoms: C19_19  and  C20_20 
REMARK    8  A    between atoms: C20_20  and  N21_21 
REMARK    9  A    between atoms: N24_24  and  C25_25 
ROOT
ATOM      1  C12 ZIN A   1      18.100  -1.138  10.037  0.00  0.00     0.065 C 
ATOM      2  C16 ZIN A   1      16.956  -0.484   9.257  0.00  0.00     0.064 C 
ATOM      3  C17 ZIN A   1      17.537   0.355   8.116  0.00  0.00     0.275 C 
ATOM      4  N18 ZIN A   1      18.329  -0.504   7.228  0.00  0.00     0.090 N 
ATOM      5  C29 ZIN A   1      19.462  -1.105   7.944  0.00  0.00     0.275 C 
ATOM      6  C30 ZIN A   1      18.939  -1.989   9.079  0.00  0.00     0.064 C 
ENDROOT
BRANCH   1   7
ATOM      7  N5  ZIN A   1      18.942  -0.098  10.633  0.00  0.00    -0.306 N 
ATOM      8  C3  ZIN A   1      20.100  -0.432  11.235  0.00  0.00     0.224 C 
ATOM      9  O4  ZIN A   1      20.585  -1.529  11.052  0.00  0.00    -0.273 OA
BRANCH   8  10
ATOM     10  C2  ZIN A   1      20.794   0.556  12.137  0.00  0.00     0.099 C 
ATOM     11  C1  ZIN A   1      20.271   0.397  13.567  0.00  0.00     0.014 C 
ENDBRANCH   8  10
BRANCH   7  12
ATOM     12  C6  ZIN A   1      18.545   1.242  10.577  0.00  0.00     0.038 A 
ATOM     13  C11 ZIN A   1      17.565   1.714  11.441  0.00  0.00     0.030 A 
ATOM     14  C10 ZIN A   1      17.179   3.039  11.388  0.00  0.00     0.002 A 
ATOM     15  C9  ZIN A   1      17.757   3.893  10.465  0.00  0.00     0.000 A 
ATOM     16  C8  ZIN A   1      18.727   3.423   9.598  0.00  0.00     0.002 A 
ATOM     17  C7  ZIN A   1      19.123   2.101   9.652  0.00  0.00     0.030 A 
ENDBRANCH   7  12
ENDBRANCH   1   7
BRANCH   1  18
ATOM     18  C13 ZIN A   1      17.525  -2.027  11.141  0.00  0.00     0.198 C 
BRANCH  18  19
ATOM     19  O14 ZIN A   1      17.610  -3.396  10.743  0.00  0.00    -0.393 OA
ATOM     20  C15 ZIN A   1      17.679  -4.316  11.835  0.00  0.00     0.201 C 
ENDBRANCH  18  19
ENDBRANCH   1  18
BRANCH   4  21
ATOM     21  C19 ZIN A   1      18.789   0.240   6.047  0.00  0.00     0.294 C 
BRANCH  21  22
ATOM     22  C20 ZIN A   1      19.485  -0.719   5.079  0.00  0.00     0.188 C 
BRANCH  22  23
ATOM     23  N21 ZIN A   1      18.569  -1.806   4.725  0.00  0.00    -0.197 N 
ATOM     24  C27 ZIN A   1      18.745  -3.118   4.989  0.00  0.00     0.363 A 
ATOM     25  N24 ZIN A   1      17.663  -3.756   4.492  0.00  0.00    -0.199 N 
ATOM     26  O28 ZIN A   1      19.689  -3.626   5.569  0.00  0.00    -0.243 OA
ATOM     27  N23 ZIN A   1      16.835  -2.788   3.911  0.00  0.00    -0.043 NA
ATOM     28  N22 ZIN A   1      17.352  -1.674   4.043  0.00  0.00    -0.043 NA
BRANCH  25  29
ATOM     29  C25 ZIN A   1      17.408  -5.197   4.544  0.00  0.00     0.153 C 
ATOM     30  C26 ZIN A   1      16.111  -5.512   3.793  0.00  0.00     0.029 C 
ENDBRANCH  25  29
ENDBRANCH  22  23
ENDBRANCH  21  22
ENDBRANCH   4  21
TORSDOF 9
ENDMDL
MODEL 3
REMARK VINA RESULT:      -7.2      2.657      7.784
REMARK  9 active torsions:
REMARK  status: ('A' for Active; 'I' for Inactive)
REMARK    1  A    between atoms: C2_2  and  C3_3 
REMARK       I    between atoms: C3_3  and  N5_5 
REMARK    2  A    between atoms: N5_5  and  C6_6 
REMARK    3  A    between atoms: N5_5  and  C12_12 
REMARK    4  A    between atoms: C12_12  and  C13_13 
REMARK    5  A    between atoms: C13_13  and  O14_14 
REMARK    6  A    between atoms: N18_18  and  C19_19 
REMARK    7  A    between atoms: C19_19  and  C20_20 
REMARK    8  A    between atoms: C20_20  and  N21_21 
REMARK    9  A    between atoms: N24_24  and  C25_25 
ROOT
ATOM      1  C12 ZIN A   1      18.228  -1.178   8.411  0.00  0.00     0.065 C 
ATOM      2  C16 ZIN A   1      17.493  -0.900   9.725  0.00  0.00     0.064 C 
ATOM      3  C17 ZIN A   1      18.474  -1.043  10.892  0.00  0.00     0.275 C 
ATOM      4  N18 ZIN A   1      19.582  -0.096  10.722  0.00  0.00     0.090 N 
ATOM      5  C29 ZIN A   1      20.332  -0.373   9.489  0.00  0.00     0.275 C 
ATOM      6  C30 ZIN A   1      19.407  -0.209   8.281  0.00  0.00     0.064 C 
ENDROOT
BRANCH   1   7
ATOM      7  N5  ZIN A   1      18.724  -2.556   8.410  0.00  0.00    -0.306 N 
ATOM      8  C3  ZIN A   1      19.491  -2.995   7.393  0.00  0.00     0.224 C 
ATOM      9  O4  ZIN A   1      19.999  -2.201   6.629  0.00  0.00    -0.273 OA
BRANCH   8  10
ATOM     10  C2  ZIN A   1      19.717  -4.473   7.203  0.00  0.00     0.099 C 
ATOM     11  C1  ZIN A   1      18.728  -5.012   6.167  0.00  0.00     0.014 C 
ENDBRANCH   8  10
BRANCH   7  12
ATOM     12  C6  ZIN A   1      18.402  -3.416   9.466  0.00  0.00     0.038 A 
ATOM     13  C11 ZIN A   1      19.368  -3.755  10.406  0.00  0.00     0.030 A 
ATOM     14  C10 ZIN A   1      19.045  -4.600  11.450  0.00  0.00     0.002 A 
ATOM     15  C9  ZIN A   1      17.766  -5.118  11.553  0.00  0.00     0.000 A 
ATOM     16  C8  ZIN A   1      16.806  -4.788  10.615  0.00  0.00     0.002 A 
ATOM     17  C7  ZIN A   1      17.120  -3.939   9.572  0.00  0.00     0.030 A 
ENDBRANCH   7  12
ENDBRANCH   1   7
BRANCH   1  18
ATOM     18  C13 ZIN A   1      17.269  -0.978   7.236  0.00  0.00     0.198 C 
BRANCH  18  19
ATOM     19  O14 ZIN A   1      17.645   0.192   6.508  0.00  0.00    -0.393 OA
ATOM     20  C15 ZIN A   1      17.836  -0.030   5.109  0.00  0.00     0.201 C 
ENDBRANCH  18  19
ENDBRANCH   1  18
BRANCH   4  21
ATOM     21  C19 ZIN A   1      20.470  -0.107  11.892  0.00  0.00     0.294 C 
BRANCH  21  22
ATOM     22  C20 ZIN A   1      19.990   0.932  12.908  0.00  0.00     0.188 C 
BRANCH  22  23
ATOM     23  N21 ZIN A   1      19.538   0.253  14.124  0.00  0.00    -0.197 N 
ATOM     24  C27 ZIN A   1      18.970   0.837  15.201  0.00  0.00     0.363 A 
ATOM     25  N24 ZIN A   1      18.710  -0.155  16.080  0.00  0.00    -0.199 N 
ATOM     26  O28 ZIN A   1      18.730   2.022  15.347  0.00  0.00    -0.243 OA
ATOM     27  N23 ZIN A   1      19.149  -1.354  15.503  0.00  0.00    -0.043 NA
ATOM     28  N22 ZIN A   1      19.623  -1.120  14.386  0.00  0.00    -0.043 NA
BRANCH  25  29
ATOM     29  C25 ZIN A   1      18.090  -0.005  17.398  0.00  0.00     0.153 C 
ATOM     30  C26 ZIN A   1      19.162   0.373  18.425  0.00  0.00     0.029 C 
ENDBRANCH  25  29
ENDBRANCH  22  23
ENDBRANCH  21  22
ENDBRANCH   4  21
TORSDOF 9
ENDMDL
MODEL 4
REMARK VINA RESULT:      -7.1      2.591      4.468
REMARK  9 active torsions:
REMARK  status: ('A' for Active; 'I' for Inactive)
REMARK    1  A    between atoms: C2_2  and  C3_3 
REMARK       I    between atoms: C3_3  and  N5_5 
REMARK    2  A    between atoms: N5_5  and  C6_6 
REMARK    3  A    between atoms: N5_5  and  C12_12 
REMARK    4  A    between atoms: C12_12  and  C13_13 
REMARK    5  A    between atoms: C13_13  and  O14_14 
REMARK    6  A    between atoms: N18_18  and  C19_19 
REMARK    7  A    between atoms: C19_19  and  C20_20 
REMARK    8  A    between atoms: C20_20  and  N21_21 
REMARK    9  A    between atoms: N24_24  and  C25_25 
ROOT
ATOM      1  C12 ZIN A   1      18.243  -0.904  12.695  0.00  0.00     0.065 C 
ATOM      2  C16 ZIN A   1      17.327  -1.854  11.919  0.00  0.00     0.064 C 
ATOM      3  C17 ZIN A   1      18.176  -2.737  11.002  0.00  0.00     0.275 C 
ATOM      4  N18 ZIN A   1      19.134  -3.504  11.808  0.00  0.00     0.090 N 
ATOM      5  C29 ZIN A   1      20.056  -2.613  12.526  0.00  0.00     0.275 C 
ATOM      6  C30 ZIN A   1      19.262  -1.725  13.489  0.00  0.00     0.064 C 
ENDROOT
BRANCH   1   7
ATOM      7  N5  ZIN A   1      18.946  -0.026  11.756  0.00  0.00    -0.306 N 
ATOM      8  C3  ZIN A   1      19.832   0.879  12.215  0.00  0.00     0.224 C 
ATOM      9  O4  ZIN A   1      20.257   0.793  13.348  0.00  0.00    -0.273 OA
BRANCH   8  10
ATOM     10  C2  ZIN A   1      20.297   2.000  11.320  0.00  0.00     0.099 C 
ATOM     11  C1  ZIN A   1      19.553   3.287  11.687  0.00  0.00     0.014 C 
ENDBRANCH   8  10
BRANCH   7  12
ATOM     12  C6  ZIN A   1      18.697  -0.128  10.383  0.00  0.00     0.038 A 
ATOM     13  C11 ZIN A   1      17.485   0.305   9.861  0.00  0.00     0.030 A 
ATOM     14  C10 ZIN A   1      17.245   0.209   8.504  0.00  0.00     0.002 A 
ATOM     15  C9  ZIN A   1      18.206  -0.332   7.667  0.00  0.00     0.000 A 
ATOM     16  C8  ZIN A   1      19.410  -0.770   8.186  0.00  0.00     0.002 A 
ATOM     17  C7  ZIN A   1      19.659  -0.670   9.540  0.00  0.00     0.030 A 
ENDBRANCH   7  12
ENDBRANCH   1   7
BRANCH   1  18
ATOM     18  C13 ZIN A   1      17.407  -0.058  13.657  0.00  0.00     0.198 C 
BRANCH  18  19
ATOM     19  O14 ZIN A   1      17.641  -0.491  14.998  0.00  0.00    -0.393 OA
ATOM     20  C15 ZIN A   1      17.826   0.577  15.930  0.00  0.00     0.201 C 
ENDBRANCH  18  19
ENDBRANCH   1  18
BRANCH   4  21
ATOM     21  C19 ZIN A   1      19.872  -4.465  10.978  0.00  0.00     0.294 C 
BRANCH  21  22
ATOM     22  C20 ZIN A   1      18.882  -5.362  10.232  0.00  0.00     0.188 C 
BRANCH  22  23
ATOM     23  N21 ZIN A   1      19.163  -5.313   8.796  0.00  0.00    -0.197 N 
ATOM     24  C27 ZIN A   1      18.410  -4.705   7.854  0.00  0.00     0.363 A 
ATOM     25  N24 ZIN A   1      19.040  -4.904   6.676  0.00  0.00    -0.199 N 
ATOM     26  O28 ZIN A   1      17.373  -4.091   8.033  0.00  0.00    -0.243 OA
ATOM     27  N23 ZIN A   1      20.190  -5.660   6.936  0.00  0.00    -0.043 NA
ATOM     28  N22 ZIN A   1      20.260  -5.894   8.147  0.00  0.00    -0.043 NA
BRANCH  25  29
ATOM     29  C25 ZIN A   1      18.596  -4.425   5.365  0.00  0.00     0.153 C 
ATOM     30  C26 ZIN A   1      19.105  -2.998   5.145  0.00  0.00     0.029 C 
ENDBRANCH  25  29
ENDBRANCH  22  23
ENDBRANCH  21  22
ENDBRANCH   4  21
TORSDOF 9
ENDMDL
MODEL 5
REMARK VINA RESULT:      -7.1      3.722      8.325
REMARK  9 active torsions:
REMARK  status: ('A' for Active; 'I' for Inactive)
REMARK    1  A    between atoms: C2_2  and  C3_3 
REMARK       I    between atoms: C3_3  and  N5_5 
REMARK    2  A    between atoms: N5_5  and  C6_6 
REMARK    3  A    between atoms: N5_5  and  C12_12 
REMARK    4  A    between atoms: C12_12  and  C13_13 
REMARK    5  A    between atoms: C13_13  and  O14_14 
REMARK    6  A    between atoms: N18_18  and  C19_19 
REMARK    7  A    between atoms: C19_19  and  C20_20 
REMARK    8  A    between atoms: C20_20  and  N21_21 
REMARK    9  A    between atoms: N24_24  and  C25_25 
ROOT
ATOM      1  C12 ZIN A   1      19.309  -0.779  12.896  0.00  0.00     0.065 C 
ATOM      2  C16 ZIN A   1      20.308   0.088  13.666  0.00  0.00     0.064 C 
ATOM      3  C17 ZIN A   1      19.550   0.977  14.654  0.00  0.00     0.275 C 
ATOM      4  N18 ZIN A   1      18.786   0.138  15.584  0.00  0.00     0.090 N 
ATOM      5  C29 ZIN A   1      17.786  -0.669  14.872  0.00  0.00     0.275 C 
ATOM      6  C30 ZIN A   1      18.492  -1.608  13.891  0.00  0.00     0.064 C 
ENDROOT
BRANCH   1   7
ATOM      7  N5  ZIN A   1      18.410   0.081  12.122  0.00  0.00    -0.306 N 
ATOM      8  C3  ZIN A   1      17.380  -0.459  11.441  0.00  0.00     0.224 C 
ATOM      9  O4  ZIN A   1      17.026  -1.595  11.678  0.00  0.00    -0.273 OA
BRANCH   8  10
ATOM     10  C2  ZIN A   1      16.669   0.347  10.385  0.00  0.00     0.099 C 
ATOM     11  C1  ZIN A   1      17.339   0.114   9.028  0.00  0.00     0.014 C 
ENDBRANCH   8  10
BRANCH   7  12
ATOM     12  C6  ZIN A   1      18.620   1.464  12.091  0.00  0.00     0.038 A 
ATOM     13  C11 ZIN A   1      17.733   2.317  12.736  0.00  0.00     0.030 A 
ATOM     14  C10 ZIN A   1      17.946   3.682  12.709  0.00  0.00     0.002 A 
ATOM     15  C9  ZIN A   1      19.035   4.200  12.029  0.00  0.00     0.000 A 
ATOM     16  C8  ZIN A   1      19.914   3.353  11.380  0.00  0.00     0.002 A 
ATOM     17  C7  ZIN A   1      19.711   1.988  11.409  0.00  0.00     0.030 A 
ENDBRANCH   7  12
ENDBRANCH   1   7
BRANCH   1  18
ATOM     18  C13 ZIN A   1      20.064  -1.713  11.949  0.00  0.00     0.198 C 
BRANCH  18  19
ATOM     19  O14 ZIN A   1      19.829  -3.070  12.331  0.00  0.00    -0.393 OA
ATOM     20  C15 ZIN A   1      20.018  -4.013  11.274  0.00  0.00     0.201 C 
ENDBRANCH  18  19
ENDBRANCH   1  18
BRANCH   4  21
ATOM     21  C19 ZIN A   1      18.156   0.951  16.633  0.00  0.00     0.294 C 
BRANCH  21  22
ATOM     22  C20 ZIN A   1      19.211   1.845  17.290  0.00  0.00     0.188 C 
BRANCH  22  23
ATOM     23  N21 ZIN A   1      18.678   3.200  17.439  0.00  0.00    -0.197 N 
ATOM     24  C27 ZIN A   1      18.990   4.270  16.675  0.00  0.00     0.363 A 
ATOM     25  N24 ZIN A   1      18.270   5.306  17.159  0.00  0.00    -0.199 N 
ATOM     26  O28 ZIN A   1      19.760   4.294  15.731  0.00  0.00    -0.243 OA
ATOM     27  N23 ZIN A   1      17.524   4.830  18.244  0.00  0.00    -0.043 NA
ATOM     28  N22 ZIN A   1      17.757   3.627  18.404  0.00  0.00    -0.043 NA
BRANCH  25  29
ATOM     29  C25 ZIN A   1      18.277   6.679  16.647  0.00  0.00     0.153 C 
ATOM     30  C26 ZIN A   1      17.388   6.762  15.403  0.00  0.00     0.029 C 
ENDBRANCH  25  29
ENDBRANCH  22  23
ENDBRANCH  21  22
ENDBRANCH   4  21
TORSDOF 9
ENDMDL
MODEL 6
REMARK VINA RESULT:      -7.0      2.389      4.329
REMARK  9 active torsions:
REMARK  status: ('A' for Active; 'I' for Inactive)
REMARK    1  A    between atoms: C2_2  and  C3_3 
REMARK       I    between atoms: C3_3  and  N5_5 
REMARK    2  A    between atoms: N5_5  and  C6_6 
REMARK    3  A    between atoms: N5_5  and  C12_12 
REMARK    4  A    between atoms: C12_12  and  C13_13 
REMARK    5  A    between atoms: C13_13  and  O14_14 
REMARK    6  A    between atoms: N18_18  and  C19_19 
REMARK    7  A    between atoms: C19_19  and  C20_20 
REMARK    8  A    between atoms: C20_20  and  N21_21 
REMARK    9  A    between atoms: N24_24  and  C25_25 
ROOT
ATOM      1  C12 ZIN A   1      19.359   0.807  10.302  0.00  0.00     0.065 C 
ATOM      2  C16 ZIN A   1      20.337  -0.096   9.546  0.00  0.00     0.064 C 
ATOM      3  C17 ZIN A   1      19.555  -1.001   8.591  0.00  0.00     0.275 C 
ATOM      4  N18 ZIN A   1      18.795  -0.175   7.645  0.00  0.00     0.090 N 
ATOM      5  C29 ZIN A   1      17.816   0.667   8.344  0.00  0.00     0.275 C 
ATOM      6  C30 ZIN A   1      18.546   1.622   9.292  0.00  0.00     0.064 C 
ENDROOT
BRANCH   1   7
ATOM      7  N5  ZIN A   1      18.455  -0.017  11.108  0.00  0.00    -0.306 N 
ATOM      8  C3  ZIN A   1      17.438   0.558  11.780  0.00  0.00     0.224 C 
ATOM      9  O4  ZIN A   1      17.098   1.692  11.512  0.00  0.00    -0.273 OA
BRANCH   8  10
ATOM     10  C2  ZIN A   1      16.725  -0.206  12.865  0.00  0.00     0.099 C 
ATOM     11  C1  ZIN A   1      17.431   0.028  14.203  0.00  0.00     0.014 C 
ENDBRANCH   8  10
BRANCH   7  12
ATOM     12  C6  ZIN A   1      18.645  -1.401  11.178  0.00  0.00     0.038 A 
ATOM     13  C11 ZIN A   1      19.750  -1.918  11.844  0.00  0.00     0.030 A 
ATOM     14  C10 ZIN A   1      19.932  -3.286  11.917  0.00  0.00     0.002 A 
ATOM     15  C9  ZIN A   1      19.023  -4.139  11.317  0.00  0.00     0.000 A 
ATOM     16  C8  ZIN A   1      17.928  -3.626  10.648  0.00  0.00     0.002 A 
ATOM     17  C7  ZIN A   1      17.736  -2.261  10.576  0.00  0.00     0.030 A 
ENDBRANCH   7  12
ENDBRANCH   1   7
BRANCH   1  18
ATOM     18  C13 ZIN A   1      20.138   1.755  11.215  0.00  0.00     0.198 C 
BRANCH  18  19
ATOM     19  O14 ZIN A   1      19.801   3.106  10.898  0.00  0.00    -0.393 OA
ATOM     20  C15 ZIN A   1      19.729   3.970  12.035  0.00  0.00     0.201 C 
ENDBRANCH  18  19
ENDBRANCH   1  18
BRANCH   4  21
ATOM     21  C19 ZIN A   1      18.142  -1.006   6.625  0.00  0.00     0.294 C 
BRANCH  21  22
ATOM     22  C20 ZIN A   1      19.204  -1.636   5.722  0.00  0.00     0.188 C 
BRANCH  22  23
ATOM     23  N21 ZIN A   1      19.203  -3.089   5.905  0.00  0.00    -0.197 N 
ATOM     24  C27 ZIN A   1      18.303  -3.958   5.396  0.00  0.00     0.363 A 
ATOM     25  N24 ZIN A   1      18.684  -5.186   5.809  0.00  0.00    -0.199 N 
ATOM     26  O28 ZIN A   1      17.344  -3.689   4.695  0.00  0.00    -0.243 OA
ATOM     27  N23 ZIN A   1      19.835  -5.029   6.592  0.00  0.00    -0.043 NA
ATOM     28  N22 ZIN A   1      20.131  -3.831   6.647  0.00  0.00    -0.043 NA
BRANCH  25  29
ATOM     29  C25 ZIN A   1      18.011  -6.451   5.502  0.00  0.00     0.153 C 
ATOM     30  C26 ZIN A   1      17.705  -7.194   6.805  0.00  0.00     0.029 C 
ENDBRANCH  25  29
ENDBRANCH  22  23
ENDBRANCH  21  22
ENDBRANCH   4  21
TORSDOF 9
ENDMDL
MODEL 7
REMARK VINA RESULT:      -6.9      2.450      6.952
REMARK  9 active torsions:
REMARK  status: ('A' for Active; 'I' for Inactive)
REMARK    1  A    between atoms: C2_2  and  C3_3 
REMARK       I    between atoms: C3_3  and  N5_5 
REMARK    2  A    between atoms: N5_5  and  C6_6 
REMARK    3  A    between atoms: N5_5  and  C12_12 
REMARK    4  A    between atoms: C12_12  and  C13_13 
REMARK    5  A    between atoms: C13_13  and  O14_14 
REMARK    6  A    between atoms: N18_18  and  C19_19 
REMARK    7  A    between atoms: C19_19  and  C20_20 
REMARK    8  A    between atoms: C20_20  and  N21_21 
REMARK    9  A    between atoms: N24_24  and  C25_25 
ROOT
ATOM      1  C12 ZIN A   1      18.263  -1.425   8.149  0.00  0.00     0.065 C 
ATOM      2  C16 ZIN A   1      17.464  -1.067   9.404  0.00  0.00     0.064 C 
ATOM      3  C17 ZIN A   1      18.386  -1.128  10.624  0.00  0.00     0.275 C 
ATOM      4  N18 ZIN A   1      19.499  -0.188  10.447  0.00  0.00     0.090 N 
ATOM      5  C29 ZIN A   1      20.309  -0.540   9.273  0.00  0.00     0.275 C 
ATOM      6  C30 ZIN A   1      19.444  -0.461   8.013  0.00  0.00     0.064 C 
ENDROOT
BRANCH   1   7
ATOM      7  N5  ZIN A   1      18.762  -2.798   8.262  0.00  0.00    -0.306 N 
ATOM      8  C3  ZIN A   1      19.567  -3.303   7.306  0.00  0.00     0.224 C 
ATOM      9  O4  ZIN A   1      20.101  -2.561   6.508  0.00  0.00    -0.273 OA
BRANCH   8  10
ATOM     10  C2  ZIN A   1      19.804  -4.789   7.228  0.00  0.00     0.099 C 
ATOM     11  C1  ZIN A   1      18.827  -5.410   6.227  0.00  0.00     0.014 C 
ENDBRANCH   8  10
BRANCH   7  12
ATOM     12  C6  ZIN A   1      18.404  -3.584   9.362  0.00  0.00     0.038 A 
ATOM     13  C11 ZIN A   1      17.119  -4.105   9.456  0.00  0.00     0.030 A 
ATOM     14  C10 ZIN A   1      16.770  -4.887  10.541  0.00  0.00     0.002 A 
ATOM     15  C9  ZIN A   1      17.695  -5.139  11.539  0.00  0.00     0.000 A 
ATOM     16  C8  ZIN A   1      18.971  -4.615  11.451  0.00  0.00     0.002 A 
ATOM     17  C7  ZIN A   1      19.329  -3.839  10.366  0.00  0.00     0.030 A 
ENDBRANCH   7  12
ENDBRANCH   1   7
BRANCH   1  18
ATOM     18  C13 ZIN A   1      17.362  -1.308   6.918  0.00  0.00     0.198 C 
BRANCH  18  19
ATOM     19  O14 ZIN A   1      17.845  -0.263   6.072  0.00  0.00    -0.393 OA
ATOM     20  C15 ZIN A   1      17.926  -0.624   4.691  0.00  0.00     0.201 C 
ENDBRANCH  18  19
ENDBRANCH   1  18
BRANCH   4  21
ATOM     21  C19 ZIN A   1      20.329  -0.118  11.657  0.00  0.00     0.294 C 
BRANCH  21  22
ATOM     22  C20 ZIN A   1      19.585   0.665  12.742  0.00  0.00     0.188 C 
BRANCH  22  23
ATOM     23  N21 ZIN A   1      19.217   1.985  12.226  0.00  0.00    -0.197 N 
ATOM     24  C27 ZIN A   1      17.976   2.392  11.882  0.00  0.00     0.363 A 
ATOM     25  N24 ZIN A   1      18.095   3.671  11.465  0.00  0.00    -0.199 N 
ATOM     26  O28 ZIN A   1      16.950   1.737  11.946  0.00  0.00    -0.243 OA
ATOM     27  N23 ZIN A   1      19.449   4.018  11.558  0.00  0.00    -0.043 NA
ATOM     28  N22 ZIN A   1      20.090   3.055  11.992  0.00  0.00    -0.043 NA
BRANCH  25  29
ATOM     29  C25 ZIN A   1      17.009   4.533  10.993  0.00  0.00     0.153 C 
ATOM     30  C26 ZIN A   1      16.499   5.390  12.155  0.00  0.00     0.029 C 
ENDBRANCH  25  29
ENDBRANCH  22  23
ENDBRANCH  21  22
ENDBRANCH   4  21
TORSDOF 9
ENDMDL
MODEL 8
REMARK VINA RESULT:      -6.9      2.997      4.564
REMARK  9 active torsions:
REMARK  status: ('A' for Active; 'I' for Inactive)
REMARK    1  A    between atoms: C2_2  and  C3_3 
REMARK       I    between atoms: C3_3  and  N5_5 
REMARK    2  A    between atoms: N5_5  and  C6_6 
REMARK    3  A    between atoms: N5_5  and  C12_12 
REMARK    4  A    between atoms: C12_12  and  C13_13 
REMARK    5  A    between atoms: C13_13  and  O14_14 
REMARK    6  A    between atoms: N18_18  and  C19_19 
REMARK    7  A    between atoms: C19_19  and  C20_20 
REMARK    8  A    between atoms: C20_20  and  N21_21 
REMARK    9  A    between atoms: N24_24  and  C25_25 
ROOT
ATOM      1  C12 ZIN A   1      18.333  -1.176  12.521  0.00  0.00     0.065 C 
ATOM      2  C16 ZIN A   1      17.287  -1.932  11.698  0.00  0.00     0.064 C 
ATOM      3  C17 ZIN A   1      17.992  -2.749  10.613  0.00  0.00     0.275 C 
ATOM      4  N18 ZIN A   1      18.923  -3.696  11.238  0.00  0.00     0.090 N 
ATOM      5  C29 ZIN A   1      19.966  -2.991  11.996  0.00  0.00     0.275 C 
ATOM      6  C30 ZIN A   1      19.320  -2.181  13.123  0.00  0.00     0.064 C 
ENDROOT
BRANCH   1   7
ATOM      7  N5  ZIN A   1      19.055  -0.240  11.655  0.00  0.00    -0.306 N 
ATOM      8  C3  ZIN A   1      19.998   0.569  12.176  0.00  0.00     0.224 C 
ATOM      9  O4  ZIN A   1      20.448   0.345  13.280  0.00  0.00    -0.273 OA
BRANCH   8  10
ATOM     10  C2  ZIN A   1      20.494   1.754  11.387  0.00  0.00     0.099 C 
ATOM     11  C1  ZIN A   1      19.692   2.998  11.776  0.00  0.00     0.014 C 
ENDBRANCH   8  10
BRANCH   7  12
ATOM     12  C6  ZIN A   1      18.764  -0.187  10.288  0.00  0.00     0.038 A 
ATOM     13  C11 ZIN A   1      19.715  -0.592   9.359  0.00  0.00     0.030 A 
ATOM     14  C10 ZIN A   1      19.423  -0.545   8.009  0.00  0.00     0.002 A 
ATOM     15  C9  ZIN A   1      18.191  -0.082   7.583  0.00  0.00     0.000 A 
ATOM     16  C8  ZIN A   1      17.247   0.329   8.505  0.00  0.00     0.002 A 
ATOM     17  C7  ZIN A   1      17.529   0.277   9.856  0.00  0.00     0.030 A 
ENDBRANCH   7  12
ENDBRANCH   1   7
BRANCH   1  18
ATOM     18  C13 ZIN A   1      17.641  -0.404  13.645  0.00  0.00     0.198 C 
BRANCH  18  19
ATOM     19  O14 ZIN A   1      18.020  -0.957  14.907  0.00  0.00    -0.393 OA
ATOM     20  C15 ZIN A   1      17.447  -0.286  16.032  0.00  0.00     0.201 C 
ENDBRANCH  18  19
ENDBRANCH   1  18
BRANCH   4  21
ATOM     21  C19 ZIN A   1      19.516  -4.592  10.237  0.00  0.00     0.294 C 
BRANCH  21  22
ATOM     22  C20 ZIN A   1      19.134  -4.115   8.834  0.00  0.00     0.188 C 
BRANCH  22  23
ATOM     23  N21 ZIN A   1      18.613  -5.243   8.059  0.00  0.00    -0.197 N 
ATOM     24  C27 ZIN A   1      17.345  -5.708   8.078  0.00  0.00     0.363 A 
ATOM     25  N24 ZIN A   1      17.307  -6.748   7.217  0.00  0.00    -0.199 N 
ATOM     26  O28 ZIN A   1      16.417  -5.270   8.735  0.00  0.00    -0.243 OA
ATOM     27  N23 ZIN A   1      18.594  -6.901   6.687  0.00  0.00    -0.043 NA
ATOM     28  N22 ZIN A   1      19.340  -6.042   7.168  0.00  0.00    -0.043 NA
BRANCH  25  29
ATOM     29  C25 ZIN A   1      16.137  -7.570   6.902  0.00  0.00     0.153 C 
ATOM     30  C26 ZIN A   1      16.207  -8.880   7.690  0.00  0.00     0.029 C 
ENDBRANCH  25  29
ENDBRANCH  22  23
ENDBRANCH  21  22
ENDBRANCH   4  21
TORSDOF 9
ENDMDL
MODEL 9
REMARK VINA RESULT:      -6.6      2.450      4.025
REMARK  9 active torsions:
REMARK  status: ('A' for Active; 'I' for Inactive)
REMARK    1  A    between atoms: C2_2  and  C3_3 
REMARK       I    between atoms: C3_3  and  N5_5 
REMARK    2  A    between atoms: N5_5  and  C6_6 
REMARK    3  A    between atoms: N5_5  and  C12_12 
REMARK    4  A    between atoms: C12_12  and  C13_13 
REMARK    5  A    between atoms: C13_13  and  O14_14 
REMARK    6  A    between atoms: N18_18  and  C19_19 
REMARK    7  A    between atoms: C19_19  and  C20_20 
REMARK    8  A    between atoms: C20_20  and  N21_21 
REMARK    9  A    between atoms: N24_24  and  C25_25 
ROOT
ATOM      1  C12 ZIN A   1      18.234   1.190  14.644  0.00  0.00     0.065 C 
ATOM      2  C16 ZIN A   1      17.460   0.867  13.363  0.00  0.00     0.064 C 
ATOM      3  C17 ZIN A   1      18.387   1.033  12.157  0.00  0.00     0.275 C 
ATOM      4  N18 ZIN A   1      19.536   0.131  12.293  0.00  0.00     0.090 N 
ATOM      5  C29 ZIN A   1      20.323   0.453  13.491  0.00  0.00     0.275 C 
ATOM      6  C30 ZIN A   1      19.454   0.270  14.738  0.00  0.00     0.064 C 
ENDROOT
BRANCH   1   7
ATOM      7  N5  ZIN A   1      18.676   2.587  14.609  0.00  0.00    -0.306 N 
ATOM      8  C3  ZIN A   1      19.421   3.083  15.616  0.00  0.00     0.224 C 
ATOM      9  O4  ZIN A   1      19.957   2.330  16.403  0.00  0.00    -0.273 OA
BRANCH   8  10
ATOM     10  C2  ZIN A   1      19.589   4.573  15.767  0.00  0.00     0.099 C 
ATOM     11  C1  ZIN A   1      18.591   5.097  16.802  0.00  0.00     0.014 C 
ENDBRANCH   8  10
BRANCH   7  12
ATOM     12  C6  ZIN A   1      18.326   3.405  13.530  0.00  0.00     0.038 A 
ATOM     13  C11 ZIN A   1      19.252   3.672  12.530  0.00  0.00     0.030 A 
ATOM     14  C10 ZIN A   1      18.902   4.475  11.462  0.00  0.00     0.002 A 
ATOM     15  C9  ZIN A   1      17.633   5.024  11.395  0.00  0.00     0.000 A 
ATOM     16  C8  ZIN A   1      16.712   4.765  12.393  0.00  0.00     0.002 A 
ATOM     17  C7  ZIN A   1      17.054   3.958  13.460  0.00  0.00     0.030 A 
ENDBRANCH   7  12
ENDBRANCH   1   7
BRANCH   1  18
ATOM     18  C13 ZIN A   1      17.331   0.969  15.858  0.00  0.00     0.198 C 
BRANCH  18  19
ATOM     19  O14 ZIN A   1      17.858  -0.091  16.657  0.00  0.00    -0.393 OA
ATOM     20  C15 ZIN A   1      17.009  -1.239  16.733  0.00  0.00     0.201 C 
ENDBRANCH  18  19
ENDBRANCH   1  18
BRANCH   4  21
ATOM     21  C19 ZIN A   1      20.377   0.161  11.089  0.00  0.00     0.294 C 
BRANCH  21  22
ATOM     22  C20 ZIN A   1      19.875  -0.884  10.090  0.00  0.00     0.188 C 
BRANCH  22  23
ATOM     23  N21 ZIN A   1      19.427  -0.214   8.867  0.00  0.00    -0.197 N 
ATOM     24  C27 ZIN A   1      18.751  -0.784   7.845  0.00  0.00     0.363 A 
ATOM     25  N24 ZIN A   1      18.541   0.192   6.936  0.00  0.00    -0.199 N 
ATOM     26  O28 ZIN A   1      18.393  -1.946   7.765  0.00  0.00    -0.243 OA
ATOM     27  N23 ZIN A   1      19.121   1.365   7.436  0.00  0.00    -0.043 NA
ATOM     28  N22 ZIN A   1      19.627   1.133   8.539  0.00  0.00    -0.043 NA
BRANCH  25  29
ATOM     29  C25 ZIN A   1      17.843   0.049   5.656  0.00  0.00     0.153 C 
ATOM     30  C26 ZIN A   1      18.868  -0.138   4.535  0.00  0.00     0.029 C 
ENDBRANCH  25  29
ENDBRANCH  22  23
ENDBRANCH  21  22
ENDBRANCH   4  21
TORSDOF 9
ENDMDL
