MODEL 1
REMARK VINA RESULT:      -6.2      0.000      0.000
REMARK  13 active torsions:
REMARK  status: ('A' for Active; 'I' for Inactive)
REMARK    1  A    between atoms: C2_2  and  N4_4 
REMARK    2  A    between atoms: N4_4  and  C7_7 
REMARK    3  A    between atoms: C7_7  and  C8_8 
REMARK    4  A    between atoms: C8_8  and  O10_9 
REMARK    5  A    between atoms: C8_8  and  C11_10 
REMARK    6  A    between atoms: C11_10  and  O12_11 
REMARK    7  A    between atoms: O12_11  and  C13_12 
REMARK    8  A    between atoms: C16_15  and  C17_16 
REMARK    9  A    between atoms: C17_16  and  O18_17 
REMARK   10  A    between atoms: O18_17  and  C19_18 
REMARK   11  A    between atoms: C19_18  and  C20_19 
REMARK   12  A    between atoms: C20_19  and  O21_20 
REMARK   13  A    between atoms: O21_20  and  C22_21 
ROOT
ATOM      1  C13 ZIN A   1      18.176   0.992  10.756  0.00  0.00     0.068 A 
ATOM      2  C14 ZIN A   1      17.505   0.172   9.861  0.00  0.00     0.037 A 
ATOM      3  C15 ZIN A   1      17.762   0.273   8.508  0.00  0.00     0.012 A 
ATOM      4  C16 ZIN A   1      18.688   1.191   8.045  0.00  0.00    -0.034 A 
ATOM      5  C25 ZIN A   1      19.358   2.009   8.935  0.00  0.00     0.012 A 
ATOM      6  C26 ZIN A   1      19.100   1.916  10.290  0.00  0.00     0.037 A 
ENDROOT
BRANCH   1   7
ATOM      7  O12 ZIN A   1      17.923   0.896  12.089  0.00  0.00    -0.349 OA
BRANCH   7   8
ATOM      8  C11 ZIN A   1      18.856   1.521  12.972  0.00  0.00     0.209 C 
BRANCH   8   9
ATOM      9  C8  ZIN A   1      19.670   0.447  13.697  0.00  0.00     0.168 C 
BRANCH   9  10
ATOM     10  C7  ZIN A   1      18.978  -0.909  13.539  0.00  0.00     0.266 C 
BRANCH  10  11
ATOM     11  N4  ZIN A   1      19.949  -1.899  13.053  0.00  0.00    -0.069 N 
ATOM     12  H5  ZIN A   1      20.079  -2.614  13.753  0.00  0.00     0.277 HD
ATOM     13  H6  ZIN A   1      20.830  -1.444  12.869  0.00  0.00     0.277 HD
BRANCH  11  14
ATOM     14  C2  ZIN A   1      19.446  -2.510  11.816  0.00  0.00     0.178 C 
ATOM     15  C1  ZIN A   1      20.198  -3.816  11.550  0.00  0.00     0.039 C 
ATOM     16  C3  ZIN A   1      17.951  -2.803  11.962  0.00  0.00     0.039 C 
ENDBRANCH  11  14
ENDBRANCH  10  11
ENDBRANCH   9  10
BRANCH   9  17
ATOM     17  O10 ZIN A   1      20.981   0.382  13.133  0.00  0.00    -0.392 OA
ATOM     18  H36 ZIN A   1      21.007   0.533  12.178  0.00  0.00     0.210 HD
ENDBRANCH   9  17
ENDBRANCH   8   9
ENDBRANCH   7   8
ENDBRANCH   1   7
BRANCH   4  19
ATOM     19  C17 ZIN A   1      18.968   1.298   6.568  0.00  0.00     0.206 C 
BRANCH  19  20
ATOM     20  O18 ZIN A   1      18.433   0.155   5.898  0.00  0.00    -0.385 OA
BRANCH  20  21
ATOM     21  C19 ZIN A   1      19.210  -0.279   4.780  0.00  0.00     0.194 C 
BRANCH  21  22
ATOM     22  C20 ZIN A   1      19.040  -1.788   4.596  0.00  0.00     0.194 C 
BRANCH  22  23
ATOM     23  O21 ZIN A   1      19.687  -2.475   5.670  0.00  0.00    -0.385 OA
BRANCH  23  24
ATOM     24  C22 ZIN A   1      18.800  -3.234   6.493  0.00  0.00     0.113 C 
ATOM     25  C23 ZIN A   1      18.968  -4.723   6.186  0.00  0.00     0.039 C 
ATOM     26  C24 ZIN A   1      19.126  -2.977   7.966  0.00  0.00     0.039 C 
ENDBRANCH  23  24
ENDBRANCH  22  23
ENDBRANCH  21  22
ENDBRANCH  20  21
ENDBRANCH  19  20
ENDBRANCH   4  19
TORSDOF 13
ENDMDL
MODEL 2
REMARK VINA RESULT:      -6.1      1.697      2.811
REMARK  13 active torsions:
REMARK  status: ('A' for Active; 'I' for Inactive)
REMARK    1  A    between atoms: C2_2  and  N4_4 
REMARK    2  A    between atoms: N4_4  and  C7_7 
REMARK    3  A    between atoms: C7_7  and  C8_8 
REMARK    4  A    between atoms: C8_8  and  O10_9 
REMARK    5  A    between atoms: C8_8  and  C11_10 
REMARK    6  A    between atoms: C11_10  and  O12_11 
REMARK    7  A    between atoms: O12_11  and  C13_12 
REMARK    8  A    between atoms: C16_15  and  C17_16 
REMARK    9  A    between atoms: C17_16  and  O18_17 
REMARK   10  A    between atoms: O18_17  and  C19_18 
REMARK   11  A    between atoms: C19_18  and  C20_19 
REMARK   12  A    between atoms: C20_19  and  O21_20 
REMARK   13  A    between atoms: O21_20  and  C22_21 
ROOT
ATOM      1  C13 ZIN A   1      18.183   1.400   9.458  0.00  0.00     0.068 A 
ATOM      2  C14 ZIN A   1      19.015   1.938   8.487  0.00  0.00     0.037 A 
ATOM      3  C15 ZIN A   1      19.122   1.325   7.254  0.00  0.00     0.012 A 
ATOM      4  C16 ZIN A   1      18.400   0.176   6.987  0.00  0.00    -0.034 A 
ATOM      5  C25 ZIN A   1      17.571  -0.363   7.953  0.00  0.00     0.012 A 
ATOM      6  C26 ZIN A   1      17.465   0.244   9.190  0.00  0.00     0.037 A 
ENDROOT
BRANCH   1   7
ATOM      7  O12 ZIN A   1      18.077   2.000  10.673  0.00  0.00    -0.349 OA
BRANCH   7   8
ATOM      8  C11 ZIN A   1      18.561   3.340  10.779  0.00  0.00     0.209 C 
BRANCH   8   9
ATOM      9  C8  ZIN A   1      19.473   3.459  12.002  0.00  0.00     0.168 C 
BRANCH   9  10
ATOM     10  C7  ZIN A   1      18.996   2.492  13.088  0.00  0.00     0.266 C 
BRANCH  10  11
ATOM     11  N4  ZIN A   1      19.859   1.302  13.097  0.00  0.00    -0.069 N 
ATOM     12  H5  ZIN A   1      20.658   1.471  13.690  0.00  0.00     0.277 HD
ATOM     13  H6  ZIN A   1      20.172   1.107  12.158  0.00  0.00     0.277 HD
BRANCH  11  14
ATOM     14  C2  ZIN A   1      19.102   0.153  13.611  0.00  0.00     0.178 C 
ATOM     15  C1  ZIN A   1      17.652   0.570  13.863  0.00  0.00     0.039 C 
ATOM     16  C3  ZIN A   1      19.137  -0.982  12.585  0.00  0.00     0.039 C 
ENDBRANCH  11  14
ENDBRANCH  10  11
ENDBRANCH   9  10
BRANCH   9  17
ATOM     17  O10 ZIN A   1      20.813   3.133  11.628  0.00  0.00    -0.392 OA
ATOM     18  H36 ZIN A   1      21.283   2.593  12.280  0.00  0.00     0.210 HD
ENDBRANCH   9  17
ENDBRANCH   8   9
ENDBRANCH   7   8
ENDBRANCH   1   7
BRANCH   4  19
ATOM     19  C17 ZIN A   1      18.519  -0.490   5.640  0.00  0.00     0.206 C 
BRANCH  19  20
ATOM     20  O18 ZIN A   1      19.552  -1.477   5.686  0.00  0.00    -0.385 OA
BRANCH  20  21
ATOM     21  C19 ZIN A   1      19.093  -2.809   5.447  0.00  0.00     0.194 C 
BRANCH  21  22
ATOM     22  C20 ZIN A   1      19.709  -3.753   6.482  0.00  0.00     0.194 C 
BRANCH  22  23
ATOM     23  O21 ZIN A   1      19.376  -3.301   7.797  0.00  0.00    -0.385 OA
BRANCH  23  24
ATOM     24  C22 ZIN A   1      18.660  -4.260   8.577  0.00  0.00     0.113 C 
ATOM     25  C23 ZIN A   1      19.619  -5.358   9.041  0.00  0.00     0.039 C 
ATOM     26  C24 ZIN A   1      18.048  -3.570   9.797  0.00  0.00     0.039 C 
ENDBRANCH  23  24
ENDBRANCH  22  23
ENDBRANCH  21  22
ENDBRANCH  20  21
ENDBRANCH  19  20
ENDBRANCH   4  19
TORSDOF 13
ENDMDL
MODEL 3
REMARK VINA RESULT:      -6.1      1.760      2.348
REMARK  13 active torsions:
REMARK  status: ('A' for Active; 'I' for Inactive)
REMARK    1  A    between atoms: C2_2  and  N4_4 
REMARK    2  A    between atoms: N4_4  and  C7_7 
REMARK    3  A    between atoms: C7_7  and  C8_8 
REMARK    4  A    between atoms: C8_8  and  O10_9 
REMARK    5  A    between atoms: C8_8  and  C11_10 
REMARK    6  A    between atoms: C11_10  and  O12_11 
REMARK    7  A    between atoms: O12_11  and  C13_12 
REMARK    8  A    between atoms: C16_15  and  C17_16 
REMARK    9  A    between atoms: C17_16  and  O18_17 
REMARK   10  A    between atoms: O18_17  and  C19_18 
REMARK   11  A    between atoms: C19_18  and  C20_19 
REMARK   12  A    between atoms: C20_19  and  O21_20 
REMARK   13  A    between atoms: O21_20  and  C22_21 
ROOT
ATOM      1  C13 ZIN A   1      18.625   0.838   9.416  0.00  0.00     0.068 A 
ATOM      2  C14 ZIN A   1      18.039  -0.284   8.847  0.00  0.00     0.037 A 
ATOM      3  C15 ZIN A   1      18.120  -0.487   7.483  0.00  0.00     0.012 A 
ATOM      4  C16 ZIN A   1      18.784   0.426   6.685  0.00  0.00    -0.034 A 
ATOM      5  C25 ZIN A   1      19.369   1.544   7.249  0.00  0.00     0.012 A 
ATOM      6  C26 ZIN A   1      19.286   1.755   8.612  0.00  0.00     0.037 A 
ENDROOT
BRANCH   1   7
ATOM      7  O12 ZIN A   1      18.546   1.041  10.757  0.00  0.00    -0.349 OA
BRANCH   7   8
ATOM      8  C11 ZIN A   1      19.238   0.114  11.596  0.00  0.00     0.209 C 
BRANCH   8   9
ATOM      9  C8  ZIN A   1      20.171   0.877  12.539  0.00  0.00     0.168 C 
BRANCH   9  10
ATOM     10  C7  ZIN A   1      19.898   0.447  13.982  0.00  0.00     0.266 C 
BRANCH  10  11
ATOM     11  N4  ZIN A   1      18.463   0.580  14.270  0.00  0.00    -0.069 N 
ATOM     12  H5  ZIN A   1      17.946   0.588  13.403  0.00  0.00     0.277 HD
ATOM     13  H6  ZIN A   1      18.298   1.443  14.766  0.00  0.00     0.277 HD
BRANCH  11  14
ATOM     14  C2  ZIN A   1      18.022  -0.553  15.093  0.00  0.00     0.178 C 
ATOM     15  C1  ZIN A   1      19.234  -1.400  15.486  0.00  0.00     0.039 C 
ATOM     16  C3  ZIN A   1      17.335  -0.028  16.357  0.00  0.00     0.039 C 
ENDBRANCH  11  14
ENDBRANCH  10  11
ENDBRANCH   9  10
BRANCH   9  17
ATOM     17  O10 ZIN A   1      21.529   0.587  12.203  0.00  0.00    -0.392 OA
ATOM     18  H36 ZIN A   1      21.675   0.424  11.261  0.00  0.00     0.210 HD
ENDBRANCH   9  17
ENDBRANCH   8   9
ENDBRANCH   7   8
ENDBRANCH   1   7
BRANCH   4  19
ATOM     19  C17 ZIN A   1      18.871   0.201   5.197  0.00  0.00     0.206 C 
BRANCH  19  20
ATOM     20  O18 ZIN A   1      19.659  -0.963   4.936  0.00  0.00    -0.385 OA
BRANCH  20  21
ATOM     21  C19 ZIN A   1      18.961  -1.990   4.229  0.00  0.00     0.194 C 
BRANCH  21  22
ATOM     22  C20 ZIN A   1      18.992  -3.283   5.047  0.00  0.00     0.194 C 
BRANCH  22  23
ATOM     23  O21 ZIN A   1      20.017  -3.194   6.040  0.00  0.00    -0.385 OA
BRANCH  23  24
ATOM     24  C22 ZIN A   1      19.734  -3.925   7.234  0.00  0.00     0.113 C 
ATOM     25  C23 ZIN A   1      18.230  -4.183   7.330  0.00  0.00     0.039 C 
ATOM     26  C24 ZIN A   1      20.480  -5.261   7.202  0.00  0.00     0.039 C 
ENDBRANCH  23  24
ENDBRANCH  22  23
ENDBRANCH  21  22
ENDBRANCH  20  21
ENDBRANCH  19  20
ENDBRANCH   4  19
TORSDOF 13
ENDMDL
MODEL 4
REMARK VINA RESULT:      -6.0      3.425      8.694
REMARK  13 active torsions:
REMARK  status: ('A' for Active; 'I' for Inactive)
REMARK    1  A    between atoms: C2_2  and  N4_4 
REMARK    2  A    between atoms: N4_4  and  C7_7 
REMARK    3  A    between atoms: C7_7  and  C8_8 
REMARK    4  A    between atoms: C8_8  and  O10_9 
REMARK    5  A    between atoms: C8_8  and  C11_10 
REMARK    6  A    between atoms: C11_10  and  O12_11 
REMARK    7  A    between atoms: O12_11  and  C13_12 
REMARK    8  A    between atoms: C16_15  and  C17_16 
REMARK    9  A    between atoms: C17_16  and  O18_17 
REMARK   10  A    between atoms: O18_17  and  C19_18 
REMARK   11  A    between atoms: C19_18  and  C20_19 
REMARK   12  A    between atoms: C20_19  and  O21_20 
REMARK   13  A    between atoms: O21_20  and  C22_21 
ROOT
ATOM      1  C13 ZIN A   1      19.195  -0.553  13.296  0.00  0.00     0.068 A 
ATOM      2  C14 ZIN A   1      18.536   0.639  13.559  0.00  0.00     0.037 A 
ATOM      3  C15 ZIN A   1      17.930   0.837  14.784  0.00  0.00     0.012 A 
ATOM      4  C16 ZIN A   1      17.980  -0.153  15.748  0.00  0.00    -0.034 A 
ATOM      5  C25 ZIN A   1      18.635  -1.342  15.490  0.00  0.00     0.012 A 
ATOM      6  C26 ZIN A   1      19.238  -1.546  14.263  0.00  0.00     0.037 A 
ENDROOT
BRANCH   1   7
ATOM      7  O12 ZIN A   1      19.791  -0.751  12.090  0.00  0.00    -0.349 OA
BRANCH   7   8
ATOM      8  C11 ZIN A   1      18.931  -0.929  10.963  0.00  0.00     0.209 C 
BRANCH   8   9
ATOM      9  C8  ZIN A   1      19.604  -0.356   9.714  0.00  0.00     0.168 C 
BRANCH   9  10
ATOM     10  C7  ZIN A   1      19.171   1.099   9.524  0.00  0.00     0.266 C 
BRANCH  10  11
ATOM     11  N4  ZIN A   1      19.907   1.955  10.464  0.00  0.00    -0.069 N 
ATOM     12  H5  ZIN A   1      20.807   2.189  10.071  0.00  0.00     0.277 HD
ATOM     13  H6  ZIN A   1      20.038   1.464  11.335  0.00  0.00     0.277 HD
BRANCH  11  14
ATOM     14  C2  ZIN A   1      19.144   3.187  10.706  0.00  0.00     0.178 C 
ATOM     15  C1  ZIN A   1      17.654   2.852  10.798  0.00  0.00     0.039 C 
ATOM     16  C3  ZIN A   1      19.607   3.825  12.017  0.00  0.00     0.039 C 
ENDBRANCH  11  14
ENDBRANCH  10  11
ENDBRANCH   9  10
BRANCH   9  17
ATOM     17  O10 ZIN A   1      21.023  -0.415   9.869  0.00  0.00    -0.392 OA
ATOM     18  H36 ZIN A   1      21.455   0.451   9.871  0.00  0.00     0.210 HD
ENDBRANCH   9  17
ENDBRANCH   8   9
ENDBRANCH   7   8
ENDBRANCH   1   7
BRANCH   4  19
ATOM     19  C17 ZIN A   1      17.318   0.066  17.085  0.00  0.00     0.206 C 
BRANCH  19  20
ATOM     20  O18 ZIN A   1      18.227  -0.283  18.130  0.00  0.00    -0.385 OA
BRANCH  20  21
ATOM     21  C19 ZIN A   1      19.376   0.563  18.209  0.00  0.00     0.194 C 
BRANCH  21  22
ATOM     22  C20 ZIN A   1      18.926   2.020  18.344  0.00  0.00     0.194 C 
BRANCH  22  23
ATOM     23  O21 ZIN A   1      19.692   2.840  17.458  0.00  0.00    -0.385 OA
BRANCH  23  24
ATOM     24  C22 ZIN A   1      19.104   4.114  17.190  0.00  0.00     0.113 C 
ATOM     25  C23 ZIN A   1      18.704   4.191  15.717  0.00  0.00     0.039 C 
ATOM     26  C24 ZIN A   1      17.863   4.296  18.066  0.00  0.00     0.039 C 
ENDBRANCH  23  24
ENDBRANCH  22  23
ENDBRANCH  21  22
ENDBRANCH  20  21
ENDBRANCH  19  20
ENDBRANCH   4  19
TORSDOF 13
ENDMDL
MODEL 5
REMARK VINA RESULT:      -6.0      1.592      5.756
REMARK  13 active torsions:
REMARK  status: ('A' for Active; 'I' for Inactive)
REMARK    1  A    between atoms: C2_2  and  N4_4 
REMARK    2  A    between atoms: N4_4  and  C7_7 
REMARK    3  A    between atoms: C7_7  and  C8_8 
REMARK    4  A    between atoms: C8_8  and  O10_9 
REMARK    5  A    between atoms: C8_8  and  C11_10 
REMARK    6  A    between atoms: C11_10  and  O12_11 
REMARK    7  A    between atoms: O12_11  and  C13_12 
REMARK    8  A    between atoms: C16_15  and  C17_16 
REMARK    9  A    between atoms: C17_16  and  O18_17 
REMARK   10  A    between atoms: O18_17  and  C19_18 
REMARK   11  A    between atoms: C19_18  and  C20_19 
REMARK   12  A    between atoms: C20_19  and  O21_20 
REMARK   13  A    between atoms: O21_20  and  C22_21 
ROOT
ATOM      1  C13 ZIN A   1      18.634   0.578   7.884  0.00  0.00     0.068 A 
ATOM      2  C14 ZIN A   1      17.640   0.090   8.720  0.00  0.00     0.037 A 
ATOM      3  C15 ZIN A   1      17.312   0.774   9.874  0.00  0.00     0.012 A 
ATOM      4  C16 ZIN A   1      17.973   1.945  10.196  0.00  0.00    -0.034 A 
ATOM      5  C25 ZIN A   1      18.963   2.434   9.365  0.00  0.00     0.012 A 
ATOM      6  C26 ZIN A   1      19.299   1.750   8.212  0.00  0.00     0.037 A 
ENDROOT
BRANCH   1   7
ATOM      7  O12 ZIN A   1      18.959  -0.095   6.748  0.00  0.00    -0.349 OA
BRANCH   7   8
ATOM      8  C11 ZIN A   1      18.382  -1.390   6.573  0.00  0.00     0.209 C 
BRANCH   8   9
ATOM      9  C8  ZIN A   1      19.418  -2.461   6.919  0.00  0.00     0.168 C 
BRANCH   9  10
ATOM     10  C7  ZIN A   1      18.814  -3.449   7.920  0.00  0.00     0.266 C 
BRANCH  10  11
ATOM     11  N4  ZIN A   1      19.646  -3.490   9.130  0.00  0.00    -0.069 N 
ATOM     12  H5  ZIN A   1      19.815  -2.549   9.453  0.00  0.00     0.277 HD
ATOM     13  H6  ZIN A   1      20.526  -3.935   8.919  0.00  0.00     0.277 HD
BRANCH  11  14
ATOM     14  C2  ZIN A   1      18.950  -4.250  10.177  0.00  0.00     0.178 C 
ATOM     15  C1  ZIN A   1      19.808  -4.275  11.444  0.00  0.00     0.039 C 
ATOM     16  C3  ZIN A   1      17.607  -3.584  10.483  0.00  0.00     0.039 C 
ENDBRANCH  11  14
ENDBRANCH  10  11
ENDBRANCH   9  10
BRANCH   9  17
ATOM     17  O10 ZIN A   1      19.797  -3.158   5.731  0.00  0.00    -0.392 OA
ATOM     18  H36 ZIN A   1      19.143  -3.108   5.020  0.00  0.00     0.210 HD
ENDBRANCH   9  17
ENDBRANCH   8   9
ENDBRANCH   7   8
ENDBRANCH   1   7
BRANCH   4  19
ATOM     19  C17 ZIN A   1      17.613   2.690  11.456  0.00  0.00     0.206 C 
BRANCH  19  20
ATOM     20  O18 ZIN A   1      18.790   2.902  12.237  0.00  0.00    -0.385 OA
BRANCH  20  21
ATOM     21  C19 ZIN A   1      18.579   2.792  13.646  0.00  0.00     0.194 C 
BRANCH  21  22
ATOM     22  C20 ZIN A   1      18.544   1.314  14.042  0.00  0.00     0.194 C 
BRANCH  22  23
ATOM     23  O21 ZIN A   1      19.777   0.692  13.672  0.00  0.00    -0.385 OA
BRANCH  23  24
ATOM     24  C22 ZIN A   1      19.622  -0.596  13.074  0.00  0.00     0.113 C 
ATOM     25  C23 ZIN A   1      18.142  -0.978  13.062  0.00  0.00     0.039 C 
ATOM     26  C24 ZIN A   1      20.150  -0.557  11.638  0.00  0.00     0.039 C 
ENDBRANCH  23  24
ENDBRANCH  22  23
ENDBRANCH  21  22
ENDBRANCH  20  21
ENDBRANCH  19  20
ENDBRANCH   4  19
TORSDOF 13
ENDMDL
MODEL 6
REMARK VINA RESULT:      -6.0      2.120      3.284
REMARK  13 active torsions:
REMARK  status: ('A' for Active; 'I' for Inactive)
REMARK    1  A    between atoms: C2_2  and  N4_4 
REMARK    2  A    between atoms: N4_4  and  C7_7 
REMARK    3  A    between atoms: C7_7  and  C8_8 
REMARK    4  A    between atoms: C8_8  and  O10_9 
REMARK    5  A    between atoms: C8_8  and  C11_10 
REMARK    6  A    between atoms: C11_10  and  O12_11 
REMARK    7  A    between atoms: O12_11  and  C13_12 
REMARK    8  A    between atoms: C16_15  and  C17_16 
REMARK    9  A    between atoms: C17_16  and  O18_17 
REMARK   10  A    between atoms: O18_17  and  C19_18 
REMARK   11  A    between atoms: C19_18  and  C20_19 
REMARK   12  A    between atoms: C20_19  and  O21_20 
REMARK   13  A    between atoms: O21_20  and  C22_21 
ROOT
ATOM      1  C13 ZIN A   1      18.247   2.501  10.455  0.00  0.00     0.068 A 
ATOM      2  C14 ZIN A   1      17.487   1.443  10.934  0.00  0.00     0.037 A 
ATOM      3  C15 ZIN A   1      17.368   0.286  10.190  0.00  0.00     0.012 A 
ATOM      4  C16 ZIN A   1      18.006   0.181   8.967  0.00  0.00    -0.034 A 
ATOM      5  C25 ZIN A   1      18.764   1.232   8.487  0.00  0.00     0.012 A 
ATOM      6  C26 ZIN A   1      18.881   2.394   9.226  0.00  0.00     0.037 A 
ENDROOT
BRANCH   1   7
ATOM      7  O12 ZIN A   1      18.364   3.641  11.185  0.00  0.00    -0.349 OA
BRANCH   7   8
ATOM      8  C11 ZIN A   1      19.541   3.783  11.981  0.00  0.00     0.209 C 
BRANCH   8   9
ATOM      9  C8  ZIN A   1      19.155   4.271  13.379  0.00  0.00     0.168 C 
BRANCH   9  10
ATOM     10  C7  ZIN A   1      18.782   3.071  14.253  0.00  0.00     0.266 C 
BRANCH  10  11
ATOM     11  N4  ZIN A   1      19.609   1.916  13.876  0.00  0.00    -0.069 N 
ATOM     12  H5  ZIN A   1      20.566   2.085  14.148  0.00  0.00     0.277 HD
ATOM     13  H6  ZIN A   1      19.563   1.781  12.877  0.00  0.00     0.277 HD
BRANCH  11  14
ATOM     14  C2  ZIN A   1      19.111   0.714  14.557  0.00  0.00     0.178 C 
ATOM     15  C1  ZIN A   1      17.593   0.814  14.721  0.00  0.00     0.039 C 
ATOM     16  C3  ZIN A   1      19.454  -0.524  13.725  0.00  0.00     0.039 C 
ENDBRANCH  11  14
ENDBRANCH  10  11
ENDBRANCH   9  10
BRANCH   9  17
ATOM     17  O10 ZIN A   1      20.261   4.961  13.965  0.00  0.00    -0.392 OA
ATOM     18  H36 ZIN A   1      20.725   5.551  13.354  0.00  0.00     0.210 HD
ENDBRANCH   9  17
ENDBRANCH   8   9
ENDBRANCH   7   8
ENDBRANCH   1   7
BRANCH   4  19
ATOM     19  C17 ZIN A   1      17.875  -1.084   8.157  0.00  0.00     0.206 C 
BRANCH  19  20
ATOM     20  O18 ZIN A   1      18.740  -2.086   8.695  0.00  0.00    -0.385 OA
BRANCH  20  21
ATOM     21  C19 ZIN A   1      19.318  -2.944   7.709  0.00  0.00     0.194 C 
BRANCH  21  22
ATOM     22  C20 ZIN A   1      18.595  -2.746   6.375  0.00  0.00     0.194 C 
BRANCH  22  23
ATOM     23  O21 ZIN A   1      19.536  -2.338   5.379  0.00  0.00    -0.385 OA
BRANCH  23  24
ATOM     24  C22 ZIN A   1      19.034  -1.354   4.473  0.00  0.00     0.113 C 
ATOM     25  C23 ZIN A   1      17.511  -1.470   4.386  0.00  0.00     0.039 C 
ATOM     26  C24 ZIN A   1      19.411   0.041   4.976  0.00  0.00     0.039 C 
ENDBRANCH  23  24
ENDBRANCH  22  23
ENDBRANCH  21  22
ENDBRANCH  20  21
ENDBRANCH  19  20
ENDBRANCH   4  19
TORSDOF 13
ENDMDL
MODEL 7
REMARK VINA RESULT:      -6.0      2.065      2.834
REMARK  13 active torsions:
REMARK  status: ('A' for Active; 'I' for Inactive)
REMARK    1  A    between atoms: C2_2  and  N4_4 
REMARK    2  A    between atoms: N4_4  and  C7_7 
REMARK    3  A    between atoms: C7_7  and  C8_8 
REMARK    4  A    between atoms: C8_8  and  O10_9 
REMARK    5  A    between atoms: C8_8  and  C11_10 
REMARK    6  A    between atoms: C11_10  and  O12_11 
REMARK    7  A    between atoms: O12_11  and  C13_12 
REMARK    8  A    between atoms: C16_15  and  C17_16 
REMARK    9  A    between atoms: C17_16  and  O18_17 
REMARK   10  A    between atoms: O18_17  and  C19_18 
REMARK   11  A    between atoms: C19_18  and  C20_19 
REMARK   12  A    between atoms: C20_19  and  O21_20 
REMARK   13  A    between atoms: O21_20  and  C22_21 
ROOT
ATOM      1  C13 ZIN A   1      18.057   1.503  10.672  0.00  0.00     0.068 A 
ATOM      2  C14 ZIN A   1      18.913   2.363  10.001  0.00  0.00     0.037 A 
ATOM      3  C15 ZIN A   1      19.169   2.172   8.658  0.00  0.00     0.012 A 
ATOM      4  C16 ZIN A   1      18.572   1.124   7.981  0.00  0.00    -0.034 A 
ATOM      5  C25 ZIN A   1      17.718   0.265   8.647  0.00  0.00     0.012 A 
ATOM      6  C26 ZIN A   1      17.463   0.449   9.993  0.00  0.00     0.037 A 
ENDROOT
BRANCH   1   7
ATOM      7  O12 ZIN A   1      17.804   1.688  11.995  0.00  0.00    -0.349 OA
BRANCH   7   8
ATOM      8  C11 ZIN A   1      18.920   1.617  12.884  0.00  0.00     0.209 C 
BRANCH   8   9
ATOM      9  C8  ZIN A   1      18.443   1.848  14.320  0.00  0.00     0.168 C 
BRANCH   9  10
ATOM     10  C7  ZIN A   1      17.869   0.546  14.882  0.00  0.00     0.266 C 
BRANCH  10  11
ATOM     11  N4  ZIN A   1      17.384   0.775  16.250  0.00  0.00    -0.069 N 
ATOM     12  H5  ZIN A   1      16.376   0.832  16.244  0.00  0.00     0.277 HD
ATOM     13  H6  ZIN A   1      17.767   1.639  16.602  0.00  0.00     0.277 HD
BRANCH  11  14
ATOM     14  C2  ZIN A   1      17.807  -0.337  17.112  0.00  0.00     0.178 C 
ATOM     15  C1  ZIN A   1      18.166  -1.545  16.245  0.00  0.00     0.039 C 
ATOM     16  C3  ZIN A   1      19.029   0.087  17.929  0.00  0.00     0.039 C 
ENDBRANCH  11  14
ENDBRANCH  10  11
ENDBRANCH   9  10
BRANCH   9  17
ATOM     17  O10 ZIN A   1      19.546   2.270  15.125  0.00  0.00    -0.392 OA
ATOM     18  H36 ZIN A   1      19.432   3.145  15.522  0.00  0.00     0.210 HD
ENDBRANCH   9  17
ENDBRANCH   8   9
ENDBRANCH   7   8
ENDBRANCH   1   7
BRANCH   4  19
ATOM     19  C17 ZIN A   1      18.853   0.918   6.515  0.00  0.00     0.206 C 
BRANCH  19  20
ATOM     20  O18 ZIN A   1      17.678   0.421   5.870  0.00  0.00    -0.385 OA
BRANCH  20  21
ATOM     21  C19 ZIN A   1      17.942  -0.534   4.840  0.00  0.00     0.194 C 
BRANCH  21  22
ATOM     22  C20 ZIN A   1      19.445  -0.811   4.774  0.00  0.00     0.194 C 
BRANCH  22  23
ATOM     23  O21 ZIN A   1      19.681  -2.208   4.961  0.00  0.00    -0.385 OA
BRANCH  23  24
ATOM     24  C22 ZIN A   1      18.805  -2.825   5.906  0.00  0.00     0.113 C 
ATOM     25  C23 ZIN A   1      18.559  -4.278   5.501  0.00  0.00     0.039 C 
ATOM     26  C24 ZIN A   1      19.445  -2.785   7.296  0.00  0.00     0.039 C 
ENDBRANCH  23  24
ENDBRANCH  22  23
ENDBRANCH  21  22
ENDBRANCH  20  21
ENDBRANCH  19  20
ENDBRANCH   4  19
TORSDOF 13
ENDMDL
MODEL 8
REMARK VINA RESULT:      -5.8      2.168      6.524
REMARK  13 active torsions:
REMARK  status: ('A' for Active; 'I' for Inactive)
REMARK    1  A    between atoms: C2_2  and  N4_4 
REMARK    2  A    between atoms: N4_4  and  C7_7 
REMARK    3  A    between atoms: C7_7  and  C8_8 
REMARK    4  A    between atoms: C8_8  and  O10_9 
REMARK    5  A    between atoms: C8_8  and  C11_10 
REMARK    6  A    between atoms: C11_10  and  O12_11 
REMARK    7  A    between atoms: O12_11  and  C13_12 
REMARK    8  A    between atoms: C16_15  and  C17_16 
REMARK    9  A    between atoms: C17_16  and  O18_17 
REMARK   10  A    between atoms: O18_17  and  C19_18 
REMARK   11  A    between atoms: C19_18  and  C20_19 
REMARK   12  A    between atoms: C20_19  and  O21_20 
REMARK   13  A    between atoms: O21_20  and  C22_21 
ROOT
ATOM      1  C13 ZIN A   1      19.100   1.663   9.729  0.00  0.00     0.068 A 
ATOM      2  C14 ZIN A   1      19.614   1.135  10.904  0.00  0.00     0.037 A 
ATOM      3  C15 ZIN A   1      19.577   1.877  12.068  0.00  0.00     0.012 A 
ATOM      4  C16 ZIN A   1      19.028   3.147  12.062  0.00  0.00    -0.034 A 
ATOM      5  C25 ZIN A   1      18.515   3.676  10.893  0.00  0.00     0.012 A 
ATOM      6  C26 ZIN A   1      18.555   2.938   9.724  0.00  0.00     0.037 A 
ENDROOT
BRANCH   1   7
ATOM      7  O12 ZIN A   1      19.137   0.934   8.582  0.00  0.00    -0.349 OA
BRANCH   7   8
ATOM      8  C11 ZIN A   1      17.961   0.196   8.245  0.00  0.00     0.209 C 
BRANCH   8   9
ATOM      9  C8  ZIN A   1      18.359  -1.185   7.719  0.00  0.00     0.168 C 
BRANCH   9  10
ATOM     10  C7  ZIN A   1      18.280  -2.205   8.857  0.00  0.00     0.266 C 
BRANCH  10  11
ATOM     11  N4  ZIN A   1      19.560  -2.234   9.578  0.00  0.00    -0.069 N 
ATOM     12  H5  ZIN A   1      20.047  -1.362   9.432  0.00  0.00     0.277 HD
ATOM     13  H6  ZIN A   1      20.123  -2.996   9.233  0.00  0.00     0.277 HD
BRANCH  11  14
ATOM     14  C2  ZIN A   1      19.309  -2.420  11.013  0.00  0.00     0.178 C 
ATOM     15  C1  ZIN A   1      17.800  -2.474  11.264  0.00  0.00     0.039 C 
ATOM     16  C3  ZIN A   1      19.951  -3.729  11.478  0.00  0.00     0.039 C 
ENDBRANCH  11  14
ENDBRANCH  10  11
ENDBRANCH   9  10
BRANCH   9  17
ATOM     17  O10 ZIN A   1      17.467  -1.570   6.671  0.00  0.00    -0.392 OA
ATOM     18  H36 ZIN A   1      17.859  -2.171   6.021  0.00  0.00     0.210 HD
ENDBRANCH   9  17
ENDBRANCH   8   9
ENDBRANCH   7   8
ENDBRANCH   1   7
BRANCH   4  19
ATOM     19  C17 ZIN A   1      18.988   3.955  13.334  0.00  0.00     0.206 C 
BRANCH  19  20
ATOM     20  O18 ZIN A   1      18.128   3.315  14.279  0.00  0.00    -0.385 OA
BRANCH  20  21
ATOM     21  C19 ZIN A   1      18.757   3.017  15.527  0.00  0.00     0.194 C 
BRANCH  21  22
ATOM     22  C20 ZIN A   1      18.935   1.503  15.659  0.00  0.00     0.194 C 
BRANCH  22  23
ATOM     23  O21 ZIN A   1      17.849   0.836  15.011  0.00  0.00    -0.385 OA
BRANCH  23  24
ATOM     24  C22 ZIN A   1      17.952  -0.588  15.023  0.00  0.00     0.113 C 
ATOM     25  C23 ZIN A   1      19.337  -1.004  14.526  0.00  0.00     0.039 C 
ATOM     26  C24 ZIN A   1      17.745  -1.103  16.449  0.00  0.00     0.039 C 
ENDBRANCH  23  24
ENDBRANCH  22  23
ENDBRANCH  21  22
ENDBRANCH  20  21
ENDBRANCH  19  20
ENDBRANCH   4  19
TORSDOF 13
ENDMDL
MODEL 9
REMARK VINA RESULT:      -5.8      1.886      6.237
REMARK  13 active torsions:
REMARK  status: ('A' for Active; 'I' for Inactive)
REMARK    1  A    between atoms: C2_2  and  N4_4 
REMARK    2  A    between atoms: N4_4  and  C7_7 
REMARK    3  A    between atoms: C7_7  and  C8_8 
REMARK    4  A    between atoms: C8_8  and  O10_9 
REMARK    5  A    between atoms: C8_8  and  C11_10 
REMARK    6  A    between atoms: C11_10  and  O12_11 
REMARK    7  A    between atoms: O12_11  and  C13_12 
REMARK    8  A    between atoms: C16_15  and  C17_16 
REMARK    9  A    between atoms: C17_16  and  O18_17 
REMARK   10  A    between atoms: O18_17  and  C19_18 
REMARK   11  A    between atoms: C19_18  and  C20_19 
REMARK   12  A    between atoms: C20_19  and  O21_20 
REMARK   13  A    between atoms: O21_20  and  C22_21 
ROOT
ATOM      1  C13 ZIN A   1      18.093  -0.089   8.063  0.00  0.00     0.068 A 
ATOM      2  C14 ZIN A   1      18.974   0.909   7.673  0.00  0.00     0.037 A 
ATOM      3  C15 ZIN A   1      19.177   2.006   8.488  0.00  0.00     0.012 A 
ATOM      4  C16 ZIN A   1      18.503   2.109   9.691  0.00  0.00    -0.034 A 
ATOM      5  C25 ZIN A   1      17.624   1.116  10.082  0.00  0.00     0.012 A 
ATOM      6  C26 ZIN A   1      17.414   0.020   9.267  0.00  0.00     0.037 A 
ENDROOT
BRANCH   1   7
ATOM      7  O12 ZIN A   1      17.890  -1.169   7.262  0.00  0.00    -0.349 OA
BRANCH   7   8
ATOM      8  C11 ZIN A   1      19.048  -1.779   6.690  0.00  0.00     0.209 C 
BRANCH   8   9
ATOM      9  C8  ZIN A   1      18.822  -3.287   6.568  0.00  0.00     0.168 C 
BRANCH   9  10
ATOM     10  C7  ZIN A   1      18.654  -3.892   7.964  0.00  0.00     0.266 C 
BRANCH  10  11
ATOM     11  N4  ZIN A   1      19.597  -3.252   8.891  0.00  0.00    -0.069 N 
ATOM     12  H5  ZIN A   1      19.770  -2.303   8.592  0.00  0.00     0.277 HD
ATOM     13  H6  ZIN A   1      20.465  -3.766   8.896  0.00  0.00     0.277 HD
BRANCH  11  14
ATOM     14  C2  ZIN A   1      19.025  -3.243  10.243  0.00  0.00     0.178 C 
ATOM     15  C1  ZIN A   1      19.239  -4.610  10.896  0.00  0.00     0.039 C 
ATOM     16  C3  ZIN A   1      19.712  -2.163  11.082  0.00  0.00     0.039 C 
ENDBRANCH  11  14
ENDBRANCH  10  11
ENDBRANCH   9  10
BRANCH   9  17
ATOM     17  O10 ZIN A   1      17.642  -3.530   5.798  0.00  0.00    -0.392 OA
ATOM     18  H36 ZIN A   1      17.787  -4.089   5.022  0.00  0.00     0.210 HD
ENDBRANCH   9  17
ENDBRANCH   8   9
ENDBRANCH   7   8
ENDBRANCH   1   7
BRANCH   4  19
ATOM     19  C17 ZIN A   1      18.728   3.307  10.578  0.00  0.00     0.206 C 
BRANCH  19  20
ATOM     20  O18 ZIN A   1      17.467   3.846  10.978  0.00  0.00    -0.385 OA
BRANCH  20  21
ATOM     21  C19 ZIN A   1      17.354   4.078  12.384  0.00  0.00     0.194 C 
BRANCH  21  22
ATOM     22  C20 ZIN A   1      18.654   3.661  13.075  0.00  0.00     0.194 C 
BRANCH  22  23
ATOM     23  O21 ZIN A   1      18.356   2.776  14.157  0.00  0.00    -0.385 OA
BRANCH  23  24
ATOM     24  C22 ZIN A   1      18.188   1.412  13.764  0.00  0.00     0.113 C 
ATOM     25  C23 ZIN A   1      19.545   0.824  13.374  0.00  0.00     0.039 C 
ATOM     26  C24 ZIN A   1      17.602   0.614  14.930  0.00  0.00     0.039 C 
ENDBRANCH  23  24
ENDBRANCH  22  23
ENDBRANCH  21  22
ENDBRANCH  20  21
ENDBRANCH  19  20
ENDBRANCH   4  19
TORSDOF 13
ENDMDL
