MODEL 1
REMARK VINA RESULT:      -7.8      0.000      0.000
REMARK  9 active torsions:
REMARK  status: ('A' for Active; 'I' for Inactive)
REMARK    1  A    between atoms: O2_2  and  C3_3 
REMARK    2  A    between atoms: C4_4  and  C5_5 
REMARK    3  A    between atoms: C5_5  and  C7_6 
REMARK    4  A    between atoms: C5_5  and  C13_12 
REMARK    5  A    between atoms: C13_12  and  O14_13 
REMARK    6  A    between atoms: C13_12  and  C15_14 
REMARK    7  A    between atoms: C13_12  and  C21_20 
REMARK    8  A    between atoms: C15_14  and  C16_15 
REMARK    9  A    between atoms: C16_15  and  N17_16 
ROOT
ATOM      1  C5  ZIN A   1      19.051  -3.095   7.762  0.00  0.00     0.095 C 
ENDROOT
BRANCH   1   2
ATOM      2  C4  ZIN A   1      18.652  -4.172   6.785  0.00  0.00     0.007 A 
ATOM      3  C3  ZIN A   1      19.248  -5.437   6.854  0.00  0.00     0.171 A 
ATOM      4  N39 ZIN A   1      18.927  -6.397   6.013  0.00  0.00    -0.224 NA
ATOM      5  C38 ZIN A   1      18.006  -6.206   5.062  0.00  0.00     0.070 A 
ATOM      6  C32 ZIN A   1      17.367  -4.949   4.939  0.00  0.00    -0.005 A 
ATOM      7  C37 ZIN A   1      17.665  -7.238   4.170  0.00  0.00     0.034 A 
ATOM      8  C31 ZIN A   1      17.711  -3.916   5.832  0.00  0.00     0.026 A 
ATOM      9  C33 ZIN A   1      16.407  -4.754   3.934  0.00  0.00     0.032 A 
ATOM     10  C34 ZIN A   1      16.100  -5.777   3.087  0.00  0.00     0.011 A 
ATOM     11 Br35 ZIN A   1      14.806  -5.514   1.734  0.00  0.00    -0.051 Br
ATOM     12  C36 ZIN A   1      16.729  -7.015   3.206  0.00  0.00     0.021 A 
BRANCH   3  13
ATOM     13  O2  ZIN A   1      20.182  -5.676   7.806  0.00  0.00    -0.339 OA
ATOM     14  C1  ZIN A   1      21.552  -5.535   7.422  0.00  0.00     0.211 C 
ENDBRANCH   3  13
ENDBRANCH   1   2
BRANCH   1  15
ATOM     15  C7  ZIN A   1      19.138  -1.773   7.044  0.00  0.00    -0.046 A 
ATOM     16  C12 ZIN A   1      19.253  -1.741   5.666  0.00  0.00     0.008 A 
ATOM     17  C11 ZIN A   1      19.328  -0.527   5.008  0.00  0.00     0.001 A 
ATOM     18  C10 ZIN A   1      19.295   0.653   5.727  0.00  0.00     0.000 A 
ATOM     19  C9  ZIN A   1      19.185   0.620   7.104  0.00  0.00     0.001 A 
ATOM     20  C8  ZIN A   1      19.106  -0.593   7.763  0.00  0.00     0.008 A 
ENDBRANCH   1  15
BRANCH   1  21
ATOM     21  C13 ZIN A   1      18.005  -3.004   8.875  0.00  0.00     0.099 C 
BRANCH  21  22
ATOM     22  O14 ZIN A   1      17.139  -1.895   8.625  0.00  0.00    -0.384 OA
ATOM     23  H48 ZIN A   1      16.306  -1.928   9.115  0.00  0.00     0.211 HD
ENDBRANCH  21  22
BRANCH  21  24
ATOM     24  C15 ZIN A   1      17.183  -4.295   8.909  0.00  0.00     0.071 C 
BRANCH  24  25
ATOM     25  C16 ZIN A   1      16.529  -4.445  10.284  0.00  0.00     0.237 C 
BRANCH  25  26
ATOM     26  N17 ZIN A   1      16.703  -5.824  10.761  0.00  0.00    -0.079 N 
ATOM     27  H18 ZIN A   1      15.799  -6.242  10.919  0.00  0.00     0.278 HD
ATOM     28  C19 ZIN A   1      17.434  -6.603   9.754  0.00  0.00     0.269 C 
ATOM     29  C20 ZIN A   1      17.464  -5.813  12.019  0.00  0.00     0.269 C 
ENDBRANCH  25  26
ENDBRANCH  24  25
ENDBRANCH  21  24
BRANCH  21  30
ATOM     30  C21 ZIN A   1      18.697  -2.814  10.200  0.00  0.00    -0.012 A 
ATOM     31  C30 ZIN A   1      19.742  -3.615  10.547  0.00  0.00     0.011 A 
ATOM     32  C29 ZIN A   1      20.398  -3.450  11.765  0.00  0.00     0.002 A 
ATOM     33  C28 ZIN A   1      20.007  -2.490  12.647  0.00  0.00     0.012 A 
ATOM     34  C27 ZIN A   1      18.928  -1.649  12.327  0.00  0.00    -0.025 A 
ATOM     35  C22 ZIN A   1      18.264  -1.813  11.086  0.00  0.00    -0.017 A 
ATOM     36  C26 ZIN A   1      18.495  -0.647  13.212  0.00  0.00     0.012 A 
ATOM     37  C23 ZIN A   1      17.185  -0.971  10.765  0.00  0.00     0.013 A 
ATOM     38  C24 ZIN A   1      16.794  -0.013  11.648  0.00  0.00     0.001 A 
ATOM     39  C25 ZIN A   1      17.447   0.149  12.869  0.00  0.00     0.001 A 
ENDBRANCH  21  30
ENDBRANCH   1  21
TORSDOF 9
ENDMDL
MODEL 2
REMARK VINA RESULT:      -7.8      3.686      8.786
REMARK  9 active torsions:
REMARK  status: ('A' for Active; 'I' for Inactive)
REMARK    1  A    between atoms: O2_2  and  C3_3 
REMARK    2  A    between atoms: C4_4  and  C5_5 
REMARK    3  A    between atoms: C5_5  and  C7_6 
REMARK    4  A    between atoms: C5_5  and  C13_12 
REMARK    5  A    between atoms: C13_12  and  O14_13 
REMARK    6  A    between atoms: C13_12  and  C15_14 
REMARK    7  A    between atoms: C13_12  and  C21_20 
REMARK    8  A    between atoms: C15_14  and  C16_15 
REMARK    9  A    between atoms: C16_15  and  N17_16 
ROOT
ATOM      1  C5  ZIN A   1      15.510  -7.476   6.295  0.00  0.00     0.095 C 
ENDROOT
BRANCH   1   2
ATOM      2  C4  ZIN A   1      16.558  -6.927   7.229  0.00  0.00     0.007 A 
ATOM      3  C3  ZIN A   1      17.800  -7.563   7.340  0.00  0.00     0.171 A 
ATOM      4  N39 ZIN A   1      18.735  -7.113   8.150  0.00  0.00    -0.224 NA
ATOM      5  C38 ZIN A   1      18.540  -6.019   8.894  0.00  0.00     0.070 A 
ATOM      6  C32 ZIN A   1      17.304  -5.330   8.828  0.00  0.00    -0.005 A 
ATOM      7  C37 ZIN A   1      19.544  -5.542   9.754  0.00  0.00     0.034 A 
ATOM      8  C31 ZIN A   1      16.298  -5.811   7.967  0.00  0.00     0.026 A 
ATOM      9  C33 ZIN A   1      17.104  -4.187   9.617  0.00  0.00     0.032 A 
ATOM     10  C34 ZIN A   1      18.101  -3.752  10.439  0.00  0.00     0.011 A 
ATOM     11 Br35 ZIN A   1      17.831  -2.212  11.501  0.00  0.00    -0.051 Br
ATOM     12  C36 ZIN A   1      19.317  -4.429  10.506  0.00  0.00     0.021 A 
BRANCH   3  13
ATOM     13  O2  ZIN A   1      18.044  -8.672   6.600  0.00  0.00    -0.339 OA
ATOM     14  C1  ZIN A   1      17.682  -9.929   7.176  0.00  0.00     0.211 C 
ENDBRANCH   3  13
ENDBRANCH   1   2
BRANCH   1  15
ATOM     15  C7  ZIN A   1      14.184  -7.537   7.009  0.00  0.00    -0.046 A 
ATOM     16  C12 ZIN A   1      13.574  -8.759   7.231  0.00  0.00     0.008 A 
ATOM     17  C11 ZIN A   1      12.360  -8.814   7.890  0.00  0.00     0.001 A 
ATOM     18  C10 ZIN A   1      11.752  -7.650   8.320  0.00  0.00     0.000 A 
ATOM     19  C9  ZIN A   1      12.359  -6.429   8.093  0.00  0.00     0.001 A 
ATOM     20  C8  ZIN A   1      13.576  -6.373   7.437  0.00  0.00     0.008 A 
ENDBRANCH   1  15
BRANCH   1  21
ATOM     21  C13 ZIN A   1      15.389  -6.564   5.072  0.00  0.00     0.099 C 
BRANCH  21  22
ATOM     22  O14 ZIN A   1      14.691  -5.371   5.434  0.00  0.00    -0.384 OA
ATOM     23  H48 ZIN A   1      14.246  -5.421   6.292  0.00  0.00     0.211 HD
ENDBRANCH  21  22
BRANCH  21  24
ATOM     24  C15 ZIN A   1      16.787  -6.204   4.565  0.00  0.00     0.071 C 
BRANCH  24  25
ATOM     25  C16 ZIN A   1      16.764  -4.796   3.966  0.00  0.00     0.237 C 
BRANCH  25  26
ATOM     26  N17 ZIN A   1      17.274  -3.835   4.953  0.00  0.00    -0.079 N 
ATOM     27  H18 ZIN A   1      16.627  -3.770   5.725  0.00  0.00     0.278 HD
ATOM     28  C19 ZIN A   1      18.581  -4.286   5.447  0.00  0.00     0.269 C 
ATOM     29  C20 ZIN A   1      17.418  -2.515   4.322  0.00  0.00     0.269 C 
ENDBRANCH  25  26
ENDBRANCH  24  25
ENDBRANCH  21  24
BRANCH  21  30
ATOM     30  C21 ZIN A   1      14.630  -7.281   3.985  0.00  0.00    -0.012 A 
ATOM     31  C30 ZIN A   1      13.396  -6.843   3.610  0.00  0.00     0.011 A 
ATOM     32  C29 ZIN A   1      12.682  -7.490   2.603  0.00  0.00     0.002 A 
ATOM     33  C28 ZIN A   1      13.192  -8.583   1.973  0.00  0.00     0.012 A 
ATOM     34  C27 ZIN A   1      14.460  -9.068   2.337  0.00  0.00    -0.025 A 
ATOM     35  C22 ZIN A   1      15.188  -8.407   3.358  0.00  0.00    -0.017 A 
ATOM     36  C26 ZIN A   1      15.019 -10.193   1.710  0.00  0.00     0.012 A 
ATOM     37  C23 ZIN A   1      16.457  -8.891   3.722  0.00  0.00     0.013 A 
ATOM     38  C24 ZIN A   1      16.966  -9.985   3.093  0.00  0.00     0.001 A 
ATOM     39  C25 ZIN A   1      16.249 -10.635   2.089  0.00  0.00     0.001 A 
ENDBRANCH  21  30
ENDBRANCH   1  21
TORSDOF 9
ENDMDL
MODEL 3
REMARK VINA RESULT:      -7.2      6.634     11.556
REMARK  9 active torsions:
REMARK  status: ('A' for Active; 'I' for Inactive)
REMARK    1  A    between atoms: O2_2  and  C3_3 
REMARK    2  A    between atoms: C4_4  and  C5_5 
REMARK    3  A    between atoms: C5_5  and  C7_6 
REMARK    4  A    between atoms: C5_5  and  C13_12 
REMARK    5  A    between atoms: C13_12  and  O14_13 
REMARK    6  A    between atoms: C13_12  and  C15_14 
REMARK    7  A    between atoms: C13_12  and  C21_20 
REMARK    8  A    between atoms: C15_14  and  C16_15 
REMARK    9  A    between atoms: C16_15  and  N17_16 
ROOT
ATOM      1  C5  ZIN A   1      19.075   3.339  14.645  0.00  0.00     0.095 C 
ENDROOT
BRANCH   1   2
ATOM      2  C4  ZIN A   1      18.524   4.736  14.777  0.00  0.00     0.007 A 
ATOM      3  C3  ZIN A   1      19.377   5.840  14.656  0.00  0.00     0.171 A 
ATOM      4  N39 ZIN A   1      18.930   7.072  14.772  0.00  0.00    -0.224 NA
ATOM      5  C38 ZIN A   1      17.636   7.321  15.002  0.00  0.00     0.070 A 
ATOM      6  C32 ZIN A   1      16.722   6.248  15.136  0.00  0.00    -0.005 A 
ATOM      7  C37 ZIN A   1      17.164   8.640  15.121  0.00  0.00     0.034 A 
ATOM      8  C31 ZIN A   1      17.196   4.927  15.018  0.00  0.00     0.026 A 
ATOM      9  C33 ZIN A   1      15.367   6.516  15.383  0.00  0.00     0.032 A 
ATOM     10  C34 ZIN A   1      14.945   7.808  15.492  0.00  0.00     0.011 A 
ATOM     11 Br35 ZIN A   1      13.120   8.170  15.824  0.00  0.00    -0.051 Br
ATOM     12  C36 ZIN A   1      15.843   8.866  15.361  0.00  0.00     0.021 A 
BRANCH   3  13
ATOM     13  O2  ZIN A   1      20.695   5.634  14.418  0.00  0.00    -0.339 OA
ATOM     14  C1  ZIN A   1      21.597   5.884  15.498  0.00  0.00     0.211 C 
ENDBRANCH   3  13
ENDBRANCH   1   2
BRANCH   1  15
ATOM     15  C7  ZIN A   1      19.066   2.665  15.993  0.00  0.00    -0.046 A 
ATOM     16  C12 ZIN A   1      19.013   3.427  17.146  0.00  0.00     0.008 A 
ATOM     17  C11 ZIN A   1      19.000   2.808  18.382  0.00  0.00     0.001 A 
ATOM     18  C10 ZIN A   1      19.049   1.430  18.466  0.00  0.00     0.000 A 
ATOM     19  C9  ZIN A   1      19.108   0.669  17.313  0.00  0.00     0.001 A 
ATOM     20  C8  ZIN A   1      19.117   1.287  16.076  0.00  0.00     0.008 A 
ENDBRANCH   1  15
BRANCH   1  21
ATOM     21  C13 ZIN A   1      18.208   2.540  13.669  0.00  0.00     0.099 C 
BRANCH  21  22
ATOM     22  O14 ZIN A   1      17.201   1.833  14.397  0.00  0.00    -0.384 OA
ATOM     23  H48 ZIN A   1      16.865   2.310  15.168  0.00  0.00     0.211 HD
ENDBRANCH  21  22
BRANCH  21  24
ATOM     24  C15 ZIN A   1      17.543   3.497  12.677  0.00  0.00     0.071 C 
BRANCH  24  25
ATOM     25  C16 ZIN A   1      18.533   3.844  11.564  0.00  0.00     0.237 C 
BRANCH  25  26
ATOM     26  N17 ZIN A   1      17.886   3.658  10.257  0.00  0.00    -0.079 N 
ATOM     27  H18 ZIN A   1      16.979   3.236  10.388  0.00  0.00     0.278 HD
ATOM     28  C19 ZIN A   1      17.730   4.960   9.598  0.00  0.00     0.269 C 
ATOM     29  C20 ZIN A   1      18.718   2.781   9.420  0.00  0.00     0.269 C 
ENDBRANCH  25  26
ENDBRANCH  24  25
ENDBRANCH  21  24
BRANCH  21  30
ATOM     30  C21 ZIN A   1      19.070   1.558  12.919  0.00  0.00    -0.012 A 
ATOM     31  C30 ZIN A   1      20.411   1.770  12.808  0.00  0.00     0.011 A 
ATOM     32  C29 ZIN A   1      21.225   0.870  12.123  0.00  0.00     0.002 A 
ATOM     33  C28 ZIN A   1      20.702  -0.242  11.538  0.00  0.00     0.012 A 
ATOM     34  C27 ZIN A   1      19.322  -0.491  11.625  0.00  0.00    -0.025 A 
ATOM     35  C22 ZIN A   1      18.495   0.422  12.327  0.00  0.00    -0.017 A 
ATOM     36  C26 ZIN A   1      18.747  -1.628  11.034  0.00  0.00     0.012 A 
ATOM     37  C23 ZIN A   1      17.114   0.172  12.415  0.00  0.00     0.013 A 
ATOM     38  C24 ZIN A   1      16.592  -0.939  11.828  0.00  0.00     0.001 A 
ATOM     39  C25 ZIN A   1      17.406  -1.837  11.139  0.00  0.00     0.001 A 
ENDBRANCH  21  30
ENDBRANCH   1  21
TORSDOF 9
ENDMDL
MODEL 4
REMARK VINA RESULT:      -7.1      6.156     11.115
REMARK  9 active torsions:
REMARK  status: ('A' for Active; 'I' for Inactive)
REMARK    1  A    between atoms: O2_2  and  C3_3 
REMARK    2  A    between atoms: C4_4  and  C5_5 
REMARK    3  A    between atoms: C5_5  and  C7_6 
REMARK    4  A    between atoms: C5_5  and  C13_12 
REMARK    5  A    between atoms: C13_12  and  O14_13 
REMARK    6  A    between atoms: C13_12  and  C15_14 
REMARK    7  A    between atoms: C13_12  and  C21_20 
REMARK    8  A    between atoms: C15_14  and  C16_15 
REMARK    9  A    between atoms: C16_15  and  N17_16 
ROOT
ATOM      1  C5  ZIN A   1      19.033   1.712  14.896  0.00  0.00     0.095 C 
ENDROOT
BRANCH   1   2
ATOM      2  C4  ZIN A   1      18.581   2.933  15.656  0.00  0.00     0.007 A 
ATOM      3  C3  ZIN A   1      19.045   3.160  16.958  0.00  0.00     0.171 A 
ATOM      4  N39 ZIN A   1      18.665   4.212  17.651  0.00  0.00    -0.224 NA
ATOM      5  C38 ZIN A   1      17.826   5.116  17.135  0.00  0.00     0.070 A 
ATOM      6  C32 ZIN A   1      17.320   4.944  15.824  0.00  0.00    -0.005 A 
ATOM      7  C37 ZIN A   1      17.428   6.240  17.880  0.00  0.00     0.034 A 
ATOM      8  C31 ZIN A   1      17.718   3.817  15.079  0.00  0.00     0.026 A 
ATOM      9  C33 ZIN A   1      16.435   5.894  15.291  0.00  0.00     0.032 A 
ATOM     10  C34 ZIN A   1      16.071   6.972  16.042  0.00  0.00     0.011 A 
ATOM     11 Br35 ZIN A   1      14.879   8.251  15.324  0.00  0.00    -0.051 Br
ATOM     12  C36 ZIN A   1      16.568   7.143  17.333  0.00  0.00     0.021 A 
BRANCH   3  13
ATOM     13  O2  ZIN A   1      19.901   2.271  17.518  0.00  0.00    -0.339 OA
ATOM     14  C1  ZIN A   1      19.430   1.544  18.655  0.00  0.00     0.211 C 
ENDBRANCH   3  13
ENDBRANCH   1   2
BRANCH   1  15
ATOM     15  C7  ZIN A   1      18.506   0.474  15.575  0.00  0.00    -0.046 A 
ATOM     16  C12 ZIN A   1      17.239   0.475  16.127  0.00  0.00     0.008 A 
ATOM     17  C11 ZIN A   1      16.754  -0.663  16.745  0.00  0.00     0.001 A 
ATOM     18  C10 ZIN A   1      17.539  -1.797  16.819  0.00  0.00     0.000 A 
ATOM     19  C9  ZIN A   1      18.808  -1.796  16.271  0.00  0.00     0.001 A 
ATOM     20  C8  ZIN A   1      19.292  -0.660  15.649  0.00  0.00     0.008 A 
ENDBRANCH   1  15
BRANCH   1  21
ATOM     21  C13 ZIN A   1      18.497   1.777  13.464  0.00  0.00     0.099 C 
BRANCH  21  22
ATOM     22  O14 ZIN A   1      17.125   1.377  13.451  0.00  0.00    -0.384 OA
ATOM     23  H48 ZIN A   1      16.789   1.151  12.572  0.00  0.00     0.211 HD
ENDBRANCH  21  22
BRANCH  21  24
ATOM     24  C15 ZIN A   1      18.616   3.209  12.939  0.00  0.00     0.071 C 
BRANCH  24  25
ATOM     25  C16 ZIN A   1      17.636   3.410  11.782  0.00  0.00     0.237 C 
BRANCH  25  26
ATOM     26  N17 ZIN A   1      18.356   3.941  10.616  0.00  0.00    -0.079 N 
ATOM     27  H18 ZIN A   1      19.255   4.295  10.908  0.00  0.00     0.278 HD
ATOM     28  C19 ZIN A   1      18.549   2.871   9.630  0.00  0.00     0.269 C 
ATOM     29  C20 ZIN A   1      17.575   5.029  10.012  0.00  0.00     0.269 C 
ENDBRANCH  25  26
ENDBRANCH  24  25
ENDBRANCH  21  24
BRANCH  21  30
ATOM     30  C21 ZIN A   1      19.299   0.851  12.586  0.00  0.00    -0.012 A 
ATOM     31  C30 ZIN A   1      20.574   1.175  12.235  0.00  0.00     0.011 A 
ATOM     32  C29 ZIN A   1      21.333   0.329  11.428  0.00  0.00     0.002 A 
ATOM     33  C28 ZIN A   1      20.818  -0.840  10.960  0.00  0.00     0.012 A 
ATOM     34  C27 ZIN A   1      19.503  -1.206  11.295  0.00  0.00    -0.025 A 
ATOM     35  C22 ZIN A   1      18.733  -0.347  12.120  0.00  0.00    -0.017 A 
ATOM     36  C26 ZIN A   1      18.937  -2.404  10.831  0.00  0.00     0.012 A 
ATOM     37  C23 ZIN A   1      17.418  -0.713  12.457  0.00  0.00     0.013 A 
ATOM     38  C24 ZIN A   1      16.903  -1.881  11.987  0.00  0.00     0.001 A 
ATOM     39  C25 ZIN A   1      17.660  -2.726  11.176  0.00  0.00     0.001 A 
ENDBRANCH  21  30
ENDBRANCH   1  21
TORSDOF 9
ENDMDL
MODEL 5
REMARK VINA RESULT:      -7.0      7.661     11.237
REMARK  9 active torsions:
REMARK  status: ('A' for Active; 'I' for Inactive)
REMARK    1  A    between atoms: O2_2  and  C3_3 
REMARK    2  A    between atoms: C4_4  and  C5_5 
REMARK    3  A    between atoms: C5_5  and  C7_6 
REMARK    4  A    between atoms: C5_5  and  C13_12 
REMARK    5  A    between atoms: C13_12  and  O14_13 
REMARK    6  A    between atoms: C13_12  and  C15_14 
REMARK    7  A    between atoms: C13_12  and  C21_20 
REMARK    8  A    between atoms: C15_14  and  C16_15 
REMARK    9  A    between atoms: C16_15  and  N17_16 
ROOT
ATOM      1  C5  ZIN A   1      17.759   2.883  15.751  0.00  0.00     0.095 C 
ENDROOT
BRANCH   1   2
ATOM      2  C4  ZIN A   1      17.700   3.310  14.306  0.00  0.00     0.007 A 
ATOM      3  C3  ZIN A   1      17.035   4.490  13.952  0.00  0.00     0.171 A 
ATOM      4  N39 ZIN A   1      16.960   4.889  12.700  0.00  0.00    -0.224 NA
ATOM      5  C38 ZIN A   1      17.526   4.187  11.713  0.00  0.00     0.070 A 
ATOM      6  C32 ZIN A   1      18.212   2.983  12.005  0.00  0.00    -0.005 A 
ATOM      7  C37 ZIN A   1      17.444   4.621  10.378  0.00  0.00     0.034 A 
ATOM      8  C31 ZIN A   1      18.291   2.548  13.343  0.00  0.00     0.026 A 
ATOM      9  C33 ZIN A   1      18.798   2.247  10.964  0.00  0.00     0.032 A 
ATOM     10  C34 ZIN A   1      18.700   2.699   9.682  0.00  0.00     0.011 A 
ATOM     11 Br35 ZIN A   1      19.489   1.708   8.279  0.00  0.00    -0.051 Br
ATOM     12  C36 ZIN A   1      18.024   3.883   9.391  0.00  0.00     0.021 A 
BRANCH   3  13
ATOM     13  O2  ZIN A   1      16.452   5.237  14.921  0.00  0.00    -0.339 OA
ATOM     14  C1  ZIN A   1      15.294   5.990  14.551  0.00  0.00     0.211 C 
ENDBRANCH   3  13
ENDBRANCH   1   2
BRANCH   1  15
ATOM     15  C7  ZIN A   1      18.062   1.408  15.826  0.00  0.00    -0.046 A 
ATOM     16  C12 ZIN A   1      17.247   0.572  16.567  0.00  0.00     0.008 A 
ATOM     17  C11 ZIN A   1      17.522  -0.781  16.631  0.00  0.00     0.001 A 
ATOM     18  C10 ZIN A   1      18.616  -1.297  15.962  0.00  0.00     0.000 A 
ATOM     19  C9  ZIN A   1      19.434  -0.460  15.227  0.00  0.00     0.001 A 
ATOM     20  C8  ZIN A   1      19.156   0.893  15.158  0.00  0.00     0.008 A 
ENDBRANCH   1  15
BRANCH   1  21
ATOM     21  C13 ZIN A   1      18.860   3.667  16.469  0.00  0.00     0.099 C 
BRANCH  21  22
ATOM     22  O14 ZIN A   1      19.588   2.787  17.328  0.00  0.00    -0.384 OA
ATOM     23  H48 ZIN A   1      19.102   2.519  18.120  0.00  0.00     0.211 HD
ENDBRANCH  21  22
BRANCH  21  24
ATOM     24  C15 ZIN A   1      19.811   4.273  15.435  0.00  0.00     0.071 C 
BRANCH  24  25
ATOM     25  C16 ZIN A   1      21.159   4.570  16.095  0.00  0.00     0.237 C 
BRANCH  25  26
ATOM     26  N17 ZIN A   1      21.648   5.881  15.644  0.00  0.00    -0.079 N 
ATOM     27  H18 ZIN A   1      21.501   6.563  16.372  0.00  0.00     0.278 HD
ATOM     28  C19 ZIN A   1      23.081   5.790  15.338  0.00  0.00     0.269 C 
ATOM     29  C20 ZIN A   1      20.913   6.287  14.437  0.00  0.00     0.269 C 
ENDBRANCH  25  26
ENDBRANCH  24  25
ENDBRANCH  21  24
BRANCH  21  30
ATOM     30  C21 ZIN A   1      18.239   4.769  17.287  0.00  0.00    -0.012 A 
ATOM     31  C30 ZIN A   1      18.396   6.069  16.915  0.00  0.00     0.011 A 
ATOM     32  C29 ZIN A   1      17.825   7.102  17.656  0.00  0.00     0.002 A 
ATOM     33  C28 ZIN A   1      17.100   6.840  18.779  0.00  0.00     0.012 A 
ATOM     34  C27 ZIN A   1      16.921   5.511  19.198  0.00  0.00    -0.025 A 
ATOM     35  C22 ZIN A   1      17.499   4.461  18.441  0.00  0.00    -0.017 A 
ATOM     36  C26 ZIN A   1      16.180   5.202  20.351  0.00  0.00     0.012 A 
ATOM     37  C23 ZIN A   1      17.319   3.131  18.859  0.00  0.00     0.013 A 
ATOM     38  C24 ZIN A   1      16.597   2.870  19.982  0.00  0.00     0.001 A 
ATOM     39  C25 ZIN A   1      16.028   3.903  20.727  0.00  0.00     0.001 A 
ENDBRANCH  21  30
ENDBRANCH   1  21
TORSDOF 9
ENDMDL
MODEL 6
REMARK VINA RESULT:      -7.0      1.759      2.429
REMARK  9 active torsions:
REMARK  status: ('A' for Active; 'I' for Inactive)
REMARK    1  A    between atoms: O2_2  and  C3_3 
REMARK    2  A    between atoms: C4_4  and  C5_5 
REMARK    3  A    between atoms: C5_5  and  C7_6 
REMARK    4  A    between atoms: C5_5  and  C13_12 
REMARK    5  A    between atoms: C13_12  and  O14_13 
REMARK    6  A    between atoms: C13_12  and  C15_14 
REMARK    7  A    between atoms: C13_12  and  C21_20 
REMARK    8  A    between atoms: C15_14  and  C16_15 
REMARK    9  A    between atoms: C16_15  and  N17_16 
ROOT
ATOM      1  C5  ZIN A   1      18.937  -3.161   7.553  0.00  0.00     0.095 C 
ENDROOT
BRANCH   1   2
ATOM      2  C4  ZIN A   1      18.329  -3.475   6.209  0.00  0.00     0.007 A 
ATOM      3  C3  ZIN A   1      18.823  -2.857   5.054  0.00  0.00     0.171 A 
ATOM      4  N39 ZIN A   1      18.312  -3.105   3.868  0.00  0.00    -0.224 NA
ATOM      5  C38 ZIN A   1      17.302  -3.967   3.714  0.00  0.00     0.070 A 
ATOM      6  C32 ZIN A   1      16.755  -4.625   4.843  0.00  0.00    -0.005 A 
ATOM      7  C37 ZIN A   1      16.763  -4.230   2.443  0.00  0.00     0.034 A 
ATOM      8  C31 ZIN A   1      17.296  -4.360   6.117  0.00  0.00     0.026 A 
ATOM      9  C33 ZIN A   1      15.692  -5.524   4.676  0.00  0.00     0.032 A 
ATOM     10  C34 ZIN A   1      15.195  -5.755   3.428  0.00  0.00     0.011 A 
ATOM     11 Br35 ZIN A   1      13.762  -6.967   3.202  0.00  0.00    -0.051 Br
ATOM     12  C36 ZIN A   1      15.730  -5.109   2.315  0.00  0.00     0.021 A 
BRANCH   3  13
ATOM     13  O2  ZIN A   1      19.851  -1.979   5.162  0.00  0.00    -0.339 OA
ATOM     14  C1  ZIN A   1      19.628  -0.656   4.670  0.00  0.00     0.211 C 
ENDBRANCH   3  13
ENDBRANCH   1   2
BRANCH   1  15
ATOM     15  C7  ZIN A   1      18.758  -1.695   7.854  0.00  0.00    -0.046 A 
ATOM     16  C12 ZIN A   1      19.767  -0.991   8.485  0.00  0.00     0.008 A 
ATOM     17  C11 ZIN A   1      19.605   0.355   8.756  0.00  0.00     0.001 A 
ATOM     18  C10 ZIN A   1      18.431   0.994   8.405  0.00  0.00     0.000 A 
ATOM     19  C9  ZIN A   1      17.420   0.289   7.780  0.00  0.00     0.001 A 
ATOM     20  C8  ZIN A   1      17.584  -1.056   7.503  0.00  0.00     0.008 A 
ENDBRANCH   1  15
BRANCH   1  21
ATOM     21  C13 ZIN A   1      18.242  -3.992   8.633  0.00  0.00     0.099 C 
BRANCH  21  22
ATOM     22  O14 ZIN A   1      16.904  -3.520   8.810  0.00  0.00    -0.384 OA
ATOM     23  H48 ZIN A   1      16.786  -2.584   8.598  0.00  0.00     0.211 HD
ENDBRANCH  21  22
BRANCH  21  24
ATOM     24  C15 ZIN A   1      18.213  -5.461   8.206  0.00  0.00     0.071 C 
BRANCH  24  25
ATOM     25  C16 ZIN A   1      17.106  -6.191   8.969  0.00  0.00     0.237 C 
BRANCH  25  26
ATOM     26  N17 ZIN A   1      16.028  -6.555   8.038  0.00  0.00    -0.079 N 
ATOM     27  H18 ZIN A   1      16.201  -6.130   7.140  0.00  0.00     0.278 HD
ATOM     28  C19 ZIN A   1      15.981  -8.015   7.890  0.00  0.00     0.269 C 
ATOM     29  C20 ZIN A   1      14.743  -6.074   8.567  0.00  0.00     0.269 C 
ENDBRANCH  25  26
ENDBRANCH  24  25
ENDBRANCH  21  24
BRANCH  21  30
ATOM     30  C21 ZIN A   1      18.997  -3.861   9.930  0.00  0.00    -0.012 A 
ATOM     31  C30 ZIN A   1      20.087  -4.642  10.170  0.00  0.00     0.011 A 
ATOM     32  C29 ZIN A   1      20.801  -4.531  11.361  0.00  0.00     0.002 A 
ATOM     33  C28 ZIN A   1      20.425  -3.645  12.324  0.00  0.00     0.012 A 
ATOM     34  C27 ZIN A   1      19.302  -2.827  12.116  0.00  0.00    -0.025 A 
ATOM     35  C22 ZIN A   1      18.578  -2.936  10.901  0.00  0.00    -0.017 A 
ATOM     36  C26 ZIN A   1      18.882  -1.901  13.086  0.00  0.00     0.012 A 
ATOM     37  C23 ZIN A   1      17.455  -2.117  10.693  0.00  0.00     0.013 A 
ATOM     38  C24 ZIN A   1      17.078  -1.233  11.656  0.00  0.00     0.001 A 
ATOM     39  C25 ZIN A   1      17.790  -1.125  12.850  0.00  0.00     0.001 A 
ENDBRANCH  21  30
ENDBRANCH   1  21
TORSDOF 9
ENDMDL
MODEL 7
REMARK VINA RESULT:      -6.9      2.523      4.007
REMARK  9 active torsions:
REMARK  status: ('A' for Active; 'I' for Inactive)
REMARK    1  A    between atoms: O2_2  and  C3_3 
REMARK    2  A    between atoms: C4_4  and  C5_5 
REMARK    3  A    between atoms: C5_5  and  C7_6 
REMARK    4  A    between atoms: C5_5  and  C13_12 
REMARK    5  A    between atoms: C13_12  and  O14_13 
REMARK    6  A    between atoms: C13_12  and  C15_14 
REMARK    7  A    between atoms: C13_12  and  C21_20 
REMARK    8  A    between atoms: C15_14  and  C16_15 
REMARK    9  A    between atoms: C16_15  and  N17_16 
ROOT
ATOM      1  C5  ZIN A   1      19.260  -1.340   9.059  0.00  0.00     0.095 C 
ENDROOT
BRANCH   1   2
ATOM      2  C4  ZIN A   1      18.783  -2.768   9.138  0.00  0.00     0.007 A 
ATOM      3  C3  ZIN A   1      19.364  -3.651  10.056  0.00  0.00     0.171 A 
ATOM      4  N39 ZIN A   1      18.976  -4.905  10.147  0.00  0.00    -0.224 NA
ATOM      5  C38 ZIN A   1      17.999  -5.386   9.371  0.00  0.00     0.070 A 
ATOM      6  C32 ZIN A   1      17.370  -4.544   8.421  0.00  0.00    -0.005 A 
ATOM      7  C37 ZIN A   1      17.585  -6.725   9.477  0.00  0.00     0.034 A 
ATOM      8  C31 ZIN A   1      17.786  -3.202   8.316  0.00  0.00     0.026 A 
ATOM      9  C33 ZIN A   1      16.350  -5.057   7.606  0.00  0.00     0.032 A 
ATOM     10  C34 ZIN A   1      15.975  -6.361   7.737  0.00  0.00     0.011 A 
ATOM     11 Br35 ZIN A   1      14.600  -7.052   6.638  0.00  0.00    -0.051 Br
ATOM     12  C36 ZIN A   1      16.592  -7.192   8.670  0.00  0.00     0.021 A 
BRANCH   3  13
ATOM     13  O2  ZIN A   1      20.355  -3.204  10.867  0.00  0.00    -0.339 OA
ATOM     14  C1  ZIN A   1      20.818  -4.101  11.879  0.00  0.00     0.211 C 
ENDBRANCH   3  13
ENDBRANCH   1   2
BRANCH   1  15
ATOM     15  C7  ZIN A   1      19.196  -0.868   7.629  0.00  0.00    -0.046 A 
ATOM     16  C12 ZIN A   1      19.099   0.483   7.351  0.00  0.00     0.008 A 
ATOM     17  C11 ZIN A   1      19.045   0.915   6.039  0.00  0.00     0.001 A 
ATOM     18  C10 ZIN A   1      19.079  -0.002   5.006  0.00  0.00     0.000 A 
ATOM     19  C9  ZIN A   1      19.171  -1.353   5.285  0.00  0.00     0.001 A 
ATOM     20  C8  ZIN A   1      19.229  -1.786   6.596  0.00  0.00     0.008 A 
ENDBRANCH   1  15
BRANCH   1  21
ATOM     21  C13 ZIN A   1      18.365  -0.455   9.929  0.00  0.00     0.099 C 
BRANCH  21  22
ATOM     22  O14 ZIN A   1      17.480   0.295   9.094  0.00  0.00    -0.384 OA
ATOM     23  H48 ZIN A   1      17.851   1.131   8.779  0.00  0.00     0.211 HD
ENDBRANCH  21  22
BRANCH  21  24
ATOM     24  C15 ZIN A   1      17.548  -1.333  10.879  0.00  0.00     0.071 C 
BRANCH  24  25
ATOM     25  C16 ZIN A   1      16.811  -0.447  11.885  0.00  0.00     0.237 C 
BRANCH  25  26
ATOM     26  N17 ZIN A   1      17.181  -0.844  13.250  0.00  0.00    -0.079 N 
ATOM     27  H18 ZIN A   1      16.368  -1.205  13.728  0.00  0.00     0.278 HD
ATOM     28  C19 ZIN A   1      18.218  -1.882  13.196  0.00  0.00     0.269 C 
ATOM     29  C20 ZIN A   1      17.696   0.326  13.977  0.00  0.00     0.269 C 
ENDBRANCH  25  26
ENDBRANCH  24  25
ENDBRANCH  21  24
BRANCH  21  30
ATOM     30  C21 ZIN A   1      19.222   0.490  10.731  0.00  0.00    -0.012 A 
ATOM     31  C30 ZIN A   1      20.347   0.037  11.350  0.00  0.00     0.011 A 
ATOM     32  C29 ZIN A   1      21.154   0.897  12.092  0.00  0.00     0.002 A 
ATOM     33  C28 ZIN A   1      20.837   2.214  12.226  0.00  0.00     0.012 A 
ATOM     34  C27 ZIN A   1      19.680   2.718  11.607  0.00  0.00    -0.025 A 
ATOM     35  C22 ZIN A   1      18.862   1.843  10.849  0.00  0.00    -0.017 A 
ATOM     36  C26 ZIN A   1      19.320   4.070  11.723  0.00  0.00     0.012 A 
ATOM     37  C23 ZIN A   1      17.705   2.347  10.228  0.00  0.00     0.013 A 
ATOM     38  C24 ZIN A   1      17.387   3.663  10.365  0.00  0.00     0.001 A 
ATOM     39  C25 ZIN A   1      18.193   4.523  11.110  0.00  0.00     0.001 A 
ENDBRANCH  21  30
ENDBRANCH   1  21
TORSDOF 9
ENDMDL
MODEL 8
REMARK VINA RESULT:      -6.9      4.094      7.797
REMARK  9 active torsions:
REMARK  status: ('A' for Active; 'I' for Inactive)
REMARK    1  A    between atoms: O2_2  and  C3_3 
REMARK    2  A    between atoms: C4_4  and  C5_5 
REMARK    3  A    between atoms: C5_5  and  C7_6 
REMARK    4  A    between atoms: C5_5  and  C13_12 
REMARK    5  A    between atoms: C13_12  and  O14_13 
REMARK    6  A    between atoms: C13_12  and  C15_14 
REMARK    7  A    between atoms: C13_12  and  C21_20 
REMARK    8  A    between atoms: C15_14  and  C16_15 
REMARK    9  A    between atoms: C16_15  and  N17_16 
ROOT
ATOM      1  C5  ZIN A   1      17.866   0.806  13.544  0.00  0.00     0.095 C 
ENDROOT
BRANCH   1   2
ATOM      2  C4  ZIN A   1      17.704  -0.046  12.311  0.00  0.00     0.007 A 
ATOM      3  C3  ZIN A   1      17.332   0.544  11.096  0.00  0.00     0.171 A 
ATOM      4  N39 ZIN A   1      17.176  -0.171  10.003  0.00  0.00    -0.224 NA
ATOM      5  C38 ZIN A   1      17.377  -1.494  10.004  0.00  0.00     0.070 A 
ATOM      6  C32 ZIN A   1      17.753  -2.150  11.201  0.00  0.00    -0.005 A 
ATOM      7  C37 ZIN A   1      17.212  -2.251   8.831  0.00  0.00     0.034 A 
ATOM      8  C31 ZIN A   1      17.916  -1.391  12.376  0.00  0.00     0.026 A 
ATOM      9  C33 ZIN A   1      17.956  -3.539  11.197  0.00  0.00     0.032 A 
ATOM     10  C34 ZIN A   1      17.788  -4.241  10.040  0.00  0.00     0.011 A 
ATOM     11 Br35 ZIN A   1      18.061  -6.111  10.035  0.00  0.00    -0.051 Br
ATOM     12  C36 ZIN A   1      17.417  -3.597   8.861  0.00  0.00     0.021 A 
BRANCH   3  13
ATOM     13  O2  ZIN A   1      17.124   1.882  11.047  0.00  0.00    -0.339 OA
ATOM     14  C1  ZIN A   1      17.755   2.599   9.983  0.00  0.00     0.211 C 
ENDBRANCH   3  13
ENDBRANCH   1   2
BRANCH   1  15
ATOM     15  C7  ZIN A   1      17.757  -0.062  14.771  0.00  0.00    -0.046 A 
ATOM     16  C12 ZIN A   1      18.579  -1.165  14.913  0.00  0.00     0.008 A 
ATOM     17  C11 ZIN A   1      18.482  -1.957  16.042  0.00  0.00     0.001 A 
ATOM     18  C10 ZIN A   1      17.558  -1.653  17.023  0.00  0.00     0.000 A 
ATOM     19  C9  ZIN A   1      16.733  -0.554  16.879  0.00  0.00     0.001 A 
ATOM     20  C8  ZIN A   1      16.833   0.242  15.752  0.00  0.00     0.008 A 
ENDBRANCH   1  15
BRANCH   1  21
ATOM     21  C13 ZIN A   1      19.238   1.483  13.518  0.00  0.00     0.099 C 
BRANCH  21  22
ATOM     22  O14 ZIN A   1      20.055   0.944  14.559  0.00  0.00    -0.384 OA
ATOM     23  H48 ZIN A   1      20.518   1.613  15.082  0.00  0.00     0.211 HD
ENDBRANCH  21  22
BRANCH  21  24
ATOM     24  C15 ZIN A   1      19.905   1.232  12.164  0.00  0.00     0.071 C 
BRANCH  24  25
ATOM     25  C16 ZIN A   1      21.127   0.333  12.357  0.00  0.00     0.237 C 
BRANCH  25  26
ATOM     26  N17 ZIN A   1      21.415  -0.379  11.104  0.00  0.00    -0.079 N 
ATOM     27  H18 ZIN A   1      22.398  -0.304  10.893  0.00  0.00     0.278 HD
ATOM     28  C19 ZIN A   1      21.053  -1.794  11.251  0.00  0.00     0.269 C 
ATOM     29  C20 ZIN A   1      20.632   0.216  10.012  0.00  0.00     0.269 C 
ENDBRANCH  25  26
ENDBRANCH  24  25
ENDBRANCH  21  24
BRANCH  21  30
ATOM     30  C21 ZIN A   1      19.070   2.966  13.727  0.00  0.00    -0.012 A 
ATOM     31  C30 ZIN A   1      19.104   3.816  12.664  0.00  0.00     0.011 A 
ATOM     32  C29 ZIN A   1      18.945   5.189  12.838  0.00  0.00     0.002 A 
ATOM     33  C28 ZIN A   1      18.760   5.722  14.076  0.00  0.00     0.012 A 
ATOM     34  C27 ZIN A   1      18.725   4.877  15.199  0.00  0.00    -0.025 A 
ATOM     35  C22 ZIN A   1      18.882   3.480  15.021  0.00  0.00    -0.017 A 
ATOM     36  C26 ZIN A   1      18.536   5.390  16.493  0.00  0.00     0.012 A 
ATOM     37  C23 ZIN A   1      18.846   2.634  16.144  0.00  0.00     0.013 A 
ATOM     38  C24 ZIN A   1      18.663   3.168  17.382  0.00  0.00     0.001 A 
ATOM     39  C25 ZIN A   1      18.508   4.542  17.557  0.00  0.00     0.001 A 
ENDBRANCH  21  30
ENDBRANCH   1  21
TORSDOF 9
ENDMDL
MODEL 9
REMARK VINA RESULT:      -6.8      7.757     11.878
REMARK  9 active torsions:
REMARK  status: ('A' for Active; 'I' for Inactive)
REMARK    1  A    between atoms: O2_2  and  C3_3 
REMARK    2  A    between atoms: C4_4  and  C5_5 
REMARK    3  A    between atoms: C5_5  and  C7_6 
REMARK    4  A    between atoms: C5_5  and  C13_12 
REMARK    5  A    between atoms: C13_12  and  O14_13 
REMARK    6  A    between atoms: C13_12  and  C15_14 
REMARK    7  A    between atoms: C13_12  and  C21_20 
REMARK    8  A    between atoms: C15_14  and  C16_15 
REMARK    9  A    between atoms: C16_15  and  N17_16 
ROOT
ATOM      1  C5  ZIN A   1      19.173   3.691  15.103  0.00  0.00     0.095 C 
ENDROOT
BRANCH   1   2
ATOM      2  C4  ZIN A   1      18.726   5.128  15.025  0.00  0.00     0.007 A 
ATOM      3  C3  ZIN A   1      19.650   6.133  14.711  0.00  0.00     0.171 A 
ATOM      4  N39 ZIN A   1      19.295   7.398  14.640  0.00  0.00    -0.224 NA
ATOM      5  C38 ZIN A   1      18.031   7.777  14.855  0.00  0.00     0.070 A 
ATOM      6  C32 ZIN A   1      17.048   6.809  15.178  0.00  0.00    -0.005 A 
ATOM      7  C37 ZIN A   1      17.658   9.129  14.774  0.00  0.00     0.034 A 
ATOM      8  C31 ZIN A   1      17.424   5.454  15.261  0.00  0.00     0.026 A 
ATOM      9  C33 ZIN A   1      15.725   7.214  15.409  0.00  0.00     0.032 A 
ATOM     10  C34 ZIN A   1      15.399   8.535  15.321  0.00  0.00     0.011 A 
ATOM     11 Br35 ZIN A   1      13.616   9.080  15.632  0.00  0.00    -0.051 Br
ATOM     12  C36 ZIN A   1      16.365   9.489  15.004  0.00  0.00     0.021 A 
BRANCH   3  13
ATOM     13  O2  ZIN A   1      20.942   5.794  14.479  0.00  0.00    -0.339 OA
ATOM     14  C1  ZIN A   1      21.840   5.864  15.589  0.00  0.00     0.211 C 
ENDBRANCH   3  13
ENDBRANCH   1   2
BRANCH   1  15
ATOM     15  C7  ZIN A   1      18.956   3.173  16.502  0.00  0.00    -0.046 A 
ATOM     16  C12 ZIN A   1      19.666   2.074  16.950  0.00  0.00     0.008 A 
ATOM     17  C11 ZIN A   1      19.470   1.604  18.235  0.00  0.00     0.001 A 
ATOM     18  C10 ZIN A   1      18.560   2.225  19.068  0.00  0.00     0.000 A 
ATOM     19  C9  ZIN A   1      17.846   3.320  18.618  0.00  0.00     0.001 A 
ATOM     20  C8  ZIN A   1      18.045   3.795  17.335  0.00  0.00     0.008 A 
ENDBRANCH   1  15
BRANCH   1  21
ATOM     21  C13 ZIN A   1      18.358   2.851  14.117  0.00  0.00     0.099 C 
BRANCH  21  22
ATOM     22  O14 ZIN A   1      16.980   2.874  14.495  0.00  0.00    -0.384 OA
ATOM     23  H48 ZIN A   1      16.366   2.834  13.749  0.00  0.00     0.211 HD
ENDBRANCH  21  22
BRANCH  21  24
ATOM     24  C15 ZIN A   1      18.510   3.428  12.708  0.00  0.00     0.071 C 
BRANCH  24  25
ATOM     25  C16 ZIN A   1      17.405   2.873  11.808  0.00  0.00     0.237 C 
BRANCH  25  26
ATOM     26  N17 ZIN A   1      17.749   3.120  10.401  0.00  0.00    -0.079 N 
ATOM     27  H18 ZIN A   1      17.067   2.675   9.805  0.00  0.00     0.278 HD
ATOM     28  C19 ZIN A   1      17.754   4.565  10.143  0.00  0.00     0.269 C 
ATOM     29  C20 ZIN A   1      19.081   2.567  10.118  0.00  0.00     0.269 C 
ENDBRANCH  25  26
ENDBRANCH  24  25
ENDBRANCH  21  24
BRANCH  21  30
ATOM     30  C21 ZIN A   1      18.860   1.430  14.134  0.00  0.00    -0.012 A 
ATOM     31  C30 ZIN A   1      19.895   1.060  13.329  0.00  0.00     0.011 A 
ATOM     32  C29 ZIN A   1      20.376  -0.248  13.336  0.00  0.00     0.002 A 
ATOM     33  C28 ZIN A   1      19.820  -1.195  14.139  0.00  0.00     0.012 A 
ATOM     34  C27 ZIN A   1      18.746  -0.853  14.978  0.00  0.00    -0.025 A 
ATOM     35  C22 ZIN A   1      18.260   0.479  14.975  0.00  0.00    -0.017 A 
ATOM     36  C26 ZIN A   1      18.146  -1.803  15.821  0.00  0.00     0.012 A 
ATOM     37  C23 ZIN A   1      17.186   0.822  15.816  0.00  0.00     0.013 A 
ATOM     38  C24 ZIN A   1      16.629  -0.126  16.617  0.00  0.00     0.001 A 
ATOM     39  C25 ZIN A   1      17.108  -1.436  16.621  0.00  0.00     0.001 A 
ENDBRANCH  21  30
ENDBRANCH   1  21
TORSDOF 9
ENDMDL
