MODEL 1
REMARK VINA RESULT:      -7.7      0.000      0.000
REMARK  7 active torsions:
REMARK  status: ('A' for Active; 'I' for Inactive)
REMARK    1  A    between atoms: N2_2  and  C3_3 
REMARK    2  A    between atoms: N2_2  and  C21_20 
REMARK    3  A    between atoms: C3_3  and  C4_4 
REMARK    4  A    between atoms: C4_4  and  O5_5 
REMARK    5  A    between atoms: O5_5  and  C6_6 
REMARK    6  A    between atoms: C9_9  and  C10_10 
REMARK    7  A    between atoms: C10_10  and  C11_11 
ROOT
ATOM      1  C6  ZIN A   1      17.784  -2.583  11.567  0.00  0.00     0.068 A 
ATOM      2  C7  ZIN A   1      19.006  -2.868  12.161  0.00  0.00     0.037 A 
ATOM      3  C8  ZIN A   1      19.572  -1.966  13.040  0.00  0.00     0.010 A 
ATOM      4  C9  ZIN A   1      18.923  -0.780  13.328  0.00  0.00    -0.056 A 
ATOM      5  C19 ZIN A   1      17.706  -0.493  12.737  0.00  0.00     0.010 A 
ATOM      6  C20 ZIN A   1      17.137  -1.391  11.854  0.00  0.00     0.037 A 
ENDROOT
BRANCH   1   7
ATOM      7  O5  ZIN A   1      17.225  -3.470  10.701  0.00  0.00    -0.350 OA
BRANCH   7   8
ATOM      8  C4  ZIN A   1      18.116  -4.208   9.863  0.00  0.00     0.195 C 
BRANCH   8   9
ATOM      9  C3  ZIN A   1      17.789  -3.923   8.396  0.00  0.00     0.150 C 
BRANCH   9  10
ATOM     10  N2  ZIN A   1      18.766  -2.974   7.854  0.00  0.00    -0.370 N 
ATOM     11  C1  ZIN A   1      19.672  -3.389   6.780  0.00  0.00     0.151 C 
BRANCH  10  12
ATOM     12  C21 ZIN A   1      18.832  -1.680   8.359  0.00  0.00     0.102 A 
ATOM     13  N26 ZIN A   1      19.925  -1.277   8.988  0.00  0.00    -0.352 N 
ATOM     14  C25 ZIN A   1      20.031  -0.056   9.478  0.00  0.00     0.089 A 
ATOM     15  H27 ZIN A   1      20.669  -1.891   9.084  0.00  0.00     0.166 HD
ATOM     16  C24 ZIN A   1      18.992   0.846   9.359  0.00  0.00     0.017 A 
ATOM     17  C23 ZIN A   1      17.827   0.461   8.711  0.00  0.00     0.005 A 
ATOM     18  C22 ZIN A   1      17.747  -0.824   8.204  0.00  0.00     0.048 A 
ENDBRANCH  10  12
ENDBRANCH   9  10
ENDBRANCH   8   9
ENDBRANCH   7   8
ENDBRANCH   1   7
BRANCH   4  19
ATOM     19  C10 ZIN A   1      19.542   0.203  14.288  0.00  0.00     0.063 C 
BRANCH  19  20
ATOM     20  C11 ZIN A   1      18.588   0.442  15.460  0.00  0.00     0.153 A 
ATOM     21  C17 ZIN A   1      18.880  -0.519  16.593  0.00  0.00     0.239 A 
ATOM     22  N16 ZIN A   1      19.246   0.082  17.716  0.00  0.00    -0.287 N 
ATOM     23  O18 ZIN A   1      18.792  -1.723  16.484  0.00  0.00    -0.272 OA
ATOM     24  C14 ZIN A   1      19.331   1.411  17.797  0.00  0.00     0.287 A 
ATOM     25  H39 ZIN A   1      19.455  -0.457  18.496  0.00  0.00     0.172 HD
ATOM     26  S13 ZIN A   1      18.888   2.075  16.214  0.00  0.00    -0.054 SA
ATOM     27  O15 ZIN A   1      19.655   2.052  18.779  0.00  0.00    -0.260 OA
ENDBRANCH  19  20
ENDBRANCH   4  19
TORSDOF 7
ENDMDL
MODEL 2
REMARK VINA RESULT:      -7.6      1.556      2.809
REMARK  7 active torsions:
REMARK  status: ('A' for Active; 'I' for Inactive)
REMARK    1  A    between atoms: N2_2  and  C3_3 
REMARK    2  A    between atoms: N2_2  and  C21_20 
REMARK    3  A    between atoms: C3_3  and  C4_4 
REMARK    4  A    between atoms: C4_4  and  O5_5 
REMARK    5  A    between atoms: O5_5  and  C6_6 
REMARK    6  A    between atoms: C9_9  and  C10_10 
REMARK    7  A    between atoms: C10_10  and  C11_11 
ROOT
ATOM      1  C6  ZIN A   1      18.031   0.688  10.535  0.00  0.00     0.068 A 
ATOM      2  C7  ZIN A   1      16.950   0.271  11.300  0.00  0.00     0.037 A 
ATOM      3  C8  ZIN A   1      17.151  -0.185  12.587  0.00  0.00     0.010 A 
ATOM      4  C9  ZIN A   1      18.428  -0.228  13.114  0.00  0.00    -0.056 A 
ATOM      5  C19 ZIN A   1      19.507   0.186  12.355  0.00  0.00     0.010 A 
ATOM      6  C20 ZIN A   1      19.312   0.640  11.065  0.00  0.00     0.037 A 
ENDROOT
BRANCH   1   7
ATOM      7  O5  ZIN A   1      17.834   1.138   9.267  0.00  0.00    -0.350 OA
BRANCH   7   8
ATOM      8  C4  ZIN A   1      18.465   0.407   8.215  0.00  0.00     0.195 C 
BRANCH   8   9
ATOM      9  C3  ZIN A   1      17.690  -0.887   7.957  0.00  0.00     0.150 C 
BRANCH   9  10
ATOM     10  N2  ZIN A   1      18.571  -2.036   8.181  0.00  0.00    -0.370 N 
ATOM     11  C1  ZIN A   1      19.383  -2.562   7.080  0.00  0.00     0.151 C 
BRANCH  10  12
ATOM     12  C21 ZIN A   1      18.636  -2.627   9.438  0.00  0.00     0.102 A 
ATOM     13  N26 ZIN A   1      19.808  -2.753  10.042  0.00  0.00    -0.352 N 
ATOM     14  C25 ZIN A   1      19.913  -3.304  11.237  0.00  0.00     0.089 A 
ATOM     15  H27 ZIN A   1      20.606  -2.426   9.600  0.00  0.00     0.166 HD
ATOM     16  C24 ZIN A   1      18.798  -3.781  11.898  0.00  0.00     0.017 A 
ATOM     17  C23 ZIN A   1      17.552  -3.672  11.295  0.00  0.00     0.005 A 
ATOM     18  C22 ZIN A   1      17.473  -3.086  10.044  0.00  0.00     0.048 A 
ENDBRANCH  10  12
ENDBRANCH   9  10
ENDBRANCH   8   9
ENDBRANCH   7   8
ENDBRANCH   1   7
BRANCH   4  19
ATOM     19  C10 ZIN A   1      18.646  -0.726  14.520  0.00  0.00     0.063 C 
BRANCH  19  20
ATOM     20  C11 ZIN A   1      17.972   0.227  15.509  0.00  0.00     0.153 A 
ATOM     21  C17 ZIN A   1      17.670  -0.480  16.813  0.00  0.00     0.239 A 
ATOM     22  N16 ZIN A   1      18.296   0.043  17.858  0.00  0.00    -0.287 N 
ATOM     23  O18 ZIN A   1      16.929  -1.437  16.895  0.00  0.00    -0.272 OA
ATOM     24  C14 ZIN A   1      19.103   1.097  17.727  0.00  0.00     0.287 A 
ATOM     25  H39 ZIN A   1      18.162  -0.348  18.736  0.00  0.00     0.172 HD
ATOM     26  S13 ZIN A   1      19.121   1.551  16.013  0.00  0.00    -0.054 SA
ATOM     27  O15 ZIN A   1      19.718   1.647  18.621  0.00  0.00    -0.260 OA
ENDBRANCH  19  20
ENDBRANCH   4  19
TORSDOF 7
ENDMDL
MODEL 3
REMARK VINA RESULT:      -7.4      1.671      2.459
REMARK  7 active torsions:
REMARK  status: ('A' for Active; 'I' for Inactive)
REMARK    1  A    between atoms: N2_2  and  C3_3 
REMARK    2  A    between atoms: N2_2  and  C21_20 
REMARK    3  A    between atoms: C3_3  and  C4_4 
REMARK    4  A    between atoms: C4_4  and  O5_5 
REMARK    5  A    between atoms: O5_5  and  C6_6 
REMARK    6  A    between atoms: C9_9  and  C10_10 
REMARK    7  A    between atoms: C10_10  and  C11_11 
ROOT
ATOM      1  C6  ZIN A   1      17.840  -1.790  11.066  0.00  0.00     0.068 A 
ATOM      2  C7  ZIN A   1      19.026  -2.357  11.510  0.00  0.00     0.037 A 
ATOM      3  C8  ZIN A   1      19.487  -2.081  12.782  0.00  0.00     0.010 A 
ATOM      4  C9  ZIN A   1      18.768  -1.242  13.613  0.00  0.00    -0.056 A 
ATOM      5  C19 ZIN A   1      17.586  -0.676  13.172  0.00  0.00     0.010 A 
ATOM      6  C20 ZIN A   1      17.123  -0.945  11.899  0.00  0.00     0.037 A 
ENDROOT
BRANCH   1   7
ATOM      7  O5  ZIN A   1      17.384  -2.060   9.814  0.00  0.00    -0.350 OA
BRANCH   7   8
ATOM      8  C4  ZIN A   1      18.056  -1.422   8.727  0.00  0.00     0.195 C 
BRANCH   8   9
ATOM      9  C3  ZIN A   1      17.417  -0.057   8.463  0.00  0.00     0.150 C 
BRANCH   9  10
ATOM     10  N2  ZIN A   1      18.424   0.994   8.628  0.00  0.00    -0.370 N 
ATOM     11  C1  ZIN A   1      19.196   1.456   7.471  0.00  0.00     0.151 C 
BRANCH  10  12
ATOM     12  C21 ZIN A   1      18.648   1.552   9.882  0.00  0.00     0.102 A 
ATOM     13  N26 ZIN A   1      19.753   1.249  10.545  0.00  0.00    -0.352 N 
ATOM     14  C25 ZIN A   1      20.007   1.761  11.735  0.00  0.00     0.089 A 
ATOM     15  H27 ZIN A   1      20.396   0.644  10.144  0.00  0.00     0.166 HD
ATOM     16  C24 ZIN A   1      19.116   2.627  12.338  0.00  0.00     0.017 A 
ATOM     17  C23 ZIN A   1      17.943   2.965  11.677  0.00  0.00     0.005 A 
ATOM     18  C22 ZIN A   1      17.707   2.417  10.428  0.00  0.00     0.048 A 
ENDBRANCH  10  12
ENDBRANCH   9  10
ENDBRANCH   8   9
ENDBRANCH   7   8
ENDBRANCH   1   7
BRANCH   4  19
ATOM     19  C10 ZIN A   1      19.274  -0.943  15.001  0.00  0.00     0.063 C 
BRANCH  19  20
ATOM     20  C11 ZIN A   1      18.402   0.142  15.638  0.00  0.00     0.153 A 
ATOM     21  C17 ZIN A   1      17.841  -0.332  16.962  0.00  0.00     0.239 A 
ATOM     22  N16 ZIN A   1      18.232   0.399  17.996  0.00  0.00    -0.287 N 
ATOM     23  O18 ZIN A   1      17.106  -1.291  17.068  0.00  0.00    -0.272 OA
ATOM     24  C14 ZIN A   1      19.041   1.448  17.837  0.00  0.00     0.287 A 
ATOM     25  H39 ZIN A   1      17.922   0.168  18.886  0.00  0.00     0.172 HD
ATOM     26  S13 ZIN A   1      19.411   1.586  16.109  0.00  0.00    -0.054 SA
ATOM     27  O15 ZIN A   1      19.453   2.178  18.719  0.00  0.00    -0.260 OA
ENDBRANCH  19  20
ENDBRANCH   4  19
TORSDOF 7
ENDMDL
MODEL 4
REMARK VINA RESULT:      -7.4      3.421      4.592
REMARK  7 active torsions:
REMARK  status: ('A' for Active; 'I' for Inactive)
REMARK    1  A    between atoms: N2_2  and  C3_3 
REMARK    2  A    between atoms: N2_2  and  C21_20 
REMARK    3  A    between atoms: C3_3  and  C4_4 
REMARK    4  A    between atoms: C4_4  and  O5_5 
REMARK    5  A    between atoms: O5_5  and  C6_6 
REMARK    6  A    between atoms: C9_9  and  C10_10 
REMARK    7  A    between atoms: C10_10  and  C11_11 
ROOT
ATOM      1  C6  ZIN A   1      18.028  -0.064   8.869  0.00  0.00     0.068 A 
ATOM      2  C7  ZIN A   1      17.291   0.203  10.014  0.00  0.00     0.037 A 
ATOM      3  C8  ZIN A   1      17.466   1.398  10.683  0.00  0.00     0.010 A 
ATOM      4  C9  ZIN A   1      18.375   2.328  10.213  0.00  0.00    -0.056 A 
ATOM      5  C19 ZIN A   1      19.111   2.064   9.073  0.00  0.00     0.010 A 
ATOM      6  C20 ZIN A   1      18.942   0.869   8.402  0.00  0.00     0.037 A 
ENDROOT
BRANCH   1   7
ATOM      7  O5  ZIN A   1      17.857  -1.240   8.208  0.00  0.00    -0.350 OA
BRANCH   7   8
ATOM      8  C4  ZIN A   1      17.790  -2.425   9.002  0.00  0.00     0.195 C 
BRANCH   8   9
ATOM      9  C3  ZIN A   1      19.195  -3.005   9.172  0.00  0.00     0.150 C 
BRANCH   9  10
ATOM     10  N2  ZIN A   1      19.497  -3.141  10.599  0.00  0.00    -0.370 N 
ATOM     11  C1  ZIN A   1      19.529  -4.469  11.218  0.00  0.00     0.151 C 
BRANCH  10  12
ATOM     12  C21 ZIN A   1      19.753  -2.010  11.367  0.00  0.00     0.102 A 
ATOM     13  N26 ZIN A   1      20.639  -1.121  10.947  0.00  0.00    -0.352 N 
ATOM     14  C25 ZIN A   1      20.908  -0.032  11.643  0.00  0.00     0.089 A 
ATOM     15  H27 ZIN A   1      21.096  -1.268  10.105  0.00  0.00     0.166 HD
ATOM     16  C24 ZIN A   1      20.277   0.213  12.846  0.00  0.00     0.017 A 
ATOM     17  C23 ZIN A   1      19.345  -0.698  13.324  0.00  0.00     0.005 A 
ATOM     18  C22 ZIN A   1      19.081  -1.828  12.570  0.00  0.00     0.048 A 
ENDBRANCH  10  12
ENDBRANCH   9  10
ENDBRANCH   8   9
ENDBRANCH   7   8
ENDBRANCH   1   7
BRANCH   4  19
ATOM     19  C10 ZIN A   1      18.565   3.632  10.945  0.00  0.00     0.063 C 
BRANCH  19  20
ATOM     20  C11 ZIN A   1      17.538   3.736  12.076  0.00  0.00     0.153 A 
ATOM     21  C17 ZIN A   1      18.227   3.937  13.408  0.00  0.00     0.239 A 
ATOM     22  N16 ZIN A   1      17.914   5.080  14.000  0.00  0.00    -0.287 N 
ATOM     23  O18 ZIN A   1      18.996   3.131  13.887  0.00  0.00    -0.272 OA
ATOM     24  C14 ZIN A   1      17.062   5.942  13.440  0.00  0.00     0.287 A 
ATOM     25  H39 ZIN A   1      18.310   5.294  14.860  0.00  0.00     0.172 HD
ATOM     26  S13 ZIN A   1      16.533   5.248  11.897  0.00  0.00    -0.054 SA
ATOM     27  O15 ZIN A   1      16.712   7.010  13.904  0.00  0.00    -0.260 OA
ENDBRANCH  19  20
ENDBRANCH   4  19
TORSDOF 7
ENDMDL
MODEL 5
REMARK VINA RESULT:      -7.4      1.694      2.345
REMARK  7 active torsions:
REMARK  status: ('A' for Active; 'I' for Inactive)
REMARK    1  A    between atoms: N2_2  and  C3_3 
REMARK    2  A    between atoms: N2_2  and  C21_20 
REMARK    3  A    between atoms: C3_3  and  C4_4 
REMARK    4  A    between atoms: C4_4  and  O5_5 
REMARK    5  A    between atoms: O5_5  and  C6_6 
REMARK    6  A    between atoms: C9_9  and  C10_10 
REMARK    7  A    between atoms: C10_10  and  C11_11 
ROOT
ATOM      1  C6  ZIN A   1      18.986  -4.151  10.381  0.00  0.00     0.068 A 
ATOM      2  C7  ZIN A   1      17.689  -3.658  10.423  0.00  0.00     0.037 A 
ATOM      3  C8  ZIN A   1      17.351  -2.685  11.342  0.00  0.00     0.010 A 
ATOM      4  C9  ZIN A   1      18.302  -2.202  12.220  0.00  0.00    -0.056 A 
ATOM      5  C19 ZIN A   1      19.594  -2.691  12.182  0.00  0.00     0.010 A 
ATOM      6  C20 ZIN A   1      19.938  -3.667  11.267  0.00  0.00     0.037 A 
ENDROOT
BRANCH   1   7
ATOM      7  O5  ZIN A   1      19.322  -5.109   9.477  0.00  0.00    -0.350 OA
BRANCH   7   8
ATOM      8  C4  ZIN A   1      18.902  -4.902   8.128  0.00  0.00     0.195 C 
BRANCH   8   9
ATOM      9  C3  ZIN A   1      19.952  -4.070   7.389  0.00  0.00     0.150 C 
BRANCH   9  10
ATOM     10  N2  ZIN A   1      19.321  -2.867   6.839  0.00  0.00    -0.370 N 
ATOM     11  C1  ZIN A   1      18.998  -2.797   5.412  0.00  0.00     0.151 C 
BRANCH  10  12
ATOM     12  C21 ZIN A   1      19.030  -1.792   7.672  0.00  0.00     0.102 A 
ATOM     13  N26 ZIN A   1      19.954  -1.340   8.506  0.00  0.00    -0.352 N 
ATOM     14  C25 ZIN A   1      19.720  -0.319   9.309  0.00  0.00     0.089 A 
ATOM     15  H27 ZIN A   1      20.825  -1.764   8.521  0.00  0.00     0.166 HD
ATOM     16  C24 ZIN A   1      18.491   0.310   9.315  0.00  0.00     0.017 A 
ATOM     17  C23 ZIN A   1      17.494  -0.137   8.458  0.00  0.00     0.005 A 
ATOM     18  C22 ZIN A   1      17.770  -1.206   7.624  0.00  0.00     0.048 A 
ENDBRANCH  10  12
ENDBRANCH   9  10
ENDBRANCH   8   9
ENDBRANCH   7   8
ENDBRANCH   1   7
BRANCH   4  19
ATOM     19  C10 ZIN A   1      17.930  -1.139  13.223  0.00  0.00     0.063 C 
BRANCH  19  20
ATOM     20  C11 ZIN A   1      19.150  -0.797  14.080  0.00  0.00     0.153 A 
ATOM     21  C17 ZIN A   1      19.659   0.592  13.757  0.00  0.00     0.239 A 
ATOM     22  N16 ZIN A   1      19.612   1.426  14.786  0.00  0.00    -0.287 N 
ATOM     23  O18 ZIN A   1      20.066   0.913  12.661  0.00  0.00    -0.272 OA
ATOM     24  C14 ZIN A   1      19.157   1.034  15.977  0.00  0.00     0.287 A 
ATOM     25  H39 ZIN A   1      19.917   2.340  14.670  0.00  0.00     0.172 HD
ATOM     26  S13 ZIN A   1      18.688  -0.670  15.840  0.00  0.00    -0.054 SA
ATOM     27  O15 ZIN A   1      19.076   1.722  16.978  0.00  0.00    -0.260 OA
ENDBRANCH  19  20
ENDBRANCH   4  19
TORSDOF 7
ENDMDL
MODEL 6
REMARK VINA RESULT:      -7.3      3.647      7.482
REMARK  7 active torsions:
REMARK  status: ('A' for Active; 'I' for Inactive)
REMARK    1  A    between atoms: N2_2  and  C3_3 
REMARK    2  A    between atoms: N2_2  and  C21_20 
REMARK    3  A    between atoms: C3_3  and  C4_4 
REMARK    4  A    between atoms: C4_4  and  O5_5 
REMARK    5  A    between atoms: O5_5  and  C6_6 
REMARK    6  A    between atoms: C9_9  and  C10_10 
REMARK    7  A    between atoms: C10_10  and  C11_11 
ROOT
ATOM      1  C6  ZIN A   1      18.432  -2.255  12.313  0.00  0.00     0.068 A 
ATOM      2  C7  ZIN A   1      19.718  -2.772  12.241  0.00  0.00     0.037 A 
ATOM      3  C8  ZIN A   1      20.035  -3.698  11.266  0.00  0.00     0.010 A 
ATOM      4  C9  ZIN A   1      19.072  -4.109  10.363  0.00  0.00    -0.056 A 
ATOM      5  C19 ZIN A   1      17.790  -3.596  10.433  0.00  0.00     0.010 A 
ATOM      6  C20 ZIN A   1      17.467  -2.672  11.408  0.00  0.00     0.037 A 
ENDROOT
BRANCH   1   7
ATOM      7  O5  ZIN A   1      18.118  -1.343  13.271  0.00  0.00    -0.350 OA
BRANCH   7   8
ATOM      8  C4  ZIN A   1      18.786  -0.082  13.211  0.00  0.00     0.195 C 
BRANCH   8   9
ATOM      9  C3  ZIN A   1      17.937   0.908  12.411  0.00  0.00     0.150 C 
BRANCH   9  10
ATOM     10  N2  ZIN A   1      18.659   1.302  11.199  0.00  0.00    -0.370 N 
ATOM     11  C1  ZIN A   1      19.477   2.517  11.196  0.00  0.00     0.151 C 
BRANCH  10  12
ATOM     12  C21 ZIN A   1      18.567   0.522  10.051  0.00  0.00     0.102 A 
ATOM     13  N26 ZIN A   1      17.408   0.423   9.418  0.00  0.00    -0.352 N 
ATOM     14  C25 ZIN A   1      17.279  -0.303   8.322  0.00  0.00     0.089 A 
ATOM     15  H27 ZIN A   1      16.638   0.899   9.762  0.00  0.00     0.166 HD
ATOM     16  C24 ZIN A   1      18.354  -0.996   7.801  0.00  0.00     0.017 A 
ATOM     17  C23 ZIN A   1      19.585  -0.921   8.439  0.00  0.00     0.005 A 
ATOM     18  C22 ZIN A   1      19.690  -0.149   9.583  0.00  0.00     0.048 A 
ENDBRANCH  10  12
ENDBRANCH   9  10
ENDBRANCH   8   9
ENDBRANCH   7   8
ENDBRANCH   1   7
BRANCH   4  19
ATOM     19  C10 ZIN A   1      19.421  -5.120   9.300  0.00  0.00     0.063 C 
BRANCH  19  20
ATOM     20  C11 ZIN A   1      18.595  -4.842   8.042  0.00  0.00     0.153 A 
ATOM     21  C17 ZIN A   1      19.486  -4.774   6.821  0.00  0.00     0.239 A 
ATOM     22  N16 ZIN A   1      19.212  -5.701   5.913  0.00  0.00    -0.287 N 
ATOM     23  O18 ZIN A   1      20.369  -3.955   6.686  0.00  0.00    -0.272 OA
ATOM     24  C14 ZIN A   1      18.231  -6.586   6.098  0.00  0.00     0.287 A 
ATOM     25  H39 ZIN A   1      19.735  -5.734   5.096  0.00  0.00     0.172 HD
ATOM     26  S13 ZIN A   1      17.490  -6.246   7.673  0.00  0.00    -0.054 SA
ATOM     27  O15 ZIN A   1      17.904  -7.468   5.328  0.00  0.00    -0.260 OA
ENDBRANCH  19  20
ENDBRANCH   4  19
TORSDOF 7
ENDMDL
MODEL 7
REMARK VINA RESULT:      -7.2      3.693      5.161
REMARK  7 active torsions:
REMARK  status: ('A' for Active; 'I' for Inactive)
REMARK    1  A    between atoms: N2_2  and  C3_3 
REMARK    2  A    between atoms: N2_2  and  C21_20 
REMARK    3  A    between atoms: C3_3  and  C4_4 
REMARK    4  A    between atoms: C4_4  and  O5_5 
REMARK    5  A    between atoms: O5_5  and  C6_6 
REMARK    6  A    between atoms: C9_9  and  C10_10 
REMARK    7  A    between atoms: C10_10  and  C11_11 
ROOT
ATOM      1  C6  ZIN A   1      18.404   2.803  10.490  0.00  0.00     0.068 A 
ATOM      2  C7  ZIN A   1      19.717   2.768  10.939  0.00  0.00     0.037 A 
ATOM      3  C8  ZIN A   1      20.102   3.558  12.004  0.00  0.00     0.010 A 
ATOM      4  C9  ZIN A   1      19.181   4.383  12.623  0.00  0.00    -0.056 A 
ATOM      5  C19 ZIN A   1      17.872   4.420  12.177  0.00  0.00     0.010 A 
ATOM      6  C20 ZIN A   1      17.483   3.635  11.109  0.00  0.00     0.037 A 
ENDROOT
BRANCH   1   7
ATOM      7  O5  ZIN A   1      18.023   2.026   9.441  0.00  0.00    -0.350 OA
BRANCH   7   8
ATOM      8  C4  ZIN A   1      18.275   0.624   9.548  0.00  0.00     0.195 C 
BRANCH   8   9
ATOM      9  C3  ZIN A   1      17.107  -0.051  10.270  0.00  0.00     0.150 C 
BRANCH   9  10
ATOM     10  N2  ZIN A   1      17.619  -0.836  11.396  0.00  0.00    -0.370 N 
ATOM     11  C1  ZIN A   1      17.537  -2.298  11.367  0.00  0.00     0.151 C 
BRANCH  10  12
ATOM     12  C21 ZIN A   1      18.181  -0.192  12.494  0.00  0.00     0.102 A 
ATOM     13  N26 ZIN A   1      19.467  -0.357  12.761  0.00  0.00    -0.352 N 
ATOM     14  C25 ZIN A   1      20.040   0.239  13.790  0.00  0.00     0.089 A 
ATOM     15  H27 ZIN A   1      20.002  -0.922  12.184  0.00  0.00     0.166 HD
ATOM     16  C24 ZIN A   1      19.310   1.053  14.634  0.00  0.00     0.017 A 
ATOM     17  C23 ZIN A   1      17.957   1.246  14.391  0.00  0.00     0.005 A 
ATOM     18  C22 ZIN A   1      17.385   0.612  13.302  0.00  0.00     0.048 A 
ENDBRANCH  10  12
ENDBRANCH   9  10
ENDBRANCH   8   9
ENDBRANCH   7   8
ENDBRANCH   1   7
BRANCH   4  19
ATOM     19  C10 ZIN A   1      19.603   5.244  13.785  0.00  0.00     0.063 C 
BRANCH  19  20
ATOM     20  C11 ZIN A   1      18.672   4.990  14.973  0.00  0.00     0.153 A 
ATOM     21  C17 ZIN A   1      19.467   4.839  16.253  0.00  0.00     0.239 A 
ATOM     22  N16 ZIN A   1      19.184   5.760  17.164  0.00  0.00    -0.287 N 
ATOM     23  O18 ZIN A   1      20.286   3.963  16.428  0.00  0.00    -0.272 OA
ATOM     24  C14 ZIN A   1      18.274   6.709  16.933  0.00  0.00     0.287 A 
ATOM     25  H39 ZIN A   1      19.647   5.742  18.016  0.00  0.00     0.172 HD
ATOM     26  S13 ZIN A   1      17.631   6.451  15.301  0.00  0.00    -0.054 SA
ATOM     27  O15 ZIN A   1      17.946   7.592  17.702  0.00  0.00    -0.260 OA
ENDBRANCH  19  20
ENDBRANCH   4  19
TORSDOF 7
ENDMDL
MODEL 8
REMARK VINA RESULT:      -7.2      3.557      7.789
REMARK  7 active torsions:
REMARK  status: ('A' for Active; 'I' for Inactive)
REMARK    1  A    between atoms: N2_2  and  C3_3 
REMARK    2  A    between atoms: N2_2  and  C21_20 
REMARK    3  A    between atoms: C3_3  and  C4_4 
REMARK    4  A    between atoms: C4_4  and  O5_5 
REMARK    5  A    between atoms: O5_5  and  C6_6 
REMARK    6  A    between atoms: C9_9  and  C10_10 
REMARK    7  A    between atoms: C10_10  and  C11_11 
ROOT
ATOM      1  C6  ZIN A   1      18.278   2.754  10.360  0.00  0.00     0.068 A 
ATOM      2  C7  ZIN A   1      18.892   2.541   9.134  0.00  0.00     0.037 A 
ATOM      3  C8  ZIN A   1      18.729   1.334   8.483  0.00  0.00     0.010 A 
ATOM      4  C9  ZIN A   1      17.956   0.339   9.051  0.00  0.00    -0.056 A 
ATOM      5  C19 ZIN A   1      17.343   0.549  10.273  0.00  0.00     0.010 A 
ATOM      6  C20 ZIN A   1      17.506   1.753  10.931  0.00  0.00     0.037 A 
ENDROOT
BRANCH   1   7
ATOM      7  O5  ZIN A   1      18.436   3.942  11.003  0.00  0.00    -0.350 OA
BRANCH   7   8
ATOM      8  C4  ZIN A   1      17.915   4.035  12.330  0.00  0.00     0.195 C 
BRANCH   8   9
ATOM      9  C3  ZIN A   1      19.072   4.103  13.329  0.00  0.00     0.150 C 
BRANCH   9  10
ATOM     10  N2  ZIN A   1      18.818   3.176  14.434  0.00  0.00    -0.370 N 
ATOM     11  C1  ZIN A   1      18.516   3.695  15.771  0.00  0.00     0.151 C 
BRANCH  10  12
ATOM     12  C21 ZIN A   1      18.862   1.803  14.215  0.00  0.00     0.102 A 
ATOM     13  N26 ZIN A   1      19.916   1.270  13.616  0.00  0.00    -0.352 N 
ATOM     14  C25 ZIN A   1      20.000  -0.029  13.393  0.00  0.00     0.089 A 
ATOM     15  H27 ZIN A   1      20.646   1.845  13.341  0.00  0.00     0.166 HD
ATOM     16  C24 ZIN A   1      18.980  -0.879  13.771  0.00  0.00     0.017 A 
ATOM     17  C23 ZIN A   1      17.856  -0.358  14.397  0.00  0.00     0.005 A 
ATOM     18  C22 ZIN A   1      17.799   1.006  14.621  0.00  0.00     0.048 A 
ENDBRANCH  10  12
ENDBRANCH   9  10
ENDBRANCH   8   9
ENDBRANCH   7   8
ENDBRANCH   1   7
BRANCH   4  19
ATOM     19  C10 ZIN A   1      17.780  -0.977   8.338  0.00  0.00     0.063 C 
BRANCH  19  20
ATOM     20  C11 ZIN A   1      19.135  -1.677   8.219  0.00  0.00     0.153 A 
ATOM     21  C17 ZIN A   1      19.214  -2.855   9.168  0.00  0.00     0.239 A 
ATOM     22  N16 ZIN A   1      19.378  -4.019   8.556  0.00  0.00    -0.287 N 
ATOM     23  O18 ZIN A   1      19.132  -2.745  10.372  0.00  0.00    -0.272 OA
ATOM     24  C14 ZIN A   1      19.464  -4.098   7.226  0.00  0.00     0.287 A 
ATOM     25  H39 ZIN A   1      19.438  -4.829   9.086  0.00  0.00     0.172 HD
ATOM     26  S13 ZIN A   1      19.317  -2.454   6.579  0.00  0.00    -0.054 SA
ATOM     27  O15 ZIN A   1      19.616  -5.114   6.576  0.00  0.00    -0.260 OA
ENDBRANCH  19  20
ENDBRANCH   4  19
TORSDOF 7
ENDMDL
MODEL 9
REMARK VINA RESULT:      -7.1      3.031      4.462
REMARK  7 active torsions:
REMARK  status: ('A' for Active; 'I' for Inactive)
REMARK    1  A    between atoms: N2_2  and  C3_3 
REMARK    2  A    between atoms: N2_2  and  C21_20 
REMARK    3  A    between atoms: C3_3  and  C4_4 
REMARK    4  A    between atoms: C4_4  and  O5_5 
REMARK    5  A    between atoms: O5_5  and  C6_6 
REMARK    6  A    between atoms: C9_9  and  C10_10 
REMARK    7  A    between atoms: C10_10  and  C11_11 
ROOT
ATOM      1  C6  ZIN A   1      18.633   2.974   9.988  0.00  0.00     0.068 A 
ATOM      2  C7  ZIN A   1      17.587   3.830  10.307  0.00  0.00     0.037 A 
ATOM      3  C8  ZIN A   1      17.339   4.152  11.627  0.00  0.00     0.010 A 
ATOM      4  C9  ZIN A   1      18.129   3.623  12.629  0.00  0.00    -0.056 A 
ATOM      5  C19 ZIN A   1      19.171   2.769  12.314  0.00  0.00     0.010 A 
ATOM      6  C20 ZIN A   1      19.422   2.441  10.997  0.00  0.00     0.037 A 
ENDROOT
BRANCH   1   7
ATOM      7  O5  ZIN A   1      18.880   2.656   8.690  0.00  0.00    -0.350 OA
BRANCH   7   8
ATOM      8  C4  ZIN A   1      19.403   1.353   8.430  0.00  0.00     0.195 C 
BRANCH   8   9
ATOM      9  C3  ZIN A   1      18.270   0.428   7.981  0.00  0.00     0.150 C 
BRANCH   9  10
ATOM     10  N2  ZIN A   1      18.301  -0.803   8.775  0.00  0.00    -0.370 N 
ATOM     11  C1  ZIN A   1      18.529  -2.093   8.118  0.00  0.00     0.151 C 
BRANCH  10  12
ATOM     12  C21 ZIN A   1      18.115  -0.747  10.152  0.00  0.00     0.102 A 
ATOM     13  N26 ZIN A   1      19.039  -1.247  10.959  0.00  0.00    -0.352 N 
ATOM     14  C25 ZIN A   1      18.903  -1.210  12.271  0.00  0.00     0.089 A 
ATOM     15  H27 ZIN A   1      19.837  -1.643  10.577  0.00  0.00     0.166 HD
ATOM     16  C24 ZIN A   1      17.780  -0.654  12.852  0.00  0.00     0.017 A 
ATOM     17  C23 ZIN A   1      16.787  -0.124  12.040  0.00  0.00     0.005 A 
ATOM     18  C22 ZIN A   1      16.959  -0.173  10.668  0.00  0.00     0.048 A 
ENDBRANCH  10  12
ENDBRANCH   9  10
ENDBRANCH   8   9
ENDBRANCH   7   8
ENDBRANCH   1   7
BRANCH   4  19
ATOM     19  C10 ZIN A   1      17.856   3.976  14.069  0.00  0.00     0.063 C 
BRANCH  19  20
ATOM     20  C11 ZIN A   1      19.152   3.872  14.875  0.00  0.00     0.153 A 
ATOM     21  C17 ZIN A   1      19.267   5.019  15.855  0.00  0.00     0.239 A 
ATOM     22  N16 ZIN A   1      19.305   4.632  17.122  0.00  0.00    -0.287 N 
ATOM     23  O18 ZIN A   1      19.315   6.182  15.516  0.00  0.00    -0.272 OA
ATOM     24  C14 ZIN A   1      19.250   3.341  17.456  0.00  0.00     0.287 A 
ATOM     25  H39 ZIN A   1      19.376   5.302  17.822  0.00  0.00     0.172 HD
ATOM     26  S13 ZIN A   1      19.124   2.404  15.956  0.00  0.00    -0.054 SA
ATOM     27  O15 ZIN A   1      19.279   2.889  18.584  0.00  0.00    -0.260 OA
ENDBRANCH  19  20
ENDBRANCH   4  19
TORSDOF 7
ENDMDL
