MODEL 1
REMARK VINA RESULT:      -6.8      0.000      0.000
REMARK  14 active torsions:
REMARK  status: ('A' for Active; 'I' for Inactive)
REMARK    1  A    between atoms: C2_2  and  C3_3 
REMARK    2  A    between atoms: C4_4  and  C5_5 
REMARK    3  A    between atoms: C5_5  and  C6_6 
REMARK    4  A    between atoms: C7_7  and  C8_8 
REMARK    5  A    between atoms: C8_8  and  C9_9 
REMARK    6  A    between atoms: C10_10  and  C11_11 
REMARK    7  A    between atoms: C11_11  and  C12_12 
REMARK    8  A    between atoms: C13_13  and  C14_14 
REMARK    9  A    between atoms: C14_14  and  C15_15 
REMARK   10  A    between atoms: C16_16  and  C17_17 
REMARK   11  A    between atoms: C17_17  and  C18_18 
REMARK   12  A    between atoms: C19_19  and  C20_20 
REMARK   13  A    between atoms: C20_20  and  C21_21 
REMARK   14  A    between atoms: C21_21  and  C22_22 
ROOT
ATOM      1  C12 ZIN A   1      18.281   2.960   9.920  0.00  0.00    -0.027 C 
ATOM      2  C13 ZIN A   1      17.715   2.505  11.009  0.00  0.00    -0.027 C 
ENDROOT
BRANCH   1   3
ATOM      3  C11 ZIN A   1      19.405   2.190   9.275  0.00  0.00     0.053 C 
BRANCH   3   4
ATOM      4  C10 ZIN A   1      19.028   1.842   7.858  0.00  0.00    -0.027 C 
ATOM      5  C9  ZIN A   1      18.909   0.587   7.501  0.00  0.00    -0.027 C 
BRANCH   5   6
ATOM      6  C8  ZIN A   1      18.976  -0.502   8.541  0.00  0.00     0.053 C 
BRANCH   6   7
ATOM      7  C7  ZIN A   1      18.241  -1.719   8.043  0.00  0.00    -0.027 C 
ATOM      8  C6  ZIN A   1      18.174  -2.794   8.788  0.00  0.00    -0.027 C 
BRANCH   8   9
ATOM      9  C5  ZIN A   1      18.691  -2.764  10.204  0.00  0.00     0.053 C 
BRANCH   9  10
ATOM     10  C4  ZIN A   1      17.530  -2.834  11.163  0.00  0.00    -0.027 C 
ATOM     11  C3  ZIN A   1      17.165  -3.988  11.664  0.00  0.00    -0.031 C 
BRANCH  11  12
ATOM     12  C2  ZIN A   1      18.001  -5.218  11.413  0.00  0.00     0.022 C 
ATOM     13  C1  ZIN A   1      17.248  -6.162  10.473  0.00  0.00     0.009 C 
ENDBRANCH  11  12
ENDBRANCH   9  10
ENDBRANCH   8   9
ENDBRANCH   6   7
ENDBRANCH   5   6
ENDBRANCH   3   4
ENDBRANCH   1   3
BRANCH   2  14
ATOM     14  C14 ZIN A   1      18.290   1.301  11.710  0.00  0.00     0.053 C 
BRANCH  14  15
ATOM     15  C15 ZIN A   1      17.170   0.461  12.267  0.00  0.00    -0.027 C 
ATOM     16  C16 ZIN A   1      17.250  -0.011  13.486  0.00  0.00    -0.027 C 
BRANCH  16  17
ATOM     17  C17 ZIN A   1      18.530   0.131  14.268  0.00  0.00     0.053 C 
BRANCH  17  18
ATOM     18  C18 ZIN A   1      19.011  -1.231  14.698  0.00  0.00    -0.027 C 
ATOM     19  C19 ZIN A   1      18.926  -1.589  15.956  0.00  0.00    -0.030 C 
BRANCH  19  20
ATOM     20  C20 ZIN A   1      18.202  -0.709  16.942  0.00  0.00     0.037 C 
BRANCH  20  21
ATOM     21  C21 ZIN A   1      19.150  -0.333  18.082  0.00  0.00     0.117 C 
BRANCH  21  22
ATOM     22  C22 ZIN A   1      18.906   1.096  18.490  0.00  0.00     0.172 C 
ATOM     23  O23 ZIN A   1      19.837   1.882  18.543  0.00  0.00    -0.648 OA
ATOM     24  O24 ZIN A   1      17.779   1.468  18.767  0.00  0.00    -0.648 OA
ENDBRANCH  21  22
ENDBRANCH  20  21
ENDBRANCH  19  20
ENDBRANCH  17  18
ENDBRANCH  16  17
ENDBRANCH  14  15
ENDBRANCH   2  14
TORSDOF 14
ENDMDL
MODEL 2
REMARK VINA RESULT:      -6.7      3.032      6.501
REMARK  14 active torsions:
REMARK  status: ('A' for Active; 'I' for Inactive)
REMARK    1  A    between atoms: C2_2  and  C3_3 
REMARK    2  A    between atoms: C4_4  and  C5_5 
REMARK    3  A    between atoms: C5_5  and  C6_6 
REMARK    4  A    between atoms: C7_7  and  C8_8 
REMARK    5  A    between atoms: C8_8  and  C9_9 
REMARK    6  A    between atoms: C10_10  and  C11_11 
REMARK    7  A    between atoms: C11_11  and  C12_12 
REMARK    8  A    between atoms: C13_13  and  C14_14 
REMARK    9  A    between atoms: C14_14  and  C15_15 
REMARK   10  A    between atoms: C16_16  and  C17_17 
REMARK   11  A    between atoms: C17_17  and  C18_18 
REMARK   12  A    between atoms: C19_19  and  C20_20 
REMARK   13  A    between atoms: C20_20  and  C21_21 
REMARK   14  A    between atoms: C21_21  and  C22_22 
ROOT
ATOM      1  C12 ZIN A   1      18.247  -3.737   8.535  0.00  0.00    -0.027 C 
ATOM      2  C13 ZIN A   1      18.652  -2.890   7.622  0.00  0.00    -0.027 C 
ENDROOT
BRANCH   1   3
ATOM      3  C11 ZIN A   1      18.125  -3.296   9.971  0.00  0.00     0.053 C 
BRANCH   3   4
ATOM      4  C10 ZIN A   1      19.265  -3.871  10.773  0.00  0.00    -0.027 C 
ATOM      5  C9  ZIN A   1      19.857  -3.141  11.685  0.00  0.00    -0.027 C 
BRANCH   5   6
ATOM      6  C8  ZIN A   1      19.293  -1.794  12.057  0.00  0.00     0.053 C 
BRANCH   6   7
ATOM      7  C7  ZIN A   1      20.202  -0.709  11.543  0.00  0.00    -0.027 C 
ATOM      8  C6  ZIN A   1      20.496   0.315  12.305  0.00  0.00    -0.027 C 
BRANCH   8   9
ATOM      9  C5  ZIN A   1      20.059   0.331  13.748  0.00  0.00     0.053 C 
BRANCH   9  10
ATOM     10  C4  ZIN A   1      18.796   1.144  13.880  0.00  0.00    -0.027 C 
ATOM     11  C3  ZIN A   1      17.787   0.677  14.573  0.00  0.00    -0.031 C 
BRANCH  11  12
ATOM     12  C2  ZIN A   1      17.943  -0.593  15.371  0.00  0.00     0.022 C 
ATOM     13  C1  ZIN A   1      17.087  -0.509  16.635  0.00  0.00     0.009 C 
ENDBRANCH  11  12
ENDBRANCH   9  10
ENDBRANCH   8   9
ENDBRANCH   6   7
ENDBRANCH   5   6
ENDBRANCH   3   4
ENDBRANCH   1   3
BRANCH   2  14
ATOM     14  C14 ZIN A   1      19.153  -1.526   8.027  0.00  0.00     0.053 C 
BRANCH  14  15
ATOM     15  C15 ZIN A   1      18.774  -0.518   6.973  0.00  0.00    -0.027 C 
ATOM     16  C16 ZIN A   1      18.885   0.762   7.223  0.00  0.00    -0.027 C 
BRANCH  16  17
ATOM     17  C17 ZIN A   1      19.217   1.233   8.615  0.00  0.00     0.053 C 
BRANCH  17  18
ATOM     18  C18 ZIN A   1      17.957   1.288   9.441  0.00  0.00    -0.027 C 
ATOM     19  C19 ZIN A   1      17.861   2.137  10.434  0.00  0.00    -0.030 C 
BRANCH  19  20
ATOM     20  C20 ZIN A   1      18.938   3.169  10.650  0.00  0.00     0.037 C 
BRANCH  20  21
ATOM     21  C21 ZIN A   1      18.385   4.314  11.500  0.00  0.00     0.117 C 
BRANCH  21  22
ATOM     22  C22 ZIN A   1      17.209   4.941  10.797  0.00  0.00     0.172 C 
ATOM     23  O23 ZIN A   1      17.370   5.507   9.729  0.00  0.00    -0.648 OA
ATOM     24  O24 ZIN A   1      16.098   4.882  11.294  0.00  0.00    -0.648 OA
ENDBRANCH  21  22
ENDBRANCH  20  21
ENDBRANCH  19  20
ENDBRANCH  17  18
ENDBRANCH  16  17
ENDBRANCH  14  15
ENDBRANCH   2  14
TORSDOF 14
ENDMDL
MODEL 3
REMARK VINA RESULT:      -6.7      4.843      7.288
REMARK  14 active torsions:
REMARK  status: ('A' for Active; 'I' for Inactive)
REMARK    1  A    between atoms: C2_2  and  C3_3 
REMARK    2  A    between atoms: C4_4  and  C5_5 
REMARK    3  A    between atoms: C5_5  and  C6_6 
REMARK    4  A    between atoms: C7_7  and  C8_8 
REMARK    5  A    between atoms: C8_8  and  C9_9 
REMARK    6  A    between atoms: C10_10  and  C11_11 
REMARK    7  A    between atoms: C11_11  and  C12_12 
REMARK    8  A    between atoms: C13_13  and  C14_14 
REMARK    9  A    between atoms: C14_14  and  C15_15 
REMARK   10  A    between atoms: C16_16  and  C17_17 
REMARK   11  A    between atoms: C17_17  and  C18_18 
REMARK   12  A    between atoms: C19_19  and  C20_20 
REMARK   13  A    between atoms: C20_20  and  C21_21 
REMARK   14  A    between atoms: C21_21  and  C22_22 
ROOT
ATOM      1  C12 ZIN A   1      17.397   1.308  11.727  0.00  0.00    -0.027 C 
ATOM      2  C13 ZIN A   1      17.819   2.219  10.885  0.00  0.00    -0.027 C 
ENDROOT
BRANCH   1   3
ATOM      3  C11 ZIN A   1      18.335   0.227  12.198  0.00  0.00     0.053 C 
BRANCH   3   4
ATOM      4  C10 ZIN A   1      17.571  -1.061  12.371  0.00  0.00    -0.027 C 
ATOM      5  C9  ZIN A   1      18.087  -2.190  11.951  0.00  0.00    -0.027 C 
BRANCH   5   6
ATOM      6  C8  ZIN A   1      19.509  -2.231  11.455  0.00  0.00     0.053 C 
BRANCH   6   7
ATOM      7  C7  ZIN A   1      20.123  -3.563  11.798  0.00  0.00    -0.027 C 
ATOM      8  C6  ZIN A   1      19.856  -4.615  11.066  0.00  0.00    -0.027 C 
BRANCH   8   9
ATOM      9  C5  ZIN A   1      19.066  -4.465   9.790  0.00  0.00     0.053 C 
BRANCH   9  10
ATOM     10  C4  ZIN A   1      19.271  -5.684   8.927  0.00  0.00    -0.027 C 
ATOM     11  C3  ZIN A   1      18.331  -6.593   8.844  0.00  0.00    -0.031 C 
BRANCH  11  12
ATOM     12  C2  ZIN A   1      16.986  -6.346   9.478  0.00  0.00     0.022 C 
ATOM     13  C1  ZIN A   1      16.037  -5.745   8.439  0.00  0.00     0.009 C 
ENDBRANCH  11  12
ENDBRANCH   9  10
ENDBRANCH   8   9
ENDBRANCH   6   7
ENDBRANCH   5   6
ENDBRANCH   3   4
ENDBRANCH   1   3
BRANCH   2  14
ATOM     14  C14 ZIN A   1      19.186   2.095  10.262  0.00  0.00     0.053 C 
BRANCH  14  15
ATOM     15  C15 ZIN A   1      19.087   2.347   8.779  0.00  0.00    -0.027 C 
ATOM     16  C16 ZIN A   1      19.093   1.340   7.942  0.00  0.00    -0.027 C 
BRANCH  16  17
ATOM     17  C17 ZIN A   1      19.378  -0.053   8.440  0.00  0.00     0.053 C 
BRANCH  17  18
ATOM     18  C18 ZIN A   1      18.121  -0.882   8.363  0.00  0.00    -0.027 C 
ATOM     19  C19 ZIN A   1      18.085  -1.947   7.601  0.00  0.00    -0.030 C 
BRANCH  19  20
ATOM     20  C20 ZIN A   1      19.342  -2.437   6.931  0.00  0.00     0.037 C 
BRANCH  20  21
ATOM     21  C21 ZIN A   1      19.050  -2.751   5.463  0.00  0.00     0.117 C 
BRANCH  21  22
ATOM     22  C22 ZIN A   1      18.996  -1.469   4.675  0.00  0.00     0.172 C 
ATOM     23  O23 ZIN A   1      17.949  -1.114   4.160  0.00  0.00    -0.648 OA
ATOM     24  O24 ZIN A   1      19.998  -0.786   4.551  0.00  0.00    -0.648 OA
ENDBRANCH  21  22
ENDBRANCH  20  21
ENDBRANCH  19  20
ENDBRANCH  17  18
ENDBRANCH  16  17
ENDBRANCH  14  15
ENDBRANCH   2  14
TORSDOF 14
ENDMDL
MODEL 4
REMARK VINA RESULT:      -6.7      1.474      2.435
REMARK  14 active torsions:
REMARK  status: ('A' for Active; 'I' for Inactive)
REMARK    1  A    between atoms: C2_2  and  C3_3 
REMARK    2  A    between atoms: C4_4  and  C5_5 
REMARK    3  A    between atoms: C5_5  and  C6_6 
REMARK    4  A    between atoms: C7_7  and  C8_8 
REMARK    5  A    between atoms: C8_8  and  C9_9 
REMARK    6  A    between atoms: C10_10  and  C11_11 
REMARK    7  A    between atoms: C11_11  and  C12_12 
REMARK    8  A    between atoms: C13_13  and  C14_14 
REMARK    9  A    between atoms: C14_14  and  C15_15 
REMARK   10  A    between atoms: C16_16  and  C17_17 
REMARK   11  A    between atoms: C17_17  and  C18_18 
REMARK   12  A    between atoms: C19_19  and  C20_20 
REMARK   13  A    between atoms: C20_20  and  C21_21 
REMARK   14  A    between atoms: C21_21  and  C22_22 
ROOT
ATOM      1  C12 ZIN A   1      17.733   1.456  11.852  0.00  0.00    -0.027 C 
ATOM      2  C13 ZIN A   1      17.770   0.781  12.974  0.00  0.00    -0.027 C 
ENDROOT
BRANCH   1   3
ATOM      3  C11 ZIN A   1      19.004   2.014  11.266  0.00  0.00     0.053 C 
BRANCH   3   4
ATOM      4  C10 ZIN A   1      18.669   2.922  10.111  0.00  0.00    -0.027 C 
ATOM      5  C9  ZIN A   1      18.835   2.506   8.880  0.00  0.00    -0.027 C 
BRANCH   5   6
ATOM      6  C8  ZIN A   1      19.193   1.066   8.613  0.00  0.00     0.053 C 
BRANCH   6   7
ATOM      7  C7  ZIN A   1      17.963   0.316   8.174  0.00  0.00    -0.027 C 
ATOM      8  C6  ZIN A   1      17.725  -0.883   8.643  0.00  0.00    -0.027 C 
BRANCH   8   9
ATOM      9  C5  ZIN A   1      18.590  -1.448   9.742  0.00  0.00     0.053 C 
BRANCH   9  10
ATOM     10  C4  ZIN A   1      17.716  -2.109  10.778  0.00  0.00    -0.027 C 
ATOM     11  C3  ZIN A   1      18.205  -3.059  11.536  0.00  0.00    -0.031 C 
BRANCH  11  12
ATOM     12  C2  ZIN A   1      19.677  -3.379  11.488  0.00  0.00     0.022 C 
ATOM     13  C1  ZIN A   1      19.892  -4.669  10.694  0.00  0.00     0.009 C 
ENDBRANCH  11  12
ENDBRANCH   9  10
ENDBRANCH   8   9
ENDBRANCH   6   7
ENDBRANCH   5   6
ENDBRANCH   3   4
ENDBRANCH   1   3
BRANCH   2  14
ATOM     14  C14 ZIN A   1      19.052   0.701  13.764  0.00  0.00     0.053 C 
BRANCH  14  15
ATOM     15  C15 ZIN A   1      19.401  -0.744  14.010  0.00  0.00    -0.027 C 
ATOM     16  C16 ZIN A   1      18.995  -1.338  15.104  0.00  0.00    -0.027 C 
BRANCH  16  17
ATOM     17  C17 ZIN A   1      18.336  -0.536  16.197  0.00  0.00     0.053 C 
BRANCH  17  18
ATOM     18  C18 ZIN A   1      19.057  -0.773  17.499  0.00  0.00    -0.027 C 
ATOM     19  C19 ZIN A   1      19.052   0.151  18.428  0.00  0.00    -0.030 C 
BRANCH  19  20
ATOM     20  C20 ZIN A   1      18.195   1.379  18.265  0.00  0.00     0.037 C 
BRANCH  20  21
ATOM     21  C21 ZIN A   1      19.068   2.630  18.376  0.00  0.00     0.117 C 
BRANCH  21  22
ATOM     22  C22 ZIN A   1      19.309   3.199  17.002  0.00  0.00     0.172 C 
ATOM     23  O23 ZIN A   1      20.335   3.816  16.770  0.00  0.00    -0.648 OA
ATOM     24  O24 ZIN A   1      18.479   3.044  16.123  0.00  0.00    -0.648 OA
ENDBRANCH  21  22
ENDBRANCH  20  21
ENDBRANCH  19  20
ENDBRANCH  17  18
ENDBRANCH  16  17
ENDBRANCH  14  15
ENDBRANCH   2  14
TORSDOF 14
ENDMDL
MODEL 5
REMARK VINA RESULT:      -6.7      4.322      7.824
REMARK  14 active torsions:
REMARK  status: ('A' for Active; 'I' for Inactive)
REMARK    1  A    between atoms: C2_2  and  C3_3 
REMARK    2  A    between atoms: C4_4  and  C5_5 
REMARK    3  A    between atoms: C5_5  and  C6_6 
REMARK    4  A    between atoms: C7_7  and  C8_8 
REMARK    5  A    between atoms: C8_8  and  C9_9 
REMARK    6  A    between atoms: C10_10  and  C11_11 
REMARK    7  A    between atoms: C11_11  and  C12_12 
REMARK    8  A    between atoms: C13_13  and  C14_14 
REMARK    9  A    between atoms: C14_14  and  C15_15 
REMARK   10  A    between atoms: C16_16  and  C17_17 
REMARK   11  A    between atoms: C17_17  and  C18_18 
REMARK   12  A    between atoms: C19_19  and  C20_20 
REMARK   13  A    between atoms: C20_20  and  C21_21 
REMARK   14  A    between atoms: C21_21  and  C22_22 
ROOT
ATOM      1  C12 ZIN A   1      19.130   4.423  13.976  0.00  0.00    -0.027 C 
ATOM      2  C13 ZIN A   1      19.268   4.833  12.740  0.00  0.00    -0.027 C 
ENDROOT
BRANCH   1   3
ATOM      3  C11 ZIN A   1      19.206   2.952  14.296  0.00  0.00     0.053 C 
BRANCH   3   4
ATOM      4  C10 ZIN A   1      17.832   2.343  14.193  0.00  0.00    -0.027 C 
ATOM      5  C9  ZIN A   1      17.663   1.210  13.555  0.00  0.00    -0.027 C 
BRANCH   5   6
ATOM      6  C8  ZIN A   1      18.859   0.429  13.077  0.00  0.00     0.053 C 
BRANCH   6   7
ATOM      7  C7  ZIN A   1      18.502  -1.032  12.985  0.00  0.00    -0.027 C 
ATOM      8  C6  ZIN A   1      18.671  -1.814  14.021  0.00  0.00    -0.027 C 
BRANCH   8   9
ATOM      9  C5  ZIN A   1      19.070  -1.227  15.352  0.00  0.00     0.053 C 
BRANCH   9  10
ATOM     10  C4  ZIN A   1      18.030  -1.577  16.386  0.00  0.00    -0.027 C 
ATOM     11  C3  ZIN A   1      17.688  -0.697  17.294  0.00  0.00    -0.031 C 
BRANCH  11  12
ATOM     12  C2  ZIN A   1      18.211   0.715  17.210  0.00  0.00     0.022 C 
ATOM     13  C1  ZIN A   1      19.295   0.920  18.270  0.00  0.00     0.009 C 
ENDBRANCH  11  12
ENDBRANCH   9  10
ENDBRANCH   8   9
ENDBRANCH   6   7
ENDBRANCH   5   6
ENDBRANCH   3   4
ENDBRANCH   1   3
BRANCH   2  14
ATOM     14  C14 ZIN A   1      19.339   3.829  11.617  0.00  0.00     0.053 C 
BRANCH  14  15
ATOM     15  C15 ZIN A   1      18.028   3.814  10.874  0.00  0.00    -0.027 C 
ATOM     16  C16 ZIN A   1      17.744   2.822  10.067  0.00  0.00    -0.027 C 
BRANCH  16  17
ATOM     17  C17 ZIN A   1      18.794   1.791   9.743  0.00  0.00     0.053 C 
BRANCH  17  18
ATOM     18  C18 ZIN A   1      19.426   2.118   8.414  0.00  0.00    -0.027 C 
ATOM     19  C19 ZIN A   1      19.197   1.356   7.374  0.00  0.00    -0.030 C 
BRANCH  19  20
ATOM     20  C20 ZIN A   1      18.176   0.251   7.460  0.00  0.00     0.037 C 
BRANCH  20  21
ATOM     21  C21 ZIN A   1      17.985  -0.376   6.078  0.00  0.00     0.117 C 
BRANCH  21  22
ATOM     22  C22 ZIN A   1      19.242  -1.103   5.676  0.00  0.00     0.172 C 
ATOM     23  O23 ZIN A   1      19.828  -0.785   4.655  0.00  0.00    -0.648 OA
ATOM     24  O24 ZIN A   1      19.673  -2.006   6.370  0.00  0.00    -0.648 OA
ENDBRANCH  21  22
ENDBRANCH  20  21
ENDBRANCH  19  20
ENDBRANCH  17  18
ENDBRANCH  16  17
ENDBRANCH  14  15
ENDBRANCH   2  14
TORSDOF 14
ENDMDL
MODEL 6
REMARK VINA RESULT:      -6.6      2.893      7.754
REMARK  14 active torsions:
REMARK  status: ('A' for Active; 'I' for Inactive)
REMARK    1  A    between atoms: C2_2  and  C3_3 
REMARK    2  A    between atoms: C4_4  and  C5_5 
REMARK    3  A    between atoms: C5_5  and  C6_6 
REMARK    4  A    between atoms: C7_7  and  C8_8 
REMARK    5  A    between atoms: C8_8  and  C9_9 
REMARK    6  A    between atoms: C10_10  and  C11_11 
REMARK    7  A    between atoms: C11_11  and  C12_12 
REMARK    8  A    between atoms: C13_13  and  C14_14 
REMARK    9  A    between atoms: C14_14  and  C15_15 
REMARK   10  A    between atoms: C16_16  and  C17_17 
REMARK   11  A    between atoms: C17_17  and  C18_18 
REMARK   12  A    between atoms: C19_19  and  C20_20 
REMARK   13  A    between atoms: C20_20  and  C21_21 
REMARK   14  A    between atoms: C21_21  and  C22_22 
ROOT
ATOM      1  C12 ZIN A   1      19.900   0.263  13.827  0.00  0.00    -0.027 C 
ATOM      2  C13 ZIN A   1      19.941   0.930  12.701  0.00  0.00    -0.027 C 
ENDROOT
BRANCH   1   3
ATOM      3  C11 ZIN A   1      18.578   0.005  14.504  0.00  0.00     0.053 C 
BRANCH   3   4
ATOM      4  C10 ZIN A   1      18.558  -1.400  15.050  0.00  0.00    -0.027 C 
ATOM      5  C9  ZIN A   1      18.264  -1.608  16.310  0.00  0.00    -0.027 C 
BRANCH   5   6
ATOM      6  C8  ZIN A   1      17.776  -0.470  17.168  0.00  0.00     0.053 C 
BRANCH   6   7
ATOM      7  C7  ZIN A   1      18.843  -0.101  18.166  0.00  0.00    -0.027 C 
ATOM      8  C6  ZIN A   1      19.237   1.143  18.274  0.00  0.00    -0.027 C 
BRANCH   8   9
ATOM      9  C5  ZIN A   1      18.515   2.231  17.519  0.00  0.00     0.053 C 
BRANCH   9  10
ATOM     10  C4  ZIN A   1      19.462   3.374  17.258  0.00  0.00    -0.027 C 
ATOM     11  C3  ZIN A   1      19.475   3.960  16.086  0.00  0.00    -0.031 C 
BRANCH  11  12
ATOM     12  C2  ZIN A   1      18.436   3.602  15.054  0.00  0.00     0.022 C 
ATOM     13  C1  ZIN A   1      17.586   4.833  14.738  0.00  0.00     0.009 C 
ENDBRANCH  11  12
ENDBRANCH   9  10
ENDBRANCH   8   9
ENDBRANCH   6   7
ENDBRANCH   5   6
ENDBRANCH   3   4
ENDBRANCH   1   3
BRANCH   2  14
ATOM     14  C14 ZIN A   1      18.691   1.582  12.166  0.00  0.00     0.053 C 
BRANCH  14  15
ATOM     15  C15 ZIN A   1      19.060   2.832  11.411  0.00  0.00    -0.027 C 
ATOM     16  C16 ZIN A   1      18.812   2.920  10.128  0.00  0.00    -0.027 C 
BRANCH  16  17
ATOM     17  C17 ZIN A   1      18.324   1.712   9.370  0.00  0.00     0.053 C 
BRANCH  17  18
ATOM     18  C18 ZIN A   1      19.496   1.013   8.730  0.00  0.00    -0.027 C 
ATOM     19  C19 ZIN A   1      19.606  -0.290   8.812  0.00  0.00    -0.030 C 
BRANCH  19  20
ATOM     20  C20 ZIN A   1      18.484  -1.105   9.400  0.00  0.00     0.037 C 
BRANCH  20  21
ATOM     21  C21 ZIN A   1      18.997  -1.876  10.618  0.00  0.00     0.117 C 
BRANCH  21  22
ATOM     22  C22 ZIN A   1      17.836  -2.257  11.499  0.00  0.00     0.172 C 
ATOM     23  O23 ZIN A   1      16.935  -1.459  11.697  0.00  0.00    -0.648 OA
ATOM     24  O24 ZIN A   1      17.796  -3.361  12.013  0.00  0.00    -0.648 OA
ENDBRANCH  21  22
ENDBRANCH  20  21
ENDBRANCH  19  20
ENDBRANCH  17  18
ENDBRANCH  16  17
ENDBRANCH  14  15
ENDBRANCH   2  14
TORSDOF 14
ENDMDL
MODEL 7
REMARK VINA RESULT:      -6.6      3.168      6.088
REMARK  14 active torsions:
REMARK  status: ('A' for Active; 'I' for Inactive)
REMARK    1  A    between atoms: C2_2  and  C3_3 
REMARK    2  A    between atoms: C4_4  and  C5_5 
REMARK    3  A    between atoms: C5_5  and  C6_6 
REMARK    4  A    between atoms: C7_7  and  C8_8 
REMARK    5  A    between atoms: C8_8  and  C9_9 
REMARK    6  A    between atoms: C10_10  and  C11_11 
REMARK    7  A    between atoms: C11_11  and  C12_12 
REMARK    8  A    between atoms: C13_13  and  C14_14 
REMARK    9  A    between atoms: C14_14  and  C15_15 
REMARK   10  A    between atoms: C16_16  and  C17_17 
REMARK   11  A    between atoms: C17_17  and  C18_18 
REMARK   12  A    between atoms: C19_19  and  C20_20 
REMARK   13  A    between atoms: C20_20  and  C21_21 
REMARK   14  A    between atoms: C21_21  and  C22_22 
ROOT
ATOM      1  C12 ZIN A   1      18.712  -1.378  15.159  0.00  0.00    -0.027 C 
ATOM      2  C13 ZIN A   1      18.568  -1.457  16.458  0.00  0.00    -0.027 C 
ENDROOT
BRANCH   1   3
ATOM      3  C11 ZIN A   1      18.449  -0.075  14.449  0.00  0.00     0.053 C 
BRANCH   3   4
ATOM      4  C10 ZIN A   1      19.761   0.580  14.098  0.00  0.00    -0.027 C 
ATOM      5  C9  ZIN A   1      20.283   0.405  12.910  0.00  0.00    -0.027 C 
BRANCH   5   6
ATOM      6  C8  ZIN A   1      19.496  -0.302  11.837  0.00  0.00     0.053 C 
BRANCH   6   7
ATOM      7  C7  ZIN A   1      20.390  -0.573  10.654  0.00  0.00    -0.027 C 
ATOM      8  C6  ZIN A   1      19.987  -0.267   9.446  0.00  0.00    -0.027 C 
BRANCH   8   9
ATOM      9  C5  ZIN A   1      18.704   0.500   9.251  0.00  0.00     0.053 C 
BRANCH   9  10
ATOM     10  C4  ZIN A   1      19.011   1.843   8.638  0.00  0.00    -0.027 C 
ATOM     11  C3  ZIN A   1      18.726   2.942   9.291  0.00  0.00    -0.031 C 
BRANCH  11  12
ATOM     12  C2  ZIN A   1      18.243   2.866  10.718  0.00  0.00     0.022 C 
ATOM     13  C1  ZIN A   1      19.149   3.717  11.608  0.00  0.00     0.009 C 
ENDBRANCH  11  12
ENDBRANCH   9  10
ENDBRANCH   8   9
ENDBRANCH   6   7
ENDBRANCH   5   6
ENDBRANCH   3   4
ENDBRANCH   1   3
BRANCH   2  14
ATOM     14  C14 ZIN A   1      17.984  -0.296  17.224  0.00  0.00     0.053 C 
BRANCH  14  15
ATOM     15  C15 ZIN A   1      19.026   0.264  18.158  0.00  0.00    -0.027 C 
ATOM     16  C16 ZIN A   1      19.233   1.556  18.207  0.00  0.00    -0.027 C 
BRANCH  16  17
ATOM     17  C17 ZIN A   1      18.564   2.466  17.209  0.00  0.00     0.053 C 
BRANCH  17  18
ATOM     18  C18 ZIN A   1      19.595   3.366  16.579  0.00  0.00    -0.027 C 
ATOM     19  C19 ZIN A   1      19.301   4.044  15.497  0.00  0.00    -0.030 C 
BRANCH  19  20
ATOM     20  C20 ZIN A   1      17.888   4.052  14.975  0.00  0.00     0.037 C 
BRANCH  20  21
ATOM     21  C21 ZIN A   1      17.324   5.471  15.049  0.00  0.00     0.117 C 
BRANCH  21  22
ATOM     22  C22 ZIN A   1      16.129   5.587  14.139  0.00  0.00     0.172 C 
ATOM     23  O23 ZIN A   1      16.264   5.441  12.935  0.00  0.00    -0.648 OA
ATOM     24  O24 ZIN A   1      15.028   5.827  14.603  0.00  0.00    -0.648 OA
ENDBRANCH  21  22
ENDBRANCH  20  21
ENDBRANCH  19  20
ENDBRANCH  17  18
ENDBRANCH  16  17
ENDBRANCH  14  15
ENDBRANCH   2  14
TORSDOF 14
ENDMDL
MODEL 8
REMARK VINA RESULT:      -6.6      3.108      7.117
REMARK  14 active torsions:
REMARK  status: ('A' for Active; 'I' for Inactive)
REMARK    1  A    between atoms: C2_2  and  C3_3 
REMARK    2  A    between atoms: C4_4  and  C5_5 
REMARK    3  A    between atoms: C5_5  and  C6_6 
REMARK    4  A    between atoms: C7_7  and  C8_8 
REMARK    5  A    between atoms: C8_8  and  C9_9 
REMARK    6  A    between atoms: C10_10  and  C11_11 
REMARK    7  A    between atoms: C11_11  and  C12_12 
REMARK    8  A    between atoms: C13_13  and  C14_14 
REMARK    9  A    between atoms: C14_14  and  C15_15 
REMARK   10  A    between atoms: C16_16  and  C17_17 
REMARK   11  A    between atoms: C17_17  and  C18_18 
REMARK   12  A    between atoms: C19_19  and  C20_20 
REMARK   13  A    between atoms: C20_20  and  C21_21 
REMARK   14  A    between atoms: C21_21  and  C22_22 
ROOT
ATOM      1  C12 ZIN A   1      19.447   5.076  13.834  0.00  0.00    -0.027 C 
ATOM      2  C13 ZIN A   1      19.609   4.704  12.588  0.00  0.00    -0.027 C 
ENDROOT
BRANCH   1   3
ATOM      3  C11 ZIN A   1      19.001   4.075  14.868  0.00  0.00     0.053 C 
BRANCH   3   4
ATOM      4  C10 ZIN A   1      19.693   4.361  16.176  0.00  0.00    -0.027 C 
ATOM      5  C9  ZIN A   1      19.472   3.595  17.215  0.00  0.00    -0.027 C 
BRANCH   5   6
ATOM      6  C8  ZIN A   1      18.666   2.330  17.062  0.00  0.00     0.053 C 
BRANCH   6   7
ATOM      7  C7  ZIN A   1      19.135   1.310  18.067  0.00  0.00    -0.027 C 
ATOM      8  C6  ZIN A   1      18.606   0.113  18.080  0.00  0.00    -0.027 C 
BRANCH   8   9
ATOM      9  C5  ZIN A   1      17.647  -0.300  16.993  0.00  0.00     0.053 C 
BRANCH   9  10
ATOM     10  C4  ZIN A   1      18.208  -1.487  16.253  0.00  0.00    -0.027 C 
ATOM     11  C3  ZIN A   1      18.497  -1.388  14.979  0.00  0.00    -0.031 C 
BRANCH  11  12
ATOM     12  C2  ZIN A   1      18.423  -0.048  14.292  0.00  0.00     0.022 C 
ATOM     13  C1  ZIN A   1      19.838   0.449  13.990  0.00  0.00     0.009 C 
ENDBRANCH  11  12
ENDBRANCH   9  10
ENDBRANCH   8   9
ENDBRANCH   6   7
ENDBRANCH   5   6
ENDBRANCH   3   4
ENDBRANCH   1   3
BRANCH   2  14
ATOM     14  C14 ZIN A   1      19.194   3.321  12.155  0.00  0.00     0.053 C 
BRANCH  14  15
ATOM     15  C15 ZIN A   1      17.941   3.410  11.322  0.00  0.00    -0.027 C 
ATOM     16  C16 ZIN A   1      17.908   2.869  10.130  0.00  0.00    -0.027 C 
BRANCH  16  17
ATOM     17  C17 ZIN A   1      19.169   2.317   9.518  0.00  0.00     0.053 C 
BRANCH  17  18
ATOM     18  C18 ZIN A   1      18.812   1.347   8.420  0.00  0.00    -0.027 C 
ATOM     19  C19 ZIN A   1      18.888   0.057   8.635  0.00  0.00    -0.030 C 
BRANCH  19  20
ATOM     20  C20 ZIN A   1      19.174  -0.460  10.021  0.00  0.00     0.037 C 
BRANCH  20  21
ATOM     21  C21 ZIN A   1      17.862  -0.873  10.692  0.00  0.00     0.117 C 
BRANCH  21  22
ATOM     22  C22 ZIN A   1      18.025  -2.231  11.323  0.00  0.00     0.172 C 
ATOM     23  O23 ZIN A   1      17.063  -2.974  11.425  0.00  0.00    -0.648 OA
ATOM     24  O24 ZIN A   1      19.116  -2.589  11.730  0.00  0.00    -0.648 OA
ENDBRANCH  21  22
ENDBRANCH  20  21
ENDBRANCH  19  20
ENDBRANCH  17  18
ENDBRANCH  16  17
ENDBRANCH  14  15
ENDBRANCH   2  14
TORSDOF 14
ENDMDL
MODEL 9
REMARK VINA RESULT:      -6.6      2.449      5.655
REMARK  14 active torsions:
REMARK  status: ('A' for Active; 'I' for Inactive)
REMARK    1  A    between atoms: C2_2  and  C3_3 
REMARK    2  A    between atoms: C4_4  and  C5_5 
REMARK    3  A    between atoms: C5_5  and  C6_6 
REMARK    4  A    between atoms: C7_7  and  C8_8 
REMARK    5  A    between atoms: C8_8  and  C9_9 
REMARK    6  A    between atoms: C10_10  and  C11_11 
REMARK    7  A    between atoms: C11_11  and  C12_12 
REMARK    8  A    between atoms: C13_13  and  C14_14 
REMARK    9  A    between atoms: C14_14  and  C15_15 
REMARK   10  A    between atoms: C16_16  and  C17_17 
REMARK   11  A    between atoms: C17_17  and  C18_18 
REMARK   12  A    between atoms: C19_19  and  C20_20 
REMARK   13  A    between atoms: C20_20  and  C21_21 
REMARK   14  A    between atoms: C21_21  and  C22_22 
ROOT
ATOM      1  C12 ZIN A   1      17.178  -0.954  12.025  0.00  0.00    -0.027 C 
ATOM      2  C13 ZIN A   1      17.672  -0.714  13.215  0.00  0.00    -0.027 C 
ENDROOT
BRANCH   1   3
ATOM      3  C11 ZIN A   1      16.767   0.190  11.135  0.00  0.00     0.053 C 
BRANCH   3   4
ATOM      4  C10 ZIN A   1      17.357  -0.005   9.761  0.00  0.00    -0.027 C 
ATOM      5  C9  ZIN A   1      18.219   0.862   9.289  0.00  0.00    -0.027 C 
BRANCH   5   6
ATOM      6  C8  ZIN A   1      18.752   1.955  10.179  0.00  0.00     0.053 C 
BRANCH   6   7
ATOM      7  C7  ZIN A   1      18.385   3.298   9.601  0.00  0.00    -0.027 C 
ATOM      8  C6  ZIN A   1      17.785   4.190  10.348  0.00  0.00    -0.027 C 
BRANCH   8   9
ATOM      9  C5  ZIN A   1      17.605   3.940  11.824  0.00  0.00     0.053 C 
BRANCH   9  10
ATOM     10  C4  ZIN A   1      18.679   4.671  12.590  0.00  0.00    -0.027 C 
ATOM     11  C3  ZIN A   1      18.374   5.318  13.688  0.00  0.00    -0.031 C 
BRANCH  11  12
ATOM     12  C2  ZIN A   1      16.989   5.200  14.272  0.00  0.00     0.022 C 
ATOM     13  C1  ZIN A   1      16.271   6.545  14.157  0.00  0.00     0.009 C 
ENDBRANCH  11  12
ENDBRANCH   9  10
ENDBRANCH   8   9
ENDBRANCH   6   7
ENDBRANCH   5   6
ENDBRANCH   3   4
ENDBRANCH   1   3
BRANCH   2  14
ATOM     14  C14 ZIN A   1      17.678   0.692  13.758  0.00  0.00     0.053 C 
BRANCH  14  15
ATOM     15  C15 ZIN A   1      19.098   1.190  13.844  0.00  0.00    -0.027 C 
ATOM     16  C16 ZIN A   1      19.488   1.879  14.887  0.00  0.00    -0.027 C 
BRANCH  16  17
ATOM     17  C17 ZIN A   1      18.480   2.327  15.914  0.00  0.00     0.053 C 
BRANCH  17  18
ATOM     18  C18 ZIN A   1      19.199   2.798  17.152  0.00  0.00    -0.027 C 
ATOM     19  C19 ZIN A   1      19.011   2.181  18.293  0.00  0.00    -0.030 C 
BRANCH  19  20
ATOM     20  C20 ZIN A   1      18.208   0.907  18.338  0.00  0.00     0.037 C 
BRANCH  20  21
ATOM     21  C21 ZIN A   1      19.134  -0.288  18.103  0.00  0.00     0.117 C 
BRANCH  21  22
ATOM     22  C22 ZIN A   1      18.617  -1.106  16.948  0.00  0.00     0.172 C 
ATOM     23  O23 ZIN A   1      17.416  -1.269  16.807  0.00  0.00    -0.648 OA
ATOM     24  O24 ZIN A   1      19.397  -1.605  16.156  0.00  0.00    -0.648 OA
ENDBRANCH  21  22
ENDBRANCH  20  21
ENDBRANCH  19  20
ENDBRANCH  17  18
ENDBRANCH  16  17
ENDBRANCH  14  15
ENDBRANCH   2  14
TORSDOF 14
ENDMDL
