MODEL 1
REMARK VINA RESULT:      -6.7      0.000      0.000
REMARK  6 active torsions:
REMARK  status: ('A' for Active; 'I' for Inactive)
REMARK    1  A    between atoms: C7_7  and  C8_8 
REMARK    2  A    between atoms: C8_8  and  O10_9 
REMARK    3  A    between atoms: C8_8  and  C17_16 
REMARK    4  A    between atoms: O10_9  and  C11_10 
REMARK    5  A    between atoms: C11_10  and  C12_11 
REMARK    6  A    between atoms: C12_11  and  N13_12 
ROOT
ATOM      1  C8  ZIN A   1      18.441   0.768  10.390  0.00  0.00     0.188 C 
ENDROOT
BRANCH   1   2
ATOM      2  C7  ZIN A   1      18.507  -0.636  10.936  0.00  0.00    -0.019 A 
ATOM      3  C2  ZIN A   1      19.732  -1.249  11.117  0.00  0.00    -0.053 A 
ATOM      4  C1  ZIN A   1      21.003  -0.513  10.775  0.00  0.00     0.049 C 
ATOM      5  C3  ZIN A   1      19.794  -2.536  11.618  0.00  0.00     0.007 A 
ATOM      6  C4  ZIN A   1      18.629  -3.211  11.932  0.00  0.00     0.001 A 
ATOM      7  C5  ZIN A   1      17.404  -2.600  11.745  0.00  0.00     0.001 A 
ATOM      8  C6  ZIN A   1      17.343  -1.313  11.245  0.00  0.00     0.011 A 
ENDBRANCH   1   2
BRANCH   1   9
ATOM      9  O10 ZIN A   1      17.314   1.443  10.951  0.00  0.00    -0.375 OA
BRANCH   9  10
ATOM     10  C11 ZIN A   1      17.630   2.697  11.557  0.00  0.00     0.196 C 
BRANCH  10  11
ATOM     11  C12 ZIN A   1      19.097   2.698  11.992  0.00  0.00     0.260 C 
BRANCH  11  12
ATOM     12  N13 ZIN A   1      19.174   2.741  13.459  0.00  0.00    -0.077 N 
ATOM     13  H14 ZIN A   1      20.016   3.223  13.737  0.00  0.00     0.279 HD
ATOM     14  C15 ZIN A   1      18.004   3.452  13.989  0.00  0.00     0.269 C 
ATOM     15  C16 ZIN A   1      19.197   1.371  13.989  0.00  0.00     0.269 C 
ENDBRANCH  11  12
ENDBRANCH  10  11
ENDBRANCH   9  10
ENDBRANCH   1   9
BRANCH   1  16
ATOM     16  C17 ZIN A   1      18.301   0.717   8.891  0.00  0.00    -0.025 A 
ATOM     17  C22 ZIN A   1      19.140   1.473   8.092  0.00  0.00     0.010 A 
ATOM     18  C21 ZIN A   1      19.014   1.424   6.717  0.00  0.00     0.001 A 
ATOM     19  C20 ZIN A   1      18.044   0.626   6.140  0.00  0.00     0.000 A 
ATOM     20  C19 ZIN A   1      17.202  -0.126   6.937  0.00  0.00     0.001 A 
ATOM     21  C18 ZIN A   1      17.330  -0.079   8.313  0.00  0.00     0.010 A 
ENDBRANCH   1  16
TORSDOF 6
ENDMDL
MODEL 2
REMARK VINA RESULT:      -6.7      2.021      4.590
REMARK  6 active torsions:
REMARK  status: ('A' for Active; 'I' for Inactive)
REMARK    1  A    between atoms: C7_7  and  C8_8 
REMARK    2  A    between atoms: C8_8  and  O10_9 
REMARK    3  A    between atoms: C8_8  and  C17_16 
REMARK    4  A    between atoms: O10_9  and  C11_10 
REMARK    5  A    between atoms: C11_10  and  C12_11 
REMARK    6  A    between atoms: C12_11  and  N13_12 
ROOT
ATOM      1  C8  ZIN A   1      18.680   0.700   9.979  0.00  0.00     0.188 C 
ENDROOT
BRANCH   1   2
ATOM      2  C7  ZIN A   1      18.261   2.069  10.453  0.00  0.00    -0.019 A 
ATOM      3  C2  ZIN A   1      17.727   2.227  11.719  0.00  0.00    -0.053 A 
ATOM      4  C1  ZIN A   1      17.570   1.034  12.626  0.00  0.00     0.049 C 
ATOM      5  C3  ZIN A   1      17.343   3.481  12.155  0.00  0.00     0.007 A 
ATOM      6  C4  ZIN A   1      17.488   4.576  11.324  0.00  0.00     0.001 A 
ATOM      7  C5  ZIN A   1      18.016   4.417  10.056  0.00  0.00     0.001 A 
ATOM      8  C6  ZIN A   1      18.401   3.162   9.621  0.00  0.00     0.011 A 
ENDBRANCH   1   2
BRANCH   1   9
ATOM      9  O10 ZIN A   1      20.079   0.525  10.209  0.00  0.00    -0.375 OA
BRANCH   9  10
ATOM     10  C11 ZIN A   1      20.392  -0.558  11.087  0.00  0.00     0.196 C 
BRANCH  10  11
ATOM     11  C12 ZIN A   1      19.301  -1.626  10.989  0.00  0.00     0.260 C 
BRANCH  11  12
ATOM     12  N13 ZIN A   1      19.848  -2.828  10.344  0.00  0.00    -0.077 N 
ATOM     13  H14 ZIN A   1      20.732  -2.604   9.913  0.00  0.00     0.279 HD
ATOM     14  C15 ZIN A   1      20.045  -3.877  11.353  0.00  0.00     0.269 C 
ATOM     15  C16 ZIN A   1      18.910  -3.303   9.319  0.00  0.00     0.269 C 
ENDBRANCH  11  12
ENDBRANCH  10  11
ENDBRANCH   9  10
ENDBRANCH   1   9
BRANCH   1  16
ATOM     16  C17 ZIN A   1      18.393   0.571   8.506  0.00  0.00    -0.025 A 
ATOM     17  C22 ZIN A   1      19.267   1.114   7.582  0.00  0.00     0.010 A 
ATOM     18  C21 ZIN A   1      19.006   0.994   6.229  0.00  0.00     0.001 A 
ATOM     19  C20 ZIN A   1      17.868   0.337   5.802  0.00  0.00     0.000 A 
ATOM     20  C19 ZIN A   1      16.991  -0.201   6.725  0.00  0.00     0.001 A 
ATOM     21  C18 ZIN A   1      17.254  -0.083   8.077  0.00  0.00     0.010 A 
ENDBRANCH   1  16
TORSDOF 6
ENDMDL
MODEL 3
REMARK VINA RESULT:      -6.7      2.364      5.549
REMARK  6 active torsions:
REMARK  status: ('A' for Active; 'I' for Inactive)
REMARK    1  A    between atoms: C7_7  and  C8_8 
REMARK    2  A    between atoms: C8_8  and  O10_9 
REMARK    3  A    between atoms: C8_8  and  C17_16 
REMARK    4  A    between atoms: O10_9  and  C11_10 
REMARK    5  A    between atoms: C11_10  and  C12_11 
REMARK    6  A    between atoms: C12_11  and  N13_12 
ROOT
ATOM      1  C8  ZIN A   1      19.036  -0.204  13.197  0.00  0.00     0.188 C 
ENDROOT
BRANCH   1   2
ATOM      2  C7  ZIN A   1      18.773  -1.462  12.408  0.00  0.00    -0.019 A 
ATOM      3  C2  ZIN A   1      17.640  -1.559  11.621  0.00  0.00    -0.053 A 
ATOM      4  C1  ZIN A   1      16.672  -0.406  11.546  0.00  0.00     0.049 C 
ATOM      5  C3  ZIN A   1      17.399  -2.712  10.897  0.00  0.00     0.007 A 
ATOM      6  C4  ZIN A   1      18.287  -3.769  10.965  0.00  0.00     0.001 A 
ATOM      7  C5  ZIN A   1      19.416  -3.674  11.757  0.00  0.00     0.001 A 
ATOM      8  C6  ZIN A   1      19.658  -2.520  12.480  0.00  0.00     0.011 A 
ENDBRANCH   1   2
BRANCH   1   9
ATOM      9  O10 ZIN A   1      20.428   0.110  13.140  0.00  0.00    -0.375 OA
BRANCH   9  10
ATOM     10  C11 ZIN A   1      20.806   0.875  11.993  0.00  0.00     0.196 C 
BRANCH  10  11
ATOM     11  C12 ZIN A   1      19.723   1.913  11.694  0.00  0.00     0.260 C 
BRANCH  11  12
ATOM     12  N13 ZIN A   1      19.670   2.163  10.247  0.00  0.00    -0.077 N 
ATOM     13  H14 ZIN A   1      20.530   2.599   9.950  0.00  0.00     0.279 HD
ATOM     14  C15 ZIN A   1      19.495   0.890   9.537  0.00  0.00     0.269 C 
ATOM     15  C16 ZIN A   1      18.540   3.052   9.945  0.00  0.00     0.269 C 
ENDBRANCH  11  12
ENDBRANCH  10  11
ENDBRANCH   9  10
ENDBRANCH   1   9
BRANCH   1  16
ATOM     16  C17 ZIN A   1      18.627  -0.417  14.631  0.00  0.00    -0.025 A 
ATOM     17  C22 ZIN A   1      19.345  -1.284  15.433  0.00  0.00     0.010 A 
ATOM     18  C21 ZIN A   1      18.972  -1.478  16.750  0.00  0.00     0.001 A 
ATOM     19  C20 ZIN A   1      17.876  -0.810  17.262  0.00  0.00     0.000 A 
ATOM     20  C19 ZIN A   1      17.155   0.053  16.460  0.00  0.00     0.001 A 
ATOM     21  C18 ZIN A   1      17.530   0.249  15.144  0.00  0.00     0.010 A 
ENDBRANCH   1  16
TORSDOF 6
ENDMDL
MODEL 4
REMARK VINA RESULT:      -6.7      1.831      4.495
REMARK  6 active torsions:
REMARK  status: ('A' for Active; 'I' for Inactive)
REMARK    1  A    between atoms: C7_7  and  C8_8 
REMARK    2  A    between atoms: C8_8  and  O10_9 
REMARK    3  A    between atoms: C8_8  and  C17_16 
REMARK    4  A    between atoms: O10_9  and  C11_10 
REMARK    5  A    between atoms: C11_10  and  C12_11 
REMARK    6  A    between atoms: C12_11  and  N13_12 
ROOT
ATOM      1  C8  ZIN A   1      18.582   1.551  11.029  0.00  0.00     0.188 C 
ENDROOT
BRANCH   1   2
ATOM      2  C7  ZIN A   1      18.021   2.939  11.207  0.00  0.00    -0.019 A 
ATOM      3  C2  ZIN A   1      17.617   3.365  12.459  0.00  0.00    -0.053 A 
ATOM      4  C1  ZIN A   1      17.743   2.444  13.646  0.00  0.00     0.049 C 
ATOM      5  C3  ZIN A   1      17.104   4.637  12.624  0.00  0.00     0.007 A 
ATOM      6  C4  ZIN A   1      16.990   5.482  11.536  0.00  0.00     0.001 A 
ATOM      7  C5  ZIN A   1      17.388   5.054  10.283  0.00  0.00     0.001 A 
ATOM      8  C6  ZIN A   1      17.903   3.782  10.119  0.00  0.00     0.011 A 
ENDBRANCH   1   2
BRANCH   1   9
ATOM      9  O10 ZIN A   1      19.970   1.552  11.367  0.00  0.00    -0.375 OA
BRANCH   9  10
ATOM     10  C11 ZIN A   1      20.465   0.282  11.795  0.00  0.00     0.196 C 
BRANCH  10  11
ATOM     11  C12 ZIN A   1      20.376   0.187  13.320  0.00  0.00     0.260 C 
BRANCH  11  12
ATOM     12  N13 ZIN A   1      19.971  -1.172  13.704  0.00  0.00    -0.077 N 
ATOM     13  H14 ZIN A   1      20.790  -1.713  13.938  0.00  0.00     0.279 HD
ATOM     14  C15 ZIN A   1      19.077  -1.106  14.867  0.00  0.00     0.269 C 
ATOM     15  C16 ZIN A   1      19.268  -1.809  12.582  0.00  0.00     0.269 C 
ENDBRANCH  11  12
ENDBRANCH  10  11
ENDBRANCH   9  10
ENDBRANCH   1   9
BRANCH   1  16
ATOM     16  C17 ZIN A   1      18.415   1.123   9.594  0.00  0.00    -0.025 A 
ATOM     17  C22 ZIN A   1      17.420   0.226   9.252  0.00  0.00     0.010 A 
ATOM     18  C21 ZIN A   1      17.264  -0.165   7.935  0.00  0.00     0.001 A 
ATOM     19  C20 ZIN A   1      18.108   0.336   6.962  0.00  0.00     0.000 A 
ATOM     20  C19 ZIN A   1      19.106   1.228   7.304  0.00  0.00     0.001 A 
ATOM     21  C18 ZIN A   1      19.259   1.622   8.620  0.00  0.00     0.010 A 
ENDBRANCH   1  16
TORSDOF 6
ENDMDL
MODEL 5
REMARK VINA RESULT:      -6.5      2.602      4.892
REMARK  6 active torsions:
REMARK  status: ('A' for Active; 'I' for Inactive)
REMARK    1  A    between atoms: C7_7  and  C8_8 
REMARK    2  A    between atoms: C8_8  and  O10_9 
REMARK    3  A    between atoms: C8_8  and  C17_16 
REMARK    4  A    between atoms: O10_9  and  C11_10 
REMARK    5  A    between atoms: C11_10  and  C12_11 
REMARK    6  A    between atoms: C12_11  and  N13_12 
ROOT
ATOM      1  C8  ZIN A   1      18.273  -0.801   9.136  0.00  0.00     0.188 C 
ENDROOT
BRANCH   1   2
ATOM      2  C7  ZIN A   1      18.259   0.635   9.594  0.00  0.00    -0.019 A 
ATOM      3  C2  ZIN A   1      17.503   1.003  10.691  0.00  0.00    -0.053 A 
ATOM      4  C1  ZIN A   1      16.697  -0.033  11.434  0.00  0.00     0.049 C 
ATOM      5  C3  ZIN A   1      17.491   2.319  11.113  0.00  0.00     0.007 A 
ATOM      6  C4  ZIN A   1      18.230   3.269  10.433  0.00  0.00     0.001 A 
ATOM      7  C5  ZIN A   1      18.981   2.902   9.332  0.00  0.00     0.001 A 
ATOM      8  C6  ZIN A   1      18.994   1.586   8.911  0.00  0.00     0.011 A 
ENDBRANCH   1   2
BRANCH   1   9
ATOM      9  O10 ZIN A   1      19.472  -1.433   9.586  0.00  0.00    -0.375 OA
BRANCH   9  10
ATOM     10  C11 ZIN A   1      19.260  -2.456  10.561  0.00  0.00     0.196 C 
BRANCH  10  11
ATOM     11  C12 ZIN A   1      19.213  -3.819   9.868  0.00  0.00     0.260 C 
BRANCH  11  12
ATOM     12  N13 ZIN A   1      17.961  -4.504  10.217  0.00  0.00    -0.077 N 
ATOM     13  H14 ZIN A   1      18.169  -5.437  10.542  0.00  0.00     0.279 HD
ATOM     14  C15 ZIN A   1      17.275  -3.757  11.279  0.00  0.00     0.269 C 
ATOM     15  C16 ZIN A   1      17.097  -4.579   9.032  0.00  0.00     0.269 C 
ENDBRANCH  11  12
ENDBRANCH  10  11
ENDBRANCH   9  10
ENDBRANCH   1   9
BRANCH   1  16
ATOM     16  C17 ZIN A   1      18.215  -0.848   7.631  0.00  0.00    -0.025 A 
ATOM     17  C22 ZIN A   1      19.211  -1.493   6.921  0.00  0.00     0.010 A 
ATOM     18  C21 ZIN A   1      19.157  -1.539   5.541  0.00  0.00     0.001 A 
ATOM     19  C20 ZIN A   1      18.113  -0.933   4.870  0.00  0.00     0.000 A 
ATOM     20  C19 ZIN A   1      17.120  -0.283   5.578  0.00  0.00     0.001 A 
ATOM     21  C18 ZIN A   1      17.172  -0.240   6.959  0.00  0.00     0.010 A 
ENDBRANCH   1  16
TORSDOF 6
ENDMDL
MODEL 6
REMARK VINA RESULT:      -6.5      2.748      5.324
REMARK  6 active torsions:
REMARK  status: ('A' for Active; 'I' for Inactive)
REMARK    1  A    between atoms: C7_7  and  C8_8 
REMARK    2  A    between atoms: C8_8  and  O10_9 
REMARK    3  A    between atoms: C8_8  and  C17_16 
REMARK    4  A    between atoms: O10_9  and  C11_10 
REMARK    5  A    between atoms: C11_10  and  C12_11 
REMARK    6  A    between atoms: C12_11  and  N13_12 
ROOT
ATOM      1  C8  ZIN A   1      18.824  -0.043  13.209  0.00  0.00     0.188 C 
ENDROOT
BRANCH   1   2
ATOM      2  C7  ZIN A   1      18.669  -1.293  12.380  0.00  0.00    -0.019 A 
ATOM      3  C2  ZIN A   1      17.642  -1.388  11.460  0.00  0.00    -0.053 A 
ATOM      4  C1  ZIN A   1      16.680  -0.241  11.281  0.00  0.00     0.049 C 
ATOM      5  C3  ZIN A   1      17.500  -2.533  10.699  0.00  0.00     0.007 A 
ATOM      6  C4  ZIN A   1      18.382  -3.585  10.863  0.00  0.00     0.001 A 
ATOM      7  C5  ZIN A   1      19.405  -3.492  11.787  0.00  0.00     0.001 A 
ATOM      8  C6  ZIN A   1      19.548  -2.346  12.547  0.00  0.00     0.011 A 
ENDBRANCH   1   2
BRANCH   1   9
ATOM      9  O10 ZIN A   1      20.168   0.431  13.109  0.00  0.00    -0.375 OA
BRANCH   9  10
ATOM     10  C11 ZIN A   1      20.372   1.385  12.066  0.00  0.00     0.196 C 
BRANCH  10  11
ATOM     11  C12 ZIN A   1      19.249   2.424  12.098  0.00  0.00     0.260 C 
BRANCH  11  12
ATOM     12  N13 ZIN A   1      19.532   3.420  13.141  0.00  0.00    -0.077 N 
ATOM     13  H14 ZIN A   1      20.325   3.117  13.687  0.00  0.00     0.279 HD
ATOM     14  C15 ZIN A   1      19.834   4.713  12.513  0.00  0.00     0.269 C 
ATOM     15  C16 ZIN A   1      18.360   3.561  14.015  0.00  0.00     0.269 C 
ENDBRANCH  11  12
ENDBRANCH  10  11
ENDBRANCH   9  10
ENDBRANCH   1   9
BRANCH   1  16
ATOM     16  C17 ZIN A   1      18.506  -0.353  14.649  0.00  0.00    -0.025 A 
ATOM     17  C22 ZIN A   1      17.394   0.208  15.248  0.00  0.00     0.010 A 
ATOM     18  C21 ZIN A   1      17.100  -0.079  16.568  0.00  0.00     0.001 A 
ATOM     19  C20 ZIN A   1      17.923  -0.921  17.291  0.00  0.00     0.000 A 
ATOM     20  C19 ZIN A   1      19.038  -1.478  16.694  0.00  0.00     0.001 A 
ATOM     21  C18 ZIN A   1      19.330  -1.194  15.373  0.00  0.00     0.010 A 
ENDBRANCH   1  16
TORSDOF 6
ENDMDL
MODEL 7
REMARK VINA RESULT:      -6.3      1.868      2.300
REMARK  6 active torsions:
REMARK  status: ('A' for Active; 'I' for Inactive)
REMARK    1  A    between atoms: C7_7  and  C8_8 
REMARK    2  A    between atoms: C8_8  and  O10_9 
REMARK    3  A    between atoms: C8_8  and  C17_16 
REMARK    4  A    between atoms: O10_9  and  C11_10 
REMARK    5  A    between atoms: C11_10  and  C12_11 
REMARK    6  A    between atoms: C12_11  and  N13_12 
ROOT
ATOM      1  C8  ZIN A   1      18.539   2.139  11.633  0.00  0.00     0.188 C 
ENDROOT
BRANCH   1   2
ATOM      2  C7  ZIN A   1      18.583   1.037  12.661  0.00  0.00    -0.019 A 
ATOM      3  C2  ZIN A   1      19.758   0.342  12.879  0.00  0.00    -0.053 A 
ATOM      4  C1  ZIN A   1      20.997   0.690  12.093  0.00  0.00     0.049 C 
ATOM      5  C3  ZIN A   1      19.799  -0.668  13.821  0.00  0.00     0.007 A 
ATOM      6  C4  ZIN A   1      18.664  -0.987  14.542  0.00  0.00     0.001 A 
ATOM      7  C5  ZIN A   1      17.487  -0.296  14.320  0.00  0.00     0.001 A 
ATOM      8  C6  ZIN A   1      17.446   0.715  13.378  0.00  0.00     0.011 A 
ENDBRANCH   1   2
BRANCH   1   9
ATOM      9  O10 ZIN A   1      17.421   2.989  11.895  0.00  0.00    -0.375 OA
BRANCH   9  10
ATOM     10  C11 ZIN A   1      17.748   4.170  12.630  0.00  0.00     0.196 C 
BRANCH  10  11
ATOM     11  C12 ZIN A   1      19.266   4.368  12.627  0.00  0.00     0.260 C 
BRANCH  11  12
ATOM     12  N13 ZIN A   1      19.738   4.554  14.006  0.00  0.00    -0.077 N 
ATOM     13  H14 ZIN A   1      20.615   4.070  14.129  0.00  0.00     0.279 HD
ATOM     14  C15 ZIN A   1      19.927   5.986  14.269  0.00  0.00     0.269 C 
ATOM     15  C16 ZIN A   1      18.744   4.011  14.942  0.00  0.00     0.269 C 
ENDBRANCH  11  12
ENDBRANCH  10  11
ENDBRANCH   9  10
ENDBRANCH   1   9
BRANCH   1  16
ATOM     16  C17 ZIN A   1      18.402   1.538  10.259  0.00  0.00    -0.025 A 
ATOM     17  C22 ZIN A   1      19.162   2.025   9.212  0.00  0.00     0.010 A 
ATOM     18  C21 ZIN A   1      19.038   1.472   7.951  0.00  0.00     0.001 A 
ATOM     19  C20 ZIN A   1      18.149   0.437   7.736  0.00  0.00     0.000 A 
ATOM     20  C19 ZIN A   1      17.385  -0.048   8.780  0.00  0.00     0.001 A 
ATOM     21  C18 ZIN A   1      17.511   0.503  10.042  0.00  0.00     0.010 A 
ENDBRANCH   1  16
TORSDOF 6
ENDMDL
MODEL 8
REMARK VINA RESULT:      -6.3      2.863      4.014
REMARK  6 active torsions:
REMARK  status: ('A' for Active; 'I' for Inactive)
REMARK    1  A    between atoms: C7_7  and  C8_8 
REMARK    2  A    between atoms: C8_8  and  O10_9 
REMARK    3  A    between atoms: C8_8  and  C17_16 
REMARK    4  A    between atoms: O10_9  and  C11_10 
REMARK    5  A    between atoms: C11_10  and  C12_11 
REMARK    6  A    between atoms: C12_11  and  N13_12 
ROOT
ATOM      1  C8  ZIN A   1      18.805   2.259  13.118  0.00  0.00     0.188 C 
ENDROOT
BRANCH   1   2
ATOM      2  C7  ZIN A   1      18.533   0.861  12.621  0.00  0.00    -0.019 A 
ATOM      3  C2  ZIN A   1      19.580   0.061  12.204  0.00  0.00    -0.053 A 
ATOM      4  C1  ZIN A   1      20.994   0.583  12.250  0.00  0.00     0.049 C 
ATOM      5  C3  ZIN A   1      19.332  -1.220  11.749  0.00  0.00     0.007 A 
ATOM      6  C4  ZIN A   1      18.036  -1.700  11.707  0.00  0.00     0.001 A 
ATOM      7  C5  ZIN A   1      16.989  -0.897  12.119  0.00  0.00     0.001 A 
ATOM      8  C6  ZIN A   1      17.237   0.384  12.575  0.00  0.00     0.011 A 
ENDBRANCH   1   2
BRANCH   1   9
ATOM      9  O10 ZIN A   1      18.231   2.422  14.416  0.00  0.00    -0.375 OA
BRANCH   9  10
ATOM     10  C11 ZIN A   1      19.161   2.257  15.488  0.00  0.00     0.196 C 
BRANCH  10  11
ATOM     11  C12 ZIN A   1      18.475   1.538  16.652  0.00  0.00     0.260 C 
BRANCH  11  12
ATOM     12  N13 ZIN A   1      19.131   0.244  16.883  0.00  0.00    -0.077 N 
ATOM     13  H14 ZIN A   1      20.117   0.328  16.690  0.00  0.00     0.279 HD
ATOM     14  C15 ZIN A   1      18.938  -0.159  18.282  0.00  0.00     0.269 C 
ATOM     15  C16 ZIN A   1      18.543  -0.769  15.996  0.00  0.00     0.269 C 
ENDBRANCH  11  12
ENDBRANCH  10  11
ENDBRANCH   9  10
ENDBRANCH   1   9
BRANCH   1  16
ATOM     16  C17 ZIN A   1      18.192   3.256  12.169  0.00  0.00    -0.025 A 
ATOM     17  C22 ZIN A   1      18.557   3.254  10.835  0.00  0.00     0.010 A 
ATOM     18  C21 ZIN A   1      17.993   4.166   9.963  0.00  0.00     0.001 A 
ATOM     19  C20 ZIN A   1      17.071   5.086  10.426  0.00  0.00     0.000 A 
ATOM     20  C19 ZIN A   1      16.711   5.092  11.760  0.00  0.00     0.001 A 
ATOM     21  C18 ZIN A   1      17.272   4.177  12.632  0.00  0.00     0.010 A 
ENDBRANCH   1  16
TORSDOF 6
ENDMDL
MODEL 9
REMARK VINA RESULT:      -5.9      3.229      4.105
REMARK  6 active torsions:
REMARK  status: ('A' for Active; 'I' for Inactive)
REMARK    1  A    between atoms: C7_7  and  C8_8 
REMARK    2  A    between atoms: C8_8  and  O10_9 
REMARK    3  A    between atoms: C8_8  and  C17_16 
REMARK    4  A    between atoms: O10_9  and  C11_10 
REMARK    5  A    between atoms: C11_10  and  C12_11 
REMARK    6  A    between atoms: C12_11  and  N13_12 
ROOT
ATOM      1  C8  ZIN A   1      18.721  -3.335   9.544  0.00  0.00     0.188 C 
ENDROOT
BRANCH   1   2
ATOM      2  C7  ZIN A   1      18.023  -4.612   9.148  0.00  0.00    -0.019 A 
ATOM      3  C2  ZIN A   1      18.766  -5.721   8.788  0.00  0.00    -0.053 A 
ATOM      4  C1  ZIN A   1      20.272  -5.657   8.798  0.00  0.00     0.049 C 
ATOM      5  C3  ZIN A   1      18.128  -6.892   8.426  0.00  0.00     0.007 A 
ATOM      6  C4  ZIN A   1      16.747  -6.952   8.418  0.00  0.00     0.001 A 
ATOM      7  C5  ZIN A   1      16.004  -5.841   8.771  0.00  0.00     0.001 A 
ATOM      8  C6  ZIN A   1      16.643  -4.670   9.135  0.00  0.00     0.011 A 
ENDBRANCH   1   2
BRANCH   1   9
ATOM      9  O10 ZIN A   1      18.169  -2.853  10.770  0.00  0.00    -0.375 OA
BRANCH   9  10
ATOM     10  C11 ZIN A   1      19.103  -2.809  11.850  0.00  0.00     0.196 C 
BRANCH  10  11
ATOM     11  C12 ZIN A   1      19.695  -1.402  11.956  0.00  0.00     0.260 C 
BRANCH  11  12
ATOM     12  N13 ZIN A   1      19.886  -1.055  13.371  0.00  0.00    -0.077 N 
ATOM     13  H14 ZIN A   1      20.689  -1.548  13.731  0.00  0.00     0.279 HD
ATOM     14  C15 ZIN A   1      20.100   0.392  13.496  0.00  0.00     0.269 C 
ATOM     15  C16 ZIN A   1      18.692  -1.441  14.135  0.00  0.00     0.269 C 
ENDBRANCH  11  12
ENDBRANCH  10  11
ENDBRANCH   9  10
ENDBRANCH   1   9
BRANCH   1  16
ATOM     16  C17 ZIN A   1      18.526  -2.302   8.465  0.00  0.00    -0.025 A 
ATOM     17  C22 ZIN A   1      19.189  -2.431   7.258  0.00  0.00     0.010 A 
ATOM     18  C21 ZIN A   1      19.008  -1.485   6.266  0.00  0.00     0.001 A 
ATOM     19  C20 ZIN A   1      18.172  -0.407   6.484  0.00  0.00     0.000 A 
ATOM     20  C19 ZIN A   1      17.514  -0.275   7.692  0.00  0.00     0.001 A 
ATOM     21  C18 ZIN A   1      17.692  -1.222   8.683  0.00  0.00     0.010 A 
ENDBRANCH   1  16
TORSDOF 6
ENDMDL
