MODEL 1
REMARK VINA RESULT:      -6.6      0.000      0.000
REMARK  6 active torsions:
REMARK  status: ('A' for Active; 'I' for Inactive)
REMARK    1  A    between atoms: N2_2  and  C4_4 
REMARK    2  A    between atoms: C4_4  and  C5_5 
REMARK    3  A    between atoms: C5_5  and  C7_6 
REMARK    4  A    between atoms: C5_5  and  C14_13 
REMARK    5  A    between atoms: C10_9  and  O11_10 
REMARK    6  A    between atoms: C14_13  and  O15_14 
ROOT
ATOM      1  C5  ZIN A   1      19.391  -0.536  12.156  0.00  0.00     0.081 C 
ENDROOT
BRANCH   1   2
ATOM      2  C4  ZIN A   1      18.578   0.447  11.310  0.00  0.00     0.283 C 
BRANCH   2   3
ATOM      3  N2  ZIN A   1      19.492   1.331  10.576  0.00  0.00     0.080 N 
ATOM      4  C1  ZIN A   1      19.161   1.362   9.145  0.00  0.00     0.309 C 
ATOM      5  C3  ZIN A   1      19.486   2.685  11.146  0.00  0.00     0.309 C 
ENDBRANCH   2   3
ENDBRANCH   1   2
BRANCH   1   6
ATOM      6  C7  ZIN A   1      18.969  -1.947  11.833  0.00  0.00    -0.049 A 
ATOM      7  C13 ZIN A   1      19.919  -2.946  11.735  0.00  0.00     0.010 A 
ATOM      8  C12 ZIN A   1      19.534  -4.240  11.443  0.00  0.00     0.037 A 
ATOM      9  C10 ZIN A   1      18.194  -4.534  11.239  0.00  0.00     0.065 A 
ATOM     10  C9  ZIN A   1      17.243  -3.530  11.332  0.00  0.00     0.037 A 
ATOM     11  C8  ZIN A   1      17.633  -2.237  11.629  0.00  0.00     0.010 A 
BRANCH   9  12
ATOM     12  O11 ZIN A   1      17.814  -5.806  10.947  0.00  0.00    -0.361 OA
ATOM     13  H31 ZIN A   1      17.404  -6.274  11.687  0.00  0.00     0.217 HD
ENDBRANCH   9  12
ENDBRANCH   1   6
BRANCH   1  14
ATOM     14  C14 ZIN A   1      19.143  -0.257  13.640  0.00  0.00     0.067 C 
ATOM     15  C20 ZIN A   1      19.335  -1.546  14.441  0.00  0.00     0.038 C 
ATOM     16  C19 ZIN A   1      19.088  -1.267  15.925  0.00  0.00     0.003 C 
ATOM     17  C18 ZIN A   1      17.658  -0.757  16.116  0.00  0.00     0.000 C 
ATOM     18  C17 ZIN A   1      17.466   0.532  15.315  0.00  0.00     0.003 C 
ATOM     19  C16 ZIN A   1      17.713   0.254  13.831  0.00  0.00     0.038 C 
BRANCH  14  20
ATOM     20  O15 ZIN A   1      20.067   0.732  14.100  0.00  0.00    -0.389 OA
ATOM     21  H34 ZIN A   1      19.973   1.590  13.664  0.00  0.00     0.210 HD
ENDBRANCH  14  20
ENDBRANCH   1  14
TORSDOF 6
ENDMDL
MODEL 2
REMARK VINA RESULT:      -6.5      2.679      5.455
REMARK  6 active torsions:
REMARK  status: ('A' for Active; 'I' for Inactive)
REMARK    1  A    between atoms: N2_2  and  C4_4 
REMARK    2  A    between atoms: C4_4  and  C5_5 
REMARK    3  A    between atoms: C5_5  and  C7_6 
REMARK    4  A    between atoms: C5_5  and  C14_13 
REMARK    5  A    between atoms: C10_9  and  O11_10 
REMARK    6  A    between atoms: C14_13  and  O15_14 
ROOT
ATOM      1  C5  ZIN A   1      18.181   1.603  10.296  0.00  0.00     0.081 C 
ENDROOT
BRANCH   1   2
ATOM      2  C4  ZIN A   1      18.885   2.960  10.348  0.00  0.00     0.283 C 
BRANCH   2   3
ATOM      3  N2  ZIN A   1      18.061   3.910  11.107  0.00  0.00     0.080 N 
ATOM      4  C1  ZIN A   1      18.842   4.549  12.175  0.00  0.00     0.309 C 
ATOM      5  C3  ZIN A   1      17.464   4.916  10.219  0.00  0.00     0.309 C 
ENDBRANCH   2   3
ENDBRANCH   1   2
BRANCH   1   6
ATOM      6  C7  ZIN A   1      18.646   0.750  11.448  0.00  0.00    -0.049 A 
ATOM      7  C13 ZIN A   1      19.878   0.988  12.029  0.00  0.00     0.010 A 
ATOM      8  C12 ZIN A   1      20.305   0.211  13.088  0.00  0.00     0.037 A 
ATOM      9  C10 ZIN A   1      19.501  -0.815  13.563  0.00  0.00     0.065 A 
ATOM     10  C9  ZIN A   1      18.268  -1.055  12.976  0.00  0.00     0.037 A 
ATOM     11  C8  ZIN A   1      17.843  -0.271  11.919  0.00  0.00     0.010 A 
BRANCH   9  12
ATOM     12  O11 ZIN A   1      19.921  -1.583  14.602  0.00  0.00    -0.361 OA
ATOM     13  H31 ZIN A   1      19.315  -1.592  15.355  0.00  0.00     0.217 HD
ENDBRANCH   9  12
ENDBRANCH   1   6
BRANCH   1  14
ATOM     14  C14 ZIN A   1      18.518   0.904   8.976  0.00  0.00     0.067 C 
ATOM     15  C20 ZIN A   1      18.816   1.954   7.905  0.00  0.00     0.038 C 
ATOM     16  C19 ZIN A   1      19.155   1.255   6.586  0.00  0.00     0.003 C 
ATOM     17  C18 ZIN A   1      17.965   0.399   6.144  0.00  0.00     0.000 C 
ATOM     18  C17 ZIN A   1      17.666  -0.651   7.216  0.00  0.00     0.003 C 
ATOM     19  C16 ZIN A   1      17.329   0.047   8.535  0.00  0.00     0.038 C 
BRANCH  14  20
ATOM     20  O15 ZIN A   1      19.663   0.069   9.159  0.00  0.00    -0.389 OA
ATOM     21  H34 ZIN A   1      20.100  -0.185   8.335  0.00  0.00     0.210 HD
ENDBRANCH  14  20
ENDBRANCH   1  14
TORSDOF 6
ENDMDL
MODEL 3
REMARK VINA RESULT:      -6.5      2.009      3.994
REMARK  6 active torsions:
REMARK  status: ('A' for Active; 'I' for Inactive)
REMARK    1  A    between atoms: N2_2  and  C4_4 
REMARK    2  A    between atoms: C4_4  and  C5_5 
REMARK    3  A    between atoms: C5_5  and  C7_6 
REMARK    4  A    between atoms: C5_5  and  C14_13 
REMARK    5  A    between atoms: C10_9  and  O11_10 
REMARK    6  A    between atoms: C14_13  and  O15_14 
ROOT
ATOM      1  C5  ZIN A   1      17.634  -0.931  12.770  0.00  0.00     0.081 C 
ENDROOT
BRANCH   1   2
ATOM      2  C4  ZIN A   1      18.624  -0.413  13.815  0.00  0.00     0.283 C 
BRANCH   2   3
ATOM      3  N2  ZIN A   1      18.114  -0.709  15.160  0.00  0.00     0.080 N 
ATOM      4  C1  ZIN A   1      19.089  -1.490  15.934  0.00  0.00     0.309 C 
ATOM      5  C3  ZIN A   1      17.748   0.525  15.868  0.00  0.00     0.309 C 
ENDBRANCH   2   3
ENDBRANCH   1   2
BRANCH   1   6
ATOM      6  C7  ZIN A   1      18.222  -2.130  12.070  0.00  0.00    -0.049 A 
ATOM      7  C13 ZIN A   1      19.570  -2.410  12.197  0.00  0.00     0.010 A 
ATOM      8  C12 ZIN A   1      20.111  -3.510  11.561  0.00  0.00     0.037 A 
ATOM      9  C10 ZIN A   1      19.303  -4.329  10.787  0.00  0.00     0.065 A 
ATOM     10  C9  ZIN A   1      17.952  -4.043  10.657  0.00  0.00     0.037 A 
ATOM     11  C8  ZIN A   1      17.414  -2.944  11.299  0.00  0.00     0.010 A 
BRANCH   9  12
ATOM     12  O11 ZIN A   1      19.834  -5.409  10.156  0.00  0.00    -0.361 OA
ATOM     13  H31 ZIN A   1      19.647  -5.442   9.208  0.00  0.00     0.217 HD
ENDBRANCH   9  12
ENDBRANCH   1   6
BRANCH   1  14
ATOM     14  C14 ZIN A   1      17.353   0.170  11.744  0.00  0.00     0.067 C 
ATOM     15  C20 ZIN A   1      18.142  -0.112  10.464  0.00  0.00     0.038 C 
ATOM     16  C19 ZIN A   1      17.860   0.988   9.439  0.00  0.00     0.003 C 
ATOM     17  C18 ZIN A   1      18.286   2.341  10.014  0.00  0.00     0.000 C 
ATOM     18  C17 ZIN A   1      17.496   2.623  11.294  0.00  0.00     0.003 C 
ATOM     19  C16 ZIN A   1      17.777   1.523  12.319  0.00  0.00     0.038 C 
BRANCH  14  20
ATOM     20  O15 ZIN A   1      15.955   0.197  11.446  0.00  0.00    -0.389 OA
ATOM     21  H34 ZIN A   1      15.747   0.545  10.568  0.00  0.00     0.210 HD
ENDBRANCH  14  20
ENDBRANCH   1  14
TORSDOF 6
ENDMDL
MODEL 4
REMARK VINA RESULT:      -6.5      2.755      4.473
REMARK  6 active torsions:
REMARK  status: ('A' for Active; 'I' for Inactive)
REMARK    1  A    between atoms: N2_2  and  C4_4 
REMARK    2  A    between atoms: C4_4  and  C5_5 
REMARK    3  A    between atoms: C5_5  and  C7_6 
REMARK    4  A    between atoms: C5_5  and  C14_13 
REMARK    5  A    between atoms: C10_9  and  O11_10 
REMARK    6  A    between atoms: C14_13  and  O15_14 
ROOT
ATOM      1  C5  ZIN A   1      19.019   1.987  10.263  0.00  0.00     0.081 C 
ENDROOT
BRANCH   1   2
ATOM      2  C4  ZIN A   1      17.811   2.694  10.882  0.00  0.00     0.283 C 
BRANCH   2   3
ATOM      3  N2  ZIN A   1      18.051   4.143  10.905  0.00  0.00     0.080 N 
ATOM      4  C1  ZIN A   1      16.786   4.888  10.882  0.00  0.00     0.309 C 
ATOM      5  C3  ZIN A   1      18.864   4.523  12.069  0.00  0.00     0.309 C 
ENDBRANCH   2   3
ENDBRANCH   1   2
BRANCH   1   6
ATOM      6  C7  ZIN A   1      18.608   1.332   8.969  0.00  0.00    -0.049 A 
ATOM      7  C13 ZIN A   1      19.275   1.641   7.797  0.00  0.00     0.010 A 
ATOM      8  C12 ZIN A   1      18.904   1.039   6.611  0.00  0.00     0.037 A 
ATOM      9  C10 ZIN A   1      17.855   0.132   6.594  0.00  0.00     0.065 A 
ATOM     10  C9  ZIN A   1      17.184  -0.173   7.769  0.00  0.00     0.037 A 
ATOM     11  C8  ZIN A   1      17.563   0.428   8.954  0.00  0.00     0.010 A 
BRANCH   9  12
ATOM     12  O11 ZIN A   1      17.485  -0.458   5.426  0.00  0.00    -0.361 OA
ATOM     13  H31 ZIN A   1      17.271  -1.398   5.511  0.00  0.00     0.217 HD
ENDBRANCH   9  12
ENDBRANCH   1   6
BRANCH   1  14
ATOM     14  C14 ZIN A   1      19.538   0.922  11.231  0.00  0.00     0.067 C 
ATOM     15  C20 ZIN A   1      19.836  -0.366  10.461  0.00  0.00     0.038 C 
ATOM     16  C19 ZIN A   1      20.356  -1.430  11.428  0.00  0.00     0.003 C 
ATOM     17  C18 ZIN A   1      19.296  -1.709  12.497  0.00  0.00     0.000 C 
ATOM     18  C17 ZIN A   1      18.998  -0.421  13.267  0.00  0.00     0.003 C 
ATOM     19  C16 ZIN A   1      18.479   0.644  12.299  0.00  0.00     0.038 C 
BRANCH  14  20
ATOM     20  O15 ZIN A   1      20.734   1.391  11.858  0.00  0.00    -0.389 OA
ATOM     21  H34 ZIN A   1      20.690   1.410  12.824  0.00  0.00     0.210 HD
ENDBRANCH  14  20
ENDBRANCH   1  14
TORSDOF 6
ENDMDL
MODEL 5
REMARK VINA RESULT:      -6.4      3.067      5.269
REMARK  6 active torsions:
REMARK  status: ('A' for Active; 'I' for Inactive)
REMARK    1  A    between atoms: N2_2  and  C4_4 
REMARK    2  A    between atoms: C4_4  and  C5_5 
REMARK    3  A    between atoms: C5_5  and  C7_6 
REMARK    4  A    between atoms: C5_5  and  C14_13 
REMARK    5  A    between atoms: C10_9  and  O11_10 
REMARK    6  A    between atoms: C14_13  and  O15_14 
ROOT
ATOM      1  C5  ZIN A   1      18.587   1.114  10.913  0.00  0.00     0.081 C 
ENDROOT
BRANCH   1   2
ATOM      2  C4  ZIN A   1      19.952   0.597  11.375  0.00  0.00     0.283 C 
BRANCH   2   3
ATOM      3  N2  ZIN A   1      19.767  -0.359  12.474  0.00  0.00     0.080 N 
ATOM      4  C1  ZIN A   1      20.058   0.265  13.771  0.00  0.00     0.309 C 
ATOM      5  C3  ZIN A   1      18.412  -0.926  12.456  0.00  0.00     0.309 C 
ENDBRANCH   2   3
ENDBRANCH   1   2
BRANCH   1   6
ATOM      6  C7  ZIN A   1      18.441   0.889   9.430  0.00  0.00    -0.049 A 
ATOM      7  C13 ZIN A   1      17.412   0.100   8.949  0.00  0.00     0.010 A 
ATOM      8  C12 ZIN A   1      17.274  -0.104   7.590  0.00  0.00     0.037 A 
ATOM      9  C10 ZIN A   1      18.173   0.476   6.708  0.00  0.00     0.065 A 
ATOM     10  C9  ZIN A   1      19.207   1.263   7.192  0.00  0.00     0.037 A 
ATOM     11  C8  ZIN A   1      19.339   1.468   8.552  0.00  0.00     0.010 A 
BRANCH   9  12
ATOM     12  O11 ZIN A   1      18.041   0.273   5.370  0.00  0.00    -0.361 OA
ATOM     13  H31 ZIN A   1      17.439  -0.447   5.139  0.00  0.00     0.217 HD
ENDBRANCH   9  12
ENDBRANCH   1   6
BRANCH   1  14
ATOM     14  C14 ZIN A   1      18.479   2.610  11.215  0.00  0.00     0.067 C 
ATOM     15  C20 ZIN A   1      17.697   2.813  12.514  0.00  0.00     0.038 C 
ATOM     16  C19 ZIN A   1      17.590   4.308  12.817  0.00  0.00     0.003 C 
ATOM     17  C18 ZIN A   1      16.861   5.009  11.668  0.00  0.00     0.000 C 
ATOM     18  C17 ZIN A   1      17.644   4.807  10.369  0.00  0.00     0.003 C 
ATOM     19  C16 ZIN A   1      17.752   3.311  10.066  0.00  0.00     0.038 C 
BRANCH  14  20
ATOM     20  O15 ZIN A   1      19.790   3.163  11.356  0.00  0.00    -0.389 OA
ATOM     21  H34 ZIN A   1      20.129   3.145  12.262  0.00  0.00     0.210 HD
ENDBRANCH  14  20
ENDBRANCH   1  14
TORSDOF 6
ENDMDL
MODEL 6
REMARK VINA RESULT:      -6.4      2.379      3.117
REMARK  6 active torsions:
REMARK  status: ('A' for Active; 'I' for Inactive)
REMARK    1  A    between atoms: N2_2  and  C4_4 
REMARK    2  A    between atoms: C4_4  and  C5_5 
REMARK    3  A    between atoms: C5_5  and  C7_6 
REMARK    4  A    between atoms: C5_5  and  C14_13 
REMARK    5  A    between atoms: C10_9  and  O11_10 
REMARK    6  A    between atoms: C14_13  and  O15_14 
ROOT
ATOM      1  C5  ZIN A   1      19.424   1.448  11.400  0.00  0.00     0.081 C 
ENDROOT
BRANCH   1   2
ATOM      2  C4  ZIN A   1      18.347   2.491  11.708  0.00  0.00     0.283 C 
BRANCH   2   3
ATOM      3  N2  ZIN A   1      18.794   3.809  11.237  0.00  0.00     0.080 N 
ATOM      4  C1  ZIN A   1      17.721   4.501  10.512  0.00  0.00     0.309 C 
ATOM      5  C3  ZIN A   1      19.287   4.627  12.353  0.00  0.00     0.309 C 
ENDBRANCH   2   3
ENDBRANCH   1   2
BRANCH   1   6
ATOM      6  C7  ZIN A   1      18.990   0.609  10.225  0.00  0.00    -0.049 A 
ATOM      7  C13 ZIN A   1      19.918  -0.157   9.544  0.00  0.00     0.010 A 
ATOM      8  C12 ZIN A   1      19.522  -0.930   8.470  0.00  0.00     0.037 A 
ATOM      9  C10 ZIN A   1      18.194  -0.930   8.070  0.00  0.00     0.065 A 
ATOM     10  C9  ZIN A   1      17.266  -0.157   8.752  0.00  0.00     0.037 A 
ATOM     11  C8  ZIN A   1      17.666   0.611   9.828  0.00  0.00     0.010 A 
BRANCH   9  12
ATOM     12  O11 ZIN A   1      17.803  -1.687   7.010  0.00  0.00    -0.361 OA
ATOM     13  H31 ZIN A   1      16.880  -1.974   7.052  0.00  0.00     0.217 HD
ENDBRANCH   9  12
ENDBRANCH   1   6
BRANCH   1  14
ATOM     14  C14 ZIN A   1      19.628   0.549  12.621  0.00  0.00     0.067 C 
ATOM     15  C20 ZIN A   1      19.015  -0.826  12.350  0.00  0.00     0.038 C 
ATOM     16  C19 ZIN A   1      19.220  -1.725  13.571  0.00  0.00     0.003 C 
ATOM     17  C18 ZIN A   1      18.538  -1.095  14.788  0.00  0.00     0.000 C 
ATOM     18  C17 ZIN A   1      19.151   0.281  15.059  0.00  0.00     0.003 C 
ATOM     19  C16 ZIN A   1      18.947   1.180  13.838  0.00  0.00     0.038 C 
BRANCH  14  20
ATOM     20  O15 ZIN A   1      21.026   0.406  12.879  0.00  0.00    -0.389 OA
ATOM     21  H34 ZIN A   1      21.236  -0.249  13.560  0.00  0.00     0.210 HD
ENDBRANCH  14  20
ENDBRANCH   1  14
TORSDOF 6
ENDMDL
MODEL 7
REMARK VINA RESULT:      -6.2      1.410      4.036
REMARK  6 active torsions:
REMARK  status: ('A' for Active; 'I' for Inactive)
REMARK    1  A    between atoms: N2_2  and  C4_4 
REMARK    2  A    between atoms: C4_4  and  C5_5 
REMARK    3  A    between atoms: C5_5  and  C7_6 
REMARK    4  A    between atoms: C5_5  and  C14_13 
REMARK    5  A    between atoms: C10_9  and  O11_10 
REMARK    6  A    between atoms: C14_13  and  O15_14 
ROOT
ATOM      1  C5  ZIN A   1      18.804  -0.231  12.518  0.00  0.00     0.081 C 
ENDROOT
BRANCH   1   2
ATOM      2  C4  ZIN A   1      19.789  -0.169  13.687  0.00  0.00     0.283 C 
BRANCH   2   3
ATOM      3  N2  ZIN A   1      19.048   0.007  14.942  0.00  0.00     0.080 N 
ATOM      4  C1  ZIN A   1      17.726   0.599  14.696  0.00  0.00     0.309 C 
ATOM      5  C3  ZIN A   1      18.927  -1.266  15.666  0.00  0.00     0.309 C 
ENDBRANCH   2   3
ENDBRANCH   1   2
BRANCH   1   6
ATOM      6  C7  ZIN A   1      18.667  -1.657  12.051  0.00  0.00    -0.049 A 
ATOM      7  C13 ZIN A   1      19.777  -2.482  12.015  0.00  0.00     0.010 A 
ATOM      8  C12 ZIN A   1      19.653  -3.790  11.592  0.00  0.00     0.037 A 
ATOM      9  C10 ZIN A   1      18.416  -4.275  11.192  0.00  0.00     0.065 A 
ATOM     10  C9  ZIN A   1      17.306  -3.445  11.223  0.00  0.00     0.037 A 
ATOM     11  C8  ZIN A   1      17.434  -2.137  11.653  0.00  0.00     0.010 A 
BRANCH   9  12
ATOM     12  O11 ZIN A   1      18.293  -5.561  10.770  0.00  0.00    -0.361 OA
ATOM     13  H31 ZIN A   1      17.402  -5.795  10.478  0.00  0.00     0.217 HD
ENDBRANCH   9  12
ENDBRANCH   1   6
BRANCH   1  14
ATOM     14  C14 ZIN A   1      19.324   0.635  11.367  0.00  0.00     0.067 C 
ATOM     15  C20 ZIN A   1      18.578   1.970  11.356  0.00  0.00     0.038 C 
ATOM     16  C19 ZIN A   1      19.098   2.836  10.207  0.00  0.00     0.003 C 
ATOM     17  C18 ZIN A   1      18.867   2.111   8.879  0.00  0.00     0.000 C 
ATOM     18  C17 ZIN A   1      19.613   0.775   8.890  0.00  0.00     0.003 C 
ATOM     19  C16 ZIN A   1      19.094  -0.090  10.040  0.00  0.00     0.038 C 
BRANCH  14  20
ATOM     20  O15 ZIN A   1      20.722   0.871  11.544  0.00  0.00    -0.389 OA
ATOM     21  H34 ZIN A   1      21.029   0.758  12.454  0.00  0.00     0.210 HD
ENDBRANCH  14  20
ENDBRANCH   1  14
TORSDOF 6
ENDMDL
MODEL 8
REMARK VINA RESULT:      -6.1      3.349      5.588
REMARK  6 active torsions:
REMARK  status: ('A' for Active; 'I' for Inactive)
REMARK    1  A    between atoms: N2_2  and  C4_4 
REMARK    2  A    between atoms: C4_4  and  C5_5 
REMARK    3  A    between atoms: C5_5  and  C7_6 
REMARK    4  A    between atoms: C5_5  and  C14_13 
REMARK    5  A    between atoms: C10_9  and  O11_10 
REMARK    6  A    between atoms: C14_13  and  O15_14 
ROOT
ATOM      1  C5  ZIN A   1      18.256  -0.947   9.551  0.00  0.00     0.081 C 
ENDROOT
BRANCH   1   2
ATOM      2  C4  ZIN A   1      19.354  -1.917   9.992  0.00  0.00     0.283 C 
BRANCH   2   3
ATOM      3  N2  ZIN A   1      18.741  -3.109  10.593  0.00  0.00     0.080 N 
ATOM      4  C1  ZIN A   1      17.472  -2.774  11.253  0.00  0.00     0.309 C 
ATOM      5  C3  ZIN A   1      18.550  -4.165   9.590  0.00  0.00     0.309 C 
ENDBRANCH   2   3
ENDBRANCH   1   2
BRANCH   1   6
ATOM      6  C7  ZIN A   1      18.234  -0.863   8.046  0.00  0.00    -0.049 A 
ATOM      7  C13 ZIN A   1      17.163  -0.269   7.404  0.00  0.00     0.010 A 
ATOM      8  C12 ZIN A   1      17.143  -0.187   6.026  0.00  0.00     0.037 A 
ATOM      9  C10 ZIN A   1      18.193  -0.710   5.285  0.00  0.00     0.065 A 
ATOM     10  C9  ZIN A   1      19.263  -1.309   5.931  0.00  0.00     0.037 A 
ATOM     11  C8  ZIN A   1      19.281  -1.385   7.311  0.00  0.00     0.010 A 
BRANCH   9  12
ATOM     12  O11 ZIN A   1      18.172  -0.634   3.928  0.00  0.00    -0.361 OA
ATOM     13  H31 ZIN A   1      17.308  -0.819   3.537  0.00  0.00     0.217 HD
ENDBRANCH   9  12
ENDBRANCH   1   6
BRANCH   1  14
ATOM     14  C14 ZIN A   1      18.536   0.440  10.135  0.00  0.00     0.067 C 
ATOM     15  C20 ZIN A   1      17.332   0.898  10.960  0.00  0.00     0.038 C 
ATOM     16  C19 ZIN A   1      17.613   2.284  11.545  0.00  0.00     0.003 C 
ATOM     17  C18 ZIN A   1      17.858   3.277  10.407  0.00  0.00     0.000 C 
ATOM     18  C17 ZIN A   1      19.062   2.818   9.581  0.00  0.00     0.003 C 
ATOM     19  C16 ZIN A   1      18.782   1.432   8.997  0.00  0.00     0.038 C 
BRANCH  14  20
ATOM     20  O15 ZIN A   1      19.693   0.379  10.972  0.00  0.00    -0.389 OA
ATOM     21  H34 ZIN A   1      19.771   1.119  11.590  0.00  0.00     0.210 HD
ENDBRANCH  14  20
ENDBRANCH   1  14
TORSDOF 6
ENDMDL
MODEL 9
REMARK VINA RESULT:      -6.0      3.270      5.435
REMARK  6 active torsions:
REMARK  status: ('A' for Active; 'I' for Inactive)
REMARK    1  A    between atoms: N2_2  and  C4_4 
REMARK    2  A    between atoms: C4_4  and  C5_5 
REMARK    3  A    between atoms: C5_5  and  C7_6 
REMARK    4  A    between atoms: C5_5  and  C14_13 
REMARK    5  A    between atoms: C10_9  and  O11_10 
REMARK    6  A    between atoms: C14_13  and  O15_14 
ROOT
ATOM      1  C5  ZIN A   1      18.663  -1.442   9.370  0.00  0.00     0.081 C 
ENDROOT
BRANCH   1   2
ATOM      2  C4  ZIN A   1      17.839  -0.404  10.136  0.00  0.00     0.283 C 
BRANCH   2   3
ATOM      3  N2  ZIN A   1      18.740   0.581  10.747  0.00  0.00     0.080 N 
ATOM      4  C1  ZIN A   1      18.154   1.145  11.970  0.00  0.00     0.309 C 
ATOM      5  C3  ZIN A   1      20.058  -0.007  11.018  0.00  0.00     0.309 C 
ENDBRANCH   2   3
ENDBRANCH   1   2
BRANCH   1   6
ATOM      6  C7  ZIN A   1      18.499  -1.221   7.888  0.00  0.00    -0.049 A 
ATOM      7  C13 ZIN A   1      19.359  -1.838   6.999  0.00  0.00     0.010 A 
ATOM      8  C12 ZIN A   1      19.209  -1.640   5.641  0.00  0.00     0.037 A 
ATOM      9  C10 ZIN A   1      18.200  -0.813   5.169  0.00  0.00     0.065 A 
ATOM     10  C9  ZIN A   1      17.341  -0.191   6.063  0.00  0.00     0.037 A 
ATOM     11  C8  ZIN A   1      17.493  -0.396   7.421  0.00  0.00     0.010 A 
BRANCH   9  12
ATOM     12  O11 ZIN A   1      18.053  -0.613   3.833  0.00  0.00    -0.361 OA
ATOM     13  H31 ZIN A   1      17.357   0.018   3.604  0.00  0.00     0.217 HD
ENDBRANCH   9  12
ENDBRANCH   1   6
BRANCH   1  14
ATOM     14  C14 ZIN A   1      18.176  -2.847   9.732  0.00  0.00     0.067 C 
ATOM     15  C20 ZIN A   1      17.443  -2.803  11.074  0.00  0.00     0.038 C 
ATOM     16  C19 ZIN A   1      16.955  -4.207  11.436  0.00  0.00     0.003 C 
ATOM     17  C18 ZIN A   1      18.155  -5.151  11.541  0.00  0.00     0.000 C 
ATOM     18  C17 ZIN A   1      18.889  -5.196  10.199  0.00  0.00     0.003 C 
ATOM     19  C16 ZIN A   1      19.376  -3.792   9.837  0.00  0.00     0.038 C 
BRANCH  14  20
ATOM     20  O15 ZIN A   1      17.287  -3.319   8.718  0.00  0.00    -0.389 OA
ATOM     21  H34 ZIN A   1      16.818  -4.132   8.952  0.00  0.00     0.210 HD
ENDBRANCH  14  20
ENDBRANCH   1  14
TORSDOF 6
ENDMDL
