MODEL 1
REMARK VINA RESULT:      -8.5      0.000      0.000
REMARK  5 active torsions:
REMARK  status: ('A' for Active; 'I' for Inactive)
REMARK    1  A    between atoms: N2_2  and  C5_5 
REMARK    2  A    between atoms: C9_8  and  C10_9 
REMARK       I    between atoms: C10_9  and  N11_10 
REMARK    3  A    between atoms: C15_14  and  O16_15 
REMARK    4  A    between atoms: C23_22  and  O24_23 
REMARK    5  A    between atoms: C30_29  and  O32_30 
ROOT
ATOM      1  C5  ZIN A   1      17.774  -4.891   7.571  0.00  0.00     0.255 C 
ATOM      2  C7  ZIN A   1      19.133  -5.521   7.514  0.00  0.00     0.135 C 
ATOM      3  O8  ZIN A   1      19.521  -6.124   6.380  0.00  0.00    -0.193 OA
ATOM      4  C9  ZIN A   1      19.995  -5.500   8.582  0.00  0.00     0.115 C 
ATOM      5  C13 ZIN A   1      19.619  -4.824   9.822  0.00  0.00     0.210 C 
ATOM      6  O14 ZIN A   1      20.443  -4.616  10.688  0.00  0.00    -0.288 OA
ATOM      7  C15 ZIN A   1      18.177  -4.387  10.008  0.00  0.00     0.194 C 
ATOM      8  C17 ZIN A   1      18.166  -3.281  11.028  0.00  0.00     0.201 C 
ATOM      9  O18 ZIN A   1      18.260  -3.579  12.203  0.00  0.00    -0.289 OA
ATOM     10  C19 ZIN A   1      18.053  -1.937  10.696  0.00  0.00     0.036 C 
ATOM     11  C20 ZIN A   1      18.025  -0.995  11.712  0.00  0.00     0.131 C 
ATOM     12  O21 ZIN A   1      18.018  -1.388  13.005  0.00  0.00    -0.190 OA
ATOM     13  C22 ZIN A   1      18.004   0.434  11.370  0.00  0.00     0.045 A 
ATOM     14  C23 ZIN A   1      17.655   1.393  12.330  0.00  0.00     0.079 A 
ATOM     15  C25 ZIN A   1      17.633   2.736  11.981  0.00  0.00     0.039 A 
ATOM     16  C26 ZIN A   1      17.951   3.122  10.694  0.00  0.00     0.027 A 
ATOM     17  C27 ZIN A   1      18.301   2.176   9.740  0.00  0.00     0.044 A 
ATOM     18 Cl28 ZIN A   1      18.697   2.677   8.127  0.00  0.00    -0.084 Cl
ATOM     19  C29 ZIN A   1      18.333   0.840  10.073  0.00  0.00     0.009 A 
ATOM     20  C30 ZIN A   1      18.735  -0.193   9.051  0.00  0.00     0.162 C 
ATOM     21  C33 ZIN A   1      17.927  -1.469   9.272  0.00  0.00     0.059 C 
ATOM     22  C35 ZIN A   1      18.406  -2.566   8.317  0.00  0.00     0.023 C 
ATOM     23  C36 ZIN A   1      17.670  -3.854   8.672  0.00  0.00     0.074 C 
ENDROOT
BRANCH   4  24
ATOM     24  C10 ZIN A   1      21.306  -6.162   8.477  0.00  0.00     0.255 C 
ATOM     25  N11 ZIN A   1      22.249  -5.661   7.656  0.00  0.00    -0.366 N 
ATOM     26  H44 ZIN A   1      22.043  -4.906   7.082  0.00  0.00     0.159 HD
ATOM     27  H45 ZIN A   1      23.135  -6.055   7.638  0.00  0.00     0.159 HD
ATOM     28  O12 ZIN A   1      21.537  -7.160   9.132  0.00  0.00    -0.268 OA
ENDBRANCH   4  24
BRANCH   1  29
ATOM     29  N2  ZIN A   1      16.773  -5.940   7.808  0.00  0.00    -0.068 N 
ATOM     30  C1  ZIN A   1      15.723  -5.855   6.784  0.00  0.00     0.270 C 
ATOM     31  H3  ZIN A   1      16.363  -5.814   8.721  0.00  0.00     0.279 HD
ATOM     32  C4  ZIN A   1      17.418  -7.258   7.739  0.00  0.00     0.270 C 
ENDBRANCH   1  29
BRANCH   7  33
ATOM     33  O16 ZIN A   1      17.376  -5.490  10.437  0.00  0.00    -0.373 OA
ATOM     34  H46 ZIN A   1      17.850  -6.129  10.987  0.00  0.00     0.211 HD
ENDBRANCH   7  33
BRANCH  20  35
ATOM     35  O32 ZIN A   1      20.128  -0.481   9.188  0.00  0.00    -0.390 OA
ATOM     36  H50 ZIN A   1      20.645  -0.315   8.388  0.00  0.00     0.210 HD
ENDBRANCH  20  35
BRANCH  14  37
ATOM     37  O24 ZIN A   1      17.341   1.013  13.595  0.00  0.00    -0.360 OA
ATOM     38  H47 ZIN A   1      16.511   0.522  13.664  0.00  0.00     0.217 HD
ENDBRANCH  14  37
TORSDOF 5
ENDMDL
MODEL 2
REMARK VINA RESULT:      -8.1      5.211      9.892
REMARK  5 active torsions:
REMARK  status: ('A' for Active; 'I' for Inactive)
REMARK    1  A    between atoms: N2_2  and  C5_5 
REMARK    2  A    between atoms: C9_8  and  C10_9 
REMARK       I    between atoms: C10_9  and  N11_10 
REMARK    3  A    between atoms: C15_14  and  O16_15 
REMARK    4  A    between atoms: C23_22  and  O24_23 
REMARK    5  A    between atoms: C30_29  and  O32_30 
ROOT
ATOM      1  C5  ZIN A   1      17.549   5.250  15.315  0.00  0.00     0.255 C 
ATOM      2  C7  ZIN A   1      18.908   5.863  15.473  0.00  0.00     0.135 C 
ATOM      3  O8  ZIN A   1      19.215   6.468  16.630  0.00  0.00    -0.193 OA
ATOM      4  C9  ZIN A   1      19.848   5.826  14.475  0.00  0.00     0.115 C 
ATOM      5  C13 ZIN A   1      19.559   5.148  13.212  0.00  0.00     0.210 C 
ATOM      6  O14 ZIN A   1      20.445   4.925  12.413  0.00  0.00    -0.288 OA
ATOM      7  C15 ZIN A   1      18.131   4.728  12.919  0.00  0.00     0.194 C 
ATOM      8  C17 ZIN A   1      18.183   3.616  11.905  0.00  0.00     0.201 C 
ATOM      9  O18 ZIN A   1      18.371   3.907  10.740  0.00  0.00    -0.289 OA
ATOM     10  C19 ZIN A   1      18.028   2.276  12.233  0.00  0.00     0.036 C 
ATOM     11  C20 ZIN A   1      18.066   1.329  11.223  0.00  0.00     0.131 C 
ATOM     12  O21 ZIN A   1      18.163   1.715   9.932  0.00  0.00    -0.190 OA
ATOM     13  C22 ZIN A   1      18.001  -0.098  11.569  0.00  0.00     0.045 A 
ATOM     14  C23 ZIN A   1      17.713  -1.058  10.589  0.00  0.00     0.079 A 
ATOM     15  C25 ZIN A   1      17.648  -2.398  10.941  0.00  0.00     0.039 A 
ATOM     16  C26 ZIN A   1      17.862  -2.781  12.251  0.00  0.00     0.027 A 
ATOM     17  C27 ZIN A   1      18.149  -1.835  13.224  0.00  0.00     0.044 A 
ATOM     18 Cl28 ZIN A   1      18.415  -2.332  14.866  0.00  0.00    -0.084 Cl
ATOM     19  C29 ZIN A   1      18.224  -0.500  12.889  0.00  0.00     0.009 A 
ATOM     20  C30 ZIN A   1      18.560   0.533  13.934  0.00  0.00     0.162 C 
ATOM     21  C33 ZIN A   1      17.788   1.818  13.647  0.00  0.00     0.059 C 
ATOM     22  C35 ZIN A   1      18.207   2.913  14.630  0.00  0.00     0.023 C 
ATOM     23  C36 ZIN A   1      17.516   4.208  14.214  0.00  0.00     0.074 C 
ENDROOT
BRANCH   4  24
ATOM     24  C10 ZIN A   1      21.156   6.472  14.676  0.00  0.00     0.255 C 
ATOM     25  N11 ZIN A   1      22.074   5.897  15.478  0.00  0.00    -0.366 N 
ATOM     26  H44 ZIN A   1      21.850   5.096  15.976  0.00  0.00     0.159 HD
ATOM     27  H45 ZIN A   1      22.959   6.286  15.557  0.00  0.00     0.159 HD
ATOM     28  O12 ZIN A   1      21.406   7.523  14.119  0.00  0.00    -0.268 OA
ENDBRANCH   4  24
BRANCH   1  29
ATOM     29  N2  ZIN A   1      16.582   6.310  14.998  0.00  0.00    -0.068 N 
ATOM     30  C1  ZIN A   1      15.224   5.749  14.995  0.00  0.00     0.270 C 
ATOM     31  H3  ZIN A   1      16.790   6.693  14.088  0.00  0.00     0.279 HD
ATOM     32  C4  ZIN A   1      16.671   7.373  16.009  0.00  0.00     0.270 C 
ENDBRANCH   1  29
BRANCH   7  33
ATOM     33  O16 ZIN A   1      17.379   5.839  12.425  0.00  0.00    -0.373 OA
ATOM     34  H46 ZIN A   1      16.537   5.593  12.018  0.00  0.00     0.211 HD
ENDBRANCH   7  33
BRANCH  20  35
ATOM     35  O32 ZIN A   1      19.963   0.803  13.903  0.00  0.00    -0.390 OA
ATOM     36  H50 ZIN A   1      20.182   1.744  13.866  0.00  0.00     0.210 HD
ENDBRANCH  20  35
BRANCH  14  37
ATOM     37  O24 ZIN A   1      17.502  -0.680   9.302  0.00  0.00    -0.360 OA
ATOM     38  H47 ZIN A   1      16.571  -0.661   9.045  0.00  0.00     0.217 HD
ENDBRANCH  14  37
TORSDOF 5
ENDMDL
MODEL 3
REMARK VINA RESULT:      -7.7      4.174      6.755
REMARK  5 active torsions:
REMARK  status: ('A' for Active; 'I' for Inactive)
REMARK    1  A    between atoms: N2_2  and  C5_5 
REMARK    2  A    between atoms: C9_8  and  C10_9 
REMARK       I    between atoms: C10_9  and  N11_10 
REMARK    3  A    between atoms: C15_14  and  O16_15 
REMARK    4  A    between atoms: C23_22  and  O24_23 
REMARK    5  A    between atoms: C30_29  and  O32_30 
ROOT
ATOM      1  C5  ZIN A   1      17.495  -7.088   3.354  0.00  0.00     0.255 C 
ATOM      2  C7  ZIN A   1      16.119  -6.791   2.838  0.00  0.00     0.135 C 
ATOM      3  O8  ZIN A   1      15.412  -7.780   2.272  0.00  0.00    -0.193 OA
ATOM      4  C9  ZIN A   1      15.558  -5.542   2.928  0.00  0.00     0.115 C 
ATOM      5  C13 ZIN A   1      16.287  -4.448   3.568  0.00  0.00     0.210 C 
ATOM      6  O14 ZIN A   1      15.726  -3.407   3.842  0.00  0.00    -0.288 OA
ATOM      7  C15 ZIN A   1      17.758  -4.638   3.884  0.00  0.00     0.194 C 
ATOM      8  C17 ZIN A   1      18.115  -3.674   4.984  0.00  0.00     0.201 C 
ATOM      9  O18 ZIN A   1      18.295  -2.507   4.692  0.00  0.00    -0.289 OA
ATOM     10  C19 ZIN A   1      18.249  -4.049   6.315  0.00  0.00     0.036 C 
ATOM     11  C20 ZIN A   1      18.606  -3.090   7.249  0.00  0.00     0.131 C 
ATOM     12  O21 ZIN A   1      18.906  -1.833   6.854  0.00  0.00    -0.190 OA
ATOM     13  C22 ZIN A   1      18.655  -3.453   8.672  0.00  0.00     0.045 A 
ATOM     14  C23 ZIN A   1      19.311  -2.629   9.597  0.00  0.00     0.079 A 
ATOM     15  C25 ZIN A   1      19.351  -2.998  10.934  0.00  0.00     0.039 A 
ATOM     16  C26 ZIN A   1      18.752  -4.171  11.347  0.00  0.00     0.027 A 
ATOM     17  C27 ZIN A   1      18.100  -4.989  10.436  0.00  0.00     0.044 A 
ATOM     18 Cl28 ZIN A   1      17.352  -6.461  10.971  0.00  0.00    -0.084 Cl
ATOM     19  C29 ZIN A   1      18.044  -4.634   9.106  0.00  0.00     0.009 A 
ATOM     20  C30 ZIN A   1      17.317  -5.503   8.112  0.00  0.00     0.162 C 
ATOM     21  C33 ZIN A   1      18.049  -5.468   6.773  0.00  0.00     0.059 C 
ATOM     22  C35 ZIN A   1      17.259  -6.251   5.722  0.00  0.00     0.023 C 
ATOM     23  C36 ZIN A   1      17.955  -6.068   4.377  0.00  0.00     0.074 C 
ENDROOT
BRANCH   4  24
ATOM     24  C10 ZIN A   1      14.214  -5.302   2.377  0.00  0.00     0.255 C 
ATOM     25  N11 ZIN A   1      14.066  -5.005   1.070  0.00  0.00    -0.366 N 
ATOM     26  H44 ZIN A   1      14.847  -4.882   0.508  0.00  0.00     0.159 HD
ATOM     27  H45 ZIN A   1      13.177  -4.915   0.692  0.00  0.00     0.159 HD
ATOM     28  O12 ZIN A   1      13.239  -5.372   3.099  0.00  0.00    -0.268 OA
ENDBRANCH   4  24
BRANCH   1  29
ATOM     29  N2  ZIN A   1      18.436  -7.090   2.225  0.00  0.00    -0.068 N 
ATOM     30  C1  ZIN A   1      19.067  -8.412   2.116  0.00  0.00     0.270 C 
ATOM     31  H3  ZIN A   1      19.147  -6.390   2.379  0.00  0.00     0.279 HD
ATOM     32  C4  ZIN A   1      17.712  -6.789   0.983  0.00  0.00     0.270 C 
ENDBRANCH   1  29
BRANCH   7  33
ATOM     33  O16 ZIN A   1      18.551  -4.402   2.718  0.00  0.00    -0.373 OA
ATOM     34  H46 ZIN A   1      18.173  -3.750   2.112  0.00  0.00     0.211 HD
ENDBRANCH   7  33
BRANCH  20  35
ATOM     35  O32 ZIN A   1      15.985  -5.016   7.939  0.00  0.00    -0.390 OA
ATOM     36  H50 ZIN A   1      15.819  -4.623   7.071  0.00  0.00     0.210 HD
ENDBRANCH  20  35
BRANCH  14  37
ATOM     37  O24 ZIN A   1      19.900  -1.477   9.189  0.00  0.00    -0.360 OA
ATOM     38  H47 ZIN A   1      20.630  -1.187   9.753  0.00  0.00     0.217 HD
ENDBRANCH  14  37
TORSDOF 5
ENDMDL
MODEL 4
REMARK VINA RESULT:      -7.5      4.162      6.688
REMARK  5 active torsions:
REMARK  status: ('A' for Active; 'I' for Inactive)
REMARK    1  A    between atoms: N2_2  and  C5_5 
REMARK    2  A    between atoms: C9_8  and  C10_9 
REMARK       I    between atoms: C10_9  and  N11_10 
REMARK    3  A    between atoms: C15_14  and  O16_15 
REMARK    4  A    between atoms: C23_22  and  O24_23 
REMARK    5  A    between atoms: C30_29  and  O32_30 
ROOT
ATOM      1  C5  ZIN A   1      18.185  -0.511  12.022  0.00  0.00     0.255 C 
ATOM      2  C7  ZIN A   1      17.983  -0.602  10.540  0.00  0.00     0.135 C 
ATOM      3  O8  ZIN A   1      17.234  -1.601  10.048  0.00  0.00    -0.193 OA
ATOM      4  C9  ZIN A   1      18.536   0.302   9.668  0.00  0.00     0.115 C 
ATOM      5  C13 ZIN A   1      19.331   1.421  10.171  0.00  0.00     0.210 C 
ATOM      6  O14 ZIN A   1      19.644   2.337   9.437  0.00  0.00    -0.288 OA
ATOM      7  C15 ZIN A   1      19.758   1.418  11.627  0.00  0.00     0.194 C 
ATOM      8  C17 ZIN A   1      20.041   2.844  12.020  0.00  0.00     0.201 C 
ATOM      9  O18 ZIN A   1      21.098   3.337  11.678  0.00  0.00    -0.289 OA
ATOM     10  C19 ZIN A   1      19.157   3.624  12.754  0.00  0.00     0.036 C 
ATOM     11  C20 ZIN A   1      19.523   4.917  13.089  0.00  0.00     0.131 C 
ATOM     12  O21 ZIN A   1      20.755   5.378  12.782  0.00  0.00    -0.190 OA
ATOM     13  C22 ZIN A   1      18.557   5.784  13.780  0.00  0.00     0.045 A 
ATOM     14  C23 ZIN A   1      18.979   6.960  14.414  0.00  0.00     0.079 A 
ATOM     15  C25 ZIN A   1      18.050   7.756  15.068  0.00  0.00     0.039 A 
ATOM     16  C26 ZIN A   1      16.719   7.389  15.095  0.00  0.00     0.027 A 
ATOM     17  C27 ZIN A   1      16.296   6.227  14.466  0.00  0.00     0.044 A 
ATOM     18 Cl28 ZIN A   1      14.620   5.778  14.509  0.00  0.00    -0.084 Cl
ATOM     19  C29 ZIN A   1      17.204   5.428  13.807  0.00  0.00     0.009 A 
ATOM     20  C30 ZIN A   1      16.751   4.177  13.099  0.00  0.00     0.162 C 
ATOM     21  C33 ZIN A   1      17.827   3.101  13.226  0.00  0.00     0.059 C 
ATOM     22  C35 ZIN A   1      17.432   1.865  12.415  0.00  0.00     0.023 C 
ATOM     23  C36 ZIN A   1      18.598   0.882  12.458  0.00  0.00     0.074 C 
ENDROOT
BRANCH   4  24
ATOM     24  C10 ZIN A   1      18.328   0.144   8.219  0.00  0.00     0.255 C 
ATOM     25  N11 ZIN A   1      17.081  -0.010   7.731  0.00  0.00    -0.366 N 
ATOM     26  H44 ZIN A   1      16.328  -0.085   8.338  0.00  0.00     0.159 HD
ATOM     27  H45 ZIN A   1      16.937  -0.045   6.773  0.00  0.00     0.159 HD
ATOM     28  O12 ZIN A   1      19.281   0.152   7.464  0.00  0.00    -0.268 OA
ENDBRANCH   4  24
BRANCH   1  29
ATOM     29  N2  ZIN A   1      19.229  -1.465  12.421  0.00  0.00    -0.068 N 
ATOM     30  C1  ZIN A   1      19.358  -1.466  13.884  0.00  0.00     0.270 C 
ATOM     31  H3  ZIN A   1      20.108  -1.194  12.006  0.00  0.00     0.279 HD
ATOM     32  C4  ZIN A   1      18.863  -2.811  11.960  0.00  0.00     0.270 C 
ENDBRANCH   1  29
BRANCH   7  33
ATOM     33  O16 ZIN A   1      20.915   0.598  11.802  0.00  0.00    -0.373 OA
ATOM     34  H46 ZIN A   1      20.720  -0.348  11.865  0.00  0.00     0.211 HD
ENDBRANCH   7  33
BRANCH  20  35
ATOM     35  O32 ZIN A   1      16.527   4.466  11.718  0.00  0.00    -0.390 OA
ATOM     36  H50 ZIN A   1      16.508   3.683  11.150  0.00  0.00     0.210 HD
ENDBRANCH  20  35
BRANCH  14  37
ATOM     37  O24 ZIN A   1      20.288   7.319  14.388  0.00  0.00    -0.360 OA
ATOM     38  H47 ZIN A   1      20.512   7.936  13.678  0.00  0.00     0.217 HD
ENDBRANCH  14  37
TORSDOF 5
ENDMDL
MODEL 5
REMARK VINA RESULT:      -7.0      3.342      7.437
REMARK  5 active torsions:
REMARK  status: ('A' for Active; 'I' for Inactive)
REMARK    1  A    between atoms: N2_2  and  C5_5 
REMARK    2  A    between atoms: C9_8  and  C10_9 
REMARK       I    between atoms: C10_9  and  N11_10 
REMARK    3  A    between atoms: C15_14  and  O16_15 
REMARK    4  A    between atoms: C23_22  and  O24_23 
REMARK    5  A    between atoms: C30_29  and  O32_30 
ROOT
ATOM      1  C5  ZIN A   1      17.983   0.709  11.646  0.00  0.00     0.255 C 
ATOM      2  C7  ZIN A   1      17.819   0.695  13.136  0.00  0.00     0.135 C 
ATOM      3  O8  ZIN A   1      17.045   1.627  13.711  0.00  0.00    -0.193 OA
ATOM      4  C9  ZIN A   1      18.433  -0.239  13.931  0.00  0.00     0.115 C 
ATOM      5  C13 ZIN A   1      19.259  -1.288  13.336  0.00  0.00     0.210 C 
ATOM      6  O14 ZIN A   1      19.629  -2.236  13.999  0.00  0.00    -0.288 OA
ATOM      7  C15 ZIN A   1      19.645  -1.173  11.873  0.00  0.00     0.194 C 
ATOM      8  C17 ZIN A   1      19.975  -2.556  11.379  0.00  0.00     0.201 C 
ATOM      9  O18 ZIN A   1      21.060  -3.025  11.662  0.00  0.00    -0.289 OA
ATOM     10  C19 ZIN A   1      19.103  -3.324  10.618  0.00  0.00     0.036 C 
ATOM     11  C20 ZIN A   1      19.511  -4.576  10.189  0.00  0.00     0.131 C 
ATOM     12  O21 ZIN A   1      20.769  -5.003  10.434  0.00  0.00    -0.190 OA
ATOM     13  C22 ZIN A   1      18.563  -5.436   9.467  0.00  0.00     0.045 A 
ATOM     14  C23 ZIN A   1      19.014  -6.549   8.746  0.00  0.00     0.079 A 
ATOM     15  C25 ZIN A   1      18.101  -7.340   8.064  0.00  0.00     0.039 A 
ATOM     16  C26 ZIN A   1      16.756  -7.028   8.095  0.00  0.00     0.027 A 
ATOM     17  C27 ZIN A   1      16.303  -5.929   8.810  0.00  0.00     0.044 A 
ATOM     18 Cl28 ZIN A   1      14.610  -5.550   8.839  0.00  0.00    -0.084 Cl
ATOM     19  C29 ZIN A   1      17.196  -5.137   9.498  0.00  0.00     0.009 A 
ATOM     20  C30 ZIN A   1      16.712  -3.955  10.298  0.00  0.00     0.162 C 
ATOM     21  C33 ZIN A   1      17.740  -2.829  10.215  0.00  0.00     0.059 C 
ATOM     22  C35 ZIN A   1      17.318  -1.666  11.117  0.00  0.00     0.023 C 
ATOM     23  C36 ZIN A   1      18.441  -0.633  11.109  0.00  0.00     0.074 C 
ENDROOT
BRANCH   4  24
ATOM     24  C10 ZIN A   1      18.260  -0.184  15.392  0.00  0.00     0.255 C 
ATOM     25  N11 ZIN A   1      18.968   0.700  16.122  0.00  0.00    -0.366 N 
ATOM     26  H44 ZIN A   1      19.642   1.253  15.695  0.00  0.00     0.159 HD
ATOM     27  H45 ZIN A   1      18.805   0.785  17.074  0.00  0.00     0.159 HD
ATOM     28  O12 ZIN A   1      17.478  -0.937  15.940  0.00  0.00    -0.268 OA
ENDBRANCH   4  24
BRANCH   1  29
ATOM     29  N2  ZIN A   1      18.976   1.731  11.286  0.00  0.00    -0.068 N 
ATOM     30  C1  ZIN A   1      18.975   1.923   9.829  0.00  0.00     0.270 C 
ATOM     31  H3  ZIN A   1      19.892   1.430  11.584  0.00  0.00     0.279 HD
ATOM     32  C4  ZIN A   1      18.637   2.998  11.947  0.00  0.00     0.270 C 
ENDBRANCH   1  29
BRANCH   7  33
ATOM     33  O16 ZIN A   1      20.762  -0.294  11.723  0.00  0.00    -0.373 OA
ATOM     34  H46 ZIN A   1      20.975   0.211  12.521  0.00  0.00     0.211 HD
ENDBRANCH   7  33
BRANCH  20  35
ATOM     35  O32 ZIN A   1      16.539  -4.342  11.662  0.00  0.00    -0.390 OA
ATOM     36  H50 ZIN A   1      15.924  -5.078  11.787  0.00  0.00     0.210 HD
ENDBRANCH  20  35
BRANCH  14  37
ATOM     37  O24 ZIN A   1      20.337  -6.854   8.715  0.00  0.00    -0.360 OA
ATOM     38  H47 ZIN A   1      20.666  -7.258   9.529  0.00  0.00     0.217 HD
ENDBRANCH  14  37
TORSDOF 5
ENDMDL
MODEL 6
REMARK VINA RESULT:      -6.7      4.989      9.340
REMARK  5 active torsions:
REMARK  status: ('A' for Active; 'I' for Inactive)
REMARK    1  A    between atoms: N2_2  and  C5_5 
REMARK    2  A    between atoms: C9_8  and  C10_9 
REMARK       I    between atoms: C10_9  and  N11_10 
REMARK    3  A    between atoms: C15_14  and  O16_15 
REMARK    4  A    between atoms: C23_22  and  O24_23 
REMARK    5  A    between atoms: C30_29  and  O32_30 
ROOT
ATOM      1  C5  ZIN A   1      18.709   2.917  16.370  0.00  0.00     0.255 C 
ATOM      2  C7  ZIN A   1      19.762   3.981  16.291  0.00  0.00     0.135 C 
ATOM      3  O8  ZIN A   1      20.500   4.244  17.380  0.00  0.00    -0.193 OA
ATOM      4  C9  ZIN A   1      19.997   4.694  15.143  0.00  0.00     0.115 C 
ATOM      5  C13 ZIN A   1      19.233   4.413  13.929  0.00  0.00     0.210 C 
ATOM      6  O14 ZIN A   1      19.572   4.882  12.862  0.00  0.00    -0.288 OA
ATOM      7  C15 ZIN A   1      18.008   3.523  14.026  0.00  0.00     0.194 C 
ATOM      8  C17 ZIN A   1      17.752   2.950  12.658  0.00  0.00     0.201 C 
ATOM      9  O18 ZIN A   1      17.212   3.656  11.829  0.00  0.00    -0.289 OA
ATOM     10  C19 ZIN A   1      18.101   1.655  12.294  0.00  0.00     0.036 C 
ATOM     11  C20 ZIN A   1      17.798   1.213  11.017  0.00  0.00     0.131 C 
ATOM     12  O21 ZIN A   1      17.096   1.999  10.172  0.00  0.00    -0.190 OA
ATOM     13  C22 ZIN A   1      18.249  -0.119  10.590  0.00  0.00     0.045 A 
ATOM     14  C23 ZIN A   1      17.702  -0.728   9.452  0.00  0.00     0.079 A 
ATOM     15  C25 ZIN A   1      18.137  -1.989   9.074  0.00  0.00     0.039 A 
ATOM     16  C26 ZIN A   1      19.101  -2.641   9.817  0.00  0.00     0.027 A 
ATOM     17  C27 ZIN A   1      19.648  -2.042  10.943  0.00  0.00     0.044 A 
ATOM     18 Cl28 ZIN A   1      20.858  -2.875  11.867  0.00  0.00    -0.084 Cl
ATOM     19  C29 ZIN A   1      19.232  -0.787  11.328  0.00  0.00     0.009 A 
ATOM     20  C30 ZIN A   1      19.837  -0.117  12.535  0.00  0.00     0.162 C 
ATOM     21  C33 ZIN A   1      18.769   0.705  13.251  0.00  0.00     0.059 C 
ATOM     22  C35 ZIN A   1      19.395   1.484  14.411  0.00  0.00     0.023 C 
ATOM     23  C36 ZIN A   1      18.321   2.393  15.001  0.00  0.00     0.074 C 
ENDROOT
BRANCH   4  24
ATOM     24  C10 ZIN A   1      21.024   5.749  15.133  0.00  0.00     0.255 C 
ATOM     25  N11 ZIN A   1      22.259   5.490  15.608  0.00  0.00    -0.366 N 
ATOM     26  H44 ZIN A   1      22.452   4.632  16.018  0.00  0.00     0.159 HD
ATOM     27  H45 ZIN A   1      22.955   6.162  15.539  0.00  0.00     0.159 HD
ATOM     28  O12 ZIN A   1      20.758   6.852  14.698  0.00  0.00    -0.268 OA
ENDBRANCH   4  24
BRANCH   1  29
ATOM     29  N2  ZIN A   1      17.516   3.475  17.023  0.00  0.00    -0.068 N 
ATOM     30  C1  ZIN A   1      17.216   2.703  18.237  0.00  0.00     0.270 C 
ATOM     31  H3  ZIN A   1      16.732   3.424  16.390  0.00  0.00     0.279 HD
ATOM     32  C4  ZIN A   1      17.766   4.877  17.383  0.00  0.00     0.270 C 
ENDBRANCH   1  29
BRANCH   7  33
ATOM     33  O16 ZIN A   1      16.883   4.276  14.486  0.00  0.00    -0.373 OA
ATOM     34  H46 ZIN A   1      17.019   4.702  15.344  0.00  0.00     0.211 HD
ENDBRANCH   7  33
BRANCH  20  35
ATOM     35  O32 ZIN A   1      20.900   0.743  12.119  0.00  0.00    -0.390 OA
ATOM     36  H50 ZIN A   1      21.758   0.524  12.508  0.00  0.00     0.210 HD
ENDBRANCH  20  35
BRANCH  14  37
ATOM     37  O24 ZIN A   1      16.754  -0.086   8.723  0.00  0.00    -0.360 OA
ATOM     38  H47 ZIN A   1      16.351  -0.632   8.034  0.00  0.00     0.217 HD
ENDBRANCH  14  37
TORSDOF 5
ENDMDL
MODEL 7
REMARK VINA RESULT:      -6.1      3.328      7.428
REMARK  5 active torsions:
REMARK  status: ('A' for Active; 'I' for Inactive)
REMARK    1  A    between atoms: N2_2  and  C5_5 
REMARK    2  A    between atoms: C9_8  and  C10_9 
REMARK       I    between atoms: C10_9  and  N11_10 
REMARK    3  A    between atoms: C15_14  and  O16_15 
REMARK    4  A    between atoms: C23_22  and  O24_23 
REMARK    5  A    between atoms: C30_29  and  O32_30 
ROOT
ATOM      1  C5  ZIN A   1      18.280  -1.894   7.636  0.00  0.00     0.255 C 
ATOM      2  C7  ZIN A   1      18.751  -1.556   9.018  0.00  0.00     0.135 C 
ATOM      3  O8  ZIN A   1      18.595  -0.302   9.468  0.00  0.00    -0.193 OA
ATOM      4  C9  ZIN A   1      19.336  -2.487   9.840  0.00  0.00     0.115 C 
ATOM      5  C13 ZIN A   1      19.493  -3.870   9.395  0.00  0.00     0.210 C 
ATOM      6  O14 ZIN A   1      19.809  -4.740  10.180  0.00  0.00    -0.288 OA
ATOM      7  C15 ZIN A   1      19.255  -4.199   7.934  0.00  0.00     0.194 C 
ATOM      8  C17 ZIN A   1      18.929  -5.666   7.845  0.00  0.00     0.201 C 
ATOM      9  O18 ZIN A   1      19.844  -6.464   7.908  0.00  0.00    -0.289 OA
ATOM     10  C19 ZIN A   1      17.638  -6.155   7.695  0.00  0.00     0.036 C 
ATOM     11  C20 ZIN A   1      17.446  -7.523   7.596  0.00  0.00     0.131 C 
ATOM     12  O21 ZIN A   1      18.506  -8.359   7.558  0.00  0.00    -0.190 OA
ATOM     13  C22 ZIN A   1      16.077  -8.056   7.535  0.00  0.00     0.045 A 
ATOM     14  C23 ZIN A   1      15.842  -9.373   7.117  0.00  0.00     0.079 A 
ATOM     15  C25 ZIN A   1      14.540  -9.851   7.059  0.00  0.00     0.039 A 
ATOM     16  C26 ZIN A   1      13.486  -9.031   7.408  0.00  0.00     0.027 A 
ATOM     17  C27 ZIN A   1      13.714  -7.728   7.826  0.00  0.00     0.044 A 
ATOM     18 Cl28 ZIN A   1      12.377  -6.710   8.261  0.00  0.00    -0.084 Cl
ATOM     19  C29 ZIN A   1      15.000  -7.240   7.895  0.00  0.00     0.009 A 
ATOM     20  C30 ZIN A   1      15.260  -5.834   8.371  0.00  0.00     0.162 C 
ATOM     21  C33 ZIN A   1      16.442  -5.246   7.603  0.00  0.00     0.059 C 
ATOM     22  C35 ZIN A   1      16.791  -3.862   8.156  0.00  0.00     0.023 C 
ATOM     23  C36 ZIN A   1      18.059  -3.383   7.455  0.00  0.00     0.074 C 
ENDROOT
BRANCH   4  24
ATOM     24  C10 ZIN A   1      19.807  -2.090  11.177  0.00  0.00     0.255 C 
ATOM     25  N11 ZIN A   1      20.894  -1.303  11.302  0.00  0.00    -0.366 N 
ATOM     26  H44 ZIN A   1      21.407  -1.056  10.516  0.00  0.00     0.159 HD
ATOM     27  H45 ZIN A   1      21.165  -0.985  12.177  0.00  0.00     0.159 HD
ATOM     28  O12 ZIN A   1      19.215  -2.470  12.168  0.00  0.00    -0.268 OA
ENDBRANCH   4  24
BRANCH   1  29
ATOM     29  N2  ZIN A   1      19.286  -1.440   6.666  0.00  0.00    -0.068 N 
ATOM     30  C1  ZIN A   1      18.930  -1.928   5.327  0.00  0.00     0.270 C 
ATOM     31  H3  ZIN A   1      20.191  -1.801   6.926  0.00  0.00     0.279 HD
ATOM     32  C4  ZIN A   1      19.329   0.029   6.656  0.00  0.00     0.270 C 
ENDBRANCH   1  29
BRANCH   7  33
ATOM     33  O16 ZIN A   1      20.413  -3.882   7.158  0.00  0.00    -0.373 OA
ATOM     34  H46 ZIN A   1      21.037  -4.615   7.067  0.00  0.00     0.211 HD
ENDBRANCH   7  33
BRANCH  20  35
ATOM     35  O32 ZIN A   1      15.561  -5.852   9.768  0.00  0.00    -0.390 OA
ATOM     36  H50 ZIN A   1      14.972  -6.413  10.290  0.00  0.00     0.210 HD
ENDBRANCH  20  35
BRANCH  14  37
ATOM     37  O24 ZIN A   1      16.880 -10.177   6.773  0.00  0.00    -0.360 OA
ATOM     38  H47 ZIN A   1      16.846 -10.494   5.860  0.00  0.00     0.217 HD
ENDBRANCH  14  37
TORSDOF 5
ENDMDL
MODEL 8
REMARK VINA RESULT:      -6.1      4.545      7.288
REMARK  5 active torsions:
REMARK  status: ('A' for Active; 'I' for Inactive)
REMARK    1  A    between atoms: N2_2  and  C5_5 
REMARK    2  A    between atoms: C9_8  and  C10_9 
REMARK       I    between atoms: C10_9  and  N11_10 
REMARK    3  A    between atoms: C15_14  and  O16_15 
REMARK    4  A    between atoms: C23_22  and  O24_23 
REMARK    5  A    between atoms: C30_29  and  O32_30 
ROOT
ATOM      1  C5  ZIN A   1      17.319  -7.966   3.016  0.00  0.00     0.255 C 
ATOM      2  C7  ZIN A   1      15.851  -8.268   3.007  0.00  0.00     0.135 C 
ATOM      3  O8  ZIN A   1      15.453  -9.548   2.975  0.00  0.00    -0.193 OA
ATOM      4  C9  ZIN A   1      14.900  -7.279   3.032  0.00  0.00     0.115 C 
ATOM      5  C13 ZIN A   1      15.297  -5.874   3.099  0.00  0.00     0.210 C 
ATOM      6  O14 ZIN A   1      14.477  -5.010   3.334  0.00  0.00    -0.288 OA
ATOM      7  C15 ZIN A   1      16.753  -5.514   2.870  0.00  0.00     0.194 C 
ATOM      8  C17 ZIN A   1      16.999  -4.179   3.520  0.00  0.00     0.201 C 
ATOM      9  O18 ZIN A   1      16.627  -3.177   2.939  0.00  0.00    -0.289 OA
ATOM     10  C19 ZIN A   1      17.629  -4.032   4.749  0.00  0.00     0.036 C 
ATOM     11  C20 ZIN A   1      17.832  -2.757   5.251  0.00  0.00     0.131 C 
ATOM     12  O21 ZIN A   1      17.502  -1.674   4.513  0.00  0.00    -0.190 OA
ATOM     13  C22 ZIN A   1      18.408  -2.593   6.593  0.00  0.00     0.045 A 
ATOM     14  C23 ZIN A   1      18.923  -1.356   7.003  0.00  0.00     0.079 A 
ATOM     15  C25 ZIN A   1      19.471  -1.228   8.271  0.00  0.00     0.039 A 
ATOM     16  C26 ZIN A   1      19.511  -2.316   9.121  0.00  0.00     0.027 A 
ATOM     17  C27 ZIN A   1      19.000  -3.542   8.721  0.00  0.00     0.044 A 
ATOM     18 Cl28 ZIN A   1      19.057  -4.900   9.800  0.00  0.00    -0.084 Cl
ATOM     19  C29 ZIN A   1      18.446  -3.684   7.467  0.00  0.00     0.009 A 
ATOM     20  C30 ZIN A   1      17.866  -5.005   7.032  0.00  0.00     0.162 C 
ATOM     21  C33 ZIN A   1      18.127  -5.210   5.542  0.00  0.00     0.059 C 
ATOM     22  C35 ZIN A   1      17.443  -6.492   5.060  0.00  0.00     0.023 C 
ATOM     23  C36 ZIN A   1      17.614  -6.576   3.546  0.00  0.00     0.074 C 
ENDROOT
BRANCH   4  24
ATOM     24  C10 ZIN A   1      13.472  -7.635   2.990  0.00  0.00     0.255 C 
ATOM     25  N11 ZIN A   1      12.877  -8.160   4.080  0.00  0.00    -0.366 N 
ATOM     26  H44 ZIN A   1      13.403  -8.366   4.869  0.00  0.00     0.159 HD
ATOM     27  H45 ZIN A   1      11.922  -8.331   4.076  0.00  0.00     0.159 HD
ATOM     28  O12 ZIN A   1      12.831  -7.457   1.973  0.00  0.00    -0.268 OA
ENDBRANCH   4  24
BRANCH   1  29
ATOM     29  N2  ZIN A   1      17.836  -8.073   1.645  0.00  0.00    -0.068 N 
ATOM     30  C1  ZIN A   1      19.305  -8.088   1.676  0.00  0.00     0.270 C 
ATOM     31  H3  ZIN A   1      17.519  -7.283   1.104  0.00  0.00     0.279 HD
ATOM     32  C4  ZIN A   1      17.347  -9.315   1.033  0.00  0.00     0.270 C 
ENDBRANCH   1  29
BRANCH   7  33
ATOM     33  O16 ZIN A   1      17.037  -5.464   1.470  0.00  0.00    -0.373 OA
ATOM     34  H46 ZIN A   1      16.249  -5.419   0.911  0.00  0.00     0.211 HD
ENDBRANCH   7  33
BRANCH  20  35
ATOM     35  O32 ZIN A   1      16.458  -5.010   7.274  0.00  0.00    -0.390 OA
ATOM     36  H50 ZIN A   1      15.952  -4.457   6.663  0.00  0.00     0.210 HD
ENDBRANCH  20  35
BRANCH  14  37
ATOM     37  O24 ZIN A   1      18.885  -0.287   6.166  0.00  0.00    -0.360 OA
ATOM     38  H47 ZIN A   1      18.007  -0.101   5.806  0.00  0.00     0.217 HD
ENDBRANCH  14  37
TORSDOF 5
ENDMDL
MODEL 9
REMARK VINA RESULT:      -5.9      3.092      7.290
REMARK  5 active torsions:
REMARK  status: ('A' for Active; 'I' for Inactive)
REMARK    1  A    between atoms: N2_2  and  C5_5 
REMARK    2  A    between atoms: C9_8  and  C10_9 
REMARK       I    between atoms: C10_9  and  N11_10 
REMARK    3  A    between atoms: C15_14  and  O16_15 
REMARK    4  A    between atoms: C23_22  and  O24_23 
REMARK    5  A    between atoms: C30_29  and  O32_30 
ROOT
ATOM      1  C5  ZIN A   1      18.037  -0.946   9.264  0.00  0.00     0.255 C 
ATOM      2  C7  ZIN A   1      18.227  -0.763  10.740  0.00  0.00     0.135 C 
ATOM      3  O8  ZIN A   1      17.803   0.374  11.311  0.00  0.00    -0.193 OA
ATOM      4  C9  ZIN A   1      18.820  -1.719  11.525  0.00  0.00     0.115 C 
ATOM      5  C13 ZIN A   1      19.265  -2.982  10.942  0.00  0.00     0.210 C 
ATOM      6  O14 ZIN A   1      19.592  -3.911  11.652  0.00  0.00    -0.288 OA
ATOM      7  C15 ZIN A   1      19.313  -3.113   9.431  0.00  0.00     0.194 C 
ATOM      8  C17 ZIN A   1      19.246  -4.580   9.099  0.00  0.00     0.201 C 
ATOM      9  O18 ZIN A   1      20.257  -5.245   9.220  0.00  0.00    -0.289 OA
ATOM     10  C19 ZIN A   1      18.089  -5.213   8.662  0.00  0.00     0.036 C 
ATOM     11  C20 ZIN A   1      18.138  -6.563   8.357  0.00  0.00     0.131 C 
ATOM     12  O21 ZIN A   1      19.312  -7.229   8.399  0.00  0.00    -0.190 OA
ATOM     13  C22 ZIN A   1      16.900  -7.264   7.988  0.00  0.00     0.045 A 
ATOM     14  C23 ZIN A   1      16.947  -8.521   7.369  0.00  0.00     0.079 A 
ATOM     15  C25 ZIN A   1      15.765  -9.158   7.021  0.00  0.00     0.039 A 
ATOM     16  C26 ZIN A   1      14.551  -8.555   7.281  0.00  0.00     0.027 A 
ATOM     17  C27 ZIN A   1      14.498  -7.312   7.896  0.00  0.00     0.044 A 
ATOM     18 Cl28 ZIN A   1      12.963  -6.567   8.215  0.00  0.00    -0.084 Cl
ATOM     19  C29 ZIN A   1      15.662  -6.668   8.253  0.00  0.00     0.009 A 
ATOM     20  C30 ZIN A   1      15.615  -5.329   8.944  0.00  0.00     0.162 C 
ATOM     21  C33 ZIN A   1      16.791  -4.474   8.478  0.00  0.00     0.059 C 
ATOM     22  C35 ZIN A   1      16.823  -3.157   9.256  0.00  0.00     0.023 C 
ATOM     23  C36 ZIN A   1      18.089  -2.405   8.857  0.00  0.00     0.074 C 
ENDROOT
BRANCH   4  24
ATOM     24  C10 ZIN A   1      19.007  -1.470  12.964  0.00  0.00     0.255 C 
ATOM     25  N11 ZIN A   1      20.074  -0.767  13.392  0.00  0.00    -0.366 N 
ATOM     26  H44 ZIN A   1      20.755  -0.483  12.761  0.00  0.00     0.159 HD
ATOM     27  H45 ZIN A   1      20.163  -0.544  14.332  0.00  0.00     0.159 HD
ATOM     28  O12 ZIN A   1      18.200  -1.899  13.766  0.00  0.00    -0.268 OA
ENDBRANCH   4  24
BRANCH   1  29
ATOM     29  N2  ZIN A   1      19.095  -0.214   8.553  0.00  0.00    -0.068 N 
ATOM     30  C1  ZIN A   1      18.838  -0.264   7.107  0.00  0.00     0.270 C 
ATOM     31  H3  ZIN A   1      19.988  -0.639   8.751  0.00  0.00     0.279 HD
ATOM     32  C4  ZIN A   1      19.108   1.185   9.000  0.00  0.00     0.270 C 
ENDBRANCH   1  29
BRANCH   7  33
ATOM     33  O16 ZIN A   1      20.510  -2.525   8.920  0.00  0.00    -0.373 OA
ATOM     34  H46 ZIN A   1      20.367  -1.926   8.174  0.00  0.00     0.211 HD
ENDBRANCH   7  33
BRANCH  20  35
ATOM     35  O32 ZIN A   1      15.695  -5.520  10.358  0.00  0.00    -0.390 OA
ATOM     36  H50 ZIN A   1      15.759  -4.697  10.862  0.00  0.00     0.210 HD
ENDBRANCH  20  35
BRANCH  14  37
ATOM     37  O24 ZIN A   1      18.142  -9.112   7.113  0.00  0.00    -0.360 OA
ATOM     38  H47 ZIN A   1      18.733  -9.151   7.877  0.00  0.00     0.217 HD
ENDBRANCH  14  37
TORSDOF 5
ENDMDL
