MODEL 1
REMARK VINA RESULT:      -8.8      0.000      0.000
REMARK  17 active torsions:
REMARK  status: ('A' for Active; 'I' for Inactive)
REMARK    1  A    between atoms: C10_9  and  O11_10 
REMARK    2  A    between atoms: C15_14  and  C17_15 
REMARK    3  A    between atoms: C17_15  and  C18_16 
REMARK    4  A    between atoms: C18_16  and  C19_17 
REMARK    5  A    between atoms: C19_17  and  C20_18 
REMARK    6  A    between atoms: C20_18  and  C21_19 
REMARK    7  A    between atoms: C21_19  and  C22_20 
REMARK    8  A    between atoms: C22_20  and  C23_21 
REMARK    9  A    between atoms: C23_21  and  C24_22 
REMARK   10  A    between atoms: C24_22  and  C25_23 
REMARK   11  A    between atoms: C25_23  and  S26_24 
REMARK   12  A    between atoms: S26_24  and  C28_26 
REMARK   13  A    between atoms: C28_26  and  C29_27 
REMARK   14  A    between atoms: C29_27  and  C30_28 
REMARK   15  A    between atoms: C30_28  and  C31_29 
REMARK   16  A    between atoms: C31_29  and  C34_32 
REMARK   17  A    between atoms: C44_40  and  O46_41 
ROOT
ATOM      1  C1  ZIN A   1      19.912  -0.132  11.809  0.00  0.00     0.018 C 
ATOM      2  C2  ZIN A   1      18.991  -1.114  12.528  0.00  0.00    -0.014 C 
ATOM      3  C3  ZIN A   1      19.674  -2.454  12.740  0.00  0.00     0.013 C 
ATOM      4  C4  ZIN A   1      19.790  -3.179  11.397  0.00  0.00     0.010 C 
ATOM      5  C5  ZIN A   1      18.425  -3.380  10.741  0.00  0.00     0.024 C 
ATOM      6  C7  ZIN A   1      18.605  -4.143   9.459  0.00  0.00    -0.047 A 
ATOM      7  C8  ZIN A   1      18.927  -5.493   9.551  0.00  0.00     0.011 A 
ATOM      8  C9  ZIN A   1      19.111  -6.251   8.415  0.00  0.00     0.037 A 
ATOM      9  C10 ZIN A   1      18.973  -5.664   7.166  0.00  0.00     0.066 A 
ATOM     10  C12 ZIN A   1      18.649  -4.320   7.074  0.00  0.00     0.044 A 
ATOM     11  C13 ZIN A   1      18.466  -3.561   8.220  0.00  0.00    -0.048 A 
ATOM     12  C14 ZIN A   1      18.117  -2.108   8.054  0.00  0.00     0.044 C 
ATOM     13  C15 ZIN A   1      18.420  -1.325   9.346  0.00  0.00    -0.005 C 
ATOM     14  C38 ZIN A   1      17.732  -2.024  10.499  0.00  0.00     0.003 C 
ATOM     15  C40 ZIN A   1      17.643  -1.350  11.825  0.00  0.00     0.001 C 
ATOM     16  C42 ZIN A   1      16.849  -0.077  12.055  0.00  0.00     0.008 C 
ATOM     17  C43 ZIN A   1      17.396   0.497  13.391  0.00  0.00     0.033 C 
ATOM     18  C44 ZIN A   1      18.515  -0.470  13.853  0.00  0.00     0.126 C 
ENDROOT
BRANCH  13  19
ATOM     19  C17 ZIN A   1      17.913   0.099   9.118  0.00  0.00     0.005 C 
BRANCH  19  20
ATOM     20  C18 ZIN A   1      18.905   0.860   8.236  0.00  0.00     0.000 C 
BRANCH  20  21
ATOM     21  C19 ZIN A   1      19.122   2.264   8.805  0.00  0.00     0.000 C 
BRANCH  21  22
ATOM     22  C20 ZIN A   1      18.133   2.509   9.946  0.00  0.00     0.000 C 
BRANCH  22  23
ATOM     23  C21 ZIN A   1      18.353   3.911  10.518  0.00  0.00     0.000 C 
BRANCH  23  24
ATOM     24  C22 ZIN A   1      17.001   4.537  10.869  0.00  0.00     0.000 C 
BRANCH  24  25
ATOM     25  C23 ZIN A   1      17.063   5.131  12.277  0.00  0.00     0.001 C 
BRANCH  25  26
ATOM     26  C24 ZIN A   1      18.089   4.360  13.111  0.00  0.00     0.012 C 
BRANCH  26  27
ATOM     27  C25 ZIN A   1      17.592   4.250  14.554  0.00  0.00     0.108 C 
BRANCH  27  28
ATOM     28  S26 ZIN A   1      18.429   5.492  15.578  0.00  0.00     0.015 S 
ATOM     29  O27 ZIN A   1      19.760   5.668  15.116  0.00  0.00    -0.258 OA
BRANCH  28  30
ATOM     30  C28 ZIN A   1      18.455   4.718  17.218  0.00  0.00     0.109 C 
BRANCH  30  31
ATOM     31  C29 ZIN A   1      19.288   3.436  17.164  0.00  0.00     0.019 C 
BRANCH  31  32
ATOM     32  C30 ZIN A   1      18.965   2.565  18.380  0.00  0.00     0.090 C 
BRANCH  32  33
ATOM     33  C31 ZIN A   1      18.035   1.425  17.958  0.00  0.00     0.339 C 
ATOM     34  F32 ZIN A   1      16.820   1.538  18.644  0.00  0.00    -0.196 F 
ATOM     35  F33 ZIN A   1      17.803   1.498  16.581  0.00  0.00    -0.196 F 
BRANCH  33  36
ATOM     36  C34 ZIN A   1      18.688   0.084  18.296  0.00  0.00     0.454 C 
ATOM     37  F35 ZIN A   1      18.273  -0.882  17.372  0.00  0.00    -0.165 F 
ATOM     38  F36 ZIN A   1      20.080   0.215  18.239  0.00  0.00    -0.165 F 
ATOM     39  F37 ZIN A   1      18.308  -0.309  19.584  0.00  0.00    -0.165 F 
ENDBRANCH  33  36
ENDBRANCH  32  33
ENDBRANCH  31  32
ENDBRANCH  30  31
ENDBRANCH  28  30
ENDBRANCH  27  28
ENDBRANCH  26  27
ENDBRANCH  25  26
ENDBRANCH  24  25
ENDBRANCH  23  24
ENDBRANCH  22  23
ENDBRANCH  21  22
ENDBRANCH  20  21
ENDBRANCH  19  20
ENDBRANCH  13  19
BRANCH   9  40
ATOM     40  O11 ZIN A   1      19.153  -6.402   6.040  0.00  0.00    -0.361 OA
ATOM     41  H56 ZIN A   1      18.332  -6.622   5.578  0.00  0.00     0.217 HD
ENDBRANCH   9  40
BRANCH  18  42
ATOM     42  O46 ZIN A   1      19.590   0.244  14.463  0.00  0.00    -0.395 OA
ATOM     43  H88 ZIN A   1      19.526   0.304  15.426  0.00  0.00     0.210 HD
ENDBRANCH  18  42
TORSDOF 17
ENDMDL
MODEL 2
REMARK VINA RESULT:      -8.8      4.262      9.299
REMARK  17 active torsions:
REMARK  status: ('A' for Active; 'I' for Inactive)
REMARK    1  A    between atoms: C10_9  and  O11_10 
REMARK    2  A    between atoms: C15_14  and  C17_15 
REMARK    3  A    between atoms: C17_15  and  C18_16 
REMARK    4  A    between atoms: C18_16  and  C19_17 
REMARK    5  A    between atoms: C19_17  and  C20_18 
REMARK    6  A    between atoms: C20_18  and  C21_19 
REMARK    7  A    between atoms: C21_19  and  C22_20 
REMARK    8  A    between atoms: C22_20  and  C23_21 
REMARK    9  A    between atoms: C23_21  and  C24_22 
REMARK   10  A    between atoms: C24_22  and  C25_23 
REMARK   11  A    between atoms: C25_23  and  S26_24 
REMARK   12  A    between atoms: S26_24  and  C28_26 
REMARK   13  A    between atoms: C28_26  and  C29_27 
REMARK   14  A    between atoms: C29_27  and  C30_28 
REMARK   15  A    between atoms: C30_28  and  C31_29 
REMARK   16  A    between atoms: C31_29  and  C34_32 
REMARK   17  A    between atoms: C44_40  and  O46_41 
ROOT
ATOM      1  C1  ZIN A   1      17.403  -0.106  12.571  0.00  0.00     0.018 C 
ATOM      2  C2  ZIN A   1      18.511  -0.749  13.401  0.00  0.00    -0.014 C 
ATOM      3  C3  ZIN A   1      18.003  -1.158  14.773  0.00  0.00     0.013 C 
ATOM      4  C4  ZIN A   1      17.771   0.095  15.620  0.00  0.00     0.010 C 
ATOM      5  C5  ZIN A   1      19.042   0.931  15.755  0.00  0.00     0.024 C 
ATOM      6  C7  ZIN A   1      18.761   2.113  16.640  0.00  0.00    -0.047 A 
ATOM      7  C8  ZIN A   1      18.592   1.876  17.999  0.00  0.00     0.011 A 
ATOM      8  C9  ZIN A   1      18.326   2.913  18.867  0.00  0.00     0.037 A 
ATOM      9  C10 ZIN A   1      18.226   4.208  18.381  0.00  0.00     0.066 A 
ATOM     10  C12 ZIN A   1      18.397   4.446  17.027  0.00  0.00     0.044 A 
ATOM     11  C13 ZIN A   1      18.664   3.398  16.157  0.00  0.00    -0.048 A 
ATOM     12  C14 ZIN A   1      18.838   3.720  14.699  0.00  0.00     0.044 C 
ATOM     13  C15 ZIN A   1      18.643   2.458  13.837  0.00  0.00    -0.005 C 
ATOM     14  C38 ZIN A   1      19.555   1.373  14.369  0.00  0.00     0.003 C 
ATOM     15  C40 ZIN A   1      19.763   0.128  13.577  0.00  0.00     0.001 C 
ATOM     16  C42 ZIN A   1      20.449   0.113  12.224  0.00  0.00     0.008 C 
ATOM     17  C43 ZIN A   1      20.042  -1.244  11.586  0.00  0.00     0.033 C 
ATOM     18  C44 ZIN A   1      19.103  -1.938  12.605  0.00  0.00     0.126 C 
ENDROOT
BRANCH  13  19
ATOM     19  C17 ZIN A   1      18.968   2.863  12.398  0.00  0.00     0.005 C 
BRANCH  19  20
ATOM     20  C18 ZIN A   1      17.723   3.467  11.744  0.00  0.00     0.000 C 
BRANCH  20  21
ATOM     21  C19 ZIN A   1      17.667   3.052  10.273  0.00  0.00     0.000 C 
BRANCH  21  22
ATOM     22  C20 ZIN A   1      19.039   2.537   9.837  0.00  0.00     0.000 C 
BRANCH  22  23
ATOM     23  C21 ZIN A   1      18.868   1.546   8.683  0.00  0.00     0.000 C 
BRANCH  23  24
ATOM     24  C22 ZIN A   1      17.986   0.381   9.138  0.00  0.00     0.000 C 
BRANCH  24  25
ATOM     25  C23 ZIN A   1      17.265  -0.216   7.929  0.00  0.00     0.001 C 
BRANCH  25  26
ATOM     26  C24 ZIN A   1      17.927   0.283   6.643  0.00  0.00     0.012 C 
BRANCH  26  27
ATOM     27  C25 ZIN A   1      17.620  -0.688   5.501  0.00  0.00     0.108 C 
BRANCH  27  28
ATOM     28  S26 ZIN A   1      18.973  -1.887   5.348  0.00  0.00     0.015 S 
ATOM     29  O27 ZIN A   1      19.859  -1.472   4.317  0.00  0.00    -0.258 OA
BRANCH  28  30
ATOM     30  C28 ZIN A   1      18.118  -3.403   4.837  0.00  0.00     0.109 C 
BRANCH  30  31
ATOM     31  C29 ZIN A   1      18.320  -4.485   5.901  0.00  0.00     0.019 C 
BRANCH  31  32
ATOM     32  C30 ZIN A   1      19.442  -4.063   6.851  0.00  0.00     0.090 C 
BRANCH  32  33
ATOM     33  C31 ZIN A   1      18.921  -4.066   8.290  0.00  0.00     0.339 C 
ATOM     34  F32 ZIN A   1      19.335  -2.897   8.938  0.00  0.00    -0.196 F 
ATOM     35  F33 ZIN A   1      17.524  -4.125   8.280  0.00  0.00    -0.196 F 
BRANCH  33  36
ATOM     36  C34 ZIN A   1      19.478  -5.284   9.030  0.00  0.00     0.454 C 
ATOM     37  F35 ZIN A   1      19.364  -5.082  10.410  0.00  0.00    -0.165 F 
ATOM     38  F36 ZIN A   1      18.755  -6.424   8.664  0.00  0.00    -0.165 F 
ATOM     39  F37 ZIN A   1      20.825  -5.458   8.695  0.00  0.00    -0.165 F 
ENDBRANCH  33  36
ENDBRANCH  32  33
ENDBRANCH  31  32
ENDBRANCH  30  31
ENDBRANCH  28  30
ENDBRANCH  27  28
ENDBRANCH  26  27
ENDBRANCH  25  26
ENDBRANCH  24  25
ENDBRANCH  23  24
ENDBRANCH  22  23
ENDBRANCH  21  22
ENDBRANCH  20  21
ENDBRANCH  19  20
ENDBRANCH  13  19
BRANCH   9  40
ATOM     40  O11 ZIN A   1      17.964   5.237  19.227  0.00  0.00    -0.361 OA
ATOM     41  H56 ZIN A   1      17.959   6.106  18.801  0.00  0.00     0.217 HD
ENDBRANCH   9  40
BRANCH  18  42
ATOM     42  O46 ZIN A   1      18.058  -2.648  11.938  0.00  0.00    -0.395 OA
ATOM     43  H88 ZIN A   1      18.172  -2.705  10.980  0.00  0.00     0.210 HD
ENDBRANCH  18  42
TORSDOF 17
ENDMDL
MODEL 3
REMARK VINA RESULT:      -8.8      4.899      9.937
REMARK  17 active torsions:
REMARK  status: ('A' for Active; 'I' for Inactive)
REMARK    1  A    between atoms: C10_9  and  O11_10 
REMARK    2  A    between atoms: C15_14  and  C17_15 
REMARK    3  A    between atoms: C17_15  and  C18_16 
REMARK    4  A    between atoms: C18_16  and  C19_17 
REMARK    5  A    between atoms: C19_17  and  C20_18 
REMARK    6  A    between atoms: C20_18  and  C21_19 
REMARK    7  A    between atoms: C21_19  and  C22_20 
REMARK    8  A    between atoms: C22_20  and  C23_21 
REMARK    9  A    between atoms: C23_21  and  C24_22 
REMARK   10  A    between atoms: C24_22  and  C25_23 
REMARK   11  A    between atoms: C25_23  and  S26_24 
REMARK   12  A    between atoms: S26_24  and  C28_26 
REMARK   13  A    between atoms: C28_26  and  C29_27 
REMARK   14  A    between atoms: C29_27  and  C30_28 
REMARK   15  A    between atoms: C30_28  and  C31_29 
REMARK   16  A    between atoms: C31_29  and  C34_32 
REMARK   17  A    between atoms: C44_40  and  O46_41 
ROOT
ATOM      1  C1  ZIN A   1      19.994   0.266  10.504  0.00  0.00     0.018 C 
ATOM      2  C2  ZIN A   1      18.909   1.338  10.563  0.00  0.00    -0.014 C 
ATOM      3  C3  ZIN A   1      19.446   2.632  11.148  0.00  0.00     0.013 C 
ATOM      4  C4  ZIN A   1      19.678   2.449  12.649  0.00  0.00     0.010 C 
ATOM      5  C5  ZIN A   1      18.399   2.033  13.374  0.00  0.00     0.024 C 
ATOM      6  C7  ZIN A   1      18.683   1.924  14.846  0.00  0.00    -0.047 A 
ATOM      7  C8  ZIN A   1      18.879   3.105  15.554  0.00  0.00     0.011 A 
ATOM      8  C9  ZIN A   1      19.147   3.078  16.906  0.00  0.00     0.037 A 
ATOM      9  C10 ZIN A   1      19.222   1.862  17.568  0.00  0.00     0.066 A 
ATOM     10  C12 ZIN A   1      19.024   0.685  16.864  0.00  0.00     0.044 A 
ATOM     11  C13 ZIN A   1      18.755   0.717  15.503  0.00  0.00    -0.048 A 
ATOM     12  C14 ZIN A   1      18.551  -0.593  14.794  0.00  0.00     0.044 C 
ATOM     13  C15 ZIN A   1      18.745  -0.425  13.275  0.00  0.00    -0.005 C 
ATOM     14  C38 ZIN A   1      17.857   0.706  12.803  0.00  0.00     0.003 C 
ATOM     15  C40 ZIN A   1      17.650   0.925  11.344  0.00  0.00     0.001 C 
ATOM     16  C42 ZIN A   1      16.939  -0.075  10.450  0.00  0.00     0.008 C 
ATOM     17  C43 ZIN A   1      17.351   0.321   9.005  0.00  0.00     0.033 C 
ATOM     18  C44 ZIN A   1      18.318   1.524   9.144  0.00  0.00     0.126 C 
ENDROOT
BRANCH  13  19
ATOM     19  C17 ZIN A   1      18.390  -1.771  12.642  0.00  0.00     0.005 C 
BRANCH  19  20
ATOM     20  C18 ZIN A   1      19.632  -2.664  12.609  0.00  0.00     0.000 C 
BRANCH  20  21
ATOM     21  C19 ZIN A   1      19.846  -3.189  11.188  0.00  0.00     0.000 C 
BRANCH  21  22
ATOM     22  C20 ZIN A   1      18.493  -3.533  10.564  0.00  0.00     0.000 C 
BRANCH  22  23
ATOM     23  C21 ZIN A   1      18.280  -5.048  10.610  0.00  0.00     0.000 C 
BRANCH  23  24
ATOM     24  C22 ZIN A   1      16.783  -5.351  10.703  0.00  0.00     0.000 C 
BRANCH  24  25
ATOM     25  C23 ZIN A   1      16.168  -5.318   9.303  0.00  0.00     0.001 C 
BRANCH  25  26
ATOM     26  C24 ZIN A   1      17.016  -6.166   8.353  0.00  0.00     0.012 C 
BRANCH  26  27
ATOM     27  C25 ZIN A   1      16.679  -5.801   6.905  0.00  0.00     0.108 C 
BRANCH  27  28
ATOM     28  S26 ZIN A   1      18.190  -5.843   5.904  0.00  0.00     0.015 S 
ATOM     29  O27 ZIN A   1      18.247  -7.066   5.183  0.00  0.00    -0.258 OA
BRANCH  28  30
ATOM     30  C28 ZIN A   1      19.507  -5.813   7.152  0.00  0.00     0.109 C 
BRANCH  30  31
ATOM     31  C29 ZIN A   1      20.023  -4.382   7.314  0.00  0.00     0.019 C 
BRANCH  31  32
ATOM     32  C30 ZIN A   1      19.536  -3.528   6.143  0.00  0.00     0.090 C 
BRANCH  32  33
ATOM     33  C31 ZIN A   1      18.936  -2.225   6.675  0.00  0.00     0.339 C 
ATOM     34  F32 ZIN A   1      17.732  -2.502   7.334  0.00  0.00    -0.196 F 
ATOM     35  F33 ZIN A   1      19.831  -1.630   7.571  0.00  0.00    -0.196 F 
BRANCH  33  36
ATOM     36  C34 ZIN A   1      18.671  -1.271   5.509  0.00  0.00     0.454 C 
ATOM     37  F35 ZIN A   1      17.323  -0.897   5.509  0.00  0.00    -0.165 F 
ATOM     38  F36 ZIN A   1      19.471  -0.132   5.647  0.00  0.00    -0.165 F 
ATOM     39  F37 ZIN A   1      18.977  -1.912   4.304  0.00  0.00    -0.165 F 
ENDBRANCH  33  36
ENDBRANCH  32  33
ENDBRANCH  31  32
ENDBRANCH  30  31
ENDBRANCH  28  30
ENDBRANCH  27  28
ENDBRANCH  26  27
ENDBRANCH  25  26
ENDBRANCH  24  25
ENDBRANCH  23  24
ENDBRANCH  22  23
ENDBRANCH  21  22
ENDBRANCH  20  21
ENDBRANCH  19  20
ENDBRANCH  13  19
BRANCH   9  40
ATOM     40  O11 ZIN A   1      19.488   1.824  18.900  0.00  0.00    -0.361 OA
ATOM     41  H56 ZIN A   1      20.428   1.744  19.112  0.00  0.00     0.217 HD
ENDBRANCH   9  40
BRANCH  18  42
ATOM     42  O46 ZIN A   1      19.359   1.461   8.168  0.00  0.00    -0.395 OA
ATOM     43  H88 ZIN A   1      19.378   0.635   7.667  0.00  0.00     0.210 HD
ENDBRANCH  18  42
TORSDOF 17
ENDMDL
MODEL 4
REMARK VINA RESULT:      -8.7      2.892      4.221
REMARK  17 active torsions:
REMARK  status: ('A' for Active; 'I' for Inactive)
REMARK    1  A    between atoms: C10_9  and  O11_10 
REMARK    2  A    between atoms: C15_14  and  C17_15 
REMARK    3  A    between atoms: C17_15  and  C18_16 
REMARK    4  A    between atoms: C18_16  and  C19_17 
REMARK    5  A    between atoms: C19_17  and  C20_18 
REMARK    6  A    between atoms: C20_18  and  C21_19 
REMARK    7  A    between atoms: C21_19  and  C22_20 
REMARK    8  A    between atoms: C22_20  and  C23_21 
REMARK    9  A    between atoms: C23_21  and  C24_22 
REMARK   10  A    between atoms: C24_22  and  C25_23 
REMARK   11  A    between atoms: C25_23  and  S26_24 
REMARK   12  A    between atoms: S26_24  and  C28_26 
REMARK   13  A    between atoms: C28_26  and  C29_27 
REMARK   14  A    between atoms: C29_27  and  C30_28 
REMARK   15  A    between atoms: C30_28  and  C31_29 
REMARK   16  A    between atoms: C31_29  and  C34_32 
REMARK   17  A    between atoms: C44_40  and  O46_41 
ROOT
ATOM      1  C1  ZIN A   1      20.225   0.618  12.842  0.00  0.00     0.018 C 
ATOM      2  C2  ZIN A   1      19.018  -0.302  12.682  0.00  0.00    -0.014 C 
ATOM      3  C3  ZIN A   1      19.388  -1.571  11.934  0.00  0.00     0.013 C 
ATOM      4  C4  ZIN A   1      19.627  -1.238  10.460  0.00  0.00     0.010 C 
ATOM      5  C5  ZIN A   1      18.402  -0.587   9.821  0.00  0.00     0.024 C 
ATOM      6  C7  ZIN A   1      18.684  -0.336   8.366  0.00  0.00    -0.047 A 
ATOM      7  C8  ZIN A   1      18.728  -1.437   7.518  0.00  0.00     0.011 A 
ATOM      8  C9  ZIN A   1      18.986  -1.280   6.173  0.00  0.00     0.037 A 
ATOM      9  C10 ZIN A   1      19.203  -0.011   5.659  0.00  0.00     0.066 A 
ATOM     10  C12 ZIN A   1      19.155   1.087   6.502  0.00  0.00     0.044 A 
ATOM     11  C13 ZIN A   1      18.897   0.924   7.855  0.00  0.00    -0.048 A 
ATOM     12  C14 ZIN A   1      18.859   2.154   8.719  0.00  0.00     0.044 C 
ATOM     13  C15 ZIN A   1      19.046   1.782  10.202  0.00  0.00    -0.005 C 
ATOM     14  C38 ZIN A   1      18.031   0.716  10.557  0.00  0.00     0.003 C 
ATOM     15  C40 ZIN A   1      17.811   0.350  11.985  0.00  0.00     0.001 C 
ATOM     16  C42 ZIN A   1      17.236   1.312  13.007  0.00  0.00     0.008 C 
ATOM     17  C43 ZIN A   1      17.609   0.699  14.385  0.00  0.00     0.033 C 
ATOM     18  C44 ZIN A   1      18.421  -0.586  14.082  0.00  0.00     0.126 C 
ENDROOT
BRANCH  13  19
ATOM     19  C17 ZIN A   1      18.862   3.075  10.998  0.00  0.00     0.005 C 
BRANCH  19  20
ATOM     20  C18 ZIN A   1      18.119   4.102  10.141  0.00  0.00     0.000 C 
BRANCH  20  21
ATOM     21  C19 ZIN A   1      16.941   4.672  10.934  0.00  0.00     0.000 C 
BRANCH  21  22
ATOM     22  C20 ZIN A   1      17.409   5.049  12.340  0.00  0.00     0.000 C 
BRANCH  22  23
ATOM     23  C21 ZIN A   1      16.209   5.508  13.170  0.00  0.00     0.000 C 
BRANCH  23  24
ATOM     24  C22 ZIN A   1      16.565   6.799  13.912  0.00  0.00     0.000 C 
BRANCH  24  25
ATOM     25  C23 ZIN A   1      15.680   6.935  15.152  0.00  0.00     0.001 C 
BRANCH  25  26
ATOM     26  C24 ZIN A   1      16.181   8.098  16.012  0.00  0.00     0.012 C 
BRANCH  26  27
ATOM     27  C25 ZIN A   1      16.329   7.634  17.462  0.00  0.00     0.108 C 
BRANCH  27  28
ATOM     28  S26 ZIN A   1      16.008   5.851  17.562  0.00  0.00     0.015 S 
ATOM     29  O27 ZIN A   1      14.777   5.629  18.236  0.00  0.00    -0.258 OA
BRANCH  28  30
ATOM     30  C28 ZIN A   1      17.378   5.247  18.586  0.00  0.00     0.109 C 
BRANCH  30  31
ATOM     31  C29 ZIN A   1      18.192   4.221  17.794  0.00  0.00     0.019 C 
BRANCH  31  32
ATOM     32  C30 ZIN A   1      18.094   4.535  16.301  0.00  0.00     0.090 C 
BRANCH  32  33
ATOM     33  C31 ZIN A   1      19.471   4.374  15.654  0.00  0.00     0.339 C 
ATOM     34  F32 ZIN A   1      20.330   3.718  16.543  0.00  0.00    -0.196 F 
ATOM     35  F33 ZIN A   1      19.350   3.621  14.481  0.00  0.00    -0.196 F 
BRANCH  33  36
ATOM     36  C34 ZIN A   1      20.042   5.753  15.318  0.00  0.00     0.454 C 
ATOM     37  F35 ZIN A   1      19.226   6.743  15.873  0.00  0.00    -0.165 F 
ATOM     38  F36 ZIN A   1      21.334   5.864  15.844  0.00  0.00    -0.165 F 
ATOM     39  F37 ZIN A   1      20.089   5.912  13.929  0.00  0.00    -0.165 F 
ENDBRANCH  33  36
ENDBRANCH  32  33
ENDBRANCH  31  32
ENDBRANCH  30  31
ENDBRANCH  28  30
ENDBRANCH  27  28
ENDBRANCH  26  27
ENDBRANCH  25  26
ENDBRANCH  24  25
ENDBRANCH  23  24
ENDBRANCH  22  23
ENDBRANCH  21  22
ENDBRANCH  20  21
ENDBRANCH  19  20
ENDBRANCH  13  19
BRANCH   9  40
ATOM     40  O11 ZIN A   1      19.459   0.155   4.334  0.00  0.00    -0.361 OA
ATOM     41  H56 ZIN A   1      20.107   0.847   4.143  0.00  0.00     0.217 HD
ENDBRANCH   9  40
BRANCH  18  42
ATOM     42  O46 ZIN A   1      19.470  -0.766  15.033  0.00  0.00    -0.395 OA
ATOM     43  H88 ZIN A   1      20.357  -0.756  14.648  0.00  0.00     0.210 HD
ENDBRANCH  18  42
TORSDOF 17
ENDMDL
MODEL 5
REMARK VINA RESULT:      -8.7      2.040      3.132
REMARK  17 active torsions:
REMARK  status: ('A' for Active; 'I' for Inactive)
REMARK    1  A    between atoms: C10_9  and  O11_10 
REMARK    2  A    between atoms: C15_14  and  C17_15 
REMARK    3  A    between atoms: C17_15  and  C18_16 
REMARK    4  A    between atoms: C18_16  and  C19_17 
REMARK    5  A    between atoms: C19_17  and  C20_18 
REMARK    6  A    between atoms: C20_18  and  C21_19 
REMARK    7  A    between atoms: C21_19  and  C22_20 
REMARK    8  A    between atoms: C22_20  and  C23_21 
REMARK    9  A    between atoms: C23_21  and  C24_22 
REMARK   10  A    between atoms: C24_22  and  C25_23 
REMARK   11  A    between atoms: C25_23  and  S26_24 
REMARK   12  A    between atoms: S26_24  and  C28_26 
REMARK   13  A    between atoms: C28_26  and  C29_27 
REMARK   14  A    between atoms: C29_27  and  C30_28 
REMARK   15  A    between atoms: C30_28  and  C31_29 
REMARK   16  A    between atoms: C31_29  and  C34_32 
REMARK   17  A    between atoms: C44_40  and  O46_41 
ROOT
ATOM      1  C1  ZIN A   1      20.496   0.185  12.321  0.00  0.00     0.018 C 
ATOM      2  C2  ZIN A   1      19.233  -0.668  12.252  0.00  0.00    -0.014 C 
ATOM      3  C3  ZIN A   1      19.476  -1.950  11.474  0.00  0.00     0.013 C 
ATOM      4  C4  ZIN A   1      19.618  -1.618   9.987  0.00  0.00     0.010 C 
ATOM      5  C5  ZIN A   1      18.383  -0.898   9.447  0.00  0.00     0.024 C 
ATOM      6  C7  ZIN A   1      18.564  -0.651   7.975  0.00  0.00    -0.047 A 
ATOM      7  C8  ZIN A   1      18.484  -1.747   7.123  0.00  0.00     0.011 A 
ATOM      8  C9  ZIN A   1      18.644  -1.594   5.763  0.00  0.00     0.037 A 
ATOM      9  C10 ZIN A   1      18.888  -0.333   5.237  0.00  0.00     0.066 A 
ATOM     10  C12 ZIN A   1      18.964   0.759   6.085  0.00  0.00     0.044 A 
ATOM     11  C13 ZIN A   1      18.803   0.600   7.454  0.00  0.00    -0.048 A 
ATOM     12  C14 ZIN A   1      18.898   1.823   8.323  0.00  0.00     0.044 C 
ATOM     13  C15 ZIN A   1      19.179   1.430   9.785  0.00  0.00    -0.005 C 
ATOM     14  C38 ZIN A   1      18.139   0.417  10.215  0.00  0.00     0.003 C 
ATOM     15  C40 ZIN A   1      18.012   0.052  11.654  0.00  0.00     0.001 C 
ATOM     16  C42 ZIN A   1      17.570   1.035  12.721  0.00  0.00     0.008 C 
ATOM     17  C43 ZIN A   1      18.016   0.392  14.064  0.00  0.00     0.033 C 
ATOM     18  C44 ZIN A   1      18.732  -0.932  13.694  0.00  0.00     0.126 C 
ENDROOT
BRANCH  13  19
ATOM     19  C17 ZIN A   1      19.127   2.725  10.598  0.00  0.00     0.005 C 
BRANCH  19  20
ATOM     20  C18 ZIN A   1      18.205   3.728   9.902  0.00  0.00     0.000 C 
BRANCH  20  21
ATOM     21  C19 ZIN A   1      17.733   4.775  10.914  0.00  0.00     0.000 C 
BRANCH  21  22
ATOM     22  C20 ZIN A   1      18.303   4.442  12.293  0.00  0.00     0.000 C 
BRANCH  22  23
ATOM     23  C21 ZIN A   1      17.739   5.420  13.327  0.00  0.00     0.000 C 
BRANCH  23  24
ATOM     24  C22 ZIN A   1      16.216   5.489  13.186  0.00  0.00     0.000 C 
BRANCH  24  25
ATOM     25  C23 ZIN A   1      15.599   5.916  14.518  0.00  0.00     0.001 C 
BRANCH  25  26
ATOM     26  C24 ZIN A   1      16.413   7.067  15.112  0.00  0.00     0.012 C 
BRANCH  26  27
ATOM     27  C25 ZIN A   1      16.153   7.152  16.618  0.00  0.00     0.108 C 
BRANCH  27  28
ATOM     28  S26 ZIN A   1      17.701   6.856  17.516  0.00  0.00     0.015 S 
ATOM     29  O27 ZIN A   1      18.803   7.081  16.647  0.00  0.00    -0.258 OA
BRANCH  28  30
ATOM     30  C28 ZIN A   1      17.604   5.092  17.927  0.00  0.00     0.109 C 
BRANCH  30  31
ATOM     31  C29 ZIN A   1      18.742   4.343  17.230  0.00  0.00     0.019 C 
BRANCH  31  32
ATOM     32  C30 ZIN A   1      18.251   2.963  16.791  0.00  0.00     0.090 C 
BRANCH  32  33
ATOM     33  C31 ZIN A   1      18.802   1.898  17.742  0.00  0.00     0.339 C 
ATOM     34  F32 ZIN A   1      19.619   1.014  17.028  0.00  0.00    -0.196 F 
ATOM     35  F33 ZIN A   1      19.550   2.515  18.751  0.00  0.00    -0.196 F 
BRANCH  33  36
ATOM     36  C34 ZIN A   1      17.640   1.125  18.369  0.00  0.00     0.454 C 
ATOM     37  F35 ZIN A   1      18.141   0.195  19.287  0.00  0.00    -0.165 F 
ATOM     38  F36 ZIN A   1      16.787   2.017  19.026  0.00  0.00    -0.165 F 
ATOM     39  F37 ZIN A   1      16.932   0.454  17.366  0.00  0.00    -0.165 F 
ENDBRANCH  33  36
ENDBRANCH  32  33
ENDBRANCH  31  32
ENDBRANCH  30  31
ENDBRANCH  28  30
ENDBRANCH  27  28
ENDBRANCH  26  27
ENDBRANCH  25  26
ENDBRANCH  24  25
ENDBRANCH  23  24
ENDBRANCH  22  23
ENDBRANCH  21  22
ENDBRANCH  20  21
ENDBRANCH  19  20
ENDBRANCH  13  19
BRANCH   9  40
ATOM     40  O11 ZIN A   1      19.049  -0.171   3.898  0.00  0.00    -0.361 OA
ATOM     41  H56 ZIN A   1      19.069   0.753   3.613  0.00  0.00     0.217 HD
ENDBRANCH   9  40
BRANCH  18  42
ATOM     42  O46 ZIN A   1      19.841  -1.174  14.560  0.00  0.00    -0.395 OA
ATOM     43  H88 ZIN A   1      19.792  -0.703  15.403  0.00  0.00     0.210 HD
ENDBRANCH  18  42
TORSDOF 17
ENDMDL
MODEL 6
REMARK VINA RESULT:      -8.2      2.594      4.999
REMARK  17 active torsions:
REMARK  status: ('A' for Active; 'I' for Inactive)
REMARK    1  A    between atoms: C10_9  and  O11_10 
REMARK    2  A    between atoms: C15_14  and  C17_15 
REMARK    3  A    between atoms: C17_15  and  C18_16 
REMARK    4  A    between atoms: C18_16  and  C19_17 
REMARK    5  A    between atoms: C19_17  and  C20_18 
REMARK    6  A    between atoms: C20_18  and  C21_19 
REMARK    7  A    between atoms: C21_19  and  C22_20 
REMARK    8  A    between atoms: C22_20  and  C23_21 
REMARK    9  A    between atoms: C23_21  and  C24_22 
REMARK   10  A    between atoms: C24_22  and  C25_23 
REMARK   11  A    between atoms: C25_23  and  S26_24 
REMARK   12  A    between atoms: S26_24  and  C28_26 
REMARK   13  A    between atoms: C28_26  and  C29_27 
REMARK   14  A    between atoms: C29_27  and  C30_28 
REMARK   15  A    between atoms: C30_28  and  C31_29 
REMARK   16  A    between atoms: C31_29  and  C34_32 
REMARK   17  A    between atoms: C44_40  and  O46_41 
ROOT
ATOM      1  C1  ZIN A   1      17.161   1.476  10.784  0.00  0.00     0.018 C 
ATOM      2  C2  ZIN A   1      18.439   1.254   9.980  0.00  0.00    -0.014 C 
ATOM      3  C3  ZIN A   1      18.130   0.715   8.594  0.00  0.00     0.013 C 
ATOM      4  C4  ZIN A   1      17.668  -0.739   8.709  0.00  0.00     0.010 C 
ATOM      5  C5  ZIN A   1      18.716  -1.614   9.394  0.00  0.00     0.024 C 
ATOM      6  C7  ZIN A   1      18.225  -3.034   9.426  0.00  0.00    -0.047 A 
ATOM      7  C8  ZIN A   1      18.205  -3.736   8.225  0.00  0.00     0.011 A 
ATOM      8  C9  ZIN A   1      17.762  -5.040   8.181  0.00  0.00     0.037 A 
ATOM      9  C10 ZIN A   1      17.333  -5.661   9.345  0.00  0.00     0.066 A 
ATOM     10  C12 ZIN A   1      17.356  -4.963  10.541  0.00  0.00     0.044 A 
ATOM     11  C13 ZIN A   1      17.802  -3.650  10.581  0.00  0.00    -0.048 A 
ATOM     12  C14 ZIN A   1      17.801  -2.945  11.909  0.00  0.00     0.044 C 
ATOM     13  C15 ZIN A   1      17.850  -1.418  11.714  0.00  0.00    -0.005 C 
ATOM     14  C38 ZIN A   1      19.021  -1.090  10.812  0.00  0.00     0.003 C 
ATOM     15  C40 ZIN A   1      19.461   0.325  10.657  0.00  0.00     0.001 C 
ATOM     16  C42 ZIN A   1      20.043   1.141  11.797  0.00  0.00     0.008 C 
ATOM     17  C43 ZIN A   1      19.922   2.618  11.331  0.00  0.00     0.033 C 
ATOM     18  C44 ZIN A   1      19.237   2.580   9.941  0.00  0.00     0.126 C 
ENDROOT
BRANCH  13  19
ATOM     19  C17 ZIN A   1      17.978  -0.808  13.110  0.00  0.00     0.005 C 
BRANCH  19  20
ATOM     20  C18 ZIN A   1      19.068  -1.545  13.892  0.00  0.00     0.000 C 
BRANCH  20  21
ATOM     21  C19 ZIN A   1      18.788  -1.426  15.392  0.00  0.00     0.000 C 
BRANCH  21  22
ATOM     22  C20 ZIN A   1      17.700  -0.378  15.626  0.00  0.00     0.000 C 
BRANCH  22  23
ATOM     23  C21 ZIN A   1      17.437  -0.242  17.127  0.00  0.00     0.000 C 
BRANCH  23  24
ATOM     24  C22 ZIN A   1      18.754  -0.395  17.892  0.00  0.00     0.000 C 
BRANCH  24  25
ATOM     25  C23 ZIN A   1      19.279   0.985  18.288  0.00  0.00     0.001 C 
BRANCH  25  26
ATOM     26  C24 ZIN A   1      18.101   1.897  18.641  0.00  0.00     0.012 C 
BRANCH  26  27
ATOM     27  C25 ZIN A   1      18.567   3.354  18.646  0.00  0.00     0.108 C 
BRANCH  27  28
ATOM     28  S26 ZIN A   1      17.292   4.394  19.409  0.00  0.00     0.015 S 
ATOM     29  O27 ZIN A   1      16.038   3.729  19.346  0.00  0.00    -0.258 OA
BRANCH  28  30
ATOM     30  C28 ZIN A   1      17.257   5.853  18.331  0.00  0.00     0.109 C 
BRANCH  30  31
ATOM     31  C29 ZIN A   1      18.157   5.612  17.117  0.00  0.00     0.019 C 
BRANCH  31  32
ATOM     32  C30 ZIN A   1      17.298   5.201  15.920  0.00  0.00     0.090 C 
BRANCH  32  33
ATOM     33  C31 ZIN A   1      18.158   4.433  14.914  0.00  0.00     0.339 C 
ATOM     34  F32 ZIN A   1      19.423   4.199  15.466  0.00  0.00    -0.196 F 
ATOM     35  F33 ZIN A   1      17.546   3.210  14.615  0.00  0.00    -0.196 F 
BRANCH  33  36
ATOM     36  C34 ZIN A   1      18.304   5.257  13.634  0.00  0.00     0.454 C 
ATOM     37  F35 ZIN A   1      19.662   5.455  13.359  0.00  0.00    -0.165 F 
ATOM     38  F36 ZIN A   1      17.708   4.574  12.568  0.00  0.00    -0.165 F 
ATOM     39  F37 ZIN A   1      17.677   6.496  13.803  0.00  0.00    -0.165 F 
ENDBRANCH  33  36
ENDBRANCH  32  33
ENDBRANCH  31  32
ENDBRANCH  30  31
ENDBRANCH  28  30
ENDBRANCH  27  28
ENDBRANCH  26  27
ENDBRANCH  25  26
ENDBRANCH  24  25
ENDBRANCH  23  24
ENDBRANCH  22  23
ENDBRANCH  21  22
ENDBRANCH  20  21
ENDBRANCH  19  20
ENDBRANCH  13  19
BRANCH   9  40
ATOM     40  O11 ZIN A   1      16.893  -6.946   9.312  0.00  0.00    -0.361 OA
ATOM     41  H56 ZIN A   1      17.220  -7.454   8.556  0.00  0.00     0.217 HD
ENDBRANCH   9  40
BRANCH  18  42
ATOM     42  O46 ZIN A   1      18.346   3.684   9.779  0.00  0.00    -0.395 OA
ATOM     43  H88 ZIN A   1      18.479   4.394  10.421  0.00  0.00     0.210 HD
ENDBRANCH  18  42
TORSDOF 17
ENDMDL
MODEL 7
REMARK VINA RESULT:      -8.1      1.561      2.158
REMARK  17 active torsions:
REMARK  status: ('A' for Active; 'I' for Inactive)
REMARK    1  A    between atoms: C10_9  and  O11_10 
REMARK    2  A    between atoms: C15_14  and  C17_15 
REMARK    3  A    between atoms: C17_15  and  C18_16 
REMARK    4  A    between atoms: C18_16  and  C19_17 
REMARK    5  A    between atoms: C19_17  and  C20_18 
REMARK    6  A    between atoms: C20_18  and  C21_19 
REMARK    7  A    between atoms: C21_19  and  C22_20 
REMARK    8  A    between atoms: C22_20  and  C23_21 
REMARK    9  A    between atoms: C23_21  and  C24_22 
REMARK   10  A    between atoms: C24_22  and  C25_23 
REMARK   11  A    between atoms: C25_23  and  S26_24 
REMARK   12  A    between atoms: S26_24  and  C28_26 
REMARK   13  A    between atoms: C28_26  and  C29_27 
REMARK   14  A    between atoms: C29_27  and  C30_28 
REMARK   15  A    between atoms: C30_28  and  C31_29 
REMARK   16  A    between atoms: C31_29  and  C34_32 
REMARK   17  A    between atoms: C44_40  and  O46_41 
ROOT
ATOM      1  C1  ZIN A   1      20.189  -1.387  11.187  0.00  0.00     0.018 C 
ATOM      2  C2  ZIN A   1      19.162  -2.326  11.813  0.00  0.00    -0.014 C 
ATOM      3  C3  ZIN A   1      19.658  -3.762  11.811  0.00  0.00     0.013 C 
ATOM      4  C4  ZIN A   1      19.631  -4.304  10.381  0.00  0.00     0.010 C 
ATOM      5  C5  ZIN A   1      18.233  -4.227   9.771  0.00  0.00     0.024 C 
ATOM      6  C7  ZIN A   1      18.265  -4.823   8.392  0.00  0.00    -0.047 A 
ATOM      7  C8  ZIN A   1      18.399  -6.204   8.288  0.00  0.00     0.011 A 
ATOM      8  C9  ZIN A   1      18.441  -6.816   7.054  0.00  0.00     0.037 A 
ATOM      9  C10 ZIN A   1      18.348  -6.048   5.902  0.00  0.00     0.066 A 
ATOM     10  C12 ZIN A   1      18.212  -4.673   6.005  0.00  0.00     0.044 A 
ATOM     11  C13 ZIN A   1      18.171  -4.062   7.249  0.00  0.00    -0.048 A 
ATOM     12  C14 ZIN A   1      18.024  -2.566   7.295  0.00  0.00     0.044 C 
ATOM     13  C15 ZIN A   1      18.472  -2.017   8.663  0.00  0.00    -0.005 C 
ATOM     14  C38 ZIN A   1      17.728  -2.770   9.745  0.00  0.00     0.003 C 
ATOM     15  C40 ZIN A   1      17.774  -2.280  11.152  0.00  0.00     0.001 C 
ATOM     16  C42 ZIN A   1      17.172  -0.957  11.587  0.00  0.00     0.008 C 
ATOM     17  C43 ZIN A   1      17.834  -0.651  12.959  0.00  0.00     0.033 C 
ATOM     18  C44 ZIN A   1      18.821  -1.814  13.233  0.00  0.00     0.126 C 
ENDROOT
BRANCH  13  19
ATOM     19  C17 ZIN A   1      18.161  -0.520   8.651  0.00  0.00     0.005 C 
BRANCH  19  20
ATOM     20  C18 ZIN A   1      19.275   0.227   7.914  0.00  0.00     0.000 C 
BRANCH  20  21
ATOM     21  C19 ZIN A   1      19.378   1.654   8.456  0.00  0.00     0.000 C 
BRANCH  21  22
ATOM     22  C20 ZIN A   1      18.274   1.887   9.490  0.00  0.00     0.000 C 
BRANCH  22  23
ATOM     23  C21 ZIN A   1      18.905   2.255  10.834  0.00  0.00     0.000 C 
BRANCH  23  24
ATOM     24  C22 ZIN A   1      17.901   3.058  11.666  0.00  0.00     0.000 C 
BRANCH  24  25
ATOM     25  C23 ZIN A   1      17.317   4.184  10.812  0.00  0.00     0.001 C 
BRANCH  25  26
ATOM     26  C24 ZIN A   1      16.898   5.346  11.716  0.00  0.00     0.012 C 
BRANCH  26  27
ATOM     27  C25 ZIN A   1      16.889   4.880  13.173  0.00  0.00     0.108 C 
BRANCH  27  28
ATOM     28  S26 ZIN A   1      17.410   6.246  14.247  0.00  0.00     0.015 S 
ATOM     29  O27 ZIN A   1      18.823   6.385  14.184  0.00  0.00    -0.258 OA
BRANCH  28  30
ATOM     30  C28 ZIN A   1      16.931   5.672  15.900  0.00  0.00     0.109 C 
BRANCH  30  31
ATOM     31  C29 ZIN A   1      18.188   5.343  16.709  0.00  0.00     0.019 C 
BRANCH  31  32
ATOM     32  C30 ZIN A   1      18.113   3.896  17.200  0.00  0.00     0.090 C 
BRANCH  32  33
ATOM     33  C31 ZIN A   1      19.337   3.124  16.702  0.00  0.00     0.339 C 
ATOM     34  F32 ZIN A   1      20.436   3.988  16.632  0.00  0.00    -0.196 F 
ATOM     35  F33 ZIN A   1      19.621   2.078  17.586  0.00  0.00    -0.196 F 
BRANCH  33  36
ATOM     36  C34 ZIN A   1      19.049   2.553  15.312  0.00  0.00     0.454 C 
ATOM     37  F35 ZIN A   1      17.669   2.395  15.149  0.00  0.00    -0.165 F 
ATOM     38  F36 ZIN A   1      19.536   3.430  14.337  0.00  0.00    -0.165 F 
ATOM     39  F37 ZIN A   1      19.679   1.311  15.179  0.00  0.00    -0.165 F 
ENDBRANCH  33  36
ENDBRANCH  32  33
ENDBRANCH  31  32
ENDBRANCH  30  31
ENDBRANCH  28  30
ENDBRANCH  27  28
ENDBRANCH  26  27
ENDBRANCH  25  26
ENDBRANCH  24  25
ENDBRANCH  23  24
ENDBRANCH  22  23
ENDBRANCH  21  22
ENDBRANCH  20  21
ENDBRANCH  19  20
ENDBRANCH  13  19
BRANCH   9  40
ATOM     40  O11 ZIN A   1      18.390  -6.641   4.681  0.00  0.00    -0.361 OA
ATOM     41  H56 ZIN A   1      17.574  -6.547   4.170  0.00  0.00     0.217 HD
ENDBRANCH   9  40
BRANCH  18  42
ATOM     42  O46 ZIN A   1      20.003  -1.341  13.880  0.00  0.00    -0.395 OA
ATOM     43  H88 ZIN A   1      20.565  -0.790  13.318  0.00  0.00     0.210 HD
ENDBRANCH  18  42
TORSDOF 17
ENDMDL
MODEL 8
REMARK VINA RESULT:      -8.1      3.161      8.337
REMARK  17 active torsions:
REMARK  status: ('A' for Active; 'I' for Inactive)
REMARK    1  A    between atoms: C10_9  and  O11_10 
REMARK    2  A    between atoms: C15_14  and  C17_15 
REMARK    3  A    between atoms: C17_15  and  C18_16 
REMARK    4  A    between atoms: C18_16  and  C19_17 
REMARK    5  A    between atoms: C19_17  and  C20_18 
REMARK    6  A    between atoms: C20_18  and  C21_19 
REMARK    7  A    between atoms: C21_19  and  C22_20 
REMARK    8  A    between atoms: C22_20  and  C23_21 
REMARK    9  A    between atoms: C23_21  and  C24_22 
REMARK   10  A    between atoms: C24_22  and  C25_23 
REMARK   11  A    between atoms: C25_23  and  S26_24 
REMARK   12  A    between atoms: S26_24  and  C28_26 
REMARK   13  A    between atoms: C28_26  and  C29_27 
REMARK   14  A    between atoms: C29_27  and  C30_28 
REMARK   15  A    between atoms: C30_28  and  C31_29 
REMARK   16  A    between atoms: C31_29  and  C34_32 
REMARK   17  A    between atoms: C44_40  and  O46_41 
ROOT
ATOM      1  C1  ZIN A   1      19.604   5.839  13.793  0.00  0.00     0.018 C 
ATOM      2  C2  ZIN A   1      18.741   6.041  15.035  0.00  0.00    -0.014 C 
ATOM      3  C3  ZIN A   1      19.525   5.744  16.302  0.00  0.00     0.013 C 
ATOM      4  C4  ZIN A   1      19.750   4.235  16.415  0.00  0.00     0.010 C 
ATOM      5  C5  ZIN A   1      18.431   3.464  16.416  0.00  0.00     0.024 C 
ATOM      6  C7  ZIN A   1      18.720   1.999  16.583  0.00  0.00    -0.047 A 
ATOM      7  C8  ZIN A   1      19.149   1.564  17.833  0.00  0.00     0.011 A 
ATOM      8  C9  ZIN A   1      19.437   0.235  18.055  0.00  0.00     0.037 A 
ATOM      9  C10 ZIN A   1      19.295  -0.681  17.022  0.00  0.00     0.066 A 
ATOM     10  C12 ZIN A   1      18.865  -0.249  15.778  0.00  0.00     0.044 A 
ATOM     11  C13 ZIN A   1      18.578   1.090  15.560  0.00  0.00    -0.048 A 
ATOM     12  C14 ZIN A   1      18.116   1.497  14.188  0.00  0.00     0.044 C 
ATOM     13  C15 ZIN A   1      18.306   3.011  13.977  0.00  0.00    -0.005 C 
ATOM     14  C38 ZIN A   1      17.637   3.740  15.123  0.00  0.00     0.003 C 
ATOM     15  C40 ZIN A   1      17.444   5.215  15.049  0.00  0.00     0.001 C 
ATOM     16  C42 ZIN A   1      16.539   5.882  14.030  0.00  0.00     0.008 C 
ATOM     17  C43 ZIN A   1      16.988   7.369  14.012  0.00  0.00     0.033 C 
ATOM     18  C44 ZIN A   1      18.166   7.479  15.013  0.00  0.00     0.126 C 
ENDROOT
BRANCH  13  19
ATOM     19  C17 ZIN A   1      17.691   3.339  12.616  0.00  0.00     0.005 C 
BRANCH  19  20
ATOM     20  C18 ZIN A   1      18.001   2.211  11.630  0.00  0.00     0.000 C 
BRANCH  20  21
ATOM     21  C19 ZIN A   1      17.935   2.751  10.200  0.00  0.00     0.000 C 
BRANCH  21  22
ATOM     22  C20 ZIN A   1      19.043   2.109   9.362  0.00  0.00     0.000 C 
BRANCH  22  23
ATOM     23  C21 ZIN A   1      18.830   0.595   9.310  0.00  0.00     0.000 C 
BRANCH  23  24
ATOM     24  C22 ZIN A   1      17.598   0.282   8.456  0.00  0.00     0.000 C 
BRANCH  24  25
ATOM     25  C23 ZIN A   1      17.897   0.607   6.992  0.00  0.00     0.001 C 
BRANCH  25  26
ATOM     26  C24 ZIN A   1      18.967  -0.351   6.464  0.00  0.00     0.012 C 
BRANCH  26  27
ATOM     27  C25 ZIN A   1      18.383  -1.762   6.360  0.00  0.00     0.108 C 
BRANCH  27  28
ATOM     28  S26 ZIN A   1      19.412  -2.914   7.310  0.00  0.00     0.015 S 
ATOM     29  O27 ZIN A   1      20.182  -3.707   6.418  0.00  0.00    -0.258 OA
BRANCH  28  30
ATOM     30  C28 ZIN A   1      18.189  -3.959   8.147  0.00  0.00     0.109 C 
BRANCH  30  31
ATOM     31  C29 ZIN A   1      17.971  -3.448   9.573  0.00  0.00     0.019 C 
BRANCH  31  32
ATOM     32  C30 ZIN A   1      19.293  -2.919  10.132  0.00  0.00     0.090 C 
BRANCH  32  33
ATOM     33  C31 ZIN A   1      19.404  -3.284  11.613  0.00  0.00     0.339 C 
ATOM     34  F32 ZIN A   1      18.426  -4.232  11.933  0.00  0.00    -0.196 F 
ATOM     35  F33 ZIN A   1      20.672  -3.817  11.869  0.00  0.00    -0.196 F 
BRANCH  33  36
ATOM     36  C34 ZIN A   1      19.197  -2.030  12.465  0.00  0.00     0.454 C 
ATOM     37  F35 ZIN A   1      19.693  -2.254  13.753  0.00  0.00    -0.165 F 
ATOM     38  F36 ZIN A   1      19.876  -0.954  11.884  0.00  0.00    -0.165 F 
ATOM     39  F37 ZIN A   1      17.831  -1.736  12.536  0.00  0.00    -0.165 F 
ENDBRANCH  33  36
ENDBRANCH  32  33
ENDBRANCH  31  32
ENDBRANCH  30  31
ENDBRANCH  28  30
ENDBRANCH  27  28
ENDBRANCH  26  27
ENDBRANCH  25  26
ENDBRANCH  24  25
ENDBRANCH  23  24
ENDBRANCH  22  23
ENDBRANCH  21  22
ENDBRANCH  20  21
ENDBRANCH  19  20
ENDBRANCH  13  19
BRANCH   9  40
ATOM     40  O11 ZIN A   1      19.577  -1.994  17.230  0.00  0.00    -0.361 OA
ATOM     41  H56 ZIN A   1      19.163  -2.365  18.022  0.00  0.00     0.217 HD
ENDBRANCH   9  40
BRANCH  18  42
ATOM     42  O46 ZIN A   1      19.155   8.394  14.541  0.00  0.00    -0.395 OA
ATOM     43  H88 ZIN A   1      20.050   8.028  14.516  0.00  0.00     0.210 HD
ENDBRANCH  18  42
TORSDOF 17
ENDMDL
MODEL 9
REMARK VINA RESULT:      -8.0      2.505      4.915
REMARK  17 active torsions:
REMARK  status: ('A' for Active; 'I' for Inactive)
REMARK    1  A    between atoms: C10_9  and  O11_10 
REMARK    2  A    between atoms: C15_14  and  C17_15 
REMARK    3  A    between atoms: C17_15  and  C18_16 
REMARK    4  A    between atoms: C18_16  and  C19_17 
REMARK    5  A    between atoms: C19_17  and  C20_18 
REMARK    6  A    between atoms: C20_18  and  C21_19 
REMARK    7  A    between atoms: C21_19  and  C22_20 
REMARK    8  A    between atoms: C22_20  and  C23_21 
REMARK    9  A    between atoms: C23_21  and  C24_22 
REMARK   10  A    between atoms: C24_22  and  C25_23 
REMARK   11  A    between atoms: C25_23  and  S26_24 
REMARK   12  A    between atoms: S26_24  and  C28_26 
REMARK   13  A    between atoms: C28_26  and  C29_27 
REMARK   14  A    between atoms: C29_27  and  C30_28 
REMARK   15  A    between atoms: C30_28  and  C31_29 
REMARK   16  A    between atoms: C31_29  and  C34_32 
REMARK   17  A    between atoms: C44_40  and  O46_41 
ROOT
ATOM      1  C1  ZIN A   1      17.232   0.539  11.109  0.00  0.00     0.018 C 
ATOM      2  C2  ZIN A   1      18.226   0.963  10.032  0.00  0.00    -0.014 C 
ATOM      3  C3  ZIN A   1      17.684   0.679   8.642  0.00  0.00     0.013 C 
ATOM      4  C4  ZIN A   1      17.696  -0.830   8.393  0.00  0.00     0.010 C 
ATOM      5  C5  ZIN A   1      19.098  -1.418   8.543  0.00  0.00     0.024 C 
ATOM      6  C7  ZIN A   1      19.050  -2.888   8.234  0.00  0.00    -0.047 A 
ATOM      7  C8  ZIN A   1      18.872  -3.262   6.907  0.00  0.00     0.011 A 
ATOM      8  C9  ZIN A   1      18.813  -4.593   6.553  0.00  0.00     0.037 A 
ATOM      9  C10 ZIN A   1      18.934  -5.570   7.530  0.00  0.00     0.066 A 
ATOM     10  C12 ZIN A   1      19.115  -5.198   8.852  0.00  0.00     0.044 A 
ATOM     11  C13 ZIN A   1      19.172  -3.857   9.203  0.00  0.00    -0.048 A 
ATOM     12  C14 ZIN A   1      19.369  -3.517  10.654  0.00  0.00     0.044 C 
ATOM     13  C15 ZIN A   1      18.935  -2.066  10.936  0.00  0.00    -0.005 C 
ATOM     14  C38 ZIN A   1      19.650  -1.156   9.959  0.00  0.00     0.003 C 
ATOM     15  C40 ZIN A   1      19.617   0.319  10.163  0.00  0.00     0.001 C 
ATOM     16  C42 ZIN A   1      20.260   1.006  11.353  0.00  0.00     0.008 C 
ATOM     17  C43 ZIN A   1      19.605   2.414  11.402  0.00  0.00     0.033 C 
ATOM     18  C44 ZIN A   1      18.580   2.456  10.241  0.00  0.00     0.126 C 
ENDROOT
BRANCH  13  19
ATOM     19  C17 ZIN A   1      19.295  -1.782  12.395  0.00  0.00     0.005 C 
BRANCH  19  20
ATOM     20  C18 ZIN A   1      18.022  -1.791  13.246  0.00  0.00     0.000 C 
BRANCH  20  21
ATOM     21  C19 ZIN A   1      18.132  -0.725  14.338  0.00  0.00     0.000 C 
BRANCH  21  22
ATOM     22  C20 ZIN A   1      18.744  -1.346  15.595  0.00  0.00     0.000 C 
BRANCH  22  23
ATOM     23  C21 ZIN A   1      17.657  -1.520  16.658  0.00  0.00     0.000 C 
BRANCH  23  24
ATOM     24  C22 ZIN A   1      17.204  -0.145  17.155  0.00  0.00     0.000 C 
BRANCH  24  25
ATOM     25  C23 ZIN A   1      18.136   0.326  18.273  0.00  0.00     0.001 C 
BRANCH  25  26
ATOM     26  C24 ZIN A   1      17.870   1.803  18.572  0.00  0.00     0.012 C 
BRANCH  26  27
ATOM     27  C25 ZIN A   1      19.089   2.633  18.166  0.00  0.00     0.108 C 
BRANCH  27  28
ATOM     28  S26 ZIN A   1      18.926   3.139  16.431  0.00  0.00     0.015 S 
ATOM     29  O27 ZIN A   1      19.507   2.149  15.593  0.00  0.00    -0.258 OA
BRANCH  28  30
ATOM     30  C28 ZIN A   1      19.919   4.655  16.354  0.00  0.00     0.109 C 
BRANCH  30  31
ATOM     31  C29 ZIN A   1      18.993   5.873  16.412  0.00  0.00     0.019 C 
BRANCH  31  32
ATOM     32  C30 ZIN A   1      17.621   5.498  15.850  0.00  0.00     0.090 C 
BRANCH  32  33
ATOM     33  C31 ZIN A   1      17.375   6.264  14.549  0.00  0.00     0.339 C 
ATOM     34  F32 ZIN A   1      16.044   6.697  14.508  0.00  0.00    -0.196 F 
ATOM     35  F33 ZIN A   1      18.228   7.371  14.491  0.00  0.00    -0.196 F 
BRANCH  33  36
ATOM     36  C34 ZIN A   1      17.649   5.346  13.357  0.00  0.00     0.454 C 
ATOM     37  F35 ZIN A   1      17.002   5.848  12.223  0.00  0.00    -0.165 F 
ATOM     38  F36 ZIN A   1      19.026   5.287  13.120  0.00  0.00    -0.165 F 
ATOM     39  F37 ZIN A   1      17.169   4.062  13.637  0.00  0.00    -0.165 F 
ENDBRANCH  33  36
ENDBRANCH  32  33
ENDBRANCH  31  32
ENDBRANCH  30  31
ENDBRANCH  28  30
ENDBRANCH  27  28
ENDBRANCH  26  27
ENDBRANCH  25  26
ENDBRANCH  24  25
ENDBRANCH  23  24
ENDBRANCH  22  23
ENDBRANCH  21  22
ENDBRANCH  20  21
ENDBRANCH  19  20
ENDBRANCH  13  19
BRANCH   9  40
ATOM     40  O11 ZIN A   1      18.877  -6.885   7.192  0.00  0.00    -0.361 OA
ATOM     41  H56 ZIN A   1      19.738  -7.325   7.174  0.00  0.00     0.217 HD
ENDBRANCH   9  40
BRANCH  18  42
ATOM     42  O46 ZIN A   1      17.411   3.187  10.615  0.00  0.00    -0.395 OA
ATOM     43  H88 ZIN A   1      16.929   3.566   9.868  0.00  0.00     0.210 HD
ENDBRANCH  18  42
TORSDOF 17
ENDMDL
