MODEL 1
REMARK VINA RESULT:      -5.1      0.000      0.000
REMARK  3 active torsions:
REMARK  status: ('A' for Active; 'I' for Inactive)
REMARK    1  A    between atoms: C2_2  and  N4_3 
REMARK    2  A    between atoms: C2_2  and  C8_7 
REMARK    3  A    between atoms: C8_7  and  C9_8 
ROOT
ATOM      1  C8  <0> d   1      18.791   1.362  10.419  0.00  0.00     0.070 C 
ENDROOT
BRANCH   1   2
ATOM      2  C2  <0> d   1      19.341   2.787  10.502  0.00  0.00     0.183 C 
ATOM      3  C1  <0> d   1      18.203   3.753  10.839  0.00  0.00     0.040 C 
BRANCH   2   4
ATOM      4  N4  <0> d   1      20.367   2.856  11.551  0.00  0.00    -0.075 N 
ATOM      5  H5  <0> d   1      20.090   3.529  12.249  0.00  0.00     0.274 HD
ATOM      6  H6  <0> d   1      20.469   1.948  11.980  0.00  0.00     0.274 HD
ATOM      7  H7  <0> d   1      21.246   3.135  11.142  0.00  0.00     0.274 HD
ENDBRANCH   2   4
ENDBRANCH   1   2
BRANCH   1   8
ATOM      8  C9  <0> d   1      18.501   1.019   8.980  0.00  0.00    -0.056 A 
ATOM      9  C14 <0> d   1      17.501   0.114   8.673  0.00  0.00     0.007 A 
ATOM     10  C13 <0> d   1      17.233  -0.196   7.353  0.00  0.00     0.001 A 
ATOM     11  C12 <0> d   1      17.969   0.389   6.341  0.00  0.00     0.000 A 
ATOM     12  C11 <0> d   1      18.972   1.289   6.648  0.00  0.00     0.001 A 
ATOM     13  C10 <0> d   1      19.238   1.604   7.967  0.00  0.00     0.007 A 
ENDBRANCH   1   8
TORSDOF 3
ENDMDL
MODEL 2
REMARK VINA RESULT:      -4.9      4.559      6.640
REMARK  3 active torsions:
REMARK  status: ('A' for Active; 'I' for Inactive)
REMARK    1  A    between atoms: C2_2  and  N4_3 
REMARK    2  A    between atoms: C2_2  and  C8_7 
REMARK    3  A    between atoms: C8_7  and  C9_8 
ROOT
ATOM      1  C8  <0> d   1      19.340   1.009  13.154  0.00  0.00     0.070 C 
ENDROOT
BRANCH   1   2
ATOM      2  C2  <0> d   1      20.188   0.083  12.279  0.00  0.00     0.183 C 
ATOM      3  C1  <0> d   1      19.560  -0.020  10.888  0.00  0.00     0.040 C 
BRANCH   2   4
ATOM      4  N4  <0> d   1      21.547   0.628  12.163  0.00  0.00    -0.075 N 
ATOM      5  H5  <0> d   1      21.499   1.599  11.893  0.00  0.00     0.274 HD
ATOM      6  H6  <0> d   1      22.018   0.549  13.053  0.00  0.00     0.274 HD
ATOM      7  H7  <0> d   1      22.059   0.109  11.465  0.00  0.00     0.274 HD
ENDBRANCH   2   4
ENDBRANCH   1   2
BRANCH   1   8
ATOM      8  C9  <0> d   1      18.821   0.240  14.342  0.00  0.00    -0.056 A 
ATOM      9  C14 <0> d   1      17.772   0.746  15.088  0.00  0.00     0.007 A 
ATOM     10  C13 <0> d   1      17.293   0.038  16.174  0.00  0.00     0.001 A 
ATOM     11  C12 <0> d   1      17.868  -1.170  16.521  0.00  0.00     0.000 A 
ATOM     12  C11 <0> d   1      18.920  -1.673  15.779  0.00  0.00     0.001 A 
ATOM     13  C10 <0> d   1      19.396  -0.968  14.689  0.00  0.00     0.007 A 
ENDBRANCH   1   8
TORSDOF 3
ENDMDL
MODEL 3
REMARK VINA RESULT:      -4.9      4.504      6.622
REMARK  3 active torsions:
REMARK  status: ('A' for Active; 'I' for Inactive)
REMARK    1  A    between atoms: C2_2  and  N4_3 
REMARK    2  A    between atoms: C2_2  and  C8_7 
REMARK    3  A    between atoms: C8_7  and  C9_8 
ROOT
ATOM      1  C8  <0> d   1      19.202   0.809  12.895  0.00  0.00     0.070 C 
ENDROOT
BRANCH   1   2
ATOM      2  C2  <0> d   1      20.236  -0.067  12.184  0.00  0.00     0.183 C 
ATOM      3  C1  <0> d   1      19.772  -0.341  10.752  0.00  0.00     0.040 C 
BRANCH   2   4
ATOM      4  N4  <0> d   1      21.529   0.628  12.154  0.00  0.00    -0.075 N 
ATOM      5  H5  <0> d   1      21.653   1.072  11.257  0.00  0.00     0.274 HD
ATOM      6  H6  <0> d   1      21.552   1.327  12.882  0.00  0.00     0.274 HD
ATOM      7  H7  <0> d   1      22.272  -0.038  12.306  0.00  0.00     0.274 HD
ENDBRANCH   2   4
ENDBRANCH   1   2
BRANCH   1   8
ATOM      8  C9  <0> d   1      18.767   0.136  14.171  0.00  0.00    -0.056 A 
ATOM      9  C14 <0> d   1      19.405  -1.013  14.600  0.00  0.00     0.007 A 
ATOM     10  C13 <0> d   1      19.009  -1.627  15.773  0.00  0.00     0.001 A 
ATOM     11  C12 <0> d   1      17.968  -1.098  16.513  0.00  0.00     0.000 A 
ATOM     12  C11 <0> d   1      17.326   0.047  16.081  0.00  0.00     0.001 A 
ATOM     13  C10 <0> d   1      17.725   0.664  14.911  0.00  0.00     0.007 A 
ENDBRANCH   1   8
TORSDOF 3
ENDMDL
MODEL 4
REMARK VINA RESULT:      -4.9      1.794      2.394
REMARK  3 active torsions:
REMARK  status: ('A' for Active; 'I' for Inactive)
REMARK    1  A    between atoms: C2_2  and  N4_3 
REMARK    2  A    between atoms: C2_2  and  C8_7 
REMARK    3  A    between atoms: C8_7  and  C9_8 
ROOT
ATOM      1  C8  <0> d   1      18.384   3.607  10.959  0.00  0.00     0.070 C 
ENDROOT
BRANCH   1   2
ATOM      2  C2  <0> d   1      17.122   4.453  10.782  0.00  0.00     0.183 C 
ATOM      3  C1  <0> d   1      16.715   5.051  12.130  0.00  0.00     0.040 C 
BRANCH   2   4
ATOM      4  N4  <0> d   1      17.390   5.538   9.828  0.00  0.00    -0.075 N 
ATOM      5  H5  <0> d   1      17.168   6.424  10.254  0.00  0.00     0.274 HD
ATOM      6  H6  <0> d   1      18.365   5.524   9.569  0.00  0.00     0.274 HD
ATOM      7  H7  <0> d   1      16.822   5.408   9.003  0.00  0.00     0.274 HD
ENDBRANCH   2   4
ENDBRANCH   1   2
BRANCH   1   8
ATOM      8  C9  <0> d   1      18.334   2.427  10.023  0.00  0.00    -0.056 A 
ATOM      9  C14 <0> d   1      17.570   1.321  10.346  0.00  0.00     0.007 A 
ATOM     10  C13 <0> d   1      17.520   0.241   9.485  0.00  0.00     0.001 A 
ATOM     11  C12 <0> d   1      18.241   0.262   8.306  0.00  0.00     0.000 A 
ATOM     12  C11 <0> d   1      19.010   1.365   7.987  0.00  0.00     0.001 A 
ATOM     13  C10 <0> d   1      19.056   2.448   8.845  0.00  0.00     0.007 A 
ENDBRANCH   1   8
TORSDOF 3
ENDMDL
MODEL 5
REMARK VINA RESULT:      -4.9      1.926      2.628
REMARK  3 active torsions:
REMARK  status: ('A' for Active; 'I' for Inactive)
REMARK    1  A    between atoms: C2_2  and  N4_3 
REMARK    2  A    between atoms: C2_2  and  C8_7 
REMARK    3  A    between atoms: C8_7  and  C9_8 
ROOT
ATOM      1  C8  <0> d   1      20.247  -0.680  10.537  0.00  0.00     0.070 C 
ENDROOT
BRANCH   1   2
ATOM      2  C2  <0> d   1      20.198   0.349  11.669  0.00  0.00     0.183 C 
ATOM      3  C1  <0> d   1      19.361  -0.204  12.824  0.00  0.00     0.040 C 
BRANCH   2   4
ATOM      4  N4  <0> d   1      21.561   0.624  12.140  0.00  0.00    -0.075 N 
ATOM      5  H5  <0> d   1      22.226   0.317  11.446  0.00  0.00     0.274 HD
ATOM      6  H6  <0> d   1      21.670   1.615  12.295  0.00  0.00     0.274 HD
ATOM      7  H7  <0> d   1      21.724   0.129  13.005  0.00  0.00     0.274 HD
ENDBRANCH   2   4
ENDBRANCH   1   2
BRANCH   1   8
ATOM      8  C9  <0> d   1      19.722  -0.057   9.269  0.00  0.00    -0.056 A 
ATOM      9  C14 <0> d   1      19.550   1.313   9.191  0.00  0.00     0.007 A 
ATOM     10  C13 <0> d   1      19.073   1.884   8.027  0.00  0.00     0.001 A 
ATOM     11  C12 <0> d   1      18.759   1.085   6.943  0.00  0.00     0.000 A 
ATOM     12  C11 <0> d   1      18.926  -0.284   7.023  0.00  0.00     0.001 A 
ATOM     13  C10 <0> d   1      19.407  -0.856   8.185  0.00  0.00     0.007 A 
ENDBRANCH   1   8
TORSDOF 3
ENDMDL
MODEL 6
REMARK VINA RESULT:      -4.9      2.621      4.641
REMARK  3 active torsions:
REMARK  status: ('A' for Active; 'I' for Inactive)
REMARK    1  A    between atoms: C2_2  and  N4_3 
REMARK    2  A    between atoms: C2_2  and  C8_7 
REMARK    3  A    between atoms: C8_7  and  C9_8 
ROOT
ATOM      1  C8  <0> d   1      18.969  -0.222   7.218  0.00  0.00     0.070 C 
ENDROOT
BRANCH   1   2
ATOM      2  C2  <0> d   1      18.194   0.208   5.972  0.00  0.00     0.183 C 
ATOM      3  C1  <0> d   1      19.068   0.002   4.732  0.00  0.00     0.040 C 
BRANCH   2   4
ATOM      4  N4  <0> d   1      16.975  -0.601   5.850  0.00  0.00    -0.075 N 
ATOM      5  H5  <0> d   1      16.815  -1.101   6.711  0.00  0.00     0.274 HD
ATOM      6  H6  <0> d   1      16.189   0.003   5.660  0.00  0.00     0.274 HD
ATOM      7  H7  <0> d   1      17.082  -1.260   5.093  0.00  0.00     0.274 HD
ENDBRANCH   2   4
ENDBRANCH   1   2
BRANCH   1   8
ATOM      8  C9  <0> d   1      18.598   0.671   8.374  0.00  0.00    -0.056 A 
ATOM      9  C14 <0> d   1      19.094   1.960   8.439  0.00  0.00     0.007 A 
ATOM     10  C13 <0> d   1      18.749   2.780   9.496  0.00  0.00     0.001 A 
ATOM     11  C12 <0> d   1      17.916   2.310  10.494  0.00  0.00     0.000 A 
ATOM     12  C11 <0> d   1      17.425   1.020  10.432  0.00  0.00     0.001 A 
ATOM     13  C10 <0> d   1      17.765   0.200   9.372  0.00  0.00     0.007 A 
ENDBRANCH   1   8
TORSDOF 3
ENDMDL
MODEL 7
REMARK VINA RESULT:      -4.8      5.215      7.285
REMARK  3 active torsions:
REMARK  status: ('A' for Active; 'I' for Inactive)
REMARK    1  A    between atoms: C2_2  and  N4_3 
REMARK    2  A    between atoms: C2_2  and  C8_7 
REMARK    3  A    between atoms: C8_7  and  C9_8 
ROOT
ATOM      1  C8  <0> d   1      19.268  -0.866  12.799  0.00  0.00     0.070 C 
ENDROOT
BRANCH   1   2
ATOM      2  C2  <0> d   1      19.425  -2.334  12.397  0.00  0.00     0.183 C 
ATOM      3  C1  <0> d   1      18.084  -2.871  11.892  0.00  0.00     0.040 C 
BRANCH   2   4
ATOM      4  N4  <0> d   1      20.429  -2.445  11.331  0.00  0.00    -0.075 N 
ATOM      5  H5  <0> d   1      20.489  -1.571  10.832  0.00  0.00     0.274 HD
ATOM      6  H6  <0> d   1      21.327  -2.663  11.737  0.00  0.00     0.274 HD
ATOM      7  H7  <0> d   1      20.162  -3.180  10.693  0.00  0.00     0.274 HD
ENDBRANCH   2   4
ENDBRANCH   1   2
BRANCH   1   8
ATOM      8  C9  <0> d   1      18.788  -0.785  14.226  0.00  0.00    -0.056 A 
ATOM      9  C14 <0> d   1      17.758   0.074  14.561  0.00  0.00     0.007 A 
ATOM     10  C13 <0> d   1      17.316   0.145  15.868  0.00  0.00     0.001 A 
ATOM     11  C12 <0> d   1      17.909  -0.636  16.843  0.00  0.00     0.000 A 
ATOM     12  C11 <0> d   1      18.942  -1.490  16.508  0.00  0.00     0.001 A 
ATOM     13  C10 <0> d   1      19.382  -1.565  15.201  0.00  0.00     0.007 A 
ENDBRANCH   1   8
TORSDOF 3
ENDMDL
MODEL 8
REMARK VINA RESULT:      -4.6      1.963      2.805
REMARK  3 active torsions:
REMARK  status: ('A' for Active; 'I' for Inactive)
REMARK    1  A    between atoms: C2_2  and  N4_3 
REMARK    2  A    between atoms: C2_2  and  C8_7 
REMARK    3  A    between atoms: C8_7  and  C9_8 
ROOT
ATOM      1  C8  <0> d   1      18.227   0.418   8.383  0.00  0.00     0.070 C 
ENDROOT
BRANCH   1   2
ATOM      2  C2  <0> d   1      19.404   1.269   8.862  0.00  0.00     0.183 C 
ATOM      3  C1  <0> d   1      18.874   2.514   9.578  0.00  0.00     0.040 C 
BRANCH   2   4
ATOM      4  N4  <0> d   1      20.229   0.485   9.790  0.00  0.00    -0.075 N 
ATOM      5  H5  <0> d   1      20.365  -0.442   9.418  0.00  0.00     0.274 HD
ATOM      6  H6  <0> d   1      21.124   0.937   9.907  0.00  0.00     0.274 HD
ATOM      7  H7  <0> d   1      19.764   0.425  10.684  0.00  0.00     0.274 HD
ENDBRANCH   2   4
ENDBRANCH   1   2
BRANCH   1   8
ATOM      8  C9  <0> d   1      18.589  -0.252   7.081  0.00  0.00    -0.056 A 
ATOM      9  C14 <0> d   1      18.600   0.479   5.908  0.00  0.00     0.007 A 
ATOM     10  C13 <0> d   1      18.937  -0.135   4.716  0.00  0.00     0.001 A 
ATOM     11  C12 <0> d   1      19.252  -1.480   4.695  0.00  0.00     0.000 A 
ATOM     12  C11 <0> d   1      19.235  -2.212   5.868  0.00  0.00     0.001 A 
ATOM     13  C10 <0> d   1      18.903  -1.598   7.061  0.00  0.00     0.007 A 
ENDBRANCH   1   8
TORSDOF 3
ENDMDL
MODEL 9
REMARK VINA RESULT:      -4.4      2.020      2.828
REMARK  3 active torsions:
REMARK  status: ('A' for Active; 'I' for Inactive)
REMARK    1  A    between atoms: C2_2  and  N4_3 
REMARK    2  A    between atoms: C2_2  and  C8_7 
REMARK    3  A    between atoms: C8_7  and  C9_8 
ROOT
ATOM      1  C8  <0> d   1      17.450   3.727  11.861  0.00  0.00     0.070 C 
ENDROOT
BRANCH   1   2
ATOM      2  C2  <0> d   1      18.363   3.564  13.078  0.00  0.00     0.183 C 
ATOM      3  C1  <0> d   1      19.437   4.654  13.060  0.00  0.00     0.040 C 
BRANCH   2   4
ATOM      4  N4  <0> d   1      17.566   3.682  14.306  0.00  0.00    -0.075 N 
ATOM      5  H5  <0> d   1      16.933   4.463  14.223  0.00  0.00     0.274 HD
ATOM      6  H6  <0> d   1      17.039   2.834  14.447  0.00  0.00     0.274 HD
ATOM      7  H7  <0> d   1      18.182   3.829  15.093  0.00  0.00     0.274 HD
ENDBRANCH   2   4
ENDBRANCH   1   2
BRANCH   1   8
ATOM      8  C9  <0> d   1      17.840   2.727  10.803  0.00  0.00    -0.056 A 
ATOM      9  C14 <0> d   1      17.449   1.406  10.923  0.00  0.00     0.007 A 
ATOM     10  C13 <0> d   1      17.803   0.490   9.950  0.00  0.00     0.001 A 
ATOM     11  C12 <0> d   1      18.555   0.892   8.862  0.00  0.00     0.000 A 
ATOM     12  C11 <0> d   1      18.950   2.211   8.745  0.00  0.00     0.001 A 
ATOM     13  C10 <0> d   1      18.593   3.128   9.715  0.00  0.00     0.007 A 
ENDBRANCH   1   8
TORSDOF 3
ENDMDL
