MODEL 1
REMARK VINA RESULT:      -8.5      0.000      0.000
REMARK  17 active torsions:
REMARK  status: ('A' for Active; 'I' for Inactive)
REMARK    1  A    between atoms: C10_9  and  O11_10 
REMARK    2  A    between atoms: C15_14  and  C17_15 
REMARK    3  A    between atoms: C17_15  and  C18_16 
REMARK    4  A    between atoms: C18_16  and  C19_17 
REMARK    5  A    between atoms: C19_17  and  C20_18 
REMARK    6  A    between atoms: C20_18  and  C21_19 
REMARK    7  A    between atoms: C21_19  and  C22_20 
REMARK    8  A    between atoms: C22_20  and  C23_21 
REMARK    9  A    between atoms: C23_21  and  C24_22 
REMARK   10  A    between atoms: C24_22  and  C25_23 
REMARK   11  A    between atoms: C25_23  and  S26_24 
REMARK   12  A    between atoms: S26_24  and  C28_26 
REMARK   13  A    between atoms: C28_26  and  C29_27 
REMARK   14  A    between atoms: C29_27  and  C30_28 
REMARK   15  A    between atoms: C30_28  and  C31_29 
REMARK   16  A    between atoms: C31_29  and  C34_32 
REMARK   17  A    between atoms: C44_40  and  O46_41 
ROOT
ATOM      1  C1  ZIN A   1      19.440  -0.264  17.370  0.00  0.00     0.018 C 
ATOM      2  C2  ZIN A   1      18.112   0.442  17.088  0.00  0.00    -0.014 C 
ATOM      3  C3  ZIN A   1      17.066  -0.580  16.697  0.00  0.00     0.013 C 
ATOM      4  C4  ZIN A   1      17.618  -1.376  15.498  0.00  0.00     0.010 C 
ATOM      5  C5  ZIN A   1      17.969  -0.442  14.349  0.00  0.00     0.024 C 
ATOM      6  C7  ZIN A   1      18.538  -1.189  13.178  0.00  0.00    -0.047 A 
ATOM      7  C8  ZIN A   1      18.068  -2.469  12.922  0.00  0.00     0.011 A 
ATOM      8  C9  ZIN A   1      18.551  -3.194  11.853  0.00  0.00     0.037 A 
ATOM      9  C10 ZIN A   1      19.516  -2.638  11.026  0.00  0.00     0.066 A 
ATOM     10  C12 ZIN A   1      19.989  -1.363  11.284  0.00  0.00     0.044 A 
ATOM     11  C13 ZIN A   1      19.506  -0.636  12.364  0.00  0.00    -0.048 A 
ATOM     12  C14 ZIN A   1      20.089   0.733  12.600  0.00  0.00     0.044 C 
ATOM     13  C15 ZIN A   1      19.235   1.540  13.578  0.00  0.00    -0.005 C 
ATOM     14  C38 ZIN A   1      18.955   0.648  14.788  0.00  0.00     0.003 C 
ATOM     15  C40 ZIN A   1      18.287   1.429  15.901  0.00  0.00     0.001 C 
ATOM     16  C42 ZIN A   1      19.119   2.557  16.521  0.00  0.00     0.008 C 
ATOM     17  C43 ZIN A   1      18.483   2.727  17.928  0.00  0.00     0.033 C 
ATOM     18  C44 ZIN A   1      17.762   1.356  18.257  0.00  0.00     0.126 C 
ENDROOT
BRANCH  13  19
ATOM     19  C17 ZIN A   1      17.924   1.948  12.904  0.00  0.00     0.005 C 
BRANCH  19  20
ATOM     20  C18 ZIN A   1      18.146   3.223  12.087  0.00  0.00     0.000 C 
BRANCH  20  21
ATOM     21  C19 ZIN A   1      17.623   3.015  10.665  0.00  0.00     0.000 C 
BRANCH  21  22
ATOM     22  C20 ZIN A   1      18.800   2.995   9.687  0.00  0.00     0.000 C 
BRANCH  22  23
ATOM     23  C21 ZIN A   1      18.968   1.583   9.121  0.00  0.00     0.000 C 
BRANCH  23  24
ATOM     24  C22 ZIN A   1      17.703   0.768   9.401  0.00  0.00     0.000 C 
BRANCH  24  25
ATOM     25  C23 ZIN A   1      17.692  -0.479   8.514  0.00  0.00     0.001 C 
BRANCH  25  26
ATOM     26  C24 ZIN A   1      18.744  -0.330   7.414  0.00  0.00     0.012 C 
BRANCH  26  27
ATOM     27  C25 ZIN A   1      19.177  -1.716   6.931  0.00  0.00     0.108 C 
BRANCH  27  28
ATOM     28  S26 ZIN A   1      18.695  -1.930   5.196  0.00  0.00     0.015 S 
ATOM     29  O27 ZIN A   1      19.780  -1.564   4.354  0.00  0.00    -0.258 OA
BRANCH  28  30
ATOM     30  C28 ZIN A   1      18.407  -3.716   5.070  0.00  0.00     0.109 C 
BRANCH  30  31
ATOM     31  C29 ZIN A   1      19.054  -4.423   6.263  0.00  0.00     0.019 C 
BRANCH  31  32
ATOM     32  C30 ZIN A   1      18.195  -5.620   6.674  0.00  0.00     0.090 C 
BRANCH  32  33
ATOM     33  C31 ZIN A   1      17.678  -5.412   8.098  0.00  0.00     0.339 C 
ATOM     34  F32 ZIN A   1      18.621  -5.894   9.012  0.00  0.00    -0.196 F 
ATOM     35  F33 ZIN A   1      17.467  -4.047   8.323  0.00  0.00    -0.196 F 
BRANCH  33  36
ATOM     36  C34 ZIN A   1      16.361  -6.169   8.279  0.00  0.00     0.454 C 
ATOM     37  F35 ZIN A   1      15.963  -6.712   7.052  0.00  0.00    -0.165 F 
ATOM     38  F36 ZIN A   1      16.537  -7.199   9.210  0.00  0.00    -0.165 F 
ATOM     39  F37 ZIN A   1      15.377  -5.288   8.740  0.00  0.00    -0.165 F 
ENDBRANCH  33  36
ENDBRANCH  32  33
ENDBRANCH  31  32
ENDBRANCH  30  31
ENDBRANCH  28  30
ENDBRANCH  27  28
ENDBRANCH  26  27
ENDBRANCH  25  26
ENDBRANCH  24  25
ENDBRANCH  23  24
ENDBRANCH  22  23
ENDBRANCH  21  22
ENDBRANCH  20  21
ENDBRANCH  19  20
ENDBRANCH  13  19
BRANCH   9  40
ATOM     40  O11 ZIN A   1      19.995  -3.342   9.967  0.00  0.00    -0.361 OA
ATOM     41  H56 ZIN A   1      19.317  -3.829   9.478  0.00  0.00     0.217 HD
ENDBRANCH   9  40
BRANCH  18  42
ATOM     42  O46 ZIN A   1      18.274   0.806  19.472  0.00  0.00    -0.395 OA
ATOM     43  H88 ZIN A   1      18.443   1.464  20.161  0.00  0.00     0.210 HD
ENDBRANCH  18  42
TORSDOF 17
ENDMDL
MODEL 2
REMARK VINA RESULT:      -8.3      2.728      5.238
REMARK  17 active torsions:
REMARK  status: ('A' for Active; 'I' for Inactive)
REMARK    1  A    between atoms: C10_9  and  O11_10 
REMARK    2  A    between atoms: C15_14  and  C17_15 
REMARK    3  A    between atoms: C17_15  and  C18_16 
REMARK    4  A    between atoms: C18_16  and  C19_17 
REMARK    5  A    between atoms: C19_17  and  C20_18 
REMARK    6  A    between atoms: C20_18  and  C21_19 
REMARK    7  A    between atoms: C21_19  and  C22_20 
REMARK    8  A    between atoms: C22_20  and  C23_21 
REMARK    9  A    between atoms: C23_21  and  C24_22 
REMARK   10  A    between atoms: C24_22  and  C25_23 
REMARK   11  A    between atoms: C25_23  and  S26_24 
REMARK   12  A    between atoms: S26_24  and  C28_26 
REMARK   13  A    between atoms: C28_26  and  C29_27 
REMARK   14  A    between atoms: C29_27  and  C30_28 
REMARK   15  A    between atoms: C30_28  and  C31_29 
REMARK   16  A    between atoms: C31_29  and  C34_32 
REMARK   17  A    between atoms: C44_40  and  O46_41 
ROOT
ATOM      1  C1  ZIN A   1      17.286   0.975  16.643  0.00  0.00     0.018 C 
ATOM      2  C2  ZIN A   1      18.778   0.685  16.469  0.00  0.00    -0.014 C 
ATOM      3  C3  ZIN A   1      19.554   1.985  16.488  0.00  0.00     0.013 C 
ATOM      4  C4  ZIN A   1      18.962   2.897  15.396  0.00  0.00     0.010 C 
ATOM      5  C5  ZIN A   1      19.017   2.213  14.037  0.00  0.00     0.024 C 
ATOM      6  C7  ZIN A   1      18.417   3.068  12.958  0.00  0.00    -0.047 A 
ATOM      7  C8  ZIN A   1      18.558   4.445  13.055  0.00  0.00     0.011 A 
ATOM      8  C9  ZIN A   1      18.034   5.274  12.086  0.00  0.00     0.037 A 
ATOM      9  C10 ZIN A   1      17.362   4.727  11.004  0.00  0.00     0.066 A 
ATOM     10  C12 ZIN A   1      17.217   3.354  10.909  0.00  0.00     0.044 A 
ATOM     11  C13 ZIN A   1      17.740   2.519  11.888  0.00  0.00    -0.048 A 
ATOM     12  C14 ZIN A   1      17.519   1.037  11.733  0.00  0.00     0.044 C 
ATOM     13  C15 ZIN A   1      18.429   0.239  12.666  0.00  0.00    -0.005 C 
ATOM     14  C38 ZIN A   1      18.310   0.852  14.061  0.00  0.00     0.003 C 
ATOM     15  C40 ZIN A   1      19.020   0.001  15.095  0.00  0.00     0.001 C 
ATOM     16  C42 ZIN A   1      18.449  -1.404  15.314  0.00  0.00     0.008 C 
ATOM     17  C43 ZIN A   1      18.929  -1.756  16.748  0.00  0.00     0.033 C 
ATOM     18  C44 ZIN A   1      19.213  -0.377  17.472  0.00  0.00     0.126 C 
ENDROOT
BRANCH  13  19
ATOM     19  C17 ZIN A   1      19.875   0.320  12.170  0.00  0.00     0.005 C 
BRANCH  19  20
ATOM     20  C18 ZIN A   1      20.220  -0.952  11.393  0.00  0.00     0.000 C 
BRANCH  20  21
ATOM     21  C19 ZIN A   1      19.212  -2.049  11.739  0.00  0.00     0.000 C 
BRANCH  21  22
ATOM     22  C20 ZIN A   1      19.941  -3.388  11.871  0.00  0.00     0.000 C 
BRANCH  22  23
ATOM     23  C21 ZIN A   1      19.178  -4.462  11.092  0.00  0.00     0.000 C 
BRANCH  23  24
ATOM     24  C22 ZIN A   1      17.825  -4.713  11.762  0.00  0.00     0.000 C 
BRANCH  24  25
ATOM     25  C23 ZIN A   1      16.819  -5.197  10.716  0.00  0.00     0.001 C 
BRANCH  25  26
ATOM     26  C24 ZIN A   1      17.509  -6.168   9.757  0.00  0.00     0.012 C 
BRANCH  26  27
ATOM     27  C25 ZIN A   1      17.264  -5.720   8.314  0.00  0.00     0.108 C 
BRANCH  27  28
ATOM     28  S26 ZIN A   1      18.840  -5.680   7.418  0.00  0.00     0.015 S 
ATOM     29  O27 ZIN A   1      18.833  -6.674   6.402  0.00  0.00    -0.258 OA
BRANCH  28  30
ATOM     30  C28 ZIN A   1      18.832  -4.035   6.653  0.00  0.00     0.109 C 
BRANCH  30  31
ATOM     31  C29 ZIN A   1      18.956  -2.966   7.741  0.00  0.00     0.019 C 
BRANCH  31  32
ATOM     32  C30 ZIN A   1      19.157  -1.596   7.090  0.00  0.00     0.090 C 
BRANCH  32  33
ATOM     33  C31 ZIN A   1      18.208  -0.583   7.730  0.00  0.00     0.339 C 
ATOM     34  F32 ZIN A   1      17.089  -0.408   6.909  0.00  0.00    -0.196 F 
ATOM     35  F33 ZIN A   1      17.798  -1.054   8.982  0.00  0.00    -0.196 F 
BRANCH  33  36
ATOM     36  C34 ZIN A   1      18.929   0.756   7.900  0.00  0.00     0.454 C 
ATOM     37  F35 ZIN A   1      20.094   0.566   8.652  0.00  0.00    -0.165 F 
ATOM     38  F36 ZIN A   1      19.264   1.270   6.643  0.00  0.00    -0.165 F 
ATOM     39  F37 ZIN A   1      18.089   1.657   8.563  0.00  0.00    -0.165 F 
ENDBRANCH  33  36
ENDBRANCH  32  33
ENDBRANCH  31  32
ENDBRANCH  30  31
ENDBRANCH  28  30
ENDBRANCH  27  28
ENDBRANCH  26  27
ENDBRANCH  25  26
ENDBRANCH  24  25
ENDBRANCH  23  24
ENDBRANCH  22  23
ENDBRANCH  21  22
ENDBRANCH  20  21
ENDBRANCH  19  20
ENDBRANCH  13  19
BRANCH   9  40
ATOM     40  O11 ZIN A   1      16.847   5.535  10.040  0.00  0.00    -0.361 OA
ATOM     41  H56 ZIN A   1      16.031   5.203   9.641  0.00  0.00     0.217 HD
ENDBRANCH   9  40
BRANCH  18  42
ATOM     42  O46 ZIN A   1      18.426  -0.271  18.660  0.00  0.00    -0.395 OA
ATOM     43  H88 ZIN A   1      17.864   0.516  18.690  0.00  0.00     0.210 HD
ENDBRANCH  18  42
TORSDOF 17
ENDMDL
MODEL 3
REMARK VINA RESULT:      -8.0      2.590      5.379
REMARK  17 active torsions:
REMARK  status: ('A' for Active; 'I' for Inactive)
REMARK    1  A    between atoms: C10_9  and  O11_10 
REMARK    2  A    between atoms: C15_14  and  C17_15 
REMARK    3  A    between atoms: C17_15  and  C18_16 
REMARK    4  A    between atoms: C18_16  and  C19_17 
REMARK    5  A    between atoms: C19_17  and  C20_18 
REMARK    6  A    between atoms: C20_18  and  C21_19 
REMARK    7  A    between atoms: C21_19  and  C22_20 
REMARK    8  A    between atoms: C22_20  and  C23_21 
REMARK    9  A    between atoms: C23_21  and  C24_22 
REMARK   10  A    between atoms: C24_22  and  C25_23 
REMARK   11  A    between atoms: C25_23  and  S26_24 
REMARK   12  A    between atoms: S26_24  and  C28_26 
REMARK   13  A    between atoms: C28_26  and  C29_27 
REMARK   14  A    between atoms: C29_27  and  C30_28 
REMARK   15  A    between atoms: C30_28  and  C31_29 
REMARK   16  A    between atoms: C31_29  and  C34_32 
REMARK   17  A    between atoms: C44_40  and  O46_41 
ROOT
ATOM      1  C1  ZIN A   1      17.315   2.935  11.955  0.00  0.00     0.018 C 
ATOM      2  C2  ZIN A   1      18.606   2.254  12.414  0.00  0.00    -0.014 C 
ATOM      3  C3  ZIN A   1      19.764   2.739  11.569  0.00  0.00     0.013 C 
ATOM      4  C4  ZIN A   1      19.407   2.474  10.093  0.00  0.00     0.010 C 
ATOM      5  C5  ZIN A   1      19.109   0.998   9.869  0.00  0.00     0.024 C 
ATOM      6  C7  ZIN A   1      18.728   0.717   8.444  0.00  0.00    -0.047 A 
ATOM      7  C8  ZIN A   1      19.321   1.471   7.443  0.00  0.00     0.011 A 
ATOM      8  C9  ZIN A   1      19.013   1.247   6.118  0.00  0.00     0.037 A 
ATOM      9  C10 ZIN A   1      18.101   0.257   5.783  0.00  0.00     0.066 A 
ATOM     10  C12 ZIN A   1      17.505  -0.492   6.782  0.00  0.00     0.044 A 
ATOM     11  C13 ZIN A   1      17.812  -0.262   8.117  0.00  0.00    -0.048 A 
ATOM     12  C14 ZIN A   1      17.102  -1.097   9.150  0.00  0.00     0.044 C 
ATOM     13  C15 ZIN A   1      17.780  -0.987  10.515  0.00  0.00    -0.005 C 
ATOM     14  C38 ZIN A   1      17.999   0.499  10.802  0.00  0.00     0.003 C 
ATOM     15  C40 ZIN A   1      18.481   0.717  12.222  0.00  0.00     0.001 C 
ATOM     16  C42 ZIN A   1      17.502   0.318  13.332  0.00  0.00     0.008 C 
ATOM     17  C43 ZIN A   1      17.970   1.180  14.536  0.00  0.00     0.033 C 
ATOM     18  C44 ZIN A   1      18.757   2.409  13.923  0.00  0.00     0.126 C 
ENDROOT
BRANCH  13  19
ATOM     19  C17 ZIN A   1      19.120  -1.726  10.487  0.00  0.00     0.005 C 
BRANCH  19  20
ATOM     20  C18 ZIN A   1      18.935  -3.139  11.044  0.00  0.00     0.000 C 
BRANCH  20  21
ATOM     21  C19 ZIN A   1      17.597  -3.224  11.782  0.00  0.00     0.000 C 
BRANCH  21  22
ATOM     22  C20 ZIN A   1      16.884  -4.521  11.394  0.00  0.00     0.000 C 
BRANCH  22  23
ATOM     23  C21 ZIN A   1      17.871  -5.454  10.690  0.00  0.00     0.000 C 
BRANCH  23  24
ATOM     24  C22 ZIN A   1      17.136  -6.251   9.608  0.00  0.00     0.000 C 
BRANCH  24  25
ATOM     25  C23 ZIN A   1      15.807  -5.565   9.284  0.00  0.00     0.001 C 
BRANCH  25  26
ATOM     26  C24 ZIN A   1      15.361  -5.959   7.875  0.00  0.00     0.012 C 
BRANCH  26  27
ATOM     27  C25 ZIN A   1      16.507  -6.678   7.160  0.00  0.00     0.108 C 
BRANCH  27  28
ATOM     28  S26 ZIN A   1      16.166  -6.738   5.380  0.00  0.00     0.015 S 
ATOM     29  O27 ZIN A   1      14.919  -6.109   5.115  0.00  0.00    -0.258 OA
BRANCH  28  30
ATOM     30  C28 ZIN A   1      17.507  -5.742   4.674  0.00  0.00     0.109 C 
BRANCH  30  31
ATOM     31  C29 ZIN A   1      17.498  -4.350   5.308  0.00  0.00     0.019 C 
BRANCH  31  32
ATOM     32  C30 ZIN A   1      18.935  -3.841   5.444  0.00  0.00     0.090 C 
BRANCH  32  33
ATOM     33  C31 ZIN A   1      19.299  -3.731   6.925  0.00  0.00     0.339 C 
ATOM     34  F32 ZIN A   1      19.939  -2.509   7.159  0.00  0.00    -0.196 F 
ATOM     35  F33 ZIN A   1      18.135  -3.803   7.698  0.00  0.00    -0.196 F 
BRANCH  33  36
ATOM     36  C34 ZIN A   1      20.237  -4.878   7.307  0.00  0.00     0.454 C 
ATOM     37  F35 ZIN A   1      21.540  -4.570   6.901  0.00  0.00    -0.165 F 
ATOM     38  F36 ZIN A   1      20.211  -5.061   8.694  0.00  0.00    -0.165 F 
ATOM     39  F37 ZIN A   1      19.817  -6.053   6.674  0.00  0.00    -0.165 F 
ENDBRANCH  33  36
ENDBRANCH  32  33
ENDBRANCH  31  32
ENDBRANCH  30  31
ENDBRANCH  28  30
ENDBRANCH  27  28
ENDBRANCH  26  27
ENDBRANCH  25  26
ENDBRANCH  24  25
ENDBRANCH  23  24
ENDBRANCH  22  23
ENDBRANCH  21  22
ENDBRANCH  20  21
ENDBRANCH  19  20
ENDBRANCH  13  19
BRANCH   9  40
ATOM     40  O11 ZIN A   1      17.795   0.023   4.480  0.00  0.00    -0.361 OA
ATOM     41  H56 ZIN A   1      17.176  -0.708   4.345  0.00  0.00     0.217 HD
ENDBRANCH   9  40
BRANCH  18  42
ATOM     42  O46 ZIN A   1      18.163   3.638  14.344  0.00  0.00    -0.395 OA
ATOM     43  H88 ZIN A   1      18.177   3.773  15.302  0.00  0.00     0.210 HD
ENDBRANCH  18  42
TORSDOF 17
ENDMDL
MODEL 4
REMARK VINA RESULT:      -8.0      2.195      3.816
REMARK  17 active torsions:
REMARK  status: ('A' for Active; 'I' for Inactive)
REMARK    1  A    between atoms: C10_9  and  O11_10 
REMARK    2  A    between atoms: C15_14  and  C17_15 
REMARK    3  A    between atoms: C17_15  and  C18_16 
REMARK    4  A    between atoms: C18_16  and  C19_17 
REMARK    5  A    between atoms: C19_17  and  C20_18 
REMARK    6  A    between atoms: C20_18  and  C21_19 
REMARK    7  A    between atoms: C21_19  and  C22_20 
REMARK    8  A    between atoms: C22_20  and  C23_21 
REMARK    9  A    between atoms: C23_21  and  C24_22 
REMARK   10  A    between atoms: C24_22  and  C25_23 
REMARK   11  A    between atoms: C25_23  and  S26_24 
REMARK   12  A    between atoms: S26_24  and  C28_26 
REMARK   13  A    between atoms: C28_26  and  C29_27 
REMARK   14  A    between atoms: C29_27  and  C30_28 
REMARK   15  A    between atoms: C30_28  and  C31_29 
REMARK   16  A    between atoms: C31_29  and  C34_32 
REMARK   17  A    between atoms: C44_40  and  O46_41 
ROOT
ATOM      1  C1  ZIN A   1      17.307   1.153  16.950  0.00  0.00     0.018 C 
ATOM      2  C2  ZIN A   1      18.800   0.841  16.828  0.00  0.00    -0.014 C 
ATOM      3  C3  ZIN A   1      19.583   2.134  16.737  0.00  0.00     0.013 C 
ATOM      4  C4  ZIN A   1      19.013   2.941  15.554  0.00  0.00     0.010 C 
ATOM      5  C5  ZIN A   1      19.086   2.131  14.267  0.00  0.00     0.024 C 
ATOM      6  C7  ZIN A   1      18.509   2.882  13.102  0.00  0.00    -0.047 A 
ATOM      7  C8  ZIN A   1      18.655   4.262  13.071  0.00  0.00     0.011 A 
ATOM      8  C9  ZIN A   1      18.152   4.998  12.020  0.00  0.00     0.037 A 
ATOM      9  C10 ZIN A   1      17.493   4.354  10.983  0.00  0.00     0.066 A 
ATOM     10  C12 ZIN A   1      17.343   2.978  11.016  0.00  0.00     0.044 A 
ATOM     11  C13 ZIN A   1      17.845   2.238  12.078  0.00  0.00    -0.048 A 
ATOM     12  C14 ZIN A   1      17.618   0.749  12.060  0.00  0.00     0.044 C 
ATOM     13  C15 ZIN A   1      18.508   0.038  13.079  0.00  0.00    -0.005 C 
ATOM     14  C38 ZIN A   1      18.371   0.781  14.408  0.00  0.00     0.003 C 
ATOM     15  C40 ZIN A   1      19.059   0.029  15.529  0.00  0.00     0.001 C 
ATOM     16  C42 ZIN A   1      18.477  -1.347  15.870  0.00  0.00     0.008 C 
ATOM     17  C43 ZIN A   1      18.932  -1.564  17.339  0.00  0.00     0.033 C 
ATOM     18  C44 ZIN A   1      19.212  -0.123  17.934  0.00  0.00     0.126 C 
ENDROOT
BRANCH  13  19
ATOM     19  C17 ZIN A   1      19.962   0.067  12.602  0.00  0.00     0.005 C 
BRANCH  19  20
ATOM     20  C18 ZIN A   1      20.120  -0.857  11.392  0.00  0.00     0.000 C 
BRANCH  20  21
ATOM     21  C19 ZIN A   1      20.591  -0.042  10.186  0.00  0.00     0.000 C 
BRANCH  21  22
ATOM     22  C20 ZIN A   1      19.780  -0.441   8.952  0.00  0.00     0.000 C 
BRANCH  22  23
ATOM     23  C21 ZIN A   1      19.007   0.774   8.436  0.00  0.00     0.000 C 
BRANCH  23  24
ATOM     24  C22 ZIN A   1      19.047   0.792   6.905  0.00  0.00     0.000 C 
BRANCH  24  25
ATOM     25  C23 ZIN A   1      17.684   0.367   6.354  0.00  0.00     0.001 C 
BRANCH  25  26
ATOM     26  C24 ZIN A   1      17.655  -1.152   6.182  0.00  0.00     0.012 C 
BRANCH  26  27
ATOM     27  C25 ZIN A   1      18.997  -1.629   5.623  0.00  0.00     0.108 C 
BRANCH  27  28
ATOM     28  S26 ZIN A   1      19.221  -3.388   6.003  0.00  0.00     0.015 S 
ATOM     29  O27 ZIN A   1      20.548  -3.608   6.460  0.00  0.00    -0.258 OA
BRANCH  28  30
ATOM     30  C28 ZIN A   1      18.058  -3.662   7.367  0.00  0.00     0.109 C 
BRANCH  30  31
ATOM     31  C29 ZIN A   1      18.837  -3.883   8.665  0.00  0.00     0.019 C 
BRANCH  31  32
ATOM     32  C30 ZIN A   1      17.934  -3.577   9.862  0.00  0.00     0.090 C 
BRANCH  32  33
ATOM     33  C31 ZIN A   1      18.378  -4.412  11.063  0.00  0.00     0.339 C 
ATOM     34  F32 ZIN A   1      19.595  -5.037  10.773  0.00  0.00    -0.196 F 
ATOM     35  F33 ZIN A   1      18.535  -3.580  12.177  0.00  0.00    -0.196 F 
BRANCH  33  36
ATOM     36  C34 ZIN A   1      17.319  -5.475  11.365  0.00  0.00     0.454 C 
ATOM     37  F35 ZIN A   1      17.394  -6.493  10.408  0.00  0.00    -0.165 F 
ATOM     38  F36 ZIN A   1      17.546  -6.012  12.637  0.00  0.00    -0.165 F 
ATOM     39  F37 ZIN A   1      16.048  -4.891  11.326  0.00  0.00    -0.165 F 
ENDBRANCH  33  36
ENDBRANCH  32  33
ENDBRANCH  31  32
ENDBRANCH  30  31
ENDBRANCH  28  30
ENDBRANCH  27  28
ENDBRANCH  26  27
ENDBRANCH  25  26
ENDBRANCH  24  25
ENDBRANCH  23  24
ENDBRANCH  22  23
ENDBRANCH  21  22
ENDBRANCH  20  21
ENDBRANCH  19  20
ENDBRANCH  13  19
BRANCH   9  40
ATOM     40  O11 ZIN A   1      16.999   5.069   9.939  0.00  0.00    -0.361 OA
ATOM     41  H56 ZIN A   1      16.047   4.964   9.804  0.00  0.00     0.217 HD
ENDBRANCH   9  40
BRANCH  18  42
ATOM     42  O46 ZIN A   1      18.408   0.098  19.094  0.00  0.00    -0.395 OA
ATOM     43  H88 ZIN A   1      18.885  -0.005  19.929  0.00  0.00     0.210 HD
ENDBRANCH  18  42
TORSDOF 17
ENDMDL
MODEL 5
REMARK VINA RESULT:      -7.9      5.096     10.303
REMARK  17 active torsions:
REMARK  status: ('A' for Active; 'I' for Inactive)
REMARK    1  A    between atoms: C10_9  and  O11_10 
REMARK    2  A    between atoms: C15_14  and  C17_15 
REMARK    3  A    between atoms: C17_15  and  C18_16 
REMARK    4  A    between atoms: C18_16  and  C19_17 
REMARK    5  A    between atoms: C19_17  and  C20_18 
REMARK    6  A    between atoms: C20_18  and  C21_19 
REMARK    7  A    between atoms: C21_19  and  C22_20 
REMARK    8  A    between atoms: C22_20  and  C23_21 
REMARK    9  A    between atoms: C23_21  and  C24_22 
REMARK   10  A    between atoms: C24_22  and  C25_23 
REMARK   11  A    between atoms: C25_23  and  S26_24 
REMARK   12  A    between atoms: S26_24  and  C28_26 
REMARK   13  A    between atoms: C28_26  and  C29_27 
REMARK   14  A    between atoms: C29_27  and  C30_28 
REMARK   15  A    between atoms: C30_28  and  C31_29 
REMARK   16  A    between atoms: C31_29  and  C34_32 
REMARK   17  A    between atoms: C44_40  and  O46_41 
ROOT
ATOM      1  C1  ZIN A   1      19.465  -0.665   5.516  0.00  0.00     0.018 C 
ATOM      2  C2  ZIN A   1      18.172  -1.335   5.986  0.00  0.00    -0.014 C 
ATOM      3  C3  ZIN A   1      17.110  -0.282   6.221  0.00  0.00     0.013 C 
ATOM      4  C4  ZIN A   1      17.683   0.743   7.219  0.00  0.00     0.010 C 
ATOM      5  C5  ZIN A   1      18.107   0.056   8.510  0.00  0.00     0.024 C 
ATOM      6  C7  ZIN A   1      18.698   1.027   9.490  0.00  0.00    -0.047 A 
ATOM      7  C8  ZIN A   1      18.197   2.321   9.517  0.00  0.00     0.011 A 
ATOM      8  C9  ZIN A   1      18.698   3.250  10.405  0.00  0.00     0.037 A 
ATOM      9  C10 ZIN A   1      19.711   2.887  11.279  0.00  0.00     0.066 A 
ATOM     10  C12 ZIN A   1      20.215   1.598  11.249  0.00  0.00     0.044 A 
ATOM     11  C13 ZIN A   1      19.713   0.665  10.351  0.00  0.00    -0.048 A 
ATOM     12  C14 ZIN A   1      20.330  -0.710  10.356  0.00  0.00     0.044 C 
ATOM     13  C15 ZIN A   1      19.465  -1.710   9.588  0.00  0.00    -0.005 C 
ATOM     14  C38 ZIN A   1      19.110  -1.074   8.244  0.00  0.00     0.003 C 
ATOM     15  C40 ZIN A   1      18.425  -2.071   7.331  0.00  0.00     0.001 C 
ATOM     16  C42 ZIN A   1      19.267  -3.277   6.902  0.00  0.00     0.008 C 
ATOM     17  C43 ZIN A   1      18.583  -3.729   5.583  0.00  0.00     0.033 C 
ATOM     18  C44 ZIN A   1      17.806  -2.464   5.030  0.00  0.00     0.126 C 
ENDROOT
BRANCH  13  19
ATOM     19  C17 ZIN A   1      18.195  -2.012  10.386  0.00  0.00     0.005 C 
BRANCH  19  20
ATOM     20  C18 ZIN A   1      18.507  -3.046  11.470  0.00  0.00     0.000 C 
BRANCH  20  21
ATOM     21  C19 ZIN A   1      18.146  -2.471  12.841  0.00  0.00     0.000 C 
BRANCH  21  22
ATOM     22  C20 ZIN A   1      19.315  -1.636  13.367  0.00  0.00     0.000 C 
BRANCH  22  23
ATOM     23  C21 ZIN A   1      18.773  -0.403  14.094  0.00  0.00     0.000 C 
BRANCH  23  24
ATOM     24  C22 ZIN A   1      18.002  -0.844  15.341  0.00  0.00     0.000 C 
BRANCH  24  25
ATOM     25  C23 ZIN A   1      18.990  -1.280  16.425  0.00  0.00     0.001 C 
BRANCH  25  26
ATOM     26  C24 ZIN A   1      18.702  -0.511  17.715  0.00  0.00     0.012 C 
BRANCH  26  27
ATOM     27  C25 ZIN A   1      17.849   0.718  17.397  0.00  0.00     0.108 C 
BRANCH  27  28
ATOM     28  S26 ZIN A   1      18.741   2.218  17.889  0.00  0.00     0.015 S 
ATOM     29  O27 ZIN A   1      19.846   1.864  18.710  0.00  0.00    -0.258 OA
BRANCH  28  30
ATOM     30  C28 ZIN A   1      19.346   2.869  16.308  0.00  0.00     0.109 C 
BRANCH  30  31
ATOM     31  C29 ZIN A   1      19.623   4.368  16.445  0.00  0.00     0.019 C 
BRANCH  31  32
ATOM     32  C30 ZIN A   1      18.327   5.149  16.216  0.00  0.00     0.090 C 
BRANCH  32  33
ATOM     33  C31 ZIN A   1      18.526   6.142  15.070  0.00  0.00     0.339 C 
ATOM     34  F32 ZIN A   1      18.614   7.439  15.585  0.00  0.00    -0.196 F 
ATOM     35  F33 ZIN A   1      19.705   5.831  14.383  0.00  0.00    -0.196 F 
BRANCH  33  36
ATOM     36  C34 ZIN A   1      17.338   6.055  14.109  0.00  0.00     0.454 C 
ATOM     37  F35 ZIN A   1      16.830   7.339  13.879  0.00  0.00    -0.165 F 
ATOM     38  F36 ZIN A   1      17.757   5.495  12.897  0.00  0.00    -0.165 F 
ATOM     39  F37 ZIN A   1      16.340   5.253  14.672  0.00  0.00    -0.165 F 
ENDBRANCH  33  36
ENDBRANCH  32  33
ENDBRANCH  31  32
ENDBRANCH  30  31
ENDBRANCH  28  30
ENDBRANCH  27  28
ENDBRANCH  26  27
ENDBRANCH  25  26
ENDBRANCH  24  25
ENDBRANCH  23  24
ENDBRANCH  22  23
ENDBRANCH  21  22
ENDBRANCH  20  21
ENDBRANCH  19  20
ENDBRANCH  13  19
BRANCH   9  40
ATOM     40  O11 ZIN A   1      20.208   3.792  12.163  0.00  0.00    -0.361 OA
ATOM     41  H56 ZIN A   1      21.169   3.756  12.267  0.00  0.00     0.217 HD
ENDBRANCH   9  40
BRANCH  18  42
ATOM     42  O46 ZIN A   1      18.254  -2.146   3.711  0.00  0.00    -0.395 OA
ATOM     43  H88 ZIN A   1      19.204  -2.269   3.578  0.00  0.00     0.210 HD
ENDBRANCH  18  42
TORSDOF 17
ENDMDL
MODEL 6
REMARK VINA RESULT:      -7.7      2.463      6.331
REMARK  17 active torsions:
REMARK  status: ('A' for Active; 'I' for Inactive)
REMARK    1  A    between atoms: C10_9  and  O11_10 
REMARK    2  A    between atoms: C15_14  and  C17_15 
REMARK    3  A    between atoms: C17_15  and  C18_16 
REMARK    4  A    between atoms: C18_16  and  C19_17 
REMARK    5  A    between atoms: C19_17  and  C20_18 
REMARK    6  A    between atoms: C20_18  and  C21_19 
REMARK    7  A    between atoms: C21_19  and  C22_20 
REMARK    8  A    between atoms: C22_20  and  C23_21 
REMARK    9  A    between atoms: C23_21  and  C24_22 
REMARK   10  A    between atoms: C24_22  and  C25_23 
REMARK   11  A    between atoms: C25_23  and  S26_24 
REMARK   12  A    between atoms: S26_24  and  C28_26 
REMARK   13  A    between atoms: C28_26  and  C29_27 
REMARK   14  A    between atoms: C29_27  and  C30_28 
REMARK   15  A    between atoms: C30_28  and  C31_29 
REMARK   16  A    between atoms: C31_29  and  C34_32 
REMARK   17  A    between atoms: C44_40  and  O46_41 
ROOT
ATOM      1  C1  ZIN A   1      19.709   1.370   9.862  0.00  0.00     0.018 C 
ATOM      2  C2  ZIN A   1      18.421   0.670   9.423  0.00  0.00    -0.014 C 
ATOM      3  C3  ZIN A   1      17.238   1.287  10.138  0.00  0.00     0.013 C 
ATOM      4  C4  ZIN A   1      17.513   1.202  11.652  0.00  0.00     0.010 C 
ATOM      5  C5  ZIN A   1      17.751  -0.241  12.074  0.00  0.00     0.024 C 
ATOM      6  C7  ZIN A   1      18.052  -0.350  13.541  0.00  0.00    -0.047 A 
ATOM      7  C8  ZIN A   1      17.434   0.540  14.408  0.00  0.00     0.011 A 
ATOM      8  C9  ZIN A   1      17.668   0.476  15.765  0.00  0.00     0.037 A 
ATOM      9  C10 ZIN A   1      18.529  -0.486  16.269  0.00  0.00     0.066 A 
ATOM     10  C12 ZIN A   1      19.150  -1.372  15.404  0.00  0.00     0.044 A 
ATOM     11  C13 ZIN A   1      18.918  -1.303  14.037  0.00  0.00    -0.048 A 
ATOM     12  C14 ZIN A   1      19.651  -2.280  13.155  0.00  0.00     0.044 C 
ATOM     13  C15 ZIN A   1      19.046  -2.326  11.752  0.00  0.00    -0.005 C 
ATOM     14  C38 ZIN A   1      18.890  -0.883  11.271  0.00  0.00     0.003 C 
ATOM     15  C40 ZIN A   1      18.486  -0.834   9.812  0.00  0.00     0.001 C 
ATOM     16  C42 ZIN A   1      19.506  -1.395   8.814  0.00  0.00     0.008 C 
ATOM     17  C43 ZIN A   1      19.127  -0.680   7.489  0.00  0.00     0.033 C 
ATOM     18  C44 ZIN A   1      18.351   0.637   7.901  0.00  0.00     0.126 C 
ENDROOT
BRANCH  13  19
ATOM     19  C17 ZIN A   1      17.683  -3.020  11.801  0.00  0.00     0.005 C 
BRANCH  19  20
ATOM     20  C18 ZIN A   1      17.875  -4.531  11.657  0.00  0.00     0.000 C 
BRANCH  20  21
ATOM     21  C19 ZIN A   1      19.089  -4.808  10.769  0.00  0.00     0.000 C 
BRANCH  21  22
ATOM     22  C20 ZIN A   1      18.621  -5.383   9.430  0.00  0.00     0.000 C 
BRANCH  22  23
ATOM     23  C21 ZIN A   1      17.346  -6.201   9.646  0.00  0.00     0.000 C 
BRANCH  23  24
ATOM     24  C22 ZIN A   1      17.057  -7.034   8.394  0.00  0.00     0.000 C 
BRANCH  24  25
ATOM     25  C23 ZIN A   1      15.626  -6.767   7.923  0.00  0.00     0.001 C 
BRANCH  25  26
ATOM     26  C24 ZIN A   1      15.652  -6.231   6.491  0.00  0.00     0.012 C 
BRANCH  26  27
ATOM     27  C25 ZIN A   1      16.119  -7.336   5.541  0.00  0.00     0.108 C 
BRANCH  27  28
ATOM     28  S26 ZIN A   1      16.401  -6.636   3.892  0.00  0.00     0.015 S 
ATOM     29  O27 ZIN A   1      15.800  -7.474   2.913  0.00  0.00    -0.258 OA
BRANCH  28  30
ATOM     30  C28 ZIN A   1      15.514  -5.056   3.962  0.00  0.00     0.109 C 
BRANCH  30  31
ATOM     31  C29 ZIN A   1      16.375  -3.959   3.331  0.00  0.00     0.019 C 
BRANCH  31  32
ATOM     32  C30 ZIN A   1      17.852  -4.247   3.607  0.00  0.00     0.090 C 
BRANCH  32  33
ATOM     33  C31 ZIN A   1      18.383  -3.245   4.633  0.00  0.00     0.339 C 
ATOM     34  F32 ZIN A   1      19.488  -2.573   4.100  0.00  0.00    -0.196 F 
ATOM     35  F33 ZIN A   1      17.381  -2.320   4.944  0.00  0.00    -0.196 F 
BRANCH  33  36
ATOM     36  C34 ZIN A   1      18.803  -3.989   5.903  0.00  0.00     0.454 C 
ATOM     37  F35 ZIN A   1      20.073  -3.555   6.300  0.00  0.00    -0.165 F 
ATOM     38  F36 ZIN A   1      17.881  -3.729   6.923  0.00  0.00    -0.165 F 
ATOM     39  F37 ZIN A   1      18.840  -5.364   5.647  0.00  0.00    -0.165 F 
ENDBRANCH  33  36
ENDBRANCH  32  33
ENDBRANCH  31  32
ENDBRANCH  30  31
ENDBRANCH  28  30
ENDBRANCH  27  28
ENDBRANCH  26  27
ENDBRANCH  25  26
ENDBRANCH  24  25
ENDBRANCH  23  24
ENDBRANCH  22  23
ENDBRANCH  21  22
ENDBRANCH  20  21
ENDBRANCH  19  20
ENDBRANCH  13  19
BRANCH   9  40
ATOM     40  O11 ZIN A   1      18.763  -0.562  17.605  0.00  0.00    -0.361 OA
ATOM     41  H56 ZIN A   1      18.428  -1.370  18.019  0.00  0.00     0.217 HD
ENDBRANCH   9  40
BRANCH  18  42
ATOM     42  O46 ZIN A   1      19.005   1.787   7.362  0.00  0.00    -0.395 OA
ATOM     43  H88 ZIN A   1      18.440   2.569   7.302  0.00  0.00     0.210 HD
ENDBRANCH  18  42
TORSDOF 17
ENDMDL
MODEL 7
REMARK VINA RESULT:      -7.6      3.758      7.661
REMARK  17 active torsions:
REMARK  status: ('A' for Active; 'I' for Inactive)
REMARK    1  A    between atoms: C10_9  and  O11_10 
REMARK    2  A    between atoms: C15_14  and  C17_15 
REMARK    3  A    between atoms: C17_15  and  C18_16 
REMARK    4  A    between atoms: C18_16  and  C19_17 
REMARK    5  A    between atoms: C19_17  and  C20_18 
REMARK    6  A    between atoms: C20_18  and  C21_19 
REMARK    7  A    between atoms: C21_19  and  C22_20 
REMARK    8  A    between atoms: C22_20  and  C23_21 
REMARK    9  A    between atoms: C23_21  and  C24_22 
REMARK   10  A    between atoms: C24_22  and  C25_23 
REMARK   11  A    between atoms: C25_23  and  S26_24 
REMARK   12  A    between atoms: S26_24  and  C28_26 
REMARK   13  A    between atoms: C28_26  and  C29_27 
REMARK   14  A    between atoms: C29_27  and  C30_28 
REMARK   15  A    between atoms: C30_28  and  C31_29 
REMARK   16  A    between atoms: C31_29  and  C34_32 
REMARK   17  A    between atoms: C44_40  and  O46_41 
ROOT
ATOM      1  C1  ZIN A   1      19.512  -0.461   5.725  0.00  0.00     0.018 C 
ATOM      2  C2  ZIN A   1      18.250  -1.210   6.156  0.00  0.00    -0.014 C 
ATOM      3  C3  ZIN A   1      17.130  -0.221   6.399  0.00  0.00     0.013 C 
ATOM      4  C4  ZIN A   1      17.631   0.806   7.433  0.00  0.00     0.010 C 
ATOM      5  C5  ZIN A   1      18.071   0.109   8.713  0.00  0.00     0.024 C 
ATOM      6  C7  ZIN A   1      18.594   1.085   9.727  0.00  0.00    -0.047 A 
ATOM      7  C8  ZIN A   1      18.025   2.349   9.778  0.00  0.00     0.011 A 
ATOM      8  C9  ZIN A   1      18.462   3.279  10.697  0.00  0.00     0.037 A 
ATOM      9  C10 ZIN A   1      19.479   2.948  11.579  0.00  0.00     0.066 A 
ATOM     10  C12 ZIN A   1      20.051   1.689  11.525  0.00  0.00     0.044 A 
ATOM     11  C13 ZIN A   1      19.614   0.754  10.595  0.00  0.00    -0.048 A 
ATOM     12  C14 ZIN A   1      20.303  -0.586  10.576  0.00  0.00     0.044 C 
ATOM     13  C15 ZIN A   1      19.505  -1.609   9.769  0.00  0.00    -0.005 C 
ATOM     14  C38 ZIN A   1      19.137  -0.959   8.436  0.00  0.00     0.003 C 
ATOM     15  C40 ZIN A   1      18.520  -1.966   7.487  0.00  0.00     0.001 C 
ATOM     16  C42 ZIN A   1      19.432  -3.115   7.041  0.00  0.00     0.008 C 
ATOM     17  C43 ZIN A   1      18.794  -3.568   5.701  0.00  0.00     0.033 C 
ATOM     18  C44 ZIN A   1      17.959  -2.332   5.167  0.00  0.00     0.126 C 
ENDROOT
BRANCH  13  19
ATOM     19  C17 ZIN A   1      18.240  -1.999  10.537  0.00  0.00     0.005 C 
BRANCH  19  20
ATOM     20  C18 ZIN A   1      18.576  -3.095  11.550  0.00  0.00     0.000 C 
BRANCH  20  21
ATOM     21  C19 ZIN A   1      19.372  -4.203  10.857  0.00  0.00     0.000 C 
BRANCH  21  22
ATOM     22  C20 ZIN A   1      18.440  -5.372  10.530  0.00  0.00     0.000 C 
BRANCH  22  23
ATOM     23  C21 ZIN A   1      18.835  -5.975   9.181  0.00  0.00     0.000 C 
BRANCH  23  24
ATOM     24  C22 ZIN A   1      17.596  -6.085   8.289  0.00  0.00     0.000 C 
BRANCH  24  25
ATOM     25  C23 ZIN A   1      16.487  -5.187   8.843  0.00  0.00     0.001 C 
BRANCH  25  26
ATOM     26  C24 ZIN A   1      15.127  -5.827   8.564  0.00  0.00     0.012 C 
BRANCH  26  27
ATOM     27  C25 ZIN A   1      15.323  -7.110   7.753  0.00  0.00     0.108 C 
BRANCH  27  28
ATOM     28  S26 ZIN A   1      13.753  -7.580   6.976  0.00  0.00     0.015 S 
ATOM     29  O27 ZIN A   1      12.776  -6.582   7.239  0.00  0.00    -0.258 OA
BRANCH  28  30
ATOM     30  C28 ZIN A   1      14.157  -7.579   5.208  0.00  0.00     0.109 C 
BRANCH  30  31
ATOM     31  C29 ZIN A   1      13.737  -6.245   4.588  0.00  0.00     0.019 C 
BRANCH  31  32
ATOM     32  C30 ZIN A   1      14.598  -5.959   3.356  0.00  0.00     0.090 C 
BRANCH  32  33
ATOM     33  C31 ZIN A   1      15.839  -5.170   3.774  0.00  0.00     0.339 C 
ATOM     34  F32 ZIN A   1      15.851  -3.935   3.116  0.00  0.00    -0.196 F 
ATOM     35  F33 ZIN A   1      15.815  -4.961   5.157  0.00  0.00    -0.196 F 
BRANCH  33  36
ATOM     36  C34 ZIN A   1      17.096  -5.959   3.399  0.00  0.00     0.454 C 
ATOM     37  F35 ZIN A   1      16.757  -6.975   2.499  0.00  0.00    -0.165 F 
ATOM     38  F36 ZIN A   1      18.027  -5.100   2.804  0.00  0.00    -0.165 F 
ATOM     39  F37 ZIN A   1      17.652  -6.523   4.551  0.00  0.00    -0.165 F 
ENDBRANCH  33  36
ENDBRANCH  32  33
ENDBRANCH  31  32
ENDBRANCH  30  31
ENDBRANCH  28  30
ENDBRANCH  27  28
ENDBRANCH  26  27
ENDBRANCH  25  26
ENDBRANCH  24  25
ENDBRANCH  23  24
ENDBRANCH  22  23
ENDBRANCH  21  22
ENDBRANCH  20  21
ENDBRANCH  19  20
ENDBRANCH  13  19
BRANCH   9  40
ATOM     40  O11 ZIN A   1      19.913   3.855  12.493  0.00  0.00    -0.361 OA
ATOM     41  H56 ZIN A   1      20.779   3.650  12.872  0.00  0.00     0.217 HD
ENDBRANCH   9  40
BRANCH  18  42
ATOM     42  O46 ZIN A   1      18.410  -1.957   3.864  0.00  0.00    -0.395 OA
ATOM     43  H88 ZIN A   1      17.697  -1.841   3.220  0.00  0.00     0.210 HD
ENDBRANCH  18  42
TORSDOF 17
ENDMDL
MODEL 8
REMARK VINA RESULT:      -7.5      2.955      6.654
REMARK  17 active torsions:
REMARK  status: ('A' for Active; 'I' for Inactive)
REMARK    1  A    between atoms: C10_9  and  O11_10 
REMARK    2  A    between atoms: C15_14  and  C17_15 
REMARK    3  A    between atoms: C17_15  and  C18_16 
REMARK    4  A    between atoms: C18_16  and  C19_17 
REMARK    5  A    between atoms: C19_17  and  C20_18 
REMARK    6  A    between atoms: C20_18  and  C21_19 
REMARK    7  A    between atoms: C21_19  and  C22_20 
REMARK    8  A    between atoms: C22_20  and  C23_21 
REMARK    9  A    between atoms: C23_21  and  C24_22 
REMARK   10  A    between atoms: C24_22  and  C25_23 
REMARK   11  A    between atoms: C25_23  and  S26_24 
REMARK   12  A    between atoms: S26_24  and  C28_26 
REMARK   13  A    between atoms: C28_26  and  C29_27 
REMARK   14  A    between atoms: C29_27  and  C30_28 
REMARK   15  A    between atoms: C30_28  and  C31_29 
REMARK   16  A    between atoms: C31_29  and  C34_32 
REMARK   17  A    between atoms: C44_40  and  O46_41 
ROOT
ATOM      1  C1  ZIN A   1      19.473   4.211  11.165  0.00  0.00     0.018 C 
ATOM      2  C2  ZIN A   1      18.312   3.216  11.221  0.00  0.00    -0.014 C 
ATOM      3  C3  ZIN A   1      17.014   3.961  11.450  0.00  0.00     0.013 C 
ATOM      4  C4  ZIN A   1      17.179   4.802  12.730  0.00  0.00     0.010 C 
ATOM      5  C5  ZIN A   1      17.550   3.916  13.911  0.00  0.00     0.024 C 
ATOM      6  C7  ZIN A   1      17.747   4.714  15.167  0.00  0.00    -0.047 A 
ATOM      7  C8  ZIN A   1      16.966   5.844  15.358  0.00  0.00     0.011 A 
ATOM      8  C9  ZIN A   1      17.100   6.607  16.498  0.00  0.00     0.037 A 
ATOM      9  C10 ZIN A   1      18.026   6.241  17.464  0.00  0.00     0.066 A 
ATOM     10  C12 ZIN A   1      18.810   5.116  17.272  0.00  0.00     0.044 A 
ATOM     11  C13 ZIN A   1      18.677   4.352  16.120  0.00  0.00    -0.048 A 
ATOM     12  C14 ZIN A   1      19.584   3.159  15.966  0.00  0.00     0.044 C 
ATOM     13  C15 ZIN A   1      19.097   2.230  14.854  0.00  0.00    -0.005 C 
ATOM     14  C38 ZIN A   1      18.813   3.094  13.625  0.00  0.00     0.003 C 
ATOM     15  C40 ZIN A   1      18.520   2.237  12.410  0.00  0.00     0.001 C 
ATOM     16  C42 ZIN A   1      19.671   1.352  11.919  0.00  0.00     0.008 C 
ATOM     17  C43 ZIN A   1      19.316   1.113  10.427  0.00  0.00     0.033 C 
ATOM     18  C44 ZIN A   1      18.363   2.303  10.001  0.00  0.00     0.126 C 
ENDROOT
BRANCH  13  19
ATOM     19  C17 ZIN A   1      17.824   1.510  15.303  0.00  0.00     0.005 C 
BRANCH  19  20
ATOM     20  C18 ZIN A   1      18.139   0.625  16.511  0.00  0.00     0.000 C 
BRANCH  20  21
ATOM     21  C19 ZIN A   1      17.854  -0.837  16.160  0.00  0.00     0.000 C 
BRANCH  21  22
ATOM     22  C20 ZIN A   1      17.959  -1.027  14.646  0.00  0.00     0.000 C 
BRANCH  22  23
ATOM     23  C21 ZIN A   1      19.348  -1.565  14.295  0.00  0.00     0.000 C 
BRANCH  23  24
ATOM     24  C22 ZIN A   1      19.365  -2.019  12.833  0.00  0.00     0.000 C 
BRANCH  24  25
ATOM     25  C23 ZIN A   1      17.951  -1.926  12.254  0.00  0.00     0.001 C 
BRANCH  25  26
ATOM     26  C24 ZIN A   1      17.787  -2.965  11.143  0.00  0.00     0.012 C 
BRANCH  26  27
ATOM     27  C25 ZIN A   1      19.129  -3.652  10.885  0.00  0.00     0.108 C 
BRANCH  27  28
ATOM     28  S26 ZIN A   1      18.962  -4.801   9.492  0.00  0.00     0.015 S 
ATOM     29  O27 ZIN A   1      18.082  -5.857   9.852  0.00  0.00    -0.258 OA
BRANCH  28  30
ATOM     30  C28 ZIN A   1      18.187  -3.779   8.210  0.00  0.00     0.109 C 
BRANCH  30  31
ATOM     31  C29 ZIN A   1      19.232  -2.840   7.604  0.00  0.00     0.019 C 
BRANCH  31  32
ATOM     32  C30 ZIN A   1      18.881  -1.391   7.952  0.00  0.00     0.090 C 
BRANCH  32  33
ATOM     33  C31 ZIN A   1      18.939  -0.535   6.686  0.00  0.00     0.339 C 
ATOM     34  F32 ZIN A   1      19.640   0.646   6.953  0.00  0.00    -0.196 F 
ATOM     35  F33 ZIN A   1      19.591  -1.245   5.672  0.00  0.00    -0.196 F 
BRANCH  33  36
ATOM     36  C34 ZIN A   1      17.517  -0.193   6.236  0.00  0.00     0.454 C 
ATOM     37  F35 ZIN A   1      17.497   1.097   5.695  0.00  0.00    -0.165 F 
ATOM     38  F36 ZIN A   1      17.099  -1.112   5.267  0.00  0.00    -0.165 F 
ATOM     39  F37 ZIN A   1      16.654  -0.251   7.336  0.00  0.00    -0.165 F 
ENDBRANCH  33  36
ENDBRANCH  32  33
ENDBRANCH  31  32
ENDBRANCH  30  31
ENDBRANCH  28  30
ENDBRANCH  27  28
ENDBRANCH  26  27
ENDBRANCH  25  26
ENDBRANCH  24  25
ENDBRANCH  23  24
ENDBRANCH  22  23
ENDBRANCH  21  22
ENDBRANCH  20  21
ENDBRANCH  19  20
ENDBRANCH  13  19
BRANCH   9  40
ATOM     40  O11 ZIN A   1      18.163   6.982  18.595  0.00  0.00    -0.361 OA
ATOM     41  H56 ZIN A   1      17.764   7.862  18.541  0.00  0.00     0.217 HD
ENDBRANCH   9  40
BRANCH  18  42
ATOM     42  O46 ZIN A   1      18.919   3.010   8.891  0.00  0.00    -0.395 OA
ATOM     43  H88 ZIN A   1      19.583   3.669   9.137  0.00  0.00     0.210 HD
ENDBRANCH  18  42
TORSDOF 17
ENDMDL
MODEL 9
REMARK VINA RESULT:      -7.4      2.641      4.957
REMARK  17 active torsions:
REMARK  status: ('A' for Active; 'I' for Inactive)
REMARK    1  A    between atoms: C10_9  and  O11_10 
REMARK    2  A    between atoms: C15_14  and  C17_15 
REMARK    3  A    between atoms: C17_15  and  C18_16 
REMARK    4  A    between atoms: C18_16  and  C19_17 
REMARK    5  A    between atoms: C19_17  and  C20_18 
REMARK    6  A    between atoms: C20_18  and  C21_19 
REMARK    7  A    between atoms: C21_19  and  C22_20 
REMARK    8  A    between atoms: C22_20  and  C23_21 
REMARK    9  A    between atoms: C23_21  and  C24_22 
REMARK   10  A    between atoms: C24_22  and  C25_23 
REMARK   11  A    between atoms: C25_23  and  S26_24 
REMARK   12  A    between atoms: S26_24  and  C28_26 
REMARK   13  A    between atoms: C28_26  and  C29_27 
REMARK   14  A    between atoms: C29_27  and  C30_28 
REMARK   15  A    between atoms: C30_28  and  C31_29 
REMARK   16  A    between atoms: C31_29  and  C34_32 
REMARK   17  A    between atoms: C44_40  and  O46_41 
ROOT
ATOM      1  C1  ZIN A   1      17.109   0.604  15.883  0.00  0.00     0.018 C 
ATOM      2  C2  ZIN A   1      18.569   0.530  15.432  0.00  0.00    -0.014 C 
ATOM      3  C3  ZIN A   1      19.422   1.401  16.330  0.00  0.00     0.013 C 
ATOM      4  C4  ZIN A   1      18.829   2.823  16.300  0.00  0.00     0.010 C 
ATOM      5  C5  ZIN A   1      18.770   3.350  14.873  0.00  0.00     0.024 C 
ATOM      6  C7  ZIN A   1      18.167   4.723  14.811  0.00  0.00    -0.047 A 
ATOM      7  C8  ZIN A   1      18.395   5.591  15.869  0.00  0.00     0.011 A 
ATOM      8  C9  ZIN A   1      17.872   6.867  15.858  0.00  0.00     0.037 A 
ATOM      9  C10 ZIN A   1      17.111   7.287  14.778  0.00  0.00     0.066 A 
ATOM     10  C12 ZIN A   1      16.878   6.420  13.724  0.00  0.00     0.044 A 
ATOM     11  C13 ZIN A   1      17.401   5.133  13.739  0.00  0.00    -0.048 A 
ATOM     12  C14 ZIN A   1      17.082   4.237  12.571  0.00  0.00     0.044 C 
ATOM     13  C15 ZIN A   1      17.990   3.008  12.549  0.00  0.00    -0.005 C 
ATOM     14  C38 ZIN A   1      17.984   2.406  13.955  0.00  0.00     0.003 C 
ATOM     15  C40 ZIN A   1      18.695   1.068  13.980  0.00  0.00     0.001 C 
ATOM     16  C42 ZIN A   1      18.052  -0.049  13.151  0.00  0.00     0.008 C 
ATOM     17  C43 ZIN A   1      18.586  -1.339  13.830  0.00  0.00     0.033 C 
ATOM     18  C44 ZIN A   1      18.991  -0.929  15.305  0.00  0.00     0.126 C 
ENDROOT
BRANCH  13  19
ATOM     19  C17 ZIN A   1      19.410   3.423  12.155  0.00  0.00     0.005 C 
BRANCH  19  20
ATOM     20  C18 ZIN A   1      19.848   2.631  10.921  0.00  0.00     0.000 C 
BRANCH  20  21
ATOM     21  C19 ZIN A   1      18.787   2.766   9.826  0.00  0.00     0.000 C 
BRANCH  21  22
ATOM     22  C20 ZIN A   1      18.592   1.414   9.137  0.00  0.00     0.000 C 
BRANCH  22  23
ATOM     23  C21 ZIN A   1      18.958   1.540   7.656  0.00  0.00     0.000 C 
BRANCH  23  24
ATOM     24  C22 ZIN A   1      19.022   0.147   7.026  0.00  0.00     0.000 C 
BRANCH  24  25
ATOM     25  C23 ZIN A   1      17.779  -0.081   6.163  0.00  0.00     0.001 C 
BRANCH  25  26
ATOM     26  C24 ZIN A   1      18.206  -0.495   4.754  0.00  0.00     0.012 C 
BRANCH  26  27
ATOM     27  C25 ZIN A   1      19.185  -1.668   4.841  0.00  0.00     0.108 C 
BRANCH  27  28
ATOM     28  S26 ZIN A   1      18.259  -3.224   4.927  0.00  0.00     0.015 S 
ATOM     29  O27 ZIN A   1      18.307  -3.874   3.663  0.00  0.00    -0.258 OA
BRANCH  28  30
ATOM     30  C28 ZIN A   1      19.198  -4.192   6.140  0.00  0.00     0.109 C 
BRANCH  30  31
ATOM     31  C29 ZIN A   1      19.402  -3.360   7.408  0.00  0.00     0.019 C 
BRANCH  31  32
ATOM     32  C30 ZIN A   1      18.337  -3.735   8.442  0.00  0.00     0.090 C 
BRANCH  32  33
ATOM     33  C31 ZIN A   1      18.987  -4.521   9.581  0.00  0.00     0.339 C 
ATOM     34  F32 ZIN A   1      18.200  -5.636   9.887  0.00  0.00    -0.196 F 
ATOM     35  F33 ZIN A   1      20.261  -4.945   9.187  0.00  0.00    -0.196 F 
BRANCH  33  36
ATOM     36  C34 ZIN A   1      19.106  -3.626  10.816  0.00  0.00     0.454 C 
ATOM     37  F35 ZIN A   1      19.198  -2.288  10.415  0.00  0.00    -0.165 F 
ATOM     38  F36 ZIN A   1      17.977  -3.794  11.625  0.00  0.00    -0.165 F 
ATOM     39  F37 ZIN A   1      20.252  -3.976  11.537  0.00  0.00    -0.165 F 
ENDBRANCH  33  36
ENDBRANCH  32  33
ENDBRANCH  31  32
ENDBRANCH  30  31
ENDBRANCH  28  30
ENDBRANCH  27  28
ENDBRANCH  26  27
ENDBRANCH  25  26
ENDBRANCH  24  25
ENDBRANCH  23  24
ENDBRANCH  22  23
ENDBRANCH  21  22
ENDBRANCH  20  21
ENDBRANCH  19  20
ENDBRANCH  13  19
BRANCH   9  40
ATOM     40  O11 ZIN A   1      16.596   8.544  14.753  0.00  0.00    -0.361 OA
ATOM     41  H56 ZIN A   1      17.031   9.161  15.357  0.00  0.00     0.217 HD
ENDBRANCH   9  40
BRANCH  18  42
ATOM     42  O46 ZIN A   1      18.278  -1.724  16.254  0.00  0.00    -0.395 OA
ATOM     43  H88 ZIN A   1      18.710  -1.789  17.116  0.00  0.00     0.210 HD
ENDBRANCH  18  42
TORSDOF 17
ENDMDL
