MODEL 1
REMARK VINA RESULT:      -9.4      0.000      0.000
REMARK  8 active torsions:
REMARK  status: ('A' for Active; 'I' for Inactive)
REMARK    1  A    between atoms: C2_2  and  C4_3 
REMARK    2  A    between atoms: C2_2  and  C13_11 
REMARK    3  A    between atoms: C5_4  and  C6_5 
REMARK    4  A    between atoms: C6_5  and  C9_7 
REMARK    5  A    between atoms: C9_7  and  O12_10 
REMARK    6  A    between atoms: C20_16  and  C21_17 
REMARK    7  A    between atoms: C24_20  and  O26_21 
REMARK    8  A    between atoms: C28_23  and  O30_24 
ROOT
ATOM      1  C13 ZIN A   1      17.808   0.346   8.422  0.00  0.00     0.002 C 
ATOM      2  C15 ZIN A   1      17.382  -0.996   9.073  0.00  0.00     0.007 C 
ATOM      3  C16 ZIN A   1      17.577  -0.820  10.605  0.00  0.00     0.010 C 
ATOM      4  C17 ZIN A   1      17.486   0.697  10.785  0.00  0.00     0.023 C 
ATOM      5  C19 ZIN A   1      18.143   1.270  12.005  0.00  0.00    -0.075 C 
ATOM      6  C20 ZIN A   1      18.599   0.508  12.993  0.00  0.00     0.003 C 
ATOM      7  C32 ZIN A   1      18.250   2.788  12.031  0.00  0.00     0.034 C 
ATOM      8  C33 ZIN A   1      18.852   3.310  10.727  0.00  0.00     0.005 C 
ATOM      9  C34 ZIN A   1      18.166   2.696   9.496  0.00  0.00     0.010 C 
ATOM     10  C35 ZIN A   1      18.320   1.199   9.572  0.00  0.00    -0.032 C 
ATOM     11  C36 ZIN A   1      19.790   0.854   9.821  0.00  0.00     0.016 C 
ENDROOT
BRANCH   6  12
ATOM     12  C21 ZIN A   1      19.236   1.127  14.166  0.00  0.00     0.003 C 
ATOM     13  C22 ZIN A   1      18.626   1.096  15.346  0.00  0.00    -0.075 C 
ATOM     14  C31 ZIN A   1      19.191   1.850  16.531  0.00  0.00     0.066 C 
ATOM     15  C23 ZIN A   1      17.352   0.304  15.541  0.00  0.00     0.066 C 
ATOM     16  C28 ZIN A   1      19.293   0.892  17.718  0.00  0.00     0.124 C 
ATOM     17  C27 ZIN A   1      17.930   0.247  17.972  0.00  0.00     0.064 C 
ATOM     18  C24 ZIN A   1      17.525  -0.602  16.765  0.00  0.00     0.124 C 
BRANCH  16  19
ATOM     19  O30 ZIN A   1      19.702   1.615  18.881  0.00  0.00    -0.395 OA
ATOM     20  H63 ZIN A   1      20.650   1.559  19.064  0.00  0.00     0.210 HD
ENDBRANCH  16  19
BRANCH  18  21
ATOM     21  O26 ZIN A   1      18.540  -1.572  16.501  0.00  0.00    -0.395 OA
ATOM     22  H60 ZIN A   1      19.435  -1.207  16.476  0.00  0.00     0.210 HD
ENDBRANCH  18  21
ENDBRANCH   6  12
BRANCH   1  23
ATOM     23  C2  ZIN A   1      18.919   0.110   7.397  0.00  0.00     0.008 C 
ATOM     24  C1  ZIN A   1      18.890   1.225   6.349  0.00  0.00     0.014 C 
BRANCH  23  25
ATOM     25  C4  ZIN A   1      18.707  -1.220   6.722  0.00  0.00    -0.026 C 
ATOM     26  C5  ZIN A   1      19.654  -2.125   6.748  0.00  0.00    -0.023 C 
BRANCH  26  27
ATOM     27  C6  ZIN A   1      19.442  -3.457   6.073  0.00  0.00     0.037 C 
ATOM     28  C8  ZIN A   1      17.982  -3.579   5.633  0.00  0.00     0.017 C 
BRANCH  27  29
ATOM     29  C9  ZIN A   1      19.776  -4.583   7.053  0.00  0.00     0.057 C 
ATOM     30  C10 ZIN A   1      19.240  -4.228   8.441  0.00  0.00     0.046 C 
ATOM     31  C11 ZIN A   1      19.129  -5.884   6.574  0.00  0.00     0.046 C 
BRANCH  29  32
ATOM     32  O12 ZIN A   1      21.194  -4.751   7.119  0.00  0.00    -0.390 OA
ATOM     33  H51 ZIN A   1      21.481  -5.421   7.755  0.00  0.00     0.210 HD
ENDBRANCH  29  32
ENDBRANCH  27  29
ENDBRANCH  26  27
ENDBRANCH  23  25
ENDBRANCH   1  23
TORSDOF 8
ENDMDL
MODEL 2
REMARK VINA RESULT:      -9.2      1.836      9.379
REMARK  8 active torsions:
REMARK  status: ('A' for Active; 'I' for Inactive)
REMARK    1  A    between atoms: C2_2  and  C4_3 
REMARK    2  A    between atoms: C2_2  and  C13_11 
REMARK    3  A    between atoms: C5_4  and  C6_5 
REMARK    4  A    between atoms: C6_5  and  C9_7 
REMARK    5  A    between atoms: C9_7  and  O12_10 
REMARK    6  A    between atoms: C20_16  and  C21_17 
REMARK    7  A    between atoms: C24_20  and  O26_21 
REMARK    8  A    between atoms: C28_23  and  O30_24 
ROOT
ATOM      1  C13 ZIN A   1      19.392   1.012  11.978  0.00  0.00     0.002 C 
ATOM      2  C15 ZIN A   1      19.664  -0.510  12.107  0.00  0.00     0.007 C 
ATOM      3  C16 ZIN A   1      19.484  -1.108  10.683  0.00  0.00     0.010 C 
ATOM      4  C17 ZIN A   1      19.744   0.096   9.776  0.00  0.00     0.023 C 
ATOM      5  C19 ZIN A   1      19.151   0.042   8.399  0.00  0.00    -0.075 C 
ATOM      6  C20 ZIN A   1      18.609  -1.065   7.901  0.00  0.00     0.003 C 
ATOM      7  C32 ZIN A   1      19.213   1.344   7.614  0.00  0.00     0.034 C 
ATOM      8  C33 ZIN A   1      18.676   2.505   8.450  0.00  0.00     0.005 C 
ATOM      9  C34 ZIN A   1      19.294   2.527   9.857  0.00  0.00     0.010 C 
ATOM     10  C35 ZIN A   1      18.974   1.218  10.531  0.00  0.00    -0.032 C 
ATOM     11  C36 ZIN A   1      17.474   0.940  10.409  0.00  0.00     0.016 C 
ENDROOT
BRANCH   6  12
ATOM     12  C21 ZIN A   1      18.042  -1.059   6.543  0.00  0.00     0.003 C 
ATOM     13  C22 ZIN A   1      18.324  -2.048   5.702  0.00  0.00    -0.075 C 
ATOM     14  C31 ZIN A   1      17.871  -1.991   4.258  0.00  0.00     0.066 C 
ATOM     15  C23 ZIN A   1      19.099  -3.262   6.163  0.00  0.00     0.066 C 
ATOM     16  C28 ZIN A   1      17.145  -3.292   3.920  0.00  0.00     0.124 C 
ATOM     17  C27 ZIN A   1      18.046  -4.481   4.252  0.00  0.00     0.064 C 
ATOM     18  C24 ZIN A   1      18.322  -4.519   5.756  0.00  0.00     0.124 C 
BRANCH  16  19
ATOM     19  O30 ZIN A   1      16.823  -3.311   2.527  0.00  0.00    -0.395 OA
ATOM     20  H63 ZIN A   1      15.888  -3.154   2.338  0.00  0.00     0.210 HD
ENDBRANCH  16  19
BRANCH  18  21
ATOM     21  O26 ZIN A   1      17.084  -4.565   6.467  0.00  0.00    -0.395 OA
ATOM     22  H60 ZIN A   1      16.585  -5.382   6.335  0.00  0.00     0.210 HD
ENDBRANCH  18  21
ENDBRANCH   6  12
BRANCH   1  23
ATOM     23  C2  ZIN A   1      18.264   1.432  12.923  0.00  0.00     0.008 C 
ATOM     24  C1  ZIN A   1      18.464   2.890  13.338  0.00  0.00     0.014 C 
BRANCH  23  25
ATOM     25  C4  ZIN A   1      18.281   0.554  14.147  0.00  0.00    -0.026 C 
ATOM     26  C5  ZIN A   1      18.633   1.052  15.306  0.00  0.00    -0.023 C 
BRANCH  26  27
ATOM     27  C6  ZIN A   1      18.649   0.175  16.531  0.00  0.00     0.037 C 
ATOM     28  C8  ZIN A   1      17.294  -0.518  16.681  0.00  0.00     0.017 C 
BRANCH  27  29
ATOM     29  C9  ZIN A   1      18.925   1.032  17.768  0.00  0.00     0.057 C 
ATOM     30  C10 ZIN A   1      19.224   2.469  17.336  0.00  0.00     0.046 C 
ATOM     31  C11 ZIN A   1      17.696   1.020  18.681  0.00  0.00     0.046 C 
BRANCH  29  32
ATOM     32  O12 ZIN A   1      20.048   0.503  18.474  0.00  0.00    -0.390 OA
ATOM     33  H51 ZIN A   1      20.483  -0.234  18.025  0.00  0.00     0.210 HD
ENDBRANCH  29  32
ENDBRANCH  27  29
ENDBRANCH  26  27
ENDBRANCH  23  25
ENDBRANCH   1  23
TORSDOF 8
ENDMDL
MODEL 3
REMARK VINA RESULT:      -8.8      1.549      1.963
REMARK  8 active torsions:
REMARK  status: ('A' for Active; 'I' for Inactive)
REMARK    1  A    between atoms: C2_2  and  C4_3 
REMARK    2  A    between atoms: C2_2  and  C13_11 
REMARK    3  A    between atoms: C5_4  and  C6_5 
REMARK    4  A    between atoms: C6_5  and  C9_7 
REMARK    5  A    between atoms: C9_7  and  O12_10 
REMARK    6  A    between atoms: C20_16  and  C21_17 
REMARK    7  A    between atoms: C24_20  and  O26_21 
REMARK    8  A    between atoms: C28_23  and  O30_24 
ROOT
ATOM      1  C13 ZIN A   1      17.906   0.311   8.658  0.00  0.00     0.002 C 
ATOM      2  C15 ZIN A   1      16.817  -0.541   9.362  0.00  0.00     0.007 C 
ATOM      3  C16 ZIN A   1      16.787  -0.074  10.845  0.00  0.00     0.010 C 
ATOM      4  C17 ZIN A   1      17.349   1.347  10.763  0.00  0.00     0.023 C 
ATOM      5  C19 ZIN A   1      17.958   1.903  12.016  0.00  0.00    -0.075 C 
ATOM      6  C20 ZIN A   1      17.839   1.299  13.193  0.00  0.00     0.003 C 
ATOM      7  C32 ZIN A   1      18.722   3.208  11.842  0.00  0.00     0.034 C 
ATOM      8  C33 ZIN A   1      19.720   3.100  10.690  0.00  0.00     0.005 C 
ATOM      9  C34 ZIN A   1      19.069   2.517   9.425  0.00  0.00     0.010 C 
ATOM     10  C35 ZIN A   1      18.525   1.153   9.763  0.00  0.00    -0.032 C 
ATOM     11  C36 ZIN A   1      19.615   0.331  10.454  0.00  0.00     0.016 C 
ENDROOT
BRANCH   6  12
ATOM     12  C21 ZIN A   1      18.458   1.892  14.390  0.00  0.00     0.003 C 
ATOM     13  C22 ZIN A   1      18.160   1.419  15.595  0.00  0.00    -0.075 C 
ATOM     14  C31 ZIN A   1      18.670   2.104  16.845  0.00  0.00     0.066 C 
ATOM     15  C23 ZIN A   1      17.306   0.181  15.754  0.00  0.00     0.066 C 
ATOM     16  C28 ZIN A   1      19.343   1.061  17.736  0.00  0.00     0.124 C 
ATOM     17  C27 ZIN A   1      18.370  -0.089  17.999  0.00  0.00     0.064 C 
ATOM     18  C24 ZIN A   1      18.034  -0.796  16.685  0.00  0.00     0.124 C 
BRANCH  16  19
ATOM     19  O30 ZIN A   1      19.717   1.663  18.977  0.00  0.00    -0.395 OA
ATOM     20  H63 ZIN A   1      18.970   1.989  19.496  0.00  0.00     0.210 HD
ENDBRANCH  16  19
BRANCH  18  21
ATOM     21  O26 ZIN A   1      19.239  -1.241  16.061  0.00  0.00    -0.395 OA
ATOM     22  H60 ZIN A   1      19.764  -0.531  15.668  0.00  0.00     0.210 HD
ENDBRANCH  18  21
ENDBRANCH   6  12
BRANCH   1  23
ATOM     23  C2  ZIN A   1      18.963  -0.596   8.025  0.00  0.00     0.008 C 
ATOM     24  C1  ZIN A   1      19.145  -0.215   6.554  0.00  0.00     0.014 C 
BRANCH  23  25
ATOM     25  C4  ZIN A   1      18.517  -2.031   8.122  0.00  0.00    -0.026 C 
ATOM     26  C5  ZIN A   1      19.109  -2.846   8.959  0.00  0.00    -0.023 C 
BRANCH  26  27
ATOM     27  C6  ZIN A   1      18.663  -4.283   9.056  0.00  0.00     0.037 C 
ATOM     28  C8  ZIN A   1      17.341  -4.459   8.306  0.00  0.00     0.017 C 
BRANCH  27  29
ATOM     29  C9  ZIN A   1      18.468  -4.657  10.527  0.00  0.00     0.057 C 
ATOM     30  C10 ZIN A   1      19.814  -4.590  11.252  0.00  0.00     0.046 C 
ATOM     31  C11 ZIN A   1      17.489  -3.677  11.178  0.00  0.00     0.046 C 
BRANCH  29  32
ATOM     32  O12 ZIN A   1      17.945  -5.983  10.616  0.00  0.00    -0.390 OA
ATOM     33  H51 ZIN A   1      17.181  -6.067  11.202  0.00  0.00     0.210 HD
ENDBRANCH  29  32
ENDBRANCH  27  29
ENDBRANCH  26  27
ENDBRANCH  23  25
ENDBRANCH   1  23
TORSDOF 8
ENDMDL
MODEL 4
REMARK VINA RESULT:      -8.6      2.647      9.506
REMARK  8 active torsions:
REMARK  status: ('A' for Active; 'I' for Inactive)
REMARK    1  A    between atoms: C2_2  and  C4_3 
REMARK    2  A    between atoms: C2_2  and  C13_11 
REMARK    3  A    between atoms: C5_4  and  C6_5 
REMARK    4  A    between atoms: C6_5  and  C9_7 
REMARK    5  A    between atoms: C9_7  and  O12_10 
REMARK    6  A    between atoms: C20_16  and  C21_17 
REMARK    7  A    between atoms: C24_20  and  O26_21 
REMARK    8  A    between atoms: C28_23  and  O30_24 
ROOT
ATOM      1  C13 ZIN A   1      17.963  -0.073  14.099  0.00  0.00     0.002 C 
ATOM      2  C15 ZIN A   1      17.056   0.928  13.335  0.00  0.00     0.007 C 
ATOM      3  C16 ZIN A   1      17.020   0.445  11.858  0.00  0.00     0.010 C 
ATOM      4  C17 ZIN A   1      17.343  -1.046  11.982  0.00  0.00     0.023 C 
ATOM      5  C19 ZIN A   1      17.912  -1.715  10.766  0.00  0.00    -0.075 C 
ATOM      6  C20 ZIN A   1      17.944  -1.122   9.577  0.00  0.00     0.003 C 
ATOM      7  C32 ZIN A   1      18.449  -3.121  10.990  0.00  0.00     0.034 C 
ATOM      8  C33 ZIN A   1      19.399  -3.151  12.187  0.00  0.00     0.005 C 
ATOM      9  C34 ZIN A   1      18.793  -2.449  13.413  0.00  0.00     0.010 C 
ATOM     10  C35 ZIN A   1      18.489  -1.023  13.034  0.00  0.00    -0.032 C 
ATOM     11  C36 ZIN A   1      19.726  -0.397  12.387  0.00  0.00     0.016 C 
ENDROOT
BRANCH   6  12
ATOM     12  C21 ZIN A   1      18.514  -1.828   8.418  0.00  0.00     0.003 C 
ATOM     13  C22 ZIN A   1      18.170  -1.468   7.186  0.00  0.00    -0.075 C 
ATOM     14  C31 ZIN A   1      18.630  -2.270   5.988  0.00  0.00     0.066 C 
ATOM     15  C23 ZIN A   1      17.314  -0.245   6.946  0.00  0.00     0.066 C 
ATOM     16  C28 ZIN A   1      19.269  -1.319   4.977  0.00  0.00     0.124 C 
ATOM     17  C27 ZIN A   1      18.289  -0.193   4.645  0.00  0.00     0.064 C 
ATOM     18  C24 ZIN A   1      18.006   0.636   5.900  0.00  0.00     0.124 C 
BRANCH  16  19
ATOM     19  O30 ZIN A   1      19.593  -2.036   3.784  0.00  0.00    -0.395 OA
ATOM     20  H63 ZIN A   1      19.627  -2.995   3.900  0.00  0.00     0.210 HD
ENDBRANCH  16  19
BRANCH  18  21
ATOM     21  O26 ZIN A   1      19.236   1.131   6.432  0.00  0.00    -0.395 OA
ATOM     22  H60 ZIN A   1      19.186   1.389   7.362  0.00  0.00     0.210 HD
ENDBRANCH  18  21
ENDBRANCH   6  12
BRANCH   1  23
ATOM     23  C2  ZIN A   1      19.121   0.666  14.772  0.00  0.00     0.008 C 
ATOM     24  C1  ZIN A   1      18.984   0.551  16.291  0.00  0.00     0.014 C 
BRANCH  23  25
ATOM     25  C4  ZIN A   1      19.089   2.119  14.373  0.00  0.00    -0.026 C 
ATOM     26  C5  ZIN A   1      18.959   3.047  15.288  0.00  0.00    -0.023 C 
BRANCH  26  27
ATOM     27  C6  ZIN A   1      18.928   4.500  14.889  0.00  0.00     0.037 C 
ATOM     28  C8  ZIN A   1      19.346   4.637  13.424  0.00  0.00     0.017 C 
BRANCH  27  29
ATOM     29  C9  ZIN A   1      19.896   5.291  15.772  0.00  0.00     0.057 C 
ATOM     30  C10 ZIN A   1      20.812   6.141  14.889  0.00  0.00     0.046 C 
ATOM     31  C11 ZIN A   1      19.102   6.203  16.709  0.00  0.00     0.046 C 
BRANCH  29  32
ATOM     32  O12 ZIN A   1      20.685   4.385  16.544  0.00  0.00    -0.390 OA
ATOM     33  H51 ZIN A   1      20.393   4.292  17.461  0.00  0.00     0.210 HD
ENDBRANCH  29  32
ENDBRANCH  27  29
ENDBRANCH  26  27
ENDBRANCH  23  25
ENDBRANCH   1  23
TORSDOF 8
ENDMDL
MODEL 5
REMARK VINA RESULT:      -8.6      3.122      8.315
REMARK  8 active torsions:
REMARK  status: ('A' for Active; 'I' for Inactive)
REMARK    1  A    between atoms: C2_2  and  C4_3 
REMARK    2  A    between atoms: C2_2  and  C13_11 
REMARK    3  A    between atoms: C5_4  and  C6_5 
REMARK    4  A    between atoms: C6_5  and  C9_7 
REMARK    5  A    between atoms: C9_7  and  O12_10 
REMARK    6  A    between atoms: C20_16  and  C21_17 
REMARK    7  A    between atoms: C24_20  and  O26_21 
REMARK    8  A    between atoms: C28_23  and  O30_24 
ROOT
ATOM      1  C13 ZIN A   1      19.109   2.684  10.479  0.00  0.00     0.002 C 
ATOM      2  C15 ZIN A   1      19.715   1.973  11.718  0.00  0.00     0.007 C 
ATOM      3  C16 ZIN A   1      19.826   0.468  11.347  0.00  0.00     0.010 C 
ATOM      4  C17 ZIN A   1      19.888   0.501   9.818  0.00  0.00     0.023 C 
ATOM      5  C19 ZIN A   1      19.468  -0.748   9.101  0.00  0.00    -0.075 C 
ATOM      6  C20 ZIN A   1      19.254  -1.895   9.735  0.00  0.00     0.003 C 
ATOM      7  C32 ZIN A   1      19.304  -0.606   7.594  0.00  0.00     0.034 C 
ATOM      8  C33 ZIN A   1      18.428   0.599   7.257  0.00  0.00     0.005 C 
ATOM      9  C34 ZIN A   1      18.876   1.859   8.015  0.00  0.00     0.010 C 
ATOM     10  C35 ZIN A   1      18.804   1.568   9.492  0.00  0.00    -0.032 C 
ATOM     11  C36 ZIN A   1      17.432   0.980   9.825  0.00  0.00     0.016 C 
ENDROOT
BRANCH   6  12
ATOM     12  C21 ZIN A   1      18.843  -3.089   8.979  0.00  0.00     0.003 C 
ATOM     13  C22 ZIN A   1      18.675  -4.248   9.607  0.00  0.00    -0.075 C 
ATOM     14  C31 ZIN A   1      18.395  -5.516   8.830  0.00  0.00     0.066 C 
ATOM     15  C23 ZIN A   1      18.753  -4.331  11.115  0.00  0.00     0.066 C 
ATOM     16  C28 ZIN A   1      17.162  -6.194   9.426  0.00  0.00     0.124 C 
ATOM     17  C27 ZIN A   1      17.370  -6.405  10.926  0.00  0.00     0.064 C 
ATOM     18  C24 ZIN A   1      17.500  -5.051  11.627  0.00  0.00     0.124 C 
BRANCH  16  19
ATOM     19  O30 ZIN A   1      16.957  -7.458   8.791  0.00  0.00    -0.395 OA
ATOM     20  H63 ZIN A   1      17.597  -7.655   8.094  0.00  0.00     0.210 HD
ENDBRANCH  16  19
BRANCH  18  21
ATOM     21  O26 ZIN A   1      16.346  -4.256  11.349  0.00  0.00    -0.395 OA
ATOM     22  H60 ZIN A   1      15.527  -4.609  11.721  0.00  0.00     0.210 HD
ENDBRANCH  18  21
ENDBRANCH   6  12
BRANCH   1  23
ATOM     23  C2  ZIN A   1      17.823   3.420  10.864  0.00  0.00     0.008 C 
ATOM     24  C1  ZIN A   1      17.794   4.787  10.178  0.00  0.00     0.014 C 
BRANCH  23  25
ATOM     25  C4  ZIN A   1      17.779   3.605  12.359  0.00  0.00    -0.026 C 
ATOM     26  C5  ZIN A   1      17.827   4.810  12.871  0.00  0.00    -0.023 C 
BRANCH  26  27
ATOM     27  C6  ZIN A   1      17.782   4.997  14.365  0.00  0.00     0.037 C 
ATOM     28  C8  ZIN A   1      17.034   6.289  14.696  0.00  0.00     0.017 C 
BRANCH  27  29
ATOM     29  C9  ZIN A   1      19.209   5.078  14.912  0.00  0.00     0.057 C 
ATOM     30  C10 ZIN A   1      20.123   5.708  13.860  0.00  0.00     0.046 C 
ATOM     31  C11 ZIN A   1      19.222   5.937  16.178  0.00  0.00     0.046 C 
BRANCH  29  32
ATOM     32  O12 ZIN A   1      19.675   3.764  15.223  0.00  0.00    -0.390 OA
ATOM     33  H51 ZIN A   1      20.346   3.739  15.919  0.00  0.00     0.210 HD
ENDBRANCH  29  32
ENDBRANCH  27  29
ENDBRANCH  26  27
ENDBRANCH  23  25
ENDBRANCH   1  23
TORSDOF 8
ENDMDL
MODEL 6
REMARK VINA RESULT:      -8.6      2.188      8.185
REMARK  8 active torsions:
REMARK  status: ('A' for Active; 'I' for Inactive)
REMARK    1  A    between atoms: C2_2  and  C4_3 
REMARK    2  A    between atoms: C2_2  and  C13_11 
REMARK    3  A    between atoms: C5_4  and  C6_5 
REMARK    4  A    between atoms: C6_5  and  C9_7 
REMARK    5  A    between atoms: C9_7  and  O12_10 
REMARK    6  A    between atoms: C20_16  and  C21_17 
REMARK    7  A    between atoms: C24_20  and  O26_21 
REMARK    8  A    between atoms: C28_23  and  O30_24 
ROOT
ATOM      1  C13 ZIN A   1      19.146   1.404   9.728  0.00  0.00     0.002 C 
ATOM      2  C15 ZIN A   1      19.900   0.365  10.601  0.00  0.00     0.007 C 
ATOM      3  C16 ZIN A   1      19.909  -0.962   9.792  0.00  0.00     0.010 C 
ATOM      4  C17 ZIN A   1      19.752  -0.478   8.348  0.00  0.00     0.023 C 
ATOM      5  C19 ZIN A   1      19.193  -1.464   7.365  0.00  0.00    -0.075 C 
ATOM      6  C20 ZIN A   1      19.035  -2.750   7.659  0.00  0.00     0.003 C 
ATOM      7  C32 ZIN A   1      18.820  -0.886   6.008  0.00  0.00     0.034 C 
ATOM      8  C33 ZIN A   1      17.944   0.355   6.172  0.00  0.00     0.005 C 
ATOM      9  C34 ZIN A   1      18.536   1.340   7.193  0.00  0.00     0.010 C 
ATOM     10  C35 ZIN A   1      18.667   0.626   8.512  0.00  0.00    -0.032 C 
ATOM     11  C36 ZIN A   1      17.338  -0.051   8.855  0.00  0.00     0.016 C 
ENDROOT
BRANCH   6  12
ATOM     12  C21 ZIN A   1      18.482  -3.671   6.653  0.00  0.00     0.003 C 
ATOM     13  C22 ZIN A   1      18.175  -4.919   6.994  0.00  0.00    -0.075 C 
ATOM     14  C31 ZIN A   1      17.742  -5.923   5.947  0.00  0.00     0.066 C 
ATOM     15  C23 ZIN A   1      18.244  -5.369   8.436  0.00  0.00     0.066 C 
ATOM     16  C28 ZIN A   1      16.436  -6.574   6.403  0.00  0.00     0.124 C 
ATOM     17  C27 ZIN A   1      16.619  -7.160   7.803  0.00  0.00     0.064 C 
ATOM     18  C24 ZIN A   1      16.914  -6.038   8.801  0.00  0.00     0.124 C 
BRANCH  16  19
ATOM     19  O30 ZIN A   1      16.079  -7.616   5.492  0.00  0.00    -0.395 OA
ATOM     20  H63 ZIN A   1      16.657  -7.678   4.720  0.00  0.00     0.210 HD
ENDBRANCH  16  19
BRANCH  18  21
ATOM     21  O26 ZIN A   1      15.864  -5.070   8.754  0.00  0.00    -0.395 OA
ATOM     22  H60 ZIN A   1      15.000  -5.438   8.525  0.00  0.00     0.210 HD
ENDBRANCH  18  21
ENDBRANCH   6  12
BRANCH   1  23
ATOM     23  C2  ZIN A   1      17.954   1.977  10.496  0.00  0.00     0.008 C 
ATOM     24  C1  ZIN A   1      17.875   3.487  10.261  0.00  0.00     0.014 C 
BRANCH  23  25
ATOM     25  C4  ZIN A   1      18.126   1.706  11.968  0.00  0.00    -0.026 C 
ATOM     26  C5  ZIN A   1      17.519   0.686  12.522  0.00  0.00    -0.023 C 
BRANCH  26  27
ATOM     27  C6  ZIN A   1      17.692   0.414  13.994  0.00  0.00     0.037 C 
ATOM     28  C8  ZIN A   1      18.284   1.650  14.676  0.00  0.00     0.017 C 
BRANCH  27  29
ATOM     29  C9  ZIN A   1      18.635  -0.775  14.186  0.00  0.00     0.057 C 
ATOM     30  C10 ZIN A   1      18.432  -1.367  15.582  0.00  0.00     0.046 C 
ATOM     31  C11 ZIN A   1      18.331  -1.841  13.131  0.00  0.00     0.046 C 
BRANCH  29  32
ATOM     32  O12 ZIN A   1      19.988  -0.338  14.046  0.00  0.00    -0.390 OA
ATOM     33  H51 ZIN A   1      20.568  -0.984  13.620  0.00  0.00     0.210 HD
ENDBRANCH  29  32
ENDBRANCH  27  29
ENDBRANCH  26  27
ENDBRANCH  23  25
ENDBRANCH   1  23
TORSDOF 8
ENDMDL
MODEL 7
REMARK VINA RESULT:      -8.5      2.772      8.632
REMARK  8 active torsions:
REMARK  status: ('A' for Active; 'I' for Inactive)
REMARK    1  A    between atoms: C2_2  and  C4_3 
REMARK    2  A    between atoms: C2_2  and  C13_11 
REMARK    3  A    between atoms: C5_4  and  C6_5 
REMARK    4  A    between atoms: C6_5  and  C9_7 
REMARK    5  A    between atoms: C9_7  and  O12_10 
REMARK    6  A    between atoms: C20_16  and  C21_17 
REMARK    7  A    between atoms: C24_20  and  O26_21 
REMARK    8  A    between atoms: C28_23  and  O30_24 
ROOT
ATOM      1  C13 ZIN A   1      18.138   0.140  13.956  0.00  0.00     0.002 C 
ATOM      2  C15 ZIN A   1      16.871   0.750  13.300  0.00  0.00     0.007 C 
ATOM      3  C16 ZIN A   1      16.743   0.089  11.899  0.00  0.00     0.010 C 
ATOM      4  C17 ZIN A   1      17.500  -1.229  12.077  0.00  0.00     0.023 C 
ATOM      5  C19 ZIN A   1      18.038  -1.869  10.832  0.00  0.00    -0.075 C 
ATOM      6  C20 ZIN A   1      17.708  -1.448   9.615  0.00  0.00     0.003 C 
ATOM      7  C32 ZIN A   1      18.988  -3.036  11.061  0.00  0.00     0.034 C 
ATOM      8  C33 ZIN A   1      20.083  -2.653  12.056  0.00  0.00     0.005 C 
ATOM      9  C34 ZIN A   1      19.501  -1.990  13.315  0.00  0.00     0.010 C 
ATOM     10  C35 ZIN A   1      18.741  -0.761  12.889  0.00  0.00    -0.032 C 
ATOM     11  C36 ZIN A   1      19.625   0.088  11.973  0.00  0.00     0.016 C 
ENDROOT
BRANCH   6  12
ATOM     12  C21 ZIN A   1      18.268  -2.116   8.429  0.00  0.00     0.003 C 
ATOM     13  C22 ZIN A   1      18.029  -1.627   7.217  0.00  0.00    -0.075 C 
ATOM     14  C31 ZIN A   1      18.471  -2.375   5.978  0.00  0.00     0.066 C 
ATOM     15  C23 ZIN A   1      17.313  -0.306   7.041  0.00  0.00     0.066 C 
ATOM     16  C28 ZIN A   1      19.256  -1.419   5.081  0.00  0.00     0.124 C 
ATOM     17  C27 ZIN A   1      18.412  -0.174   4.800  0.00  0.00     0.064 C 
ATOM     18  C24 ZIN A   1      18.146   0.578   6.106  0.00  0.00     0.124 C 
BRANCH  16  19
ATOM     19  O30 ZIN A   1      19.571  -2.070   3.848  0.00  0.00    -0.395 OA
ATOM     20  H63 ZIN A   1      18.995  -1.818   3.113  0.00  0.00     0.210 HD
ENDBRANCH  16  19
BRANCH  18  21
ATOM     21  O26 ZIN A   1      19.388   0.898   6.734  0.00  0.00    -0.395 OA
ATOM     22  H60 ZIN A   1      19.537   1.846   6.849  0.00  0.00     0.210 HD
ENDBRANCH  18  21
ENDBRANCH   6  12
BRANCH   1  23
ATOM     23  C2  ZIN A   1      19.124   1.246  14.338  0.00  0.00     0.008 C 
ATOM     24  C1  ZIN A   1      19.205   1.351  15.862  0.00  0.00     0.014 C 
BRANCH  23  25
ATOM     25  C4  ZIN A   1      18.652   2.558  13.768  0.00  0.00    -0.026 C 
ATOM     26  C5  ZIN A   1      19.284   3.097  12.755  0.00  0.00    -0.023 C 
BRANCH  26  27
ATOM     27  C6  ZIN A   1      18.813   4.410  12.184  0.00  0.00     0.037 C 
ATOM     28  C8  ZIN A   1      18.007   5.167  13.242  0.00  0.00     0.017 C 
BRANCH  27  29
ATOM     29  C9  ZIN A   1      17.931   4.146  10.962  0.00  0.00     0.057 C 
ATOM     30  C10 ZIN A   1      17.769   5.440  10.162  0.00  0.00     0.046 C 
ATOM     31  C11 ZIN A   1      18.587   3.081  10.080  0.00  0.00     0.046 C 
BRANCH  29  32
ATOM     32  O12 ZIN A   1      16.648   3.687  11.391  0.00  0.00    -0.390 OA
ATOM     33  H51 ZIN A   1      16.379   4.023  12.256  0.00  0.00     0.210 HD
ENDBRANCH  29  32
ENDBRANCH  27  29
ENDBRANCH  26  27
ENDBRANCH  23  25
ENDBRANCH   1  23
TORSDOF 8
ENDMDL
MODEL 8
REMARK VINA RESULT:      -8.3      2.504      4.202
REMARK  8 active torsions:
REMARK  status: ('A' for Active; 'I' for Inactive)
REMARK    1  A    between atoms: C2_2  and  C4_3 
REMARK    2  A    between atoms: C2_2  and  C13_11 
REMARK    3  A    between atoms: C5_4  and  C6_5 
REMARK    4  A    between atoms: C6_5  and  C9_7 
REMARK    5  A    between atoms: C9_7  and  O12_10 
REMARK    6  A    between atoms: C20_16  and  C21_17 
REMARK    7  A    between atoms: C24_20  and  O26_21 
REMARK    8  A    between atoms: C28_23  and  O30_24 
ROOT
ATOM      1  C13 ZIN A   1      19.146  -0.817  10.983  0.00  0.00     0.002 C 
ATOM      2  C15 ZIN A   1      19.651   0.604  10.618  0.00  0.00     0.007 C 
ATOM      3  C16 ZIN A   1      19.727   1.398  11.952  0.00  0.00     0.010 C 
ATOM      4  C17 ZIN A   1      19.879   0.289  12.996  0.00  0.00     0.023 C 
ATOM      5  C19 ZIN A   1      19.455   0.621  14.396  0.00  0.00    -0.075 C 
ATOM      6  C20 ZIN A   1      19.161   1.859  14.776  0.00  0.00     0.003 C 
ATOM      7  C32 ZIN A   1      19.385  -0.563  15.350  0.00  0.00     0.034 C 
ATOM      8  C33 ZIN A   1      18.576  -1.705  14.736  0.00  0.00     0.005 C 
ATOM      9  C34 ZIN A   1      19.027  -2.013  13.298  0.00  0.00     0.010 C 
ATOM     10  C35 ZIN A   1      18.858  -0.762  12.476  0.00  0.00    -0.032 C 
ATOM     11  C36 ZIN A   1      17.447  -0.208  12.682  0.00  0.00     0.016 C 
ENDROOT
BRANCH   6  12
ATOM     12  C21 ZIN A   1      18.750   2.125  16.164  0.00  0.00     0.003 C 
ATOM     13  C22 ZIN A   1      18.797   3.363  16.645  0.00  0.00    -0.075 C 
ATOM     14  C31 ZIN A   1      18.518   3.637  18.107  0.00  0.00     0.066 C 
ATOM     15  C23 ZIN A   1      19.124   4.533  15.745  0.00  0.00     0.066 C 
ATOM     16  C28 ZIN A   1      17.468   4.742  18.208  0.00  0.00     0.124 C 
ATOM     17  C27 ZIN A   1      17.934   5.963  17.414  0.00  0.00     0.064 C 
ATOM     18  C24 ZIN A   1      18.046   5.606  15.931  0.00  0.00     0.124 C 
BRANCH  16  19
ATOM     19  O30 ZIN A   1      17.286   5.106  19.578  0.00  0.00    -0.395 OA
ATOM     20  H63 ZIN A   1      16.467   4.770  19.967  0.00  0.00     0.210 HD
ENDBRANCH  16  19
BRANCH  18  21
ATOM     21  O26 ZIN A   1      16.791   5.107  15.464  0.00  0.00    -0.395 OA
ATOM     22  H60 ZIN A   1      16.438   5.582  14.700  0.00  0.00     0.210 HD
ENDBRANCH  18  21
ENDBRANCH   6  12
BRANCH   1  23
ATOM     23  C2  ZIN A   1      17.869  -1.143  10.206  0.00  0.00     0.008 C 
ATOM     24  C1  ZIN A   1      17.782  -2.654   9.982  0.00  0.00     0.014 C 
BRANCH  23  25
ATOM     25  C4  ZIN A   1      17.897  -0.438   8.875  0.00  0.00    -0.026 C 
ATOM     26  C5  ZIN A   1      18.412  -1.034   7.829  0.00  0.00    -0.023 C 
BRANCH  26  27
ATOM     27  C6  ZIN A   1      18.440  -0.329   6.497  0.00  0.00     0.037 C 
ATOM     28  C8  ZIN A   1      17.049   0.226   6.184  0.00  0.00     0.017 C 
BRANCH  27  29
ATOM     29  C9  ZIN A   1      18.852  -1.318   5.405  0.00  0.00     0.057 C 
ATOM     30  C10 ZIN A   1      19.185  -2.669   6.041  0.00  0.00     0.046 C 
ATOM     31  C11 ZIN A   1      17.701  -1.492   4.412  0.00  0.00     0.046 C 
BRANCH  29  32
ATOM     32  O12 ZIN A   1      20.001  -0.818   4.719  0.00  0.00    -0.390 OA
ATOM     33  H51 ZIN A   1      20.089  -1.140   3.811  0.00  0.00     0.210 HD
ENDBRANCH  29  32
ENDBRANCH  27  29
ENDBRANCH  26  27
ENDBRANCH  23  25
ENDBRANCH   1  23
TORSDOF 8
ENDMDL
MODEL 9
REMARK VINA RESULT:      -8.3      2.971      9.591
REMARK  8 active torsions:
REMARK  status: ('A' for Active; 'I' for Inactive)
REMARK    1  A    between atoms: C2_2  and  C4_3 
REMARK    2  A    between atoms: C2_2  and  C13_11 
REMARK    3  A    between atoms: C5_4  and  C6_5 
REMARK    4  A    between atoms: C6_5  and  C9_7 
REMARK    5  A    between atoms: C9_7  and  O12_10 
REMARK    6  A    between atoms: C20_16  and  C21_17 
REMARK    7  A    between atoms: C24_20  and  O26_21 
REMARK    8  A    between atoms: C28_23  and  O30_24 
ROOT
ATOM      1  C13 ZIN A   1      19.097   0.133   8.663  0.00  0.00     0.002 C 
ATOM      2  C15 ZIN A   1      19.138  -1.313   9.224  0.00  0.00     0.007 C 
ATOM      3  C16 ZIN A   1      18.872  -2.257   8.018  0.00  0.00     0.010 C 
ATOM      4  C17 ZIN A   1      19.310  -1.409   6.822  0.00  0.00     0.023 C 
ATOM      5  C19 ZIN A   1      18.717  -1.765   5.491  0.00  0.00    -0.075 C 
ATOM      6  C20 ZIN A   1      18.017  -2.878   5.299  0.00  0.00     0.003 C 
ATOM      7  C32 ZIN A   1      18.975  -0.762   4.376  0.00  0.00     0.034 C 
ATOM      8  C33 ZIN A   1      18.617   0.653   4.830  0.00  0.00     0.005 C 
ATOM      9  C34 ZIN A   1      19.229   0.984   6.200  0.00  0.00     0.010 C 
ATOM     10  C35 ZIN A   1      18.716  -0.021   7.198  0.00  0.00    -0.032 C 
ATOM     11  C36 ZIN A   1      17.192  -0.104   7.094  0.00  0.00     0.016 C 
ENDROOT
BRANCH   6  12
ATOM     12  C21 ZIN A   1      17.459  -3.176   3.971  0.00  0.00     0.003 C 
ATOM     13  C22 ZIN A   1      17.134  -4.424   3.651  0.00  0.00    -0.075 C 
ATOM     14  C31 ZIN A   1      16.696  -4.776   2.246  0.00  0.00     0.066 C 
ATOM     15  C23 ZIN A   1      17.189  -5.529   4.683  0.00  0.00     0.066 C 
ATOM     16  C28 ZIN A   1      15.380  -5.549   2.321  0.00  0.00     0.124 C 
ATOM     17  C27 ZIN A   1      15.548  -6.752   3.250  0.00  0.00     0.064 C 
ATOM     18  C24 ZIN A   1      15.850  -6.273   4.671  0.00  0.00     0.124 C 
BRANCH  16  19
ATOM     19  O30 ZIN A   1      15.016  -6.001   1.015  0.00  0.00    -0.395 OA
ATOM     20  H63 ZIN A   1      15.233  -6.928   0.847  0.00  0.00     0.210 HD
ENDBRANCH  16  19
BRANCH  18  21
ATOM     21  O26 ZIN A   1      14.812  -5.394   5.109  0.00  0.00    -0.395 OA
ATOM     22  H60 ZIN A   1      13.987  -5.842   5.337  0.00  0.00     0.210 HD
ENDBRANCH  18  21
ENDBRANCH   6  12
BRANCH   1  23
ATOM     23  C2  ZIN A   1      18.043   0.961   9.402  0.00  0.00     0.008 C 
ATOM     24  C1  ZIN A   1      18.615   2.343   9.723  0.00  0.00     0.014 C 
BRANCH  23  25
ATOM     25  C4  ZIN A   1      17.665   0.264  10.683  0.00  0.00    -0.026 C 
ATOM     26  C5  ZIN A   1      18.338   0.501  11.781  0.00  0.00    -0.023 C 
BRANCH  26  27
ATOM     27  C6  ZIN A   1      17.960  -0.195  13.063  0.00  0.00     0.037 C 
ATOM     28  C8  ZIN A   1      17.603   0.847  14.125  0.00  0.00     0.017 C 
BRANCH  27  29
ATOM     29  C9  ZIN A   1      19.138  -1.040  13.552  0.00  0.00     0.057 C 
ATOM     30  C10 ZIN A   1      19.012  -1.268  15.059  0.00  0.00     0.046 C 
ATOM     31  C11 ZIN A   1      19.133  -2.389  12.830  0.00  0.00     0.046 C 
BRANCH  29  32
ATOM     32  O12 ZIN A   1      20.361  -0.355  13.274  0.00  0.00    -0.390 OA
ATOM     33  H51 ZIN A   1      21.152  -0.896  13.401  0.00  0.00     0.210 HD
ENDBRANCH  29  32
ENDBRANCH  27  29
ENDBRANCH  26  27
ENDBRANCH  23  25
ENDBRANCH   1  23
TORSDOF 8
ENDMDL
