MODEL 1
REMARK VINA RESULT:      -9.4      0.000      0.000
REMARK  3 active torsions:
REMARK  status: ('A' for Active; 'I' for Inactive)
REMARK    1  A    between atoms: C7_7  and  N9_8 
REMARK    2  A    between atoms: C11_10  and  C12_11 
REMARK    3  A    between atoms: C12_11  and  C13_12 
ROOT
ATOM      1  N9  <0> d   1      18.427  -0.236  10.759  0.00  0.00    -0.229 N 
ATOM      2  N10 <0> d   1      18.840   0.155   9.485  0.00  0.00    -0.173 NA
ATOM      3  C11 <0> d   1      18.790   1.389   9.079  0.00  0.00     0.070 A 
ATOM      4  C20 <0> d   1      18.287   2.433   9.971  0.00  0.00     0.006 A 
ATOM      5  C21 <0> d   1      18.218   3.769   9.574  0.00  0.00     0.014 A 
ATOM      6  C22 <0> d   1      17.736   4.715  10.452  0.00  0.00     0.001 A 
ATOM      7  C23 <0> d   1      17.318   4.354  11.726  0.00  0.00     0.001 A 
ATOM      8  C24 <0> d   1      17.377   3.041  12.139  0.00  0.00     0.018 A 
ATOM      9  C25 <0> d   1      17.861   2.067  11.268  0.00  0.00     0.046 A 
ATOM     10  C26 <0> d   1      17.942   0.651  11.652  0.00  0.00     0.275 A 
ATOM     11  O27 <0> d   1      17.584   0.287  12.757  0.00  0.00    -0.266 OA
ENDROOT
BRANCH   1  12
ATOM     12  C7  <0> d   1      18.517  -1.649  11.135  0.00  0.00     0.115 C 
ATOM     13  C6  <0> d   1      20.002  -2.089  11.148  0.00  0.00     0.029 C 
ATOM     14  C5  <0> d   1      20.167  -3.353  11.857  0.00  0.00     0.030 C 
ATOM     15  C4  <0> d   1      19.394  -4.514  11.210  0.00  0.00     0.234 C 
ATOM     16  N2  <0> d   1      18.034  -4.461  11.688  0.00  0.00    -0.075 N 
ATOM     17  C1  <0> d   1      17.541  -5.832  11.878  0.00  0.00     0.269 C 
ATOM     18  H3  <0> d   1      18.016  -3.981  12.575  0.00  0.00     0.279 HD
ATOM     19  C29 <0> d   1      17.144  -3.757  10.740  0.00  0.00     0.236 C 
ATOM     20  C28 <0> d   1      17.770  -2.489  10.134  0.00  0.00     0.055 C 
ENDBRANCH   1  12
BRANCH   3  21
ATOM     21  C12 <0> d   1      19.252   1.743   7.689  0.00  0.00     0.100 C 
BRANCH  21  22
ATOM     22  C13 <0> d   1      18.695   0.746   6.704  0.00  0.00    -0.052 A 
ATOM     23  C19 <0> d   1      19.474   0.307   5.650  0.00  0.00     0.009 A 
ATOM     24  C18 <0> d   1      18.966  -0.610   4.750  0.00  0.00     0.024 A 
ATOM     25  C16 <0> d   1      17.673  -1.080   4.897  0.00  0.00     0.034 A 
ATOM     26  C15 <0> d   1      16.891  -0.635   5.949  0.00  0.00     0.024 A 
ATOM     27 Cl17 <0> d   1      17.032  -2.226   3.764  0.00  0.00    -0.084 Cl
ATOM     28  C14 <0> d   1      17.403   0.278   6.851  0.00  0.00     0.009 A 
ENDBRANCH  21  22
ENDBRANCH   3  21
TORSDOF 3
ENDMDL
MODEL 2
REMARK VINA RESULT:      -9.1      2.099      3.077
REMARK  3 active torsions:
REMARK  status: ('A' for Active; 'I' for Inactive)
REMARK    1  A    between atoms: C7_7  and  N9_8 
REMARK    2  A    between atoms: C11_10  and  C12_11 
REMARK    3  A    between atoms: C12_11  and  C13_12 
ROOT
ATOM      1  N9  <0> d   1      18.558  -0.992  12.757  0.00  0.00    -0.229 N 
ATOM      2  N10 <0> d   1      18.236   0.015  11.847  0.00  0.00    -0.173 NA
ATOM      3  C11 <0> d   1      18.178   1.270  12.182  0.00  0.00     0.070 A 
ATOM      4  C20 <0> d   1      18.457   1.674  13.561  0.00  0.00     0.006 A 
ATOM      5  C21 <0> d   1      18.406   3.010  13.961  0.00  0.00     0.014 A 
ATOM      6  C22 <0> d   1      18.677   3.338  15.271  0.00  0.00     0.001 A 
ATOM      7  C23 <0> d   1      19.000   2.355  16.197  0.00  0.00     0.001 A 
ATOM      8  C24 <0> d   1      19.057   1.030  15.824  0.00  0.00     0.018 A 
ATOM      9  C25 <0> d   1      18.786   0.674  14.504  0.00  0.00     0.046 A 
ATOM     10  C26 <0> d   1      18.826  -0.722  14.051  0.00  0.00     0.275 A 
ATOM     11  O27 <0> d   1      19.101  -1.619  14.828  0.00  0.00    -0.266 OA
ENDROOT
BRANCH   1  12
ATOM     12  C7  <0> d   1      18.601  -2.382  12.295  0.00  0.00     0.115 C 
ATOM     13  C6  <0> d   1      19.972  -2.667  11.633  0.00  0.00     0.029 C 
ATOM     14  C5  <0> d   1      20.198  -4.101  11.493  0.00  0.00     0.030 C 
ATOM     15  C4  <0> d   1      19.154  -4.792  10.601  0.00  0.00     0.234 C 
ATOM     16  N2  <0> d   1      18.000  -5.087  11.416  0.00  0.00    -0.075 N 
ATOM     17  C1  <0> d   1      17.440  -6.380  11.001  0.00  0.00     0.269 C 
ATOM     18  H3  <0> d   1      18.288  -5.149  12.382  0.00  0.00     0.279 HD
ATOM     19  C29 <0> d   1      16.956  -4.046  11.290  0.00  0.00     0.236 C 
ATOM     20  C28 <0> d   1      17.514  -2.613  11.280  0.00  0.00     0.055 C 
ENDBRANCH   1  12
BRANCH   3  21
ATOM     21  C12 <0> d   1      17.823   2.309  11.150  0.00  0.00     0.100 C 
BRANCH  21  22
ATOM     22  C13 <0> d   1      18.095   1.762   9.772  0.00  0.00    -0.052 A 
ATOM     23  C19 <0> d   1      19.058   2.350   8.973  0.00  0.00     0.009 A 
ATOM     24  C18 <0> d   1      19.312   1.846   7.711  0.00  0.00     0.024 A 
ATOM     25  C16 <0> d   1      18.593   0.760   7.243  0.00  0.00     0.034 A 
ATOM     26  C15 <0> d   1      17.625   0.176   8.041  0.00  0.00     0.024 A 
ATOM     27 Cl17 <0> d   1      18.905   0.132   5.657  0.00  0.00    -0.084 Cl
ATOM     28  C14 <0> d   1      17.377   0.678   9.305  0.00  0.00     0.009 A 
ENDBRANCH  21  22
ENDBRANCH   3  21
TORSDOF 3
ENDMDL
MODEL 3
REMARK VINA RESULT:      -8.9      3.871      6.090
REMARK  3 active torsions:
REMARK  status: ('A' for Active; 'I' for Inactive)
REMARK    1  A    between atoms: C7_7  and  N9_8 
REMARK    2  A    between atoms: C11_10  and  C12_11 
REMARK    3  A    between atoms: C12_11  and  C13_12 
ROOT
ATOM      1  N9  <0> d   1      18.411  -1.699  10.488  0.00  0.00    -0.229 N 
ATOM      2  N10 <0> d   1      19.190  -1.501  11.629  0.00  0.00    -0.173 NA
ATOM      3  C11 <0> d   1      19.608  -0.327  11.998  0.00  0.00     0.070 A 
ATOM      4  C20 <0> d   1      19.266   0.854  11.205  0.00  0.00     0.006 A 
ATOM      5  C21 <0> d   1      19.695   2.132  11.566  0.00  0.00     0.014 A 
ATOM      6  C22 <0> d   1      19.345   3.212  10.786  0.00  0.00     0.001 A 
ATOM      7  C23 <0> d   1      18.572   3.044   9.646  0.00  0.00     0.001 A 
ATOM      8  C24 <0> d   1      18.137   1.792   9.270  0.00  0.00     0.018 A 
ATOM      9  C25 <0> d   1      18.478   0.684  10.044  0.00  0.00     0.046 A 
ATOM     10  C26 <0> d   1      18.048  -0.675   9.689  0.00  0.00     0.275 A 
ATOM     11  O27 <0> d   1      17.372  -0.871   8.696  0.00  0.00    -0.266 OA
ENDROOT
BRANCH   1  12
ATOM     12  C7  <0> d   1      17.982  -3.058  10.145  0.00  0.00     0.115 C 
ATOM     13  C6  <0> d   1      17.348  -3.730  11.388  0.00  0.00     0.029 C 
ATOM     14  C5  <0> d   1      16.589  -4.917  11.010  0.00  0.00     0.030 C 
ATOM     15  C4  <0> d   1      17.454  -6.001  10.346  0.00  0.00     0.234 C 
ATOM     16  N2  <0> d   1      17.576  -5.674   8.946  0.00  0.00    -0.075 N 
ATOM     17  C1  <0> d   1      17.555  -6.916   8.162  0.00  0.00     0.269 C 
ATOM     18  H3  <0> d   1      16.791  -5.101   8.673  0.00  0.00     0.279 HD
ATOM     19  C29 <0> d   1      18.829  -4.943   8.658  0.00  0.00     0.236 C 
ATOM     20  C28 <0> d   1      19.170  -3.870   9.706  0.00  0.00     0.055 C 
ENDBRANCH   1  12
BRANCH   3  21
ATOM     21  C12 <0> d   1      20.447  -0.183  13.242  0.00  0.00     0.100 C 
BRANCH  21  22
ATOM     22  C13 <0> d   1      19.546  -0.025  14.440  0.00  0.00    -0.052 A 
ATOM     23  C19 <0> d   1      19.301   1.233  14.958  0.00  0.00     0.009 A 
ATOM     24  C18 <0> d   1      18.470   1.380  16.053  0.00  0.00     0.024 A 
ATOM     25  C16 <0> d   1      17.895   0.266  16.638  0.00  0.00     0.034 A 
ATOM     26  C15 <0> d   1      18.145  -0.993  16.122  0.00  0.00     0.024 A 
ATOM     27 Cl17 <0> d   1      16.858   0.449  18.018  0.00  0.00    -0.084 Cl
ATOM     28  C14 <0> d   1      18.970  -1.137  15.023  0.00  0.00     0.009 A 
ENDBRANCH  21  22
ENDBRANCH   3  21
TORSDOF 3
ENDMDL
MODEL 4
REMARK VINA RESULT:      -8.9      3.710      5.939
REMARK  3 active torsions:
REMARK  status: ('A' for Active; 'I' for Inactive)
REMARK    1  A    between atoms: C7_7  and  N9_8 
REMARK    2  A    between atoms: C11_10  and  C12_11 
REMARK    3  A    between atoms: C12_11  and  C13_12 
ROOT
ATOM      1  N9  <0> d   1      18.648  -0.239   9.700  0.00  0.00    -0.229 N 
ATOM      2  N10 <0> d   1      19.360  -0.362  10.894  0.00  0.00    -0.173 NA
ATOM      3  C11 <0> d   1      19.633   0.656  11.656  0.00  0.00     0.070 A 
ATOM      4  C20 <0> d   1      19.189   1.997  11.273  0.00  0.00     0.006 A 
ATOM      5  C21 <0> d   1      19.461   3.115  12.062  0.00  0.00     0.014 A 
ATOM      6  C22 <0> d   1      19.022   4.356  11.657  0.00  0.00     0.001 A 
ATOM      7  C23 <0> d   1      18.311   4.506  10.474  0.00  0.00     0.001 A 
ATOM      8  C24 <0> d   1      18.031   3.417   9.679  0.00  0.00     0.018 A 
ATOM      9  C25 <0> d   1      18.466   2.151  10.068  0.00  0.00     0.046 A 
ATOM     10  C26 <0> d   1      18.202   0.955   9.259  0.00  0.00     0.275 A 
ATOM     11  O27 <0> d   1      17.586   1.038   8.211  0.00  0.00    -0.266 OA
ENDROOT
BRANCH   1  12
ATOM     12  C7  <0> d   1      18.384  -1.439   8.902  0.00  0.00     0.115 C 
ATOM     13  C6  <0> d   1      18.303  -2.674   9.833  0.00  0.00     0.029 C 
ATOM     14  C5  <0> d   1      17.690  -3.806   9.148  0.00  0.00     0.030 C 
ATOM     15  C4  <0> d   1      18.483  -4.266   7.914  0.00  0.00     0.234 C 
ATOM     16  N2  <0> d   1      18.099  -3.429   6.803  0.00  0.00    -0.075 N 
ATOM     17  C1  <0> d   1      18.057  -4.245   5.582  0.00  0.00     0.269 C 
ATOM     18  H3  <0> d   1      17.178  -3.053   6.978  0.00  0.00     0.279 HD
ATOM     19  C29 <0> d   1      19.046  -2.311   6.603  0.00  0.00     0.236 C 
ATOM     20  C28 <0> d   1      19.500  -1.647   7.915  0.00  0.00     0.055 C 
ENDBRANCH   1  12
BRANCH   3  21
ATOM     21  C12 <0> d   1      20.407   0.454  12.933  0.00  0.00     0.100 C 
BRANCH  21  22
ATOM     22  C13 <0> d   1      19.467   0.015  14.026  0.00  0.00    -0.052 A 
ATOM     23  C19 <0> d   1      18.629   0.936  14.628  0.00  0.00     0.009 A 
ATOM     24  C18 <0> d   1      17.763   0.533  15.627  0.00  0.00     0.024 A 
ATOM     25  C16 <0> d   1      17.744  -0.790  16.033  0.00  0.00     0.034 A 
ATOM     26  C15 <0> d   1      18.587  -1.709  15.435  0.00  0.00     0.024 A 
ATOM     27 Cl17 <0> d   1      16.662  -1.295  17.292  0.00  0.00    -0.084 Cl
ATOM     28  C14 <0> d   1      19.448  -1.306  14.432  0.00  0.00     0.009 A 
ENDBRANCH  21  22
ENDBRANCH   3  21
TORSDOF 3
ENDMDL
MODEL 5
REMARK VINA RESULT:      -8.8      4.317      6.980
REMARK  3 active torsions:
REMARK  status: ('A' for Active; 'I' for Inactive)
REMARK    1  A    between atoms: C7_7  and  N9_8 
REMARK    2  A    between atoms: C11_10  and  C12_11 
REMARK    3  A    between atoms: C12_11  and  C13_12 
ROOT
ATOM      1  N9  <0> d   1      18.840   0.928  12.726  0.00  0.00    -0.229 N 
ATOM      2  N10 <0> d   1      18.407   2.220  12.425  0.00  0.00    -0.173 NA
ATOM      3  C11 <0> d   1      18.368   2.681  11.210  0.00  0.00     0.070 A 
ATOM      4  C20 <0> d   1      18.786   1.835  10.092  0.00  0.00     0.006 A 
ATOM      5  C21 <0> d   1      18.758   2.291   8.774  0.00  0.00     0.014 A 
ATOM      6  C22 <0> d   1      19.163   1.455   7.757  0.00  0.00     0.001 A 
ATOM      7  C23 <0> d   1      19.598   0.165   8.028  0.00  0.00     0.001 A 
ATOM      8  C24 <0> d   1      19.634  -0.307   9.322  0.00  0.00     0.018 A 
ATOM      9  C25 <0> d   1      19.229   0.521  10.367  0.00  0.00     0.046 A 
ATOM     10  C26 <0> d   1      19.251   0.074  11.766  0.00  0.00     0.275 A 
ATOM     11  O27 <0> d   1      19.629  -1.047  12.053  0.00  0.00    -0.266 OA
ENDROOT
BRANCH   1  12
ATOM     12  C7  <0> d   1      18.853   0.489  14.124  0.00  0.00     0.115 C 
ATOM     13  C6  <0> d   1      17.908  -0.726  14.295  0.00  0.00     0.029 C 
ATOM     14  C5  <0> d   1      18.163  -1.413  15.556  0.00  0.00     0.030 C 
ATOM     15  C4  <0> d   1      17.924  -0.524  16.787  0.00  0.00     0.234 C 
ATOM     16  N2  <0> d   1      19.119   0.254  17.009  0.00  0.00    -0.075 N 
ATOM     17  C1  <0> d   1      19.339   0.390  18.455  0.00  0.00     0.269 C 
ATOM     18  H3  <0> d   1      19.906  -0.229  16.601  0.00  0.00     0.279 HD
ATOM     19  C29 <0> d   1      19.017   1.602  16.408  0.00  0.00     0.236 C 
ATOM     20  C28 <0> d   1      18.373   1.606  15.011  0.00  0.00     0.055 C 
ENDBRANCH   1  12
BRANCH   3  21
ATOM     21  C12 <0> d   1      17.890   4.087  10.954  0.00  0.00     0.100 C 
BRANCH  21  22
ATOM     22  C13 <0> d   1      17.962   4.883  12.231  0.00  0.00    -0.052 A 
ATOM     23  C19 <0> d   1      16.833   5.522  12.711  0.00  0.00     0.009 A 
ATOM     24  C18 <0> d   1      16.897   6.248  13.886  0.00  0.00     0.024 A 
ATOM     25  C16 <0> d   1      18.094   6.346  14.574  0.00  0.00     0.034 A 
ATOM     26  C15 <0> d   1      19.224   5.712  14.090  0.00  0.00     0.024 A 
ATOM     27 Cl17 <0> d   1      18.176   7.264  16.044  0.00  0.00    -0.084 Cl
ATOM     28  C14 <0> d   1      19.157   4.981  12.918  0.00  0.00     0.009 A 
ENDBRANCH  21  22
ENDBRANCH   3  21
TORSDOF 3
ENDMDL
MODEL 6
REMARK VINA RESULT:      -8.8      2.955      5.585
REMARK  3 active torsions:
REMARK  status: ('A' for Active; 'I' for Inactive)
REMARK    1  A    between atoms: C7_7  and  N9_8 
REMARK    2  A    between atoms: C11_10  and  C12_11 
REMARK    3  A    between atoms: C12_11  and  C13_12 
ROOT
ATOM      1  N9  <0> d   1      19.004  -0.833   9.336  0.00  0.00    -0.229 N 
ATOM      2  N10 <0> d   1      19.112  -2.212   9.147  0.00  0.00    -0.173 NA
ATOM      3  C11 <0> d   1      19.142  -2.758   7.968  0.00  0.00     0.070 A 
ATOM      4  C20 <0> d   1      19.061  -1.921   6.771  0.00  0.00     0.006 A 
ATOM      5  C21 <0> d   1      19.090  -2.468   5.488  0.00  0.00     0.014 A 
ATOM      6  C22 <0> d   1      19.010  -1.636   4.393  0.00  0.00     0.001 A 
ATOM      7  C23 <0> d   1      18.902  -0.261   4.551  0.00  0.00     0.001 A 
ATOM      8  C24 <0> d   1      18.872   0.301   5.809  0.00  0.00     0.018 A 
ATOM      9  C25 <0> d   1      18.951  -0.521   6.932  0.00  0.00     0.046 A 
ATOM     10  C26 <0> d   1      18.918   0.021   8.296  0.00  0.00     0.275 A 
ATOM     11  O27 <0> d   1      18.820   1.221   8.484  0.00  0.00    -0.266 OA
ENDROOT
BRANCH   1  12
ATOM     12  C7  <0> d   1      18.978  -0.301  10.701  0.00  0.00     0.115 C 
ATOM     13  C6  <0> d   1      20.418  -0.264  11.271  0.00  0.00     0.029 C 
ATOM     14  C5  <0> d   1      20.489   0.582  12.457  0.00  0.00     0.030 C 
ATOM     15  C4  <0> d   1      19.598   0.084  13.607  0.00  0.00     0.234 C 
ATOM     16  N2  <0> d   1      18.262   0.576  13.378  0.00  0.00    -0.075 N 
ATOM     17  C1  <0> d   1      17.654   0.929  14.668  0.00  0.00     0.269 C 
ATOM     18  H3  <0> d   1      18.311   1.403  12.801  0.00  0.00     0.279 HD
ATOM     19  C29 <0> d   1      17.412  -0.430  12.704  0.00  0.00     0.236 C 
ATOM     20  C28 <0> d   1      18.132  -1.187  11.575  0.00  0.00     0.055 C 
ENDBRANCH   1  12
BRANCH   3  21
ATOM     21  C12 <0> d   1      19.260  -4.254   7.835  0.00  0.00     0.100 C 
BRANCH  21  22
ATOM     22  C13 <0> d   1      17.886  -4.873   7.879  0.00  0.00    -0.052 A 
ATOM     23  C19 <0> d   1      17.165  -4.871   9.059  0.00  0.00     0.009 A 
ATOM     24  C18 <0> d   1      15.903  -5.434   9.100  0.00  0.00     0.024 A 
ATOM     25  C16 <0> d   1      15.367  -6.010   7.962  0.00  0.00     0.034 A 
ATOM     26  C15 <0> d   1      16.091  -6.016   6.782  0.00  0.00     0.024 A 
ATOM     27 Cl17 <0> d   1      13.785  -6.722   8.013  0.00  0.00    -0.084 Cl
ATOM     28  C14 <0> d   1      17.350  -5.448   6.743  0.00  0.00     0.009 A 
ENDBRANCH  21  22
ENDBRANCH   3  21
TORSDOF 3
ENDMDL
MODEL 7
REMARK VINA RESULT:      -8.6      3.584      6.003
REMARK  3 active torsions:
REMARK  status: ('A' for Active; 'I' for Inactive)
REMARK    1  A    between atoms: C7_7  and  N9_8 
REMARK    2  A    between atoms: C11_10  and  C12_11 
REMARK    3  A    between atoms: C12_11  and  C13_12 
ROOT
ATOM      1  N9  <0> d   1      18.858   1.700  13.418  0.00  0.00    -0.229 N 
ATOM      2  N10 <0> d   1      19.582   0.571  13.032  0.00  0.00    -0.173 NA
ATOM      3  C11 <0> d   1      19.856   0.305  11.789  0.00  0.00     0.070 A 
ATOM      4  C20 <0> d   1      19.402   1.206  10.730  0.00  0.00     0.006 A 
ATOM      5  C21 <0> d   1      19.675   0.958   9.384  0.00  0.00     0.014 A 
ATOM      6  C22 <0> d   1      19.224   1.837   8.425  0.00  0.00     0.001 A 
ATOM      7  C23 <0> d   1      18.501   2.967   8.782  0.00  0.00     0.001 A 
ATOM      8  C24 <0> d   1      18.220   3.233  10.104  0.00  0.00     0.018 A 
ATOM      9  C25 <0> d   1      18.666   2.357  11.092  0.00  0.00     0.046 A 
ATOM     10  C26 <0> d   1      18.390   2.587  12.516  0.00  0.00     0.275 A 
ATOM     11  O27 <0> d   1      17.757   3.563  12.876  0.00  0.00    -0.266 OA
ENDROOT
BRANCH   1  12
ATOM     12  C7  <0> d   1      18.594   1.923  14.842  0.00  0.00     0.115 C 
ATOM     13  C6  <0> d   1      19.537   3.029  15.377  0.00  0.00     0.029 C 
ATOM     14  C5  <0> d   1      19.072   3.535  16.663  0.00  0.00     0.030 C 
ATOM     15  C4  <0> d   1      19.031   2.456  17.758  0.00  0.00     0.234 C 
ATOM     16  N2  <0> d   1      17.786   1.740  17.628  0.00  0.00    -0.075 N 
ATOM     17  C1  <0> d   1      17.285   1.404  18.967  0.00  0.00     0.269 C 
ATOM     18  H3  <0> d   1      17.112   2.333  17.165  0.00  0.00     0.279 HD
ATOM     19  C29 <0> d   1      17.946   0.494  16.847  0.00  0.00     0.236 C 
ATOM     20  C28 <0> d   1      18.847   0.654  15.610  0.00  0.00     0.055 C 
ENDBRANCH   1  12
BRANCH   3  21
ATOM     21  C12 <0> d   1      20.643  -0.932  11.440  0.00  0.00     0.100 C 
BRANCH  21  22
ATOM     22  C13 <0> d   1      19.730  -2.131  11.458  0.00  0.00    -0.052 A 
ATOM     23  C19 <0> d   1      18.359  -1.954  11.473  0.00  0.00     0.009 A 
ATOM     24  C18 <0> d   1      17.520  -3.053  11.484  0.00  0.00     0.024 A 
ATOM     25  C16 <0> d   1      18.054  -4.330  11.493  0.00  0.00     0.034 A 
ATOM     26  C15 <0> d   1      19.427  -4.505  11.483  0.00  0.00     0.024 A 
ATOM     27 Cl17 <0> d   1      17.002  -5.709  11.514  0.00  0.00    -0.084 Cl
ATOM     28  C14 <0> d   1      20.263  -3.405  11.466  0.00  0.00     0.009 A 
ENDBRANCH  21  22
ENDBRANCH   3  21
TORSDOF 3
ENDMDL
MODEL 8
REMARK VINA RESULT:      -8.6      3.211      5.797
REMARK  3 active torsions:
REMARK  status: ('A' for Active; 'I' for Inactive)
REMARK    1  A    between atoms: C7_7  and  N9_8 
REMARK    2  A    between atoms: C11_10  and  C12_11 
REMARK    3  A    between atoms: C12_11  and  C13_12 
ROOT
ATOM      1  N9  <0> d   1      18.338  -0.419  12.693  0.00  0.00    -0.229 N 
ATOM      2  N10 <0> d   1      19.051  -1.608  12.533  0.00  0.00    -0.173 NA
ATOM      3  C11 <0> d   1      19.220  -2.174  11.375  0.00  0.00     0.070 A 
ATOM      4  C20 <0> d   1      18.654  -1.563  10.172  0.00  0.00     0.006 A 
ATOM      5  C21 <0> d   1      18.814  -2.137   8.910  0.00  0.00     0.014 A 
ATOM      6  C22 <0> d   1      18.261  -1.523   7.809  0.00  0.00     0.001 A 
ATOM      7  C23 <0> d   1      17.547  -0.339   7.939  0.00  0.00     0.001 A 
ATOM      8  C24 <0> d   1      17.376   0.246   9.175  0.00  0.00     0.018 A 
ATOM      9  C25 <0> d   1      17.927  -0.358  10.304  0.00  0.00     0.046 A 
ATOM     10  C26 <0> d   1      17.773   0.217  11.646  0.00  0.00     0.275 A 
ATOM     11  O27 <0> d   1      17.152   1.251  11.810  0.00  0.00    -0.266 OA
ENDROOT
BRANCH   1  12
ATOM     12  C7  <0> d   1      18.194   0.150  14.036  0.00  0.00     0.115 C 
ATOM     13  C6  <0> d   1      19.248   1.266  14.241  0.00  0.00     0.029 C 
ATOM     14  C5  <0> d   1      18.915   2.094  15.394  0.00  0.00     0.030 C 
ATOM     15  C4  <0> d   1      18.880   1.306  16.714  0.00  0.00     0.234 C 
ATOM     16  N2  <0> d   1      17.581   0.687  16.826  0.00  0.00    -0.075 N 
ATOM     17  C1  <0> d   1      17.158   0.714  18.232  0.00  0.00     0.269 C 
ATOM     18  H3  <0> d   1      16.919   1.211  16.273  0.00  0.00     0.279 HD
ATOM     19  C29 <0> d   1      17.598  -0.716  16.355  0.00  0.00     0.236 C 
ATOM     20  C28 <0> d   1      18.415  -0.923  15.067  0.00  0.00     0.055 C 
ENDBRANCH   1  12
BRANCH   3  21
ATOM     21  C12 <0> d   1      20.001  -3.458  11.272  0.00  0.00     0.100 C 
BRANCH  21  22
ATOM     22  C13 <0> d   1      19.157  -4.507  10.593  0.00  0.00    -0.052 A 
ATOM     23  C19 <0> d   1      19.643  -5.171   9.482  0.00  0.00     0.009 A 
ATOM     24  C18 <0> d   1      18.872  -6.136   8.862  0.00  0.00     0.024 A 
ATOM     25  C16 <0> d   1      17.609  -6.429   9.347  0.00  0.00     0.034 A 
ATOM     26  C15 <0> d   1      17.122  -5.760  10.455  0.00  0.00     0.024 A 
ATOM     27 Cl17 <0> d   1      16.638  -7.636   8.565  0.00  0.00    -0.084 Cl
ATOM     28  C14 <0> d   1      17.897  -4.799  11.077  0.00  0.00     0.009 A 
ENDBRANCH  21  22
ENDBRANCH   3  21
TORSDOF 3
ENDMDL
MODEL 9
REMARK VINA RESULT:      -8.5      4.530      8.282
REMARK  3 active torsions:
REMARK  status: ('A' for Active; 'I' for Inactive)
REMARK    1  A    between atoms: C7_7  and  N9_8 
REMARK    2  A    between atoms: C11_10  and  C12_11 
REMARK    3  A    between atoms: C12_11  and  C13_12 
ROOT
ATOM      1  N9  <0> d   1      18.376   3.167  12.450  0.00  0.00    -0.229 N 
ATOM      2  N10 <0> d   1      18.102   1.882  12.919  0.00  0.00    -0.173 NA
ATOM      3  C11 <0> d   1      18.074   0.842  12.139  0.00  0.00     0.070 A 
ATOM      4  C20 <0> d   1      18.340   0.992  10.708  0.00  0.00     0.006 A 
ATOM      5  C21 <0> d   1      18.321  -0.098   9.838  0.00  0.00     0.014 A 
ATOM      6  C22 <0> d   1      18.577   0.097   8.499  0.00  0.00     0.001 A 
ATOM      7  C23 <0> d   1      18.853   1.365   8.006  0.00  0.00     0.001 A 
ATOM      8  C24 <0> d   1      18.877   2.456   8.846  0.00  0.00     0.018 A 
ATOM      9  C25 <0> d   1      18.621   2.283  10.205  0.00  0.00     0.046 A 
ATOM     10  C26 <0> d   1      18.628   3.410  11.147  0.00  0.00     0.275 A 
ATOM     11  O27 <0> d   1      18.861   4.540  10.760  0.00  0.00    -0.266 OA
ENDROOT
BRANCH   1  12
ATOM     12  C7  <0> d   1      18.387   4.284  13.399  0.00  0.00     0.115 C 
ATOM     13  C6  <0> d   1      18.819   3.775  14.796  0.00  0.00     0.029 C 
ATOM     14  C5  <0> d   1      19.194   4.885  15.664  0.00  0.00     0.030 C 
ATOM     15  C4  <0> d   1      18.040   5.868  15.918  0.00  0.00     0.234 C 
ATOM     16  N2  <0> d   1      17.994   6.793  14.812  0.00  0.00    -0.075 N 
ATOM     17  C1  <0> d   1      17.639   8.126  15.318  0.00  0.00     0.269 C 
ATOM     18  H3  <0> d   1      18.907   6.838  14.383  0.00  0.00     0.279 HD
ATOM     19  C29 <0> d   1      17.003   6.385  13.793  0.00  0.00     0.236 C 
ATOM     20  C28 <0> d   1      17.006   4.874  13.502  0.00  0.00     0.055 C 
ENDBRANCH   1  12
BRANCH   3  21
ATOM     21  C12 <0> d   1      17.770  -0.519  12.711  0.00  0.00     0.100 C 
BRANCH  21  22
ATOM     22  C13 <0> d   1      18.048  -0.517  14.192  0.00  0.00    -0.052 A 
ATOM     23  C19 <0> d   1      17.262   0.241  15.041  0.00  0.00     0.009 A 
ATOM     24  C18 <0> d   1      17.513   0.240  16.400  0.00  0.00     0.024 A 
ATOM     25  C16 <0> d   1      18.559  -0.510  16.909  0.00  0.00     0.034 A 
ATOM     26  C15 <0> d   1      19.349  -1.263  16.059  0.00  0.00     0.024 A 
ATOM     27 Cl17 <0> d   1      18.879  -0.506  18.615  0.00  0.00    -0.084 Cl
ATOM     28  C14 <0> d   1      19.093  -1.265  14.700  0.00  0.00     0.009 A 
ENDBRANCH  21  22
ENDBRANCH   3  21
TORSDOF 3
ENDMDL
