MODEL 1
REMARK VINA RESULT:      -8.7      0.000      0.000
REMARK  7 active torsions:
REMARK  status: ('A' for Active; 'I' for Inactive)
REMARK    1  A    between atoms: C2_2  and  C3_3 
REMARK    2  A    between atoms: C3_3  and  C4_4 
REMARK    3  A    between atoms: C11_11  and  C12_12 
REMARK    4  A    between atoms: C14_14  and  S15_15 
REMARK    5  A    between atoms: S15_15  and  N18_18 
REMARK    6  A    between atoms: C27_27  and  O28_28 
REMARK    7  A    between atoms: O28_28  and  C29_29 
ROOT
ATOM      1  C12 ZIN A   1      18.811  -0.560   8.670  0.00  0.00     0.045 A 
ATOM      2  C13 ZIN A   1      19.227  -0.370   9.989  0.00  0.00     0.043 A 
ATOM      3  C14 ZIN A   1      19.434   0.907  10.467  0.00  0.00     0.080 A 
ATOM      4  C25 ZIN A   1      19.233   2.001   9.644  0.00  0.00     0.028 A 
ATOM      5  C26 ZIN A   1      18.821   1.827   8.337  0.00  0.00     0.039 A 
ATOM      6  C27 ZIN A   1      18.612   0.550   7.839  0.00  0.00     0.082 A 
ENDROOT
BRANCH   1   7
ATOM      7  C11 ZIN A   1      18.586  -1.925   8.153  0.00  0.00     0.144 A 
ATOM      8  N10 ZIN A   1      17.919  -2.781   8.889  0.00  0.00    -0.226 NA
ATOM      9  C9  ZIN A   1      17.690  -4.038   8.458  0.00  0.00     0.119 A 
ATOM     10  C4  ZIN A   1      17.031  -5.152   9.016  0.00  0.00     0.086 A 
ATOM     11  C8  ZIN A   1      18.171  -4.434   7.203  0.00  0.00     0.151 A 
ATOM     12  N5  ZIN A   1      17.097  -6.144   8.171  0.00  0.00    -0.174 NA
ATOM     13  N6  ZIN A   1      17.798  -5.738   7.028  0.00  0.00    -0.266 N 
ATOM     14  C7  ZIN A   1      18.084  -6.565   5.852  0.00  0.00     0.180 C 
ATOM     15  C32 ZIN A   1      18.884  -3.497   6.420  0.00  0.00     0.278 A 
ATOM     16  N31 ZIN A   1      19.078  -2.258   6.921  0.00  0.00    -0.305 N 
ATOM     17  O33 ZIN A   1      19.318  -3.804   5.323  0.00  0.00    -0.265 OA
ATOM     18  H63 ZIN A   1      19.567  -1.599   6.402  0.00  0.00     0.170 HD
BRANCH  10  19
ATOM     19  C3  ZIN A   1      16.358  -5.189  10.364  0.00  0.00     0.063 C 
BRANCH  19  20
ATOM     20  C2  ZIN A   1      17.383  -5.568  11.435  0.00  0.00     0.002 C 
ATOM     21  C1  ZIN A   1      17.939  -4.297  12.081  0.00  0.00     0.005 C 
ENDBRANCH  19  20
ENDBRANCH  10  19
ENDBRANCH   1   7
BRANCH   6  22
ATOM     22  O28 ZIN A   1      18.207   0.377   6.555  0.00  0.00    -0.351 OA
BRANCH  22  23
ATOM     23  C29 ZIN A   1      19.111   0.792   5.529  0.00  0.00     0.171 C 
ATOM     24  C30 ZIN A   1      18.885  -0.057   4.277  0.00  0.00     0.034 C 
ENDBRANCH  22  23
ENDBRANCH   6  22
BRANCH   3  25
ATOM     25  S15 ZIN A   1      19.960   1.146  12.132  0.00  0.00     0.261 S 
ATOM     26  O16 ZIN A   1      21.255   0.571  12.231  0.00  0.00    -0.200 OA
ATOM     27  O17 ZIN A   1      19.686   2.504  12.447  0.00  0.00    -0.200 OA
BRANCH  25  28
ATOM     28  N18 ZIN A   1      18.968   0.235  13.095  0.00  0.00    -0.303 N 
ATOM     29  C24 ZIN A   1      17.629   0.714  13.468  0.00  0.00     0.165 C 
ATOM     30  C23 ZIN A   1      17.473   0.611  14.984  0.00  0.00     0.292 C 
ATOM     31  N21 ZIN A   1      17.786  -0.758  15.415  0.00  0.00     0.087 N 
ATOM     32  C20 ZIN A   1      19.182  -1.104  15.122  0.00  0.00     0.292 C 
ATOM     33  C22 ZIN A   1      17.486  -0.943  16.841  0.00  0.00     0.310 C 
ATOM     34  C19 ZIN A   1      19.405  -1.073  13.606  0.00  0.00     0.165 C 
ENDBRANCH  25  28
ENDBRANCH   3  25
TORSDOF 7
ENDMDL
MODEL 2
REMARK VINA RESULT:      -8.7      3.447      9.499
REMARK  7 active torsions:
REMARK  status: ('A' for Active; 'I' for Inactive)
REMARK    1  A    between atoms: C2_2  and  C3_3 
REMARK    2  A    between atoms: C3_3  and  C4_4 
REMARK    3  A    between atoms: C11_11  and  C12_12 
REMARK    4  A    between atoms: C14_14  and  S15_15 
REMARK    5  A    between atoms: S15_15  and  N18_18 
REMARK    6  A    between atoms: C27_27  and  O28_28 
REMARK    7  A    between atoms: O28_28  and  C29_29 
ROOT
ATOM      1  C12 ZIN A   1      18.615   0.997  14.207  0.00  0.00     0.045 A 
ATOM      2  C13 ZIN A   1      19.123   0.614  12.964  0.00  0.00     0.043 A 
ATOM      3  C14 ZIN A   1      19.356  -0.718  12.697  0.00  0.00     0.080 A 
ATOM      4  C25 ZIN A   1      19.090  -1.679  13.658  0.00  0.00     0.028 A 
ATOM      5  C26 ZIN A   1      18.587  -1.313  14.892  0.00  0.00     0.039 A 
ATOM      6  C27 ZIN A   1      18.351   0.022  15.177  0.00  0.00     0.082 A 
ENDROOT
BRANCH   1   7
ATOM      7  C11 ZIN A   1      18.361   2.422  14.497  0.00  0.00     0.144 A 
ATOM      8  N10 ZIN A   1      17.758   3.157  13.595  0.00  0.00    -0.226 NA
ATOM      9  C9  ZIN A   1      17.506   4.463  13.816  0.00  0.00     0.119 A 
ATOM     10  C4  ZIN A   1      16.900   5.479  13.051  0.00  0.00     0.086 A 
ATOM     11  C8  ZIN A   1      17.895   5.043  15.030  0.00  0.00     0.151 A 
ATOM     12  N5  ZIN A   1      16.909   6.586  13.742  0.00  0.00    -0.174 NA
ATOM     13  N6  ZIN A   1      17.519   6.357  14.982  0.00  0.00    -0.266 N 
ATOM     14  C7  ZIN A   1      17.722   7.351  16.040  0.00  0.00     0.180 C 
ATOM     15  C32 ZIN A   1      18.540   4.236  15.995  0.00  0.00     0.278 A 
ATOM     16  N31 ZIN A   1      18.763   2.937  15.700  0.00  0.00    -0.305 N 
ATOM     17  O33 ZIN A   1      18.893   4.703  17.064  0.00  0.00    -0.265 OA
ATOM     18  H63 ZIN A   1      19.207   2.364  16.346  0.00  0.00     0.170 HD
BRANCH  10  19
ATOM     19  C3  ZIN A   1      16.330   5.313  11.665  0.00  0.00     0.063 C 
BRANCH  19  20
ATOM     20  C2  ZIN A   1      17.451   5.449  10.633  0.00  0.00     0.002 C 
ATOM     21  C1  ZIN A   1      17.873   4.058  10.154  0.00  0.00     0.005 C 
ENDBRANCH  19  20
ENDBRANCH  10  19
ENDBRANCH   1   7
BRANCH   6  22
ATOM     22  O28 ZIN A   1      17.857   0.383  16.389  0.00  0.00    -0.351 OA
BRANCH  22  23
ATOM     23  C29 ZIN A   1      18.288  -0.380  17.518  0.00  0.00     0.171 C 
ATOM     24  C30 ZIN A   1      19.422   0.360  18.230  0.00  0.00     0.034 C 
ENDBRANCH  22  23
ENDBRANCH   6  22
BRANCH   3  25
ATOM     25  S15 ZIN A   1      19.997  -1.201  11.128  0.00  0.00     0.261 S 
ATOM     26  O16 ZIN A   1      21.239  -0.528  10.978  0.00  0.00    -0.200 OA
ATOM     27  O17 ZIN A   1      19.865  -2.614  11.059  0.00  0.00    -0.200 OA
BRANCH  25  28
ATOM     28  N18 ZIN A   1      18.986  -0.580   9.974  0.00  0.00    -0.303 N 
ATOM     29  C24 ZIN A   1      17.808  -1.334   9.519  0.00  0.00     0.165 C 
ATOM     30  C23 ZIN A   1      17.822  -1.397   7.992  0.00  0.00     0.292 C 
ATOM     31  N21 ZIN A   1      17.939  -0.037   7.449  0.00  0.00     0.087 N 
ATOM     32  C20 ZIN A   1      19.207   0.590   7.845  0.00  0.00     0.292 C 
ATOM     33  C22 ZIN A   1      17.788  -0.039   5.987  0.00  0.00     0.310 C 
ATOM     34  C19 ZIN A   1      19.245   0.735   9.371  0.00  0.00     0.165 C 
ENDBRANCH  25  28
ENDBRANCH   3  25
TORSDOF 7
ENDMDL
MODEL 3
REMARK VINA RESULT:      -8.5      2.708      8.027
REMARK  7 active torsions:
REMARK  status: ('A' for Active; 'I' for Inactive)
REMARK    1  A    between atoms: C2_2  and  C3_3 
REMARK    2  A    between atoms: C3_3  and  C4_4 
REMARK    3  A    between atoms: C11_11  and  C12_12 
REMARK    4  A    between atoms: C14_14  and  S15_15 
REMARK    5  A    between atoms: S15_15  and  N18_18 
REMARK    6  A    between atoms: C27_27  and  O28_28 
REMARK    7  A    between atoms: O28_28  and  C29_29 
ROOT
ATOM      1  C12 ZIN A   1      18.691   2.599  12.304  0.00  0.00     0.045 A 
ATOM      2  C13 ZIN A   1      19.083   1.432  11.644  0.00  0.00     0.043 A 
ATOM      3  C14 ZIN A   1      19.075   1.386  10.266  0.00  0.00     0.080 A 
ATOM      4  C25 ZIN A   1      18.678   2.492   9.533  0.00  0.00     0.028 A 
ATOM      5  C26 ZIN A   1      18.288   3.652  10.174  0.00  0.00     0.039 A 
ATOM      6  C27 ZIN A   1      18.286   3.714  11.558  0.00  0.00     0.082 A 
ENDROOT
BRANCH   1   7
ATOM      7  C11 ZIN A   1      18.698   2.655  13.779  0.00  0.00     0.144 A 
ATOM      8  N10 ZIN A   1      18.283   1.612  14.456  0.00  0.00    -0.226 NA
ATOM      9  C9  ZIN A   1      18.272   1.617  15.805  0.00  0.00     0.119 A 
ATOM     10  C4  ZIN A   1      17.883   0.675  16.778  0.00  0.00     0.086 A 
ATOM     11  C8  ZIN A   1      18.712   2.756  16.492  0.00  0.00     0.151 A 
ATOM     12  N5  ZIN A   1      18.076   1.190  17.961  0.00  0.00    -0.174 NA
ATOM     13  N6  ZIN A   1      18.593   2.486  17.828  0.00  0.00    -0.266 N 
ATOM     14  C7  ZIN A   1      18.943   3.392  18.925  0.00  0.00     0.180 C 
ATOM     15  C32 ZIN A   1      19.161   3.870  15.747  0.00  0.00     0.278 A 
ATOM     16  N31 ZIN A   1      19.139   3.792  14.399  0.00  0.00    -0.305 N 
ATOM     17  O33 ZIN A   1      19.552   4.879  16.308  0.00  0.00    -0.265 OA
ATOM     18  H63 ZIN A   1      19.440   4.547  13.867  0.00  0.00     0.170 HD
BRANCH  10  19
ATOM     19  C3  ZIN A   1      17.339  -0.702  16.497  0.00  0.00     0.063 C 
BRANCH  19  20
ATOM     20  C2  ZIN A   1      18.499  -1.689  16.351  0.00  0.00     0.002 C 
ATOM     21  C1  ZIN A   1      19.025  -1.647  14.914  0.00  0.00     0.005 C 
ENDBRANCH  19  20
ENDBRANCH  10  19
ENDBRANCH   1   7
BRANCH   6  22
ATOM     22  O28 ZIN A   1      17.903   4.853  12.190  0.00  0.00    -0.351 OA
BRANCH  22  23
ATOM     23  C29 ZIN A   1      16.518   5.198  12.119  0.00  0.00     0.171 C 
ATOM     24  C30 ZIN A   1      16.050   5.710  13.483  0.00  0.00     0.034 C 
ENDBRANCH  22  23
ENDBRANCH   6  22
BRANCH   3  25
ATOM     25  S15 ZIN A   1      19.570  -0.086   9.434  0.00  0.00     0.261 S 
ATOM     26  O16 ZIN A   1      19.542   0.210   8.044  0.00  0.00    -0.200 OA
ATOM     27  O17 ZIN A   1      20.730  -0.555  10.106  0.00  0.00    -0.200 OA
BRANCH  25  28
ATOM     28  N18 ZIN A   1      18.389  -1.217   9.695  0.00  0.00    -0.303 N 
ATOM     29  C24 ZIN A   1      17.639  -1.246  10.960  0.00  0.00     0.165 C 
ATOM     30  C23 ZIN A   1      17.677  -2.666  11.523  0.00  0.00     0.292 C 
ATOM     31  N21 ZIN A   1      17.208  -3.610  10.499  0.00  0.00     0.087 N 
ATOM     32  C20 ZIN A   1      18.093  -3.609   9.327  0.00  0.00     0.292 C 
ATOM     33  C22 ZIN A   1      17.070  -4.963  11.054  0.00  0.00     0.310 C 
ATOM     34  C19 ZIN A   1      18.068  -2.224   8.673  0.00  0.00     0.165 C 
ENDBRANCH  25  28
ENDBRANCH   3  25
TORSDOF 7
ENDMDL
MODEL 4
REMARK VINA RESULT:      -8.2      3.505      9.482
REMARK  7 active torsions:
REMARK  status: ('A' for Active; 'I' for Inactive)
REMARK    1  A    between atoms: C2_2  and  C3_3 
REMARK    2  A    between atoms: C3_3  and  C4_4 
REMARK    3  A    between atoms: C11_11  and  C12_12 
REMARK    4  A    between atoms: C14_14  and  S15_15 
REMARK    5  A    between atoms: S15_15  and  N18_18 
REMARK    6  A    between atoms: C27_27  and  O28_28 
REMARK    7  A    between atoms: O28_28  and  C29_29 
ROOT
ATOM      1  C12 ZIN A   1      18.386   0.974  14.262  0.00  0.00     0.045 A 
ATOM      2  C13 ZIN A   1      18.774   0.536  12.995  0.00  0.00     0.043 A 
ATOM      3  C14 ZIN A   1      18.935  -0.812  12.753  0.00  0.00     0.080 A 
ATOM      4  C25 ZIN A   1      18.714  -1.733  13.763  0.00  0.00     0.028 A 
ATOM      5  C26 ZIN A   1      18.329  -1.312  15.021  0.00  0.00     0.039 A 
ATOM      6  C27 ZIN A   1      18.167   0.039  15.282  0.00  0.00     0.082 A 
ENDROOT
BRANCH   1   7
ATOM      7  C11 ZIN A   1      18.210   2.417  14.526  0.00  0.00     0.144 A 
ATOM      8  N10 ZIN A   1      17.648   3.166  13.609  0.00  0.00    -0.226 NA
ATOM      9  C9  ZIN A   1      17.468   4.488  13.806  0.00  0.00     0.119 A 
ATOM     10  C4  ZIN A   1      16.918   5.522  13.022  0.00  0.00     0.086 A 
ATOM     11  C8  ZIN A   1      17.887   5.068  15.010  0.00  0.00     0.151 A 
ATOM     12  N5  ZIN A   1      16.988   6.639  13.693  0.00  0.00    -0.174 NA
ATOM     13  N6  ZIN A   1      17.584   6.400  14.937  0.00  0.00    -0.266 N 
ATOM     14  C7  ZIN A   1      17.841   7.400  15.977  0.00  0.00     0.180 C 
ATOM     15  C32 ZIN A   1      18.488   4.245  15.991  0.00  0.00     0.278 A 
ATOM     16  N31 ZIN A   1      18.639   2.930  15.720  0.00  0.00    -0.305 N 
ATOM     17  O33 ZIN A   1      18.865   4.712  17.051  0.00  0.00    -0.265 OA
ATOM     18  H63 ZIN A   1      19.051   2.346  16.377  0.00  0.00     0.170 HD
BRANCH  10  19
ATOM     19  C3  ZIN A   1      16.340   5.361  11.639  0.00  0.00     0.063 C 
BRANCH  19  20
ATOM     20  C2  ZIN A   1      17.471   5.379  10.609  0.00  0.00     0.002 C 
ATOM     21  C1  ZIN A   1      17.808   3.944  10.197  0.00  0.00     0.005 C 
ENDBRANCH  19  20
ENDBRANCH  10  19
ENDBRANCH   1   7
BRANCH   6  22
ATOM     22  O28 ZIN A   1      17.789   0.455  16.518  0.00  0.00    -0.351 OA
BRANCH  22  23
ATOM     23  C29 ZIN A   1      18.243  -0.320  17.629  0.00  0.00     0.171 C 
ATOM     24  C30 ZIN A   1      19.468   0.352  18.252  0.00  0.00     0.034 C 
ENDBRANCH  22  23
ENDBRANCH   6  22
BRANCH   3  25
ATOM     25  S15 ZIN A   1      19.426  -1.366  11.154  0.00  0.00     0.261 S 
ATOM     26  O16 ZIN A   1      18.650  -0.630  10.219  0.00  0.00    -0.200 OA
ATOM     27  O17 ZIN A   1      20.847  -1.372  11.151  0.00  0.00    -0.200 OA
BRANCH  25  28
ATOM     28  N18 ZIN A   1      18.952  -2.946  11.015  0.00  0.00    -0.303 N 
ATOM     29  C24 ZIN A   1      19.925  -4.040  11.148  0.00  0.00     0.165 C 
ATOM     30  C23 ZIN A   1      19.783  -4.973   9.946  0.00  0.00     0.292 C 
ATOM     31  N21 ZIN A   1      18.383  -5.398   9.820  0.00  0.00     0.087 N 
ATOM     32  C20 ZIN A   1      17.499  -4.255   9.558  0.00  0.00     0.292 C 
ATOM     33  C22 ZIN A   1      18.235  -6.427   8.781  0.00  0.00     0.310 C 
ATOM     34  C19 ZIN A   1      17.548  -3.293  10.750  0.00  0.00     0.165 C 
ENDBRANCH  25  28
ENDBRANCH   3  25
TORSDOF 7
ENDMDL
MODEL 5
REMARK VINA RESULT:      -8.2      3.407      6.102
REMARK  7 active torsions:
REMARK  status: ('A' for Active; 'I' for Inactive)
REMARK    1  A    between atoms: C2_2  and  C3_3 
REMARK    2  A    between atoms: C3_3  and  C4_4 
REMARK    3  A    between atoms: C11_11  and  C12_12 
REMARK    4  A    between atoms: C14_14  and  S15_15 
REMARK    5  A    between atoms: S15_15  and  N18_18 
REMARK    6  A    between atoms: C27_27  and  O28_28 
REMARK    7  A    between atoms: O28_28  and  C29_29 
ROOT
ATOM      1  C12 ZIN A   1      18.894   0.716  12.971  0.00  0.00     0.045 A 
ATOM      2  C13 ZIN A   1      18.942   2.034  12.511  0.00  0.00     0.043 A 
ATOM      3  C14 ZIN A   1      18.878   3.078  13.409  0.00  0.00     0.080 A 
ATOM      4  C25 ZIN A   1      18.765   2.825  14.766  0.00  0.00     0.028 A 
ATOM      5  C26 ZIN A   1      18.717   1.526  15.233  0.00  0.00     0.039 A 
ATOM      6  C27 ZIN A   1      18.776   0.465  14.344  0.00  0.00     0.082 A 
ENDROOT
BRANCH   1   7
ATOM      7  C11 ZIN A   1      18.963  -0.406  12.013  0.00  0.00     0.144 A 
ATOM      8  N10 ZIN A   1      18.430  -0.261  10.825  0.00  0.00    -0.226 NA
ATOM      9  C9  ZIN A   1      18.468  -1.258   9.918  0.00  0.00     0.119 A 
ATOM     10  C4  ZIN A   1      17.986  -1.394   8.601  0.00  0.00     0.086 A 
ATOM     11  C8  ZIN A   1      19.090  -2.468  10.253  0.00  0.00     0.151 A 
ATOM     12  N5  ZIN A   1      18.293  -2.585   8.164  0.00  0.00    -0.174 NA
ATOM     13  N6  ZIN A   1      18.983  -3.286   9.162  0.00  0.00    -0.266 N 
ATOM     14  C7  ZIN A   1      19.497  -4.654   9.056  0.00  0.00     0.180 C 
ATOM     15  C32 ZIN A   1      19.665  -2.607  11.537  0.00  0.00     0.278 A 
ATOM     16  N31 ZIN A   1      19.582  -1.566  12.393  0.00  0.00    -0.305 N 
ATOM     17  O33 ZIN A   1      20.215  -3.644  11.866  0.00  0.00    -0.265 OA
ATOM     18  H63 ZIN A   1      19.967  -1.639  13.281  0.00  0.00     0.170 HD
BRANCH  10  19
ATOM     19  C3  ZIN A   1      17.243  -0.337   7.826  0.00  0.00     0.063 C 
BRANCH  19  20
ATOM     20  C2  ZIN A   1      18.159   0.241   6.746  0.00  0.00     0.002 C 
ATOM     21  C1  ZIN A   1      19.030   1.343   7.354  0.00  0.00     0.005 C 
ENDBRANCH  19  20
ENDBRANCH  10  19
ENDBRANCH   1   7
BRANCH   6  22
ATOM     22  O28 ZIN A   1      18.728  -0.812  14.801  0.00  0.00    -0.351 OA
BRANCH  22  23
ATOM     23  C29 ZIN A   1      18.809  -0.997  16.216  0.00  0.00     0.171 C 
ATOM     24  C30 ZIN A   1      17.422  -1.341  16.765  0.00  0.00     0.034 C 
ENDBRANCH  22  23
ENDBRANCH   6  22
BRANCH   3  25
ATOM     25  S15 ZIN A   1      18.939   4.740  12.829  0.00  0.00     0.261 S 
ATOM     26  O16 ZIN A   1      20.299   5.008  12.519  0.00  0.00    -0.200 OA
ATOM     27  O17 ZIN A   1      17.885   4.874  11.885  0.00  0.00    -0.200 OA
BRANCH  25  28
ATOM     28  N18 ZIN A   1      18.549   5.720  14.106  0.00  0.00    -0.303 N 
ATOM     29  C24 ZIN A   1      19.598   6.319  14.945  0.00  0.00     0.165 C 
ATOM     30  C23 ZIN A   1      19.283   6.026  16.411  0.00  0.00     0.292 C 
ATOM     31  N21 ZIN A   1      17.915   6.469  16.715  0.00  0.00     0.087 N 
ATOM     32  C20 ZIN A   1      16.926   5.723  15.926  0.00  0.00     0.292 C 
ATOM     33  C22 ZIN A   1      17.633   6.360  18.152  0.00  0.00     0.310 C 
ATOM     34  C19 ZIN A   1      17.146   6.008  14.436  0.00  0.00     0.165 C 
ENDBRANCH  25  28
ENDBRANCH   3  25
TORSDOF 7
ENDMDL
MODEL 6
REMARK VINA RESULT:      -8.0      2.205      4.882
REMARK  7 active torsions:
REMARK  status: ('A' for Active; 'I' for Inactive)
REMARK    1  A    between atoms: C2_2  and  C3_3 
REMARK    2  A    between atoms: C3_3  and  C4_4 
REMARK    3  A    between atoms: C11_11  and  C12_12 
REMARK    4  A    between atoms: C14_14  and  S15_15 
REMARK    5  A    between atoms: S15_15  and  N18_18 
REMARK    6  A    between atoms: C27_27  and  O28_28 
REMARK    7  A    between atoms: O28_28  and  C29_29 
ROOT
ATOM      1  C12 ZIN A   1      18.508  -2.279  10.119  0.00  0.00     0.045 A 
ATOM      2  C13 ZIN A   1      19.226  -1.219  10.676  0.00  0.00     0.043 A 
ATOM      3  C14 ZIN A   1      19.200  -1.012  12.039  0.00  0.00     0.080 A 
ATOM      4  C25 ZIN A   1      18.463  -1.851  12.858  0.00  0.00     0.028 A 
ATOM      5  C26 ZIN A   1      17.749  -2.903  12.320  0.00  0.00     0.039 A 
ATOM      6  C27 ZIN A   1      17.761  -3.123  10.952  0.00  0.00     0.082 A 
ENDROOT
BRANCH   1   7
ATOM      7  C11 ZIN A   1      18.533  -2.507   8.660  0.00  0.00     0.144 A 
ATOM      8  N10 ZIN A   1      18.843  -1.510   7.868  0.00  0.00    -0.226 NA
ATOM      9  C9  ZIN A   1      18.879  -1.671   6.529  0.00  0.00     0.119 A 
ATOM     10  C4  ZIN A   1      19.161  -0.806   5.453  0.00  0.00     0.086 A 
ATOM     11  C8  ZIN A   1      18.580  -2.924   5.978  0.00  0.00     0.151 A 
ATOM     12  N5  ZIN A   1      19.052  -1.475   4.338  0.00  0.00    -0.174 NA
ATOM     13  N6  ZIN A   1      18.692  -2.799   4.621  0.00  0.00    -0.266 N 
ATOM     14  C7  ZIN A   1      18.473  -3.863   3.637  0.00  0.00     0.180 C 
ATOM     15  C32 ZIN A   1      18.251  -3.990   6.848  0.00  0.00     0.278 A 
ATOM     16  N31 ZIN A   1      18.232  -3.751   8.177  0.00  0.00    -0.305 N 
ATOM     17  O33 ZIN A   1      17.985  -5.095   6.407  0.00  0.00    -0.265 OA
ATOM     18  H63 ZIN A   1      18.007  -4.467   8.793  0.00  0.00     0.170 HD
BRANCH  10  19
ATOM     19  C3  ZIN A   1      19.532   0.650   5.572  0.00  0.00     0.063 C 
BRANCH  19  20
ATOM     20  C2  ZIN A   1      18.536   1.357   6.493  0.00  0.00     0.002 C 
ATOM     21  C1  ZIN A   1      19.265   1.863   7.739  0.00  0.00     0.005 C 
ENDBRANCH  19  20
ENDBRANCH  10  19
ENDBRANCH   1   7
BRANCH   6  22
ATOM     22  O28 ZIN A   1      17.059  -4.157  10.421  0.00  0.00    -0.351 OA
BRANCH  22  23
ATOM     23  C29 ZIN A   1      17.136  -5.411  11.103  0.00  0.00     0.171 C 
ATOM     24  C30 ZIN A   1      17.237  -6.542  10.078  0.00  0.00     0.034 C 
ENDBRANCH  22  23
ENDBRANCH   6  22
BRANCH   3  25
ATOM     25  S15 ZIN A   1      20.106   0.326  12.741  0.00  0.00     0.261 S 
ATOM     26  O16 ZIN A   1      20.218   0.050  14.130  0.00  0.00    -0.200 OA
ATOM     27  O17 ZIN A   1      21.229   0.536  11.897  0.00  0.00    -0.200 OA
BRANCH  25  28
ATOM     28  N18 ZIN A   1      19.162   1.680  12.608  0.00  0.00    -0.303 N 
ATOM     29  C24 ZIN A   1      19.512   2.754  11.666  0.00  0.00     0.165 C 
ATOM     30  C23 ZIN A   1      19.507   4.086  12.415  0.00  0.00     0.292 C 
ATOM     31  N21 ZIN A   1      18.220   4.256  13.102  0.00  0.00     0.087 N 
ATOM     32  C20 ZIN A   1      18.015   3.215  14.117  0.00  0.00     0.292 C 
ATOM     33  C22 ZIN A   1      18.112   5.597  13.693  0.00  0.00     0.310 C 
ATOM     34  C19 ZIN A   1      17.956   1.845  13.433  0.00  0.00     0.165 C 
ENDBRANCH  25  28
ENDBRANCH   3  25
TORSDOF 7
ENDMDL
MODEL 7
REMARK VINA RESULT:      -7.8      2.765      8.187
REMARK  7 active torsions:
REMARK  status: ('A' for Active; 'I' for Inactive)
REMARK    1  A    between atoms: C2_2  and  C3_3 
REMARK    2  A    between atoms: C3_3  and  C4_4 
REMARK    3  A    between atoms: C11_11  and  C12_12 
REMARK    4  A    between atoms: C14_14  and  S15_15 
REMARK    5  A    between atoms: S15_15  and  N18_18 
REMARK    6  A    between atoms: C27_27  and  O28_28 
REMARK    7  A    between atoms: O28_28  and  C29_29 
ROOT
ATOM      1  C12 ZIN A   1      18.163   0.523  12.071  0.00  0.00     0.045 A 
ATOM      2  C13 ZIN A   1      18.514  -0.823  12.195  0.00  0.00     0.043 A 
ATOM      3  C14 ZIN A   1      18.313  -1.685  11.138  0.00  0.00     0.080 A 
ATOM      4  C25 ZIN A   1      17.764  -1.222   9.954  0.00  0.00     0.028 A 
ATOM      5  C26 ZIN A   1      17.412   0.107   9.819  0.00  0.00     0.039 A 
ATOM      6  C27 ZIN A   1      17.604   0.986  10.873  0.00  0.00     0.082 A 
ENDROOT
BRANCH   1   7
ATOM      7  C11 ZIN A   1      18.377   1.452  13.199  0.00  0.00     0.144 A 
ATOM      8  N10 ZIN A   1      18.211   1.013  14.423  0.00  0.00    -0.226 NA
ATOM      9  C9  ZIN A   1      18.394   1.824  15.484  0.00  0.00     0.119 A 
ATOM     10  C4  ZIN A   1      18.283   1.644  16.877  0.00  0.00     0.086 A 
ATOM     11  C8  ZIN A   1      18.769   3.158  15.274  0.00  0.00     0.151 A 
ATOM     12  N5  ZIN A   1      18.574   2.769  17.470  0.00  0.00    -0.174 NA
ATOM     13  N6  ZIN A   1      18.883   3.738  16.507  0.00  0.00    -0.266 N 
ATOM     14  C7  ZIN A   1      19.260   5.129  16.773  0.00  0.00     0.180 C 
ATOM     15  C32 ZIN A   1      18.948   3.614  13.948  0.00  0.00     0.278 A 
ATOM     16  N31 ZIN A   1      18.742   2.744  12.936  0.00  0.00    -0.305 N 
ATOM     17  O33 ZIN A   1      19.275   4.767  13.724  0.00  0.00    -0.265 OA
ATOM     18  H63 ZIN A   1      18.856   3.036  12.017  0.00  0.00     0.170 HD
BRANCH  10  19
ATOM     19  C3  ZIN A   1      17.898   0.360  17.568  0.00  0.00     0.063 C 
BRANCH  19  20
ATOM     20  C2  ZIN A   1      19.141  -0.513  17.749  0.00  0.00     0.002 C 
ATOM     21  C1  ZIN A   1      19.173  -1.585  16.658  0.00  0.00     0.005 C 
ENDBRANCH  19  20
ENDBRANCH  10  19
ENDBRANCH   1   7
BRANCH   6  22
ATOM     22  O28 ZIN A   1      17.259   2.293  10.743  0.00  0.00    -0.351 OA
BRANCH  22  23
ATOM     23  C29 ZIN A   1      18.061   3.091   9.870  0.00  0.00     0.171 C 
ATOM     24  C30 ZIN A   1      17.744   4.570  10.098  0.00  0.00     0.034 C 
ENDBRANCH  22  23
ENDBRANCH   6  22
BRANCH   3  25
ATOM     25  S15 ZIN A   1      18.756  -3.383  11.294  0.00  0.00     0.261 S 
ATOM     26  O16 ZIN A   1      20.176  -3.432  11.266  0.00  0.00    -0.200 OA
ATOM     27  O17 ZIN A   1      17.981  -3.902  12.365  0.00  0.00    -0.200 OA
BRANCH  25  28
ATOM     28  N18 ZIN A   1      18.235  -4.154   9.924  0.00  0.00    -0.303 N 
ATOM     29  C24 ZIN A   1      16.866  -4.682   9.830  0.00  0.00     0.165 C 
ATOM     30  C23 ZIN A   1      16.931  -6.141   9.378  0.00  0.00     0.292 C 
ATOM     31  N21 ZIN A   1      17.719  -6.234   8.143  0.00  0.00     0.087 N 
ATOM     32  C20 ZIN A   1      19.108  -5.811   8.362  0.00  0.00     0.292 C 
ATOM     33  C22 ZIN A   1      17.665  -7.592   7.584  0.00  0.00     0.310 C 
ATOM     34  C19 ZIN A   1      19.130  -4.334   8.771  0.00  0.00     0.165 C 
ENDBRANCH  25  28
ENDBRANCH   3  25
TORSDOF 7
ENDMDL
MODEL 8
REMARK VINA RESULT:      -7.8      3.575      8.951
REMARK  7 active torsions:
REMARK  status: ('A' for Active; 'I' for Inactive)
REMARK    1  A    between atoms: C2_2  and  C3_3 
REMARK    2  A    between atoms: C3_3  and  C4_4 
REMARK    3  A    between atoms: C11_11  and  C12_12 
REMARK    4  A    between atoms: C14_14  and  S15_15 
REMARK    5  A    between atoms: S15_15  and  N18_18 
REMARK    6  A    between atoms: C27_27  and  O28_28 
REMARK    7  A    between atoms: O28_28  and  C29_29 
ROOT
ATOM      1  C12 ZIN A   1      18.072   3.137  13.299  0.00  0.00     0.045 A 
ATOM      2  C13 ZIN A   1      17.609   1.936  12.759  0.00  0.00     0.043 A 
ATOM      3  C14 ZIN A   1      17.625   1.744  11.394  0.00  0.00     0.080 A 
ATOM      4  C25 ZIN A   1      18.098   2.740  10.555  0.00  0.00     0.028 A 
ATOM      5  C26 ZIN A   1      18.558   3.933  11.077  0.00  0.00     0.039 A 
ATOM      6  C27 ZIN A   1      18.545   4.143  12.447  0.00  0.00     0.082 A 
ENDROOT
BRANCH   1   7
ATOM      7  C11 ZIN A   1      18.058   3.348  14.761  0.00  0.00     0.144 A 
ATOM      8  N10 ZIN A   1      18.546   2.414  15.541  0.00  0.00    -0.226 NA
ATOM      9  C9  ZIN A   1      18.554   2.562  16.881  0.00  0.00     0.119 A 
ATOM     10  C4  ZIN A   1      18.992   1.750  17.947  0.00  0.00     0.086 A 
ATOM     11  C8  ZIN A   1      18.033   3.733  17.448  0.00  0.00     0.151 A 
ATOM     12  N5  ZIN A   1      18.765   2.374  19.070  0.00  0.00    -0.174 NA
ATOM     13  N6  ZIN A   1      18.169   3.614  18.804  0.00  0.00    -0.266 N 
ATOM     14  C7  ZIN A   1      17.761   4.607  19.801  0.00  0.00     0.180 C 
ATOM     15  C32 ZIN A   1      17.514   4.731  16.592  0.00  0.00     0.278 A 
ATOM     16  N31 ZIN A   1      17.536   4.510  15.260  0.00  0.00    -0.305 N 
ATOM     17  O33 ZIN A   1      17.052   5.764  17.046  0.00  0.00    -0.265 OA
ATOM     18  H63 ZIN A   1      17.183   5.180  14.653  0.00  0.00     0.170 HD
BRANCH  10  19
ATOM     19  C3  ZIN A   1      19.623   0.388  17.810  0.00  0.00     0.063 C 
BRANCH  19  20
ATOM     20  C2  ZIN A   1      18.542  -0.643  17.477  0.00  0.00     0.002 C 
ATOM     21  C1  ZIN A   1      18.807  -1.229  16.089  0.00  0.00     0.005 C 
ENDBRANCH  19  20
ENDBRANCH  10  19
ENDBRANCH   1   7
BRANCH   6  22
ATOM     22  O28 ZIN A   1      18.997   5.315  12.961  0.00  0.00    -0.351 OA
BRANCH  22  23
ATOM     23  C29 ZIN A   1      20.376   5.371  13.334  0.00  0.00     0.171 C 
ATOM     24  C30 ZIN A   1      20.531   6.242  14.582  0.00  0.00     0.034 C 
ENDBRANCH  22  23
ENDBRANCH   6  22
BRANCH   3  25
ATOM     25  S15 ZIN A   1      17.042   0.228  10.713  0.00  0.00     0.261 S 
ATOM     26  O16 ZIN A   1      15.892  -0.134  11.464  0.00  0.00    -0.200 OA
ATOM     27  O17 ZIN A   1      17.026   0.402   9.303  0.00  0.00    -0.200 OA
BRANCH  25  28
ATOM     28  N18 ZIN A   1      18.188  -0.924  11.028  0.00  0.00    -0.303 N 
ATOM     29  C24 ZIN A   1      19.220  -1.254  10.033  0.00  0.00     0.165 C 
ATOM     30  C23 ZIN A   1      19.244  -2.768   9.831  0.00  0.00     0.292 C 
ATOM     31  N21 ZIN A   1      19.400  -3.432  11.132  0.00  0.00     0.087 N 
ATOM     32  C20 ZIN A   1      18.258  -3.154  12.013  0.00  0.00     0.292 C 
ATOM     33  C22 ZIN A   1      19.596  -4.878  10.965  0.00  0.00     0.310 C 
ATOM     34  C19 ZIN A   1      18.198  -1.651  12.306  0.00  0.00     0.165 C 
ENDBRANCH  25  28
ENDBRANCH   3  25
TORSDOF 7
ENDMDL
MODEL 9
REMARK VINA RESULT:      -7.8      3.416      8.781
REMARK  7 active torsions:
REMARK  status: ('A' for Active; 'I' for Inactive)
REMARK    1  A    between atoms: C2_2  and  C3_3 
REMARK    2  A    between atoms: C3_3  and  C4_4 
REMARK    3  A    between atoms: C11_11  and  C12_12 
REMARK    4  A    between atoms: C14_14  and  S15_15 
REMARK    5  A    between atoms: S15_15  and  N18_18 
REMARK    6  A    between atoms: C27_27  and  O28_28 
REMARK    7  A    between atoms: O28_28  and  C29_29 
ROOT
ATOM      1  C12 ZIN A   1      18.523   2.744  12.530  0.00  0.00     0.045 A 
ATOM      2  C13 ZIN A   1      18.777   1.581  11.800  0.00  0.00     0.043 A 
ATOM      3  C14 ZIN A   1      18.716   1.606  10.423  0.00  0.00     0.080 A 
ATOM      4  C25 ZIN A   1      18.404   2.781   9.760  0.00  0.00     0.028 A 
ATOM      5  C26 ZIN A   1      18.151   3.938  10.470  0.00  0.00     0.039 A 
ATOM      6  C27 ZIN A   1      18.204   3.929  11.855  0.00  0.00     0.082 A 
ENDROOT
BRANCH   1   7
ATOM      7  C11 ZIN A   1      18.587   2.723  14.005  0.00  0.00     0.144 A 
ATOM      8  N10 ZIN A   1      18.169   1.658  14.644  0.00  0.00    -0.226 NA
ATOM      9  C9  ZIN A   1      18.208   1.594  15.990  0.00  0.00     0.119 A 
ATOM     10  C4  ZIN A   1      17.830   0.613  16.928  0.00  0.00     0.086 A 
ATOM     11  C8  ZIN A   1      18.705   2.684  16.717  0.00  0.00     0.151 A 
ATOM     12  N5  ZIN A   1      18.082   1.061  18.128  0.00  0.00    -0.174 NA
ATOM     13  N6  ZIN A   1      18.628   2.348  18.040  0.00  0.00    -0.266 N 
ATOM     14  C7  ZIN A   1      19.043   3.187  19.168  0.00  0.00     0.180 C 
ATOM     15  C32 ZIN A   1      19.156   3.824  16.012  0.00  0.00     0.278 A 
ATOM     16  N31 ZIN A   1      19.082   3.816  14.664  0.00  0.00    -0.305 N 
ATOM     17  O33 ZIN A   1      19.596   4.792  16.608  0.00  0.00    -0.265 OA
ATOM     18  H63 ZIN A   1      19.383   4.589  14.159  0.00  0.00     0.170 HD
BRANCH  10  19
ATOM     19  C3  ZIN A   1      17.238  -0.734  16.599  0.00  0.00     0.063 C 
BRANCH  19  20
ATOM     20  C2  ZIN A   1      18.363  -1.723  16.288  0.00  0.00     0.002 C 
ATOM     21  C1  ZIN A   1      18.697  -1.661  14.796  0.00  0.00     0.005 C 
ENDBRANCH  19  20
ENDBRANCH  10  19
ENDBRANCH   1   7
BRANCH   6  22
ATOM     22  O28 ZIN A   1      17.955   5.066  12.554  0.00  0.00    -0.351 OA
BRANCH  22  23
ATOM     23  C29 ZIN A   1      16.597   5.508  12.611  0.00  0.00     0.171 C 
ATOM     24  C30 ZIN A   1      16.398   6.383  13.850  0.00  0.00     0.034 C 
ENDBRANCH  22  23
ENDBRANCH   6  22
BRANCH   3  25
ATOM     25  S15 ZIN A   1      19.037   0.138   9.503  0.00  0.00     0.261 S 
ATOM     26  O16 ZIN A   1      20.449   0.042   9.377  0.00  0.00    -0.200 OA
ATOM     27  O17 ZIN A   1      18.237  -0.882  10.086  0.00  0.00    -0.200 OA
BRANCH  25  28
ATOM     28  N18 ZIN A   1      18.446   0.378   7.975  0.00  0.00    -0.303 N 
ATOM     29  C24 ZIN A   1      17.189  -0.251   7.544  0.00  0.00     0.165 C 
ATOM     30  C23 ZIN A   1      17.428  -0.974   6.220  0.00  0.00     0.292 C 
ATOM     31  N21 ZIN A   1      18.019  -0.039   5.253  0.00  0.00     0.087 N 
ATOM     32  C20 ZIN A   1      19.333   0.436   5.704  0.00  0.00     0.292 C 
ATOM     33  C22 ZIN A   1      18.109  -0.647   3.919  0.00  0.00     0.310 C 
ATOM     34  C19 ZIN A   1      19.168   1.221   7.010  0.00  0.00     0.165 C 
ENDBRANCH  25  28
ENDBRANCH   3  25
TORSDOF 7
ENDMDL
