MODEL 1
REMARK VINA RESULT:      -8.5      0.000      0.000
REMARK  6 active torsions:
REMARK  status: ('A' for Active; 'I' for Inactive)
REMARK    1  A    between atoms: C2_2  and  C3_3 
REMARK    2  A    between atoms: C3_3  and  C4_4 
REMARK    3  A    between atoms: C26_21  and  O28_22 
REMARK    4  A    between atoms: C32_26  and  C33_27 
REMARK    5  A    between atoms: C33_27  and  C35_29 
REMARK    6  A    between atoms: C35_29  and  O36_30 
ROOT
ATOM      1  C4  ZIN A   1      16.284  -6.095   8.694  0.00  0.00     0.262 C 
ATOM      2  O6  ZIN A   1      16.458  -6.001  10.124  0.00  0.00    -0.352 OA
ATOM      3  C7  ZIN A   1      17.847  -5.662  10.311  0.00  0.00     0.168 C 
ATOM      4  C9  ZIN A   1      17.926  -4.545  11.388  0.00  0.00     0.041 C 
ATOM      5  C10 ZIN A   1      17.780  -3.260  10.567  0.00  0.00     0.004 C 
ATOM      6  C12 ZIN A   1      18.316  -1.998  11.218  0.00  0.00    -0.001 C 
ATOM      7  C14 ZIN A   1      17.532  -1.701  12.497  0.00  0.00     0.010 C 
ATOM      8  C15 ZIN A   1      18.099  -0.448  13.172  0.00  0.00     0.036 C 
ATOM      9  C16 ZIN A   1      18.079   0.682  12.160  0.00  0.00    -0.064 A 
ATOM     10  C17 ZIN A   1      17.516   1.835  12.495  0.00  0.00     0.058 A 
ATOM     11  C18 ZIN A   1      17.458   2.947  11.533  0.00  0.00     0.172 A 
ATOM     12  O19 ZIN A   1      16.977   4.019  11.850  0.00  0.00    -0.289 OA
ATOM     13  C20 ZIN A   1      17.997   2.733  10.179  0.00  0.00     0.052 A 
ATOM     14  C21 ZIN A   1      18.561   1.577   9.869  0.00  0.00    -0.009 A 
ATOM     15  C22 ZIN A   1      18.705   0.437  10.818  0.00  0.00     0.004 A 
ATOM     16  C23 ZIN A   1      20.200   0.196  11.038  0.00  0.00     0.025 C 
ATOM     17  C24 ZIN A   1      18.148  -0.851  10.208  0.00  0.00     0.035 C 
ATOM     18  C26 ZIN A   1      18.876  -1.145   8.899  0.00  0.00     0.124 C 
ATOM     19  C29 ZIN A   1      18.444  -2.494   8.302  0.00  0.00     0.045 C 
ATOM     20  C30 ZIN A   1      18.667  -3.572   9.331  0.00  0.00     0.004 C 
ATOM     21  C31 ZIN A   1      20.119  -3.539   9.812  0.00  0.00     0.019 C 
ATOM     22  C32 ZIN A   1      18.276  -5.013   8.962  0.00  0.00     0.160 C 
ATOM     23  O37 ZIN A   1      17.080  -5.016   8.157  0.00  0.00    -0.339 OA
ENDROOT
BRANCH  22  24
ATOM     24  C33 ZIN A   1      19.431  -5.767   8.355  0.00  0.00     0.188 C 
ATOM     25  O34 ZIN A   1      20.028  -6.587   9.010  0.00  0.00    -0.292 OA
BRANCH  24  26
ATOM     26  C35 ZIN A   1      19.841  -5.498   6.930  0.00  0.00     0.245 C 
BRANCH  26  27
ATOM     27  O36 ZIN A   1      19.101  -6.350   6.052  0.00  0.00    -0.393 OA
ATOM     28  H65 ZIN A   1      19.380  -7.274   6.073  0.00  0.00     0.209 HD
ENDBRANCH  26  27
ENDBRANCH  24  26
ENDBRANCH  22  24
BRANCH   1  29
ATOM     29  C3  ZIN A   1      14.812  -5.910   8.321  0.00  0.00     0.060 C 
BRANCH  29  30
ATOM     30  C2  ZIN A   1      14.264  -7.217   7.744  0.00  0.00     0.000 C 
ATOM     31  C1  ZIN A   1      12.736  -7.209   7.828  0.00  0.00     0.005 C 
ENDBRANCH  29  30
ENDBRANCH   1  29
BRANCH  18  32
ATOM     32  O28 ZIN A   1      20.283  -1.174   9.144  0.00  0.00    -0.395 OA
ATOM     33  H57 ZIN A   1      20.784  -0.526   8.630  0.00  0.00     0.210 HD
ENDBRANCH  18  32
TORSDOF 6
ENDMDL
MODEL 2
REMARK VINA RESULT:      -8.4      2.055      7.613
REMARK  6 active torsions:
REMARK  status: ('A' for Active; 'I' for Inactive)
REMARK    1  A    between atoms: C2_2  and  C3_3 
REMARK    2  A    between atoms: C3_3  and  C4_4 
REMARK    3  A    between atoms: C26_21  and  O28_22 
REMARK    4  A    between atoms: C32_26  and  C33_27 
REMARK    5  A    between atoms: C33_27  and  C35_29 
REMARK    6  A    between atoms: C35_29  and  O36_30 
ROOT
ATOM      1  C4  ZIN A   1      18.471   1.986  11.398  0.00  0.00     0.262 C 
ATOM      2  O6  ZIN A   1      19.458   1.606  10.417  0.00  0.00    -0.352 OA
ATOM      3  C7  ZIN A   1      20.111   0.446  10.971  0.00  0.00     0.168 C 
ATOM      4  C9  ZIN A   1      20.259  -0.607   9.840  0.00  0.00     0.041 C 
ATOM      5  C10 ZIN A   1      18.940  -1.384   9.912  0.00  0.00     0.004 C 
ATOM      6  C12 ZIN A   1      18.961  -2.776   9.309  0.00  0.00    -0.001 C 
ATOM      7  C14 ZIN A   1      19.246  -2.688   7.809  0.00  0.00     0.010 C 
ATOM      8  C15 ZIN A   1      19.304  -4.097   7.210  0.00  0.00     0.036 C 
ATOM      9  C16 ZIN A   1      18.007  -4.806   7.550  0.00  0.00    -0.064 A 
ATOM     10  C17 ZIN A   1      17.314  -5.380   6.576  0.00  0.00     0.058 A 
ATOM     11  C18 ZIN A   1      16.040  -6.059   6.865  0.00  0.00     0.172 A 
ATOM     12  O19 ZIN A   1      15.421  -6.619   5.979  0.00  0.00    -0.289 OA
ATOM     13  C20 ZIN A   1      15.534  -6.047   8.247  0.00  0.00     0.052 A 
ATOM     14  C21 ZIN A   1      16.247  -5.475   9.205  0.00  0.00    -0.009 A 
ATOM     15  C22 ZIN A   1      17.571  -4.826   8.986  0.00  0.00     0.004 A 
ATOM     16  C23 ZIN A   1      18.616  -5.615   9.780  0.00  0.00     0.025 C 
ATOM     17  C24 ZIN A   1      17.581  -3.406   9.556  0.00  0.00     0.035 C 
ATOM     18  C26 ZIN A   1      17.245  -3.457  11.044  0.00  0.00     0.124 C 
ATOM     19  C29 ZIN A   1      17.361  -2.071  11.699  0.00  0.00     0.045 C 
ATOM     20  C30 ZIN A   1      18.745  -1.531  11.446  0.00  0.00     0.004 C 
ATOM     21  C31 ZIN A   1      19.791  -2.538  11.927  0.00  0.00     0.019 C 
ATOM     22  C32 ZIN A   1      19.083  -0.133  11.988  0.00  0.00     0.160 C 
ATOM     23  O37 ZIN A   1      17.936   0.735  11.883  0.00  0.00    -0.339 OA
ENDROOT
BRANCH  22  24
ATOM     24  C33 ZIN A   1      19.683  -0.198  13.369  0.00  0.00     0.188 C 
ATOM     25  O34 ZIN A   1      20.809   0.193  13.558  0.00  0.00    -0.292 OA
BRANCH  24  26
ATOM     26  C35 ZIN A   1      18.877  -0.754  14.515  0.00  0.00     0.245 C 
BRANCH  26  27
ATOM     27  O36 ZIN A   1      17.712   0.049  14.713  0.00  0.00    -0.393 OA
ATOM     28  H65 ZIN A   1      17.451   0.562  13.937  0.00  0.00     0.209 HD
ENDBRANCH  26  27
ENDBRANCH  24  26
ENDBRANCH  22  24
BRANCH   1  29
ATOM     29  C3  ZIN A   1      17.367   2.823  10.750  0.00  0.00     0.060 C 
BRANCH  29  30
ATOM     30  C2  ZIN A   1      17.934   4.183  10.337  0.00  0.00     0.000 C 
ATOM     31  C1  ZIN A   1      17.002   5.293  10.826  0.00  0.00     0.005 C 
ENDBRANCH  29  30
ENDBRANCH   1  29
BRANCH  18  32
ATOM     32  O28 ZIN A   1      18.146  -4.356  11.695  0.00  0.00    -0.395 OA
ATOM     33  H57 ZIN A   1      17.729  -5.169  12.011  0.00  0.00     0.210 HD
ENDBRANCH  18  32
TORSDOF 6
ENDMDL
MODEL 3
REMARK VINA RESULT:      -7.6      3.456      9.894
REMARK  6 active torsions:
REMARK  status: ('A' for Active; 'I' for Inactive)
REMARK    1  A    between atoms: C2_2  and  C3_3 
REMARK    2  A    between atoms: C3_3  and  C4_4 
REMARK    3  A    between atoms: C26_21  and  O28_22 
REMARK    4  A    between atoms: C32_26  and  C33_27 
REMARK    5  A    between atoms: C33_27  and  C35_29 
REMARK    6  A    between atoms: C35_29  and  O36_30 
ROOT
ATOM      1  C4  ZIN A   1      15.867   6.189  14.357  0.00  0.00     0.262 C 
ATOM      2  O6  ZIN A   1      16.185   6.214  12.950  0.00  0.00    -0.352 OA
ATOM      3  C7  ZIN A   1      17.596   5.929  12.879  0.00  0.00     0.168 C 
ATOM      4  C9  ZIN A   1      17.821   4.904  11.734  0.00  0.00     0.041 C 
ATOM      5  C10 ZIN A   1      17.640   3.554  12.436  0.00  0.00     0.004 C 
ATOM      6  C12 ZIN A   1      18.283   2.363  11.749  0.00  0.00    -0.001 C 
ATOM      7  C14 ZIN A   1      17.640   2.146  10.378  0.00  0.00     0.010 C 
ATOM      8  C15 ZIN A   1      18.315   0.966   9.670  0.00  0.00     0.036 C 
ATOM      9  C16 ZIN A   1      18.235  -0.240  10.587  0.00  0.00    -0.064 A 
ATOM     10  C17 ZIN A   1      17.750  -1.378  10.109  0.00  0.00     0.058 A 
ATOM     11  C18 ZIN A   1      17.636  -2.563  10.974  0.00  0.00     0.172 A 
ATOM     12  O19 ZIN A   1      17.227  -3.620  10.529  0.00  0.00    -0.289 OA
ATOM     13  C20 ZIN A   1      18.031  -2.443  12.387  0.00  0.00     0.052 A 
ATOM     14  C21 ZIN A   1      18.520  -1.299  12.840  0.00  0.00    -0.009 A 
ATOM     15  C22 ZIN A   1      18.716  -0.084  12.000  0.00  0.00     0.004 A 
ATOM     16  C23 ZIN A   1      20.217   0.214  11.951  0.00  0.00     0.025 C 
ATOM     17  C24 ZIN A   1      18.057   1.136  12.646  0.00  0.00     0.035 C 
ATOM     18  C26 ZIN A   1      18.640   1.345  14.041  0.00  0.00     0.124 C 
ATOM     19  C29 ZIN A   1      18.104   2.630  14.692  0.00  0.00     0.045 C 
ATOM     20  C30 ZIN A   1      18.389   3.792  13.775  0.00  0.00     0.004 C 
ATOM     21  C31 ZIN A   1      19.882   3.837  13.443  0.00  0.00     0.019 C 
ATOM     22  C32 ZIN A   1      17.913   5.187  14.211  0.00  0.00     0.160 C 
ATOM     23  O37 ZIN A   1      16.643   5.094  14.888  0.00  0.00    -0.339 OA
ENDROOT
BRANCH  22  24
ATOM     24  C33 ZIN A   1      18.974   5.923  14.988  0.00  0.00     0.188 C 
ATOM     25  O34 ZIN A   1      19.587   6.824  14.469  0.00  0.00    -0.292 OA
BRANCH  24  26
ATOM     26  C35 ZIN A   1      19.271   5.534  16.413  0.00  0.00     0.245 C 
BRANCH  26  27
ATOM     27  O36 ZIN A   1      18.981   6.633  17.279  0.00  0.00    -0.393 OA
ATOM     28  H65 ZIN A   1      18.193   7.133  17.029  0.00  0.00     0.209 HD
ENDBRANCH  26  27
ENDBRANCH  24  26
ENDBRANCH  22  24
BRANCH   1  29
ATOM     29  C3  ZIN A   1      14.373   5.934  14.564  0.00  0.00     0.060 C 
BRANCH  29  30
ATOM     30  C2  ZIN A   1      13.855   6.826  15.694  0.00  0.00     0.000 C 
ATOM     31  C1  ZIN A   1      14.563   8.182  15.637  0.00  0.00     0.005 C 
ENDBRANCH  29  30
ENDBRANCH   1  29
BRANCH  18  32
ATOM     32  O28 ZIN A   1      20.063   1.432  13.942  0.00  0.00    -0.395 OA
ATOM     33  H57 ZIN A   1      20.389   1.523  13.037  0.00  0.00     0.210 HD
ENDBRANCH  18  32
TORSDOF 6
ENDMDL
MODEL 4
REMARK VINA RESULT:      -7.5      3.186      5.822
REMARK  6 active torsions:
REMARK  status: ('A' for Active; 'I' for Inactive)
REMARK    1  A    between atoms: C2_2  and  C3_3 
REMARK    2  A    between atoms: C3_3  and  C4_4 
REMARK    3  A    between atoms: C26_21  and  O28_22 
REMARK    4  A    between atoms: C32_26  and  C33_27 
REMARK    5  A    between atoms: C33_27  and  C35_29 
REMARK    6  A    between atoms: C35_29  and  O36_30 
ROOT
ATOM      1  C4  ZIN A   1      18.347  -1.924  11.297  0.00  0.00     0.262 C 
ATOM      2  O6  ZIN A   1      19.327  -1.699  12.332  0.00  0.00    -0.352 OA
ATOM      3  C7  ZIN A   1      20.064  -0.536  11.904  0.00  0.00     0.168 C 
ATOM      4  C9  ZIN A   1      20.242   0.397  13.134  0.00  0.00     0.041 C 
ATOM      5  C10 ZIN A   1      18.974   1.257  13.105  0.00  0.00     0.004 C 
ATOM      6  C12 ZIN A   1      19.061   2.583  13.837  0.00  0.00    -0.001 C 
ATOM      7  C14 ZIN A   1      19.298   2.339  15.328  0.00  0.00     0.010 C 
ATOM      8  C15 ZIN A   1      19.423   3.680  16.059  0.00  0.00     0.036 C 
ATOM      9  C16 ZIN A   1      18.181   4.497  15.757  0.00  0.00    -0.064 A 
ATOM     10  C17 ZIN A   1      17.496   5.020  16.765  0.00  0.00     0.058 A 
ATOM     11  C18 ZIN A   1      16.274   5.800  16.513  0.00  0.00     0.172 A 
ATOM     12  O19 ZIN A   1      15.664   6.314  17.433  0.00  0.00    -0.289 OA
ATOM     13  C20 ZIN A   1      15.807   5.948  15.125  0.00  0.00     0.052 A 
ATOM     14  C21 ZIN A   1      16.511   5.424  14.134  0.00  0.00    -0.009 A 
ATOM     15  C22 ZIN A   1      17.788   4.677  14.320  0.00  0.00     0.004 A 
ATOM     16  C23 ZIN A   1      18.900   5.469  13.628  0.00  0.00     0.025 C 
ATOM     17  C24 ZIN A   1      17.729   3.318  13.619  0.00  0.00     0.035 C 
ATOM     18  C26 ZIN A   1      17.439   3.528  12.135  0.00  0.00     0.124 C 
ATOM     19  C29 ZIN A   1      17.490   2.204  11.356  0.00  0.00     0.045 C 
ATOM     20  C30 ZIN A   1      18.832   1.558  11.588  0.00  0.00     0.004 C 
ATOM     21  C31 ZIN A   1      19.950   2.538  11.227  0.00  0.00     0.019 C 
ATOM     22  C32 ZIN A   1      19.101   0.198  10.924  0.00  0.00     0.160 C 
ATOM     23  O37 ZIN A   1      17.902  -0.604  10.921  0.00  0.00    -0.339 OA
ENDROOT
BRANCH  22  24
ATOM     24  C33 ZIN A   1      19.742   0.354   9.569  0.00  0.00     0.188 C 
ATOM     25  O34 ZIN A   1      20.838  -0.109   9.363  0.00  0.00    -0.292 OA
BRANCH  24  26
ATOM     26  C35 ZIN A   1      19.017   1.088   8.472  0.00  0.00     0.245 C 
BRANCH  26  27
ATOM     27  O36 ZIN A   1      17.787   0.418   8.181  0.00  0.00    -0.393 OA
ATOM     28  H65 ZIN A   1      17.773  -0.022   7.321  0.00  0.00     0.209 HD
ENDBRANCH  26  27
ENDBRANCH  24  26
ENDBRANCH  22  24
BRANCH   1  29
ATOM     29  C3  ZIN A   1      17.177  -2.748  11.839  0.00  0.00     0.060 C 
BRANCH  29  30
ATOM     30  C2  ZIN A   1      17.549  -4.232  11.824  0.00  0.00     0.000 C 
ATOM     31  C1  ZIN A   1      16.599  -4.986  10.891  0.00  0.00     0.005 C 
ENDBRANCH  29  30
ENDBRANCH   1  29
BRANCH  18  32
ATOM     32  O28 ZIN A   1      18.410   4.425  11.593  0.00  0.00    -0.395 OA
ATOM     33  H57 ZIN A   1      19.070   4.723  12.234  0.00  0.00     0.210 HD
ENDBRANCH  18  32
TORSDOF 6
ENDMDL
MODEL 5
REMARK VINA RESULT:      -7.4      1.701      2.250
REMARK  6 active torsions:
REMARK  status: ('A' for Active; 'I' for Inactive)
REMARK    1  A    between atoms: C2_2  and  C3_3 
REMARK    2  A    between atoms: C3_3  and  C4_4 
REMARK    3  A    between atoms: C26_21  and  O28_22 
REMARK    4  A    between atoms: C32_26  and  C33_27 
REMARK    5  A    between atoms: C33_27  and  C35_29 
REMARK    6  A    between atoms: C35_29  and  O36_30 
ROOT
ATOM      1  C4  ZIN A   1      17.247  -4.877   9.041  0.00  0.00     0.262 C 
ATOM      2  O6  ZIN A   1      18.283  -4.772  10.040  0.00  0.00    -0.352 OA
ATOM      3  C7  ZIN A   1      19.290  -3.927   9.447  0.00  0.00     0.168 C 
ATOM      4  C9  ZIN A   1      19.749  -2.904  10.522  0.00  0.00     0.041 C 
ATOM      5  C10 ZIN A   1      18.757  -1.749  10.350  0.00  0.00     0.004 C 
ATOM      6  C12 ZIN A   1      19.219  -0.401  10.873  0.00  0.00    -0.001 C 
ATOM      7  C14 ZIN A   1      19.428  -0.475  12.386  0.00  0.00     0.010 C 
ATOM      8  C15 ZIN A   1      19.930   0.876  12.906  0.00  0.00     0.036 C 
ATOM      9  C16 ZIN A   1      18.942   1.943  12.472  0.00  0.00    -0.064 A 
ATOM     10  C17 ZIN A   1      18.454   2.775  13.381  0.00  0.00     0.058 A 
ATOM     11  C18 ZIN A   1      17.478   3.808  13.002  0.00  0.00     0.172 A 
ATOM     12  O19 ZIN A   1      17.056   4.598  13.827  0.00  0.00    -0.289 OA
ATOM     13  C20 ZIN A   1      17.024   3.867  11.603  0.00  0.00     0.052 A 
ATOM     14  C21 ZIN A   1      17.531   3.032  10.710  0.00  0.00    -0.009 A 
ATOM     15  C22 ZIN A   1      18.567   2.006  11.020  0.00  0.00     0.004 A 
ATOM     16  C23 ZIN A   1      19.827   2.358  10.227  0.00  0.00     0.025 C 
ATOM     17  C24 ZIN A   1      18.125   0.624  10.533  0.00  0.00     0.035 C 
ATOM     18  C26 ZIN A   1      17.855   0.680   9.032  0.00  0.00     0.124 C 
ATOM     19  C29 ZIN A   1      17.526  -0.709   8.463  0.00  0.00     0.045 C 
ATOM     20  C30 ZIN A   1      18.653  -1.651   8.804  0.00  0.00     0.004 C 
ATOM     21  C31 ZIN A   1      19.980  -1.072   8.310  0.00  0.00     0.019 C 
ATOM     22  C32 ZIN A   1      18.528  -3.116   8.357  0.00  0.00     0.160 C 
ATOM     23  O37 ZIN A   1      17.159  -3.557   8.464  0.00  0.00    -0.339 OA
ENDROOT
BRANCH  22  24
ATOM     24  C33 ZIN A   1      19.144  -3.342   7.001  0.00  0.00     0.188 C 
ATOM     25  O34 ZIN A   1      20.228  -3.866   6.910  0.00  0.00    -0.292 OA
BRANCH  24  26
ATOM     26  C35 ZIN A   1      18.409  -2.912   5.758  0.00  0.00     0.245 C 
BRANCH  26  27
ATOM     27  O36 ZIN A   1      17.312  -3.798   5.522  0.00  0.00    -0.393 OA
ATOM     28  H65 ZIN A   1      17.456  -4.697   5.846  0.00  0.00     0.209 HD
ENDBRANCH  26  27
ENDBRANCH  24  26
ENDBRANCH  22  24
BRANCH   1  29
ATOM     29  C3  ZIN A   1      15.917  -5.266   9.690  0.00  0.00     0.060 C 
BRANCH  29  30
ATOM     30  C2  ZIN A   1      14.972  -5.821   8.623  0.00  0.00     0.000 C 
ATOM     31  C1  ZIN A   1      15.569  -7.098   8.029  0.00  0.00     0.005 C 
ENDBRANCH  29  30
ENDBRANCH   1  29
BRANCH  18  32
ATOM     32  O28 ZIN A   1      19.013   1.192   8.369  0.00  0.00    -0.395 OA
ATOM     33  H57 ZIN A   1      19.114   0.880   7.460  0.00  0.00     0.210 HD
ENDBRANCH  18  32
TORSDOF 6
ENDMDL
MODEL 6
REMARK VINA RESULT:      -7.0      4.920     11.242
REMARK  6 active torsions:
REMARK  status: ('A' for Active; 'I' for Inactive)
REMARK    1  A    between atoms: C2_2  and  C3_3 
REMARK    2  A    between atoms: C3_3  and  C4_4 
REMARK    3  A    between atoms: C26_21  and  O28_22 
REMARK    4  A    between atoms: C32_26  and  C33_27 
REMARK    5  A    between atoms: C33_27  and  C35_29 
REMARK    6  A    between atoms: C35_29  and  O36_30 
ROOT
ATOM      1  C4  ZIN A   1      14.592   7.015  16.253  0.00  0.00     0.262 C 
ATOM      2  O6  ZIN A   1      14.820   7.601  14.954  0.00  0.00    -0.352 OA
ATOM      3  C7  ZIN A   1      16.254   7.693  14.831  0.00  0.00     0.168 C 
ATOM      4  C9  ZIN A   1      16.644   7.212  13.406  0.00  0.00     0.041 C 
ATOM      5  C10 ZIN A   1      16.811   5.699  13.583  0.00  0.00     0.004 C 
ATOM      6  C12 ZIN A   1      17.668   5.005  12.541  0.00  0.00    -0.001 C 
ATOM      7  C14 ZIN A   1      17.019   5.138  11.163  0.00  0.00     0.010 C 
ATOM      8  C15 ZIN A   1      17.906   4.469  10.107  0.00  0.00     0.036 C 
ATOM      9  C16 ZIN A   1      18.149   3.035  10.538  0.00  0.00    -0.064 A 
ATOM     10  C17 ZIN A   1      17.909   2.056   9.677  0.00  0.00     0.058 A 
ATOM     11  C18 ZIN A   1      18.113   0.651  10.066  0.00  0.00     0.172 A 
ATOM     12  O19 ZIN A   1      17.930  -0.248   9.266  0.00  0.00    -0.289 OA
ATOM     13  C20 ZIN A   1      18.545   0.358  11.443  0.00  0.00     0.052 A 
ATOM     14  C21 ZIN A   1      18.785   1.352  12.283  0.00  0.00    -0.009 A 
ATOM     15  C22 ZIN A   1      18.657   2.794  11.929  0.00  0.00     0.004 A 
ATOM     16  C23 ZIN A   1      20.046   3.428  12.035  0.00  0.00     0.025 C 
ATOM     17  C24 ZIN A   1      17.774   3.525  12.943  0.00  0.00     0.035 C 
ATOM     18  C26 ZIN A   1      18.368   3.364  14.339  0.00  0.00     0.124 C 
ATOM     19  C29 ZIN A   1      17.591   4.181  15.384  0.00  0.00     0.045 C 
ATOM     20  C30 ZIN A   1      17.556   5.621  14.943  0.00  0.00     0.004 C 
ATOM     21  C31 ZIN A   1      18.980   6.122  14.693  0.00  0.00     0.019 C 
ATOM     22  C32 ZIN A   1      16.801   6.627  15.826  0.00  0.00     0.160 C 
ATOM     23  O37 ZIN A   1      15.623   6.014  16.389  0.00  0.00    -0.339 OA
ENDROOT
BRANCH  22  24
ATOM     24  C33 ZIN A   1      17.708   7.269  16.844  0.00  0.00     0.188 C 
ATOM     25  O34 ZIN A   1      18.166   8.367  16.638  0.00  0.00    -0.292 OA
BRANCH  24  26
ATOM     26  C35 ZIN A   1      18.044   6.541  18.119  0.00  0.00     0.245 C 
BRANCH  26  27
ATOM     27  O36 ZIN A   1      16.847   6.302  18.863  0.00  0.00    -0.393 OA
ATOM     28  H65 ZIN A   1      16.382   7.106  19.129  0.00  0.00     0.209 HD
ENDBRANCH  26  27
ENDBRANCH  24  26
ENDBRANCH  22  24
BRANCH   1  29
ATOM     29  C3  ZIN A   1      13.207   6.367  16.311  0.00  0.00     0.060 C 
BRANCH  29  30
ATOM     30  C2  ZIN A   1      12.436   6.921  17.511  0.00  0.00     0.000 C 
ATOM     31  C1  ZIN A   1      13.280   7.987  18.210  0.00  0.00     0.005 C 
ENDBRANCH  29  30
ENDBRANCH   1  29
BRANCH  18  32
ATOM     32  O28 ZIN A   1      19.728   3.805  14.321  0.00  0.00    -0.395 OA
ATOM     33  H57 ZIN A   1      20.364   3.123  14.576  0.00  0.00     0.210 HD
ENDBRANCH  18  32
TORSDOF 6
ENDMDL
MODEL 7
REMARK VINA RESULT:      -7.0      1.618      2.484
REMARK  6 active torsions:
REMARK  status: ('A' for Active; 'I' for Inactive)
REMARK    1  A    between atoms: C2_2  and  C3_3 
REMARK    2  A    between atoms: C3_3  and  C4_4 
REMARK    3  A    between atoms: C26_21  and  O28_22 
REMARK    4  A    between atoms: C32_26  and  C33_27 
REMARK    5  A    between atoms: C33_27  and  C35_29 
REMARK    6  A    between atoms: C35_29  and  O36_30 
ROOT
ATOM      1  C4  ZIN A   1      14.790  -6.897   6.769  0.00  0.00     0.262 C 
ATOM      2  O6  ZIN A   1      15.140  -7.279   8.116  0.00  0.00    -0.352 OA
ATOM      3  C7  ZIN A   1      16.578  -7.193   8.168  0.00  0.00     0.168 C 
ATOM      4  C9  ZIN A   1      16.968  -6.490   9.497  0.00  0.00     0.041 C 
ATOM      5  C10 ZIN A   1      16.947  -5.004   9.123  0.00  0.00     0.004 C 
ATOM      6  C12 ZIN A   1      17.760  -4.088  10.020  0.00  0.00    -0.001 C 
ATOM      7  C14 ZIN A   1      17.190  -4.112  11.439  0.00  0.00     0.010 C 
ATOM      8  C15 ZIN A   1      18.034  -3.216  12.351  0.00  0.00     0.036 C 
ATOM      9  C16 ZIN A   1      18.088  -1.832  11.731  0.00  0.00    -0.064 A 
ATOM     10  C17 ZIN A   1      17.771  -0.782  12.476  0.00  0.00     0.058 A 
ATOM     11  C18 ZIN A   1      17.791   0.574  11.904  0.00  0.00     0.172 A 
ATOM     12  O19 ZIN A   1      17.537   1.544  12.594  0.00  0.00    -0.289 OA
ATOM     13  C20 ZIN A   1      18.127   0.731  10.479  0.00  0.00     0.052 A 
ATOM     14  C21 ZIN A   1      18.448  -0.331   9.756  0.00  0.00    -0.009 A 
ATOM     15  C22 ZIN A   1      18.506  -1.720  10.294  0.00  0.00     0.004 A 
ATOM     16  C23 ZIN A   1      19.954  -2.203  10.190  0.00  0.00     0.025 C 
ATOM     17  C24 ZIN A   1      17.673  -2.671   9.432  0.00  0.00     0.035 C 
ATOM     18  C26 ZIN A   1      18.185  -2.628   7.994  0.00  0.00     0.124 C 
ATOM     19  C29 ZIN A   1      17.467  -3.656   7.106  0.00  0.00     0.045 C 
ATOM     20  C30 ZIN A   1      17.621  -5.021   7.724  0.00  0.00     0.004 C 
ATOM     21  C31 ZIN A   1      19.103  -5.323   7.953  0.00  0.00     0.019 C 
ATOM     22  C32 ZIN A   1      16.953  -6.212   7.018  0.00  0.00     0.160 C 
ATOM     23  O37 ZIN A   1      15.689  -5.813   6.451  0.00  0.00    -0.339 OA
ENDROOT
BRANCH  22  24
ATOM     24  C33 ZIN A   1      17.886  -6.876   6.038  0.00  0.00     0.188 C 
ATOM     25  O34 ZIN A   1      18.459  -7.893   6.344  0.00  0.00    -0.292 OA
BRANCH  24  26
ATOM     26  C35 ZIN A   1      18.105  -6.270   4.676  0.00  0.00     0.245 C 
BRANCH  26  27
ATOM     27  O36 ZIN A   1      18.450  -7.298   3.745  0.00  0.00    -0.393 OA
ATOM     28  H65 ZIN A   1      17.838  -7.377   3.002  0.00  0.00     0.209 HD
ENDBRANCH  26  27
ENDBRANCH  24  26
ENDBRANCH  22  24
BRANCH   1  29
ATOM     29  C3  ZIN A   1      13.337  -6.421   6.709  0.00  0.00     0.060 C 
BRANCH  29  30
ATOM     30  C2  ZIN A   1      12.850  -6.091   8.121  0.00  0.00     0.000 C 
ATOM     31  C1  ZIN A   1      11.753  -7.078   8.525  0.00  0.00     0.005 C 
ENDBRANCH  29  30
ENDBRANCH   1  29
BRANCH  18  32
ATOM     32  O28 ZIN A   1      19.586  -2.908   7.990  0.00  0.00    -0.395 OA
ATOM     33  H57 ZIN A   1      20.143  -2.128   8.119  0.00  0.00     0.210 HD
ENDBRANCH  18  32
TORSDOF 6
ENDMDL
MODEL 8
REMARK VINA RESULT:      -6.9      1.297      1.668
REMARK  6 active torsions:
REMARK  status: ('A' for Active; 'I' for Inactive)
REMARK    1  A    between atoms: C2_2  and  C3_3 
REMARK    2  A    between atoms: C3_3  and  C4_4 
REMARK    3  A    between atoms: C26_21  and  O28_22 
REMARK    4  A    between atoms: C32_26  and  C33_27 
REMARK    5  A    between atoms: C33_27  and  C35_29 
REMARK    6  A    between atoms: C35_29  and  O36_30 
ROOT
ATOM      1  C4  ZIN A   1      16.340  -5.712   8.459  0.00  0.00     0.262 C 
ATOM      2  O6  ZIN A   1      17.213  -6.035   9.562  0.00  0.00    -0.352 OA
ATOM      3  C7  ZIN A   1      18.464  -5.390   9.251  0.00  0.00     0.168 C 
ATOM      4  C9  ZIN A   1      18.983  -4.704  10.545  0.00  0.00     0.041 C 
ATOM      5  C10 ZIN A   1      18.322  -3.323  10.496  0.00  0.00     0.004 C 
ATOM      6  C12 ZIN A   1      19.000  -2.239  11.313  0.00  0.00    -0.001 C 
ATOM      7  C14 ZIN A   1      18.960  -2.606  12.797  0.00  0.00     0.010 C 
ATOM      8  C15 ZIN A   1      19.677  -1.528  13.617  0.00  0.00     0.036 C 
ATOM      9  C16 ZIN A   1      19.039  -0.190  13.296  0.00  0.00    -0.064 A 
ATOM     10  C17 ZIN A   1      18.627   0.580  14.293  0.00  0.00     0.058 A 
ATOM     11  C18 ZIN A   1      17.983   1.875  14.020  0.00  0.00     0.172 A 
ATOM     12  O19 ZIN A   1      17.638   2.603  14.933  0.00  0.00    -0.289 OA
ATOM     13  C20 ZIN A   1      17.767   2.272  12.618  0.00  0.00     0.052 A 
ATOM     14  C21 ZIN A   1      18.194   1.490  11.639  0.00  0.00    -0.009 A 
ATOM     15  C22 ZIN A   1      18.907   0.199  11.852  0.00  0.00     0.004 A 
ATOM     16  C23 ZIN A   1      20.318   0.342  11.277  0.00  0.00     0.025 C 
ATOM     17  C24 ZIN A   1      18.235  -0.929  11.066  0.00  0.00     0.035 C 
ATOM     18  C26 ZIN A   1      18.211  -0.565   9.583  0.00  0.00     0.124 C 
ATOM     19  C29 ZIN A   1      17.658  -1.715   8.727  0.00  0.00     0.045 C 
ATOM     20  C30 ZIN A   1      18.473  -2.954   8.996  0.00  0.00     0.004 C 
ATOM     21  C31 ZIN A   1      19.957  -2.659   8.762  0.00  0.00     0.019 C 
ATOM     22  C32 ZIN A   1      18.081  -4.247   8.264  0.00  0.00     0.160 C 
ATOM     23  O37 ZIN A   1      16.647  -4.337   8.141  0.00  0.00    -0.339 OA
ENDROOT
BRANCH  22  24
ATOM     24  C33 ZIN A   1      18.822  -4.401   6.962  0.00  0.00     0.188 C 
ATOM     25  O34 ZIN A   1      18.657  -3.600   6.074  0.00  0.00    -0.292 OA
BRANCH  24  26
ATOM     26  C35 ZIN A   1      19.769  -5.557   6.766  0.00  0.00     0.245 C 
BRANCH  26  27
ATOM     27  O36 ZIN A   1      19.155  -6.541   5.930  0.00  0.00    -0.393 OA
ATOM     28  H65 ZIN A   1      19.054  -7.405   6.351  0.00  0.00     0.209 HD
ENDBRANCH  26  27
ENDBRANCH  24  26
ENDBRANCH  22  24
BRANCH   1  29
ATOM     29  C3  ZIN A   1      14.876  -5.849   8.879  0.00  0.00     0.060 C 
BRANCH  29  30
ATOM     30  C2  ZIN A   1      14.049  -6.346   7.692  0.00  0.00     0.000 C 
ATOM     31  C1  ZIN A   1      12.560  -6.248   8.031  0.00  0.00     0.005 C 
ENDBRANCH  29  30
ENDBRANCH   1  29
BRANCH  18  32
ATOM     32  O28 ZIN A   1      19.541  -0.264   9.156  0.00  0.00    -0.395 OA
ATOM     33  H57 ZIN A   1      20.020   0.329   9.751  0.00  0.00     0.210 HD
ENDBRANCH  18  32
TORSDOF 6
ENDMDL
MODEL 9
REMARK VINA RESULT:      -6.8      2.815      8.160
REMARK  6 active torsions:
REMARK  status: ('A' for Active; 'I' for Inactive)
REMARK    1  A    between atoms: C2_2  and  C3_3 
REMARK    2  A    between atoms: C3_3  and  C4_4 
REMARK    3  A    between atoms: C26_21  and  O28_22 
REMARK    4  A    between atoms: C32_26  and  C33_27 
REMARK    5  A    between atoms: C33_27  and  C35_29 
REMARK    6  A    between atoms: C35_29  and  O36_30 
ROOT
ATOM      1  C4  ZIN A   1      18.507  -1.587   8.789  0.00  0.00     0.262 C 
ATOM      2  O6  ZIN A   1      19.288  -2.113   7.696  0.00  0.00    -0.352 OA
ATOM      3  C7  ZIN A   1      19.571  -3.479   8.061  0.00  0.00     0.168 C 
ATOM      4  C9  ZIN A   1      19.339  -4.367   6.807  0.00  0.00     0.041 C 
ATOM      5  C10 ZIN A   1      17.849  -4.710   6.894  0.00  0.00     0.004 C 
ATOM      6  C12 ZIN A   1      17.414  -5.950   6.136  0.00  0.00    -0.001 C 
ATOM      7  C14 ZIN A   1      17.652  -5.753   4.638  0.00  0.00     0.010 C 
ATOM      8  C15 ZIN A   1      17.246  -7.021   3.878  0.00  0.00     0.036 C 
ATOM      9  C16 ZIN A   1      15.808  -7.344   4.236  0.00  0.00    -0.064 A 
ATOM     10  C17 ZIN A   1      14.933  -7.546   3.260  0.00  0.00     0.058 A 
ATOM     11  C18 ZIN A   1      13.524  -7.840   3.568  0.00  0.00     0.172 A 
ATOM     12  O19 ZIN A   1      12.727  -8.063   2.676  0.00  0.00    -0.289 OA
ATOM     13  C20 ZIN A   1      13.102  -7.860   4.979  0.00  0.00     0.052 A 
ATOM     14  C21 ZIN A   1      13.995  -7.663   5.936  0.00  0.00    -0.009 A 
ATOM     15  C22 ZIN A   1      15.445  -7.422   5.690  0.00  0.00     0.004 A 
ATOM     16  C23 ZIN A   1      16.224  -8.588   6.303  0.00  0.00     0.025 C 
ATOM     17  C24 ZIN A   1      15.917  -6.161   6.416  0.00  0.00     0.035 C 
ATOM     18  C26 ZIN A   1      15.641  -6.306   7.911  0.00  0.00     0.124 C 
ATOM     19  C29 ZIN A   1      16.207  -5.120   8.709  0.00  0.00     0.045 C 
ATOM     20  C30 ZIN A   1      17.679  -4.995   8.411  0.00  0.00     0.004 C 
ATOM     21  C31 ZIN A   1      18.380  -6.326   8.690  0.00  0.00     0.019 C 
ATOM     22  C32 ZIN A   1      18.455  -3.850   9.082  0.00  0.00     0.160 C 
ATOM     23  O37 ZIN A   1      17.630  -2.670   9.168  0.00  0.00    -0.339 OA
ENDROOT
BRANCH  22  24
ATOM     24  C33 ZIN A   1      19.059  -4.278  10.395  0.00  0.00     0.188 C 
ATOM     25  O34 ZIN A   1      20.215  -4.622  10.444  0.00  0.00    -0.292 OA
BRANCH  24  26
ATOM     26  C35 ZIN A   1      18.220  -4.276  11.646  0.00  0.00     0.245 C 
BRANCH  26  27
ATOM     27  O36 ZIN A   1      17.627  -2.988  11.822  0.00  0.00    -0.393 OA
ATOM     28  H65 ZIN A   1      16.796  -3.002  12.315  0.00  0.00     0.209 HD
ENDBRANCH  26  27
ENDBRANCH  24  26
ENDBRANCH  22  24
BRANCH   1  29
ATOM     29  C3  ZIN A   1      17.692  -0.376   8.330  0.00  0.00     0.060 C 
BRANCH  29  30
ATOM     30  C2  ZIN A   1      18.320   0.210   7.064  0.00  0.00     0.000 C 
ATOM     31  C1  ZIN A   1      17.359   0.025   5.887  0.00  0.00     0.005 C 
ENDBRANCH  29  30
ENDBRANCH   1  29
BRANCH  18  32
ATOM     32  O28 ZIN A   1      16.244  -7.513   8.381  0.00  0.00    -0.395 OA
ATOM     33  H57 ZIN A   1      15.949  -7.782   9.261  0.00  0.00     0.210 HD
ENDBRANCH  18  32
TORSDOF 6
ENDMDL
