MODEL 1
REMARK VINA RESULT:      -4.4      0.000      0.000
REMARK  0 active torsions:
REMARK  status: ('A' for Active; 'I' for Inactive)
ROOT
ATOM      1  O1  <0> d   1      19.683   1.923  18.792  0.00  0.00    -0.245 OA
ATOM      2  C2  <0> d   1      19.348   1.093  17.969  0.00  0.00     0.349 A 
ATOM      3  N3  <0> d   1      18.726   1.489  16.843  0.00  0.00    -0.151 NA
ATOM      4  C4  <0> d   1      18.348   0.582  15.920  0.00  0.00     0.311 A 
ATOM      5  O5  <0> d   1      17.786   0.942  14.901  0.00  0.00    -0.263 OA
ATOM      6  C6  <0> d   1      18.611  -0.792  16.146  0.00  0.00     0.201 A 
ATOM      7  F7  <0> d   1      18.241  -1.719  15.235  0.00  0.00    -0.199 F 
ATOM      8  C8  <0> d   1      19.236  -1.162  17.285  0.00  0.00     0.141 A 
ATOM      9  N9  <0> d   1      19.608  -0.208  18.195  0.00  0.00    -0.314 N 
ATOM     10  H11 <0> d   1      20.058  -0.472  19.013  0.00  0.00     0.170 HD
ENDROOT
TORSDOF 0
ENDMDL
MODEL 2
REMARK VINA RESULT:      -4.3     10.154     10.893
REMARK  0 active torsions:
REMARK  status: ('A' for Active; 'I' for Inactive)
ROOT
ATOM      1  O1  <0> d   1      18.656  -3.892   7.510  0.00  0.00    -0.245 OA
ATOM      2  C2  <0> d   1      18.615  -2.748   7.102  0.00  0.00     0.349 A 
ATOM      3  N3  <0> d   1      19.364  -2.395   6.040  0.00  0.00    -0.151 NA
ATOM      4  C4  <0> d   1      19.331  -1.131   5.574  0.00  0.00     0.311 A 
ATOM      5  O5  <0> d   1      20.009  -0.813   4.613  0.00  0.00    -0.263 OA
ATOM      6  C6  <0> d   1      18.500  -0.176   6.212  0.00  0.00     0.201 A 
ATOM      7  F7  <0> d   1      18.450   1.097   5.762  0.00  0.00    -0.199 F 
ATOM      8  C8  <0> d   1      17.759  -0.556   7.275  0.00  0.00     0.141 A 
ATOM      9  N9  <0> d   1      17.819  -1.853   7.714  0.00  0.00    -0.314 N 
ATOM     10  H11 <0> d   1      17.286  -2.128   8.477  0.00  0.00     0.170 HD
ENDROOT
TORSDOF 0
ENDMDL
MODEL 3
REMARK VINA RESULT:      -4.3      2.353      3.535
REMARK  0 active torsions:
REMARK  status: ('A' for Active; 'I' for Inactive)
ROOT
ATOM      1  O1  <0> d   1      16.631  -1.072  16.911  0.00  0.00    -0.245 OA
ATOM      2  C2  <0> d   1      17.409  -0.143  16.808  0.00  0.00     0.349 A 
ATOM      3  N3  <0> d   1      18.283   0.102  17.802  0.00  0.00    -0.151 NA
ATOM      4  C4  <0> d   1      19.153   1.128  17.705  0.00  0.00     0.311 A 
ATOM      5  O5  <0> d   1      19.944   1.349  18.604  0.00  0.00    -0.263 OA
ATOM      6  C6  <0> d   1      19.139   1.945  16.546  0.00  0.00     0.201 A 
ATOM      7  F7  <0> d   1      20.002   2.978  16.427  0.00  0.00    -0.199 F 
ATOM      8  C8  <0> d   1      18.252   1.676  15.564  0.00  0.00     0.141 A 
ATOM      9  N9  <0> d   1      17.388   0.621  15.701  0.00  0.00    -0.314 N 
ATOM     10  H11 <0> d   1      16.750   0.427  14.996  0.00  0.00     0.170 HD
ENDROOT
TORSDOF 0
ENDMDL
MODEL 4
REMARK VINA RESULT:      -4.2      9.648     10.839
REMARK  0 active torsions:
REMARK  status: ('A' for Active; 'I' for Inactive)
ROOT
ATOM      1  O1  <0> d   1      19.669  -1.715   4.284  0.00  0.00    -0.245 OA
ATOM      2  C2  <0> d   1      19.418  -1.035   5.260  0.00  0.00     0.349 A 
ATOM      3  N3  <0> d   1      19.315  -1.622   6.467  0.00  0.00    -0.151 NA
ATOM      4  C4  <0> d   1      19.037  -0.883   7.561  0.00  0.00     0.311 A 
ATOM      5  O5  <0> d   1      18.944  -1.414   8.653  0.00  0.00    -0.263 OA
ATOM      6  C6  <0> d   1      18.855   0.516   7.427  0.00  0.00     0.201 A 
ATOM      7  F7  <0> d   1      18.576   1.276   8.509  0.00  0.00    -0.199 F 
ATOM      8  C8  <0> d   1      18.964   1.079   6.204  0.00  0.00     0.141 A 
ATOM      9  N9  <0> d   1      19.252   0.292   5.120  0.00  0.00    -0.314 N 
ATOM     10  H11 <0> d   1      19.331   0.695   4.240  0.00  0.00     0.170 HD
ENDROOT
TORSDOF 0
ENDMDL
MODEL 5
REMARK VINA RESULT:      -4.2      6.739      7.381
REMARK  0 active torsions:
REMARK  status: ('A' for Active; 'I' for Inactive)
ROOT
ATOM      1  O1  <0> d   1      16.140  -0.072  11.666  0.00  0.00    -0.245 OA
ATOM      2  C2  <0> d   1      16.915   0.443  10.882  0.00  0.00     0.349 A 
ATOM      3  N3  <0> d   1      17.244   1.740  11.031  0.00  0.00    -0.151 NA
ATOM      4  C4  <0> d   1      18.101   2.327  10.172  0.00  0.00     0.311 A 
ATOM      5  O5  <0> d   1      18.400   3.500  10.308  0.00  0.00    -0.263 OA
ATOM      6  C6  <0> d   1      18.651   1.566   9.110  0.00  0.00     0.201 A 
ATOM      7  F7  <0> d   1      19.512   2.133   8.236  0.00  0.00    -0.199 F 
ATOM      8  C8  <0> d   1      18.303   0.267   8.984  0.00  0.00     0.141 A 
ATOM      9  N9  <0> d   1      17.433  -0.291   9.882  0.00  0.00    -0.314 N 
ATOM     10  H11 <0> d   1      17.182  -1.225   9.793  0.00  0.00     0.170 HD
ENDROOT
TORSDOF 0
ENDMDL
MODEL 6
REMARK VINA RESULT:      -4.1      6.839      7.299
REMARK  0 active torsions:
REMARK  status: ('A' for Active; 'I' for Inactive)
ROOT
ATOM      1  O1  <0> d   1      19.417   1.711   9.245  0.00  0.00    -0.245 OA
ATOM      2  C2  <0> d   1      19.132   2.527  10.101  0.00  0.00     0.349 A 
ATOM      3  N3  <0> d   1      17.901   3.070  10.113  0.00  0.00    -0.151 NA
ATOM      4  C4  <0> d   1      17.567   3.976  11.054  0.00  0.00     0.311 A 
ATOM      5  O5  <0> d   1      16.452   4.467  11.066  0.00  0.00    -0.263 OA
ATOM      6  C6  <0> d   1      18.524   4.351  12.030  0.00  0.00     0.201 A 
ATOM      7  F7  <0> d   1      18.212   5.256  12.983  0.00  0.00    -0.199 F 
ATOM      8  C8  <0> d   1      19.753   3.789  11.994  0.00  0.00     0.141 A 
ATOM      9  N9  <0> d   1      20.049   2.869  11.023  0.00  0.00    -0.314 N 
ATOM     10  H11 <0> d   1      20.931   2.465  10.996  0.00  0.00     0.170 HD
ENDROOT
TORSDOF 0
ENDMDL
MODEL 7
REMARK VINA RESULT:      -4.1      1.788      2.980
REMARK  0 active torsions:
REMARK  status: ('A' for Active; 'I' for Inactive)
ROOT
ATOM      1  O1  <0> d   1      19.047   1.548  14.289  0.00  0.00    -0.245 OA
ATOM      2  C2  <0> d   1      19.075   1.039  15.393  0.00  0.00     0.349 A 
ATOM      3  N3  <0> d   1      19.339   1.804  16.469  0.00  0.00    -0.151 NA
ATOM      4  C4  <0> d   1      19.374   1.257  17.701  0.00  0.00     0.311 A 
ATOM      5  O5  <0> d   1      19.612   1.950  18.674  0.00  0.00    -0.263 OA
ATOM      6  C6  <0> d   1      19.131  -0.132  17.852  0.00  0.00     0.201 A 
ATOM      7  F7  <0> d   1      19.161  -0.702  19.076  0.00  0.00    -0.199 F 
ATOM      8  C8  <0> d   1      18.870  -0.876  16.755  0.00  0.00     0.141 A 
ATOM      9  N9  <0> d   1      18.839  -0.278  15.522  0.00  0.00    -0.314 N 
ATOM     10  H11 <0> d   1      18.650  -0.812  14.734  0.00  0.00     0.170 HD
ENDROOT
TORSDOF 0
ENDMDL
MODEL 8
REMARK VINA RESULT:      -4.0      4.382      5.189
REMARK  0 active torsions:
REMARK  status: ('A' for Active; 'I' for Inactive)
ROOT
ATOM      1  O1  <0> d   1      16.030   0.137  11.460  0.00  0.00    -0.245 OA
ATOM      2  C2  <0> d   1      16.928  -0.308  12.148  0.00  0.00     0.349 A 
ATOM      3  N3  <0> d   1      17.500  -1.480  11.815  0.00  0.00    -0.151 NA
ATOM      4  C4  <0> d   1      18.497  -1.989  12.567  0.00  0.00     0.311 A 
ATOM      5  O5  <0> d   1      19.014  -3.049  12.265  0.00  0.00    -0.263 OA
ATOM      6  C6  <0> d   1      18.937  -1.277  13.712  0.00  0.00     0.201 A 
ATOM      7  F7  <0> d   1      19.935  -1.767  14.480  0.00  0.00    -0.199 F 
ATOM      8  C8  <0> d   1      18.346  -0.103  14.023  0.00  0.00     0.141 A 
ATOM      9  N9  <0> d   1      17.339   0.380  13.229  0.00  0.00    -0.314 N 
ATOM     10  H11 <0> d   1      16.914   1.223  13.451  0.00  0.00     0.170 HD
ENDROOT
TORSDOF 0
ENDMDL
MODEL 9
REMARK VINA RESULT:      -3.9      5.915      6.298
REMARK  0 active torsions:
REMARK  status: ('A' for Active; 'I' for Inactive)
ROOT
ATOM      1  O1  <0> d   1      18.440   3.508   9.846  0.00  0.00    -0.245 OA
ATOM      2  C2  <0> d   1      18.437   2.404  10.355  0.00  0.00     0.349 A 
ATOM      3  N3  <0> d   1      17.269   1.847  10.725  0.00  0.00    -0.151 NA
ATOM      4  C4  <0> d   1      17.247   0.623  11.291  0.00  0.00     0.311 A 
ATOM      5  O5  <0> d   1      16.189   0.120  11.625  0.00  0.00    -0.263 OA
ATOM      6  C6  <0> d   1      18.466  -0.071  11.493  0.00  0.00     0.201 A 
ATOM      7  F7  <0> d   1      18.469  -1.298  12.058  0.00  0.00    -0.199 F 
ATOM      8  C8  <0> d   1      19.625   0.511  11.113  0.00  0.00     0.141 A 
ATOM      9  N9  <0> d   1      19.601   1.754  10.537  0.00  0.00    -0.314 N 
ATOM     10  H11 <0> d   1      20.432   2.173  10.263  0.00  0.00     0.170 HD
ENDROOT
TORSDOF 0
ENDMDL
