MODEL 1
REMARK VINA RESULT:      -8.2      0.000      0.000
REMARK  5 active torsions:
REMARK  status: ('A' for Active; 'I' for Inactive)
REMARK    1  A    between atoms: C6_6  and  N7_7 
REMARK    2  A    between atoms: N7_7  and  C8_8 
REMARK    3  A    between atoms: C14_14  and  S15_15 
REMARK    4  A    between atoms: S15_15  and  N18_18 
REMARK       I    between atoms: N18_18  and  C19_19 
REMARK       I    between atoms: C19_19  and  N21_21 
REMARK    5  A    between atoms: N21_21  and  C22_22 
ROOT
ATOM      1  C8  ZIN A   1      18.686   2.916  10.198  0.00  0.00     0.059 A 
ATOM      2  C9  ZIN A   1      18.121   4.029   9.579  0.00  0.00     0.048 A 
ATOM      3  C10 ZIN A   1      17.385   4.917  10.337  0.00  0.00     0.090 A 
ATOM      4  N11 ZIN A   1      17.216   4.722  11.631  0.00  0.00    -0.374 N 
ATOM      5  H12 ZIN A   1      16.693   5.362  12.140  0.00  0.00     0.164 HD
ATOM      6  C13 ZIN A   1      17.735   3.680  12.254  0.00  0.00     0.115 A 
ATOM      7  C14 ZIN A   1      18.478   2.744  11.567  0.00  0.00     0.123 A 
ENDROOT
BRANCH   7   8
ATOM      8  S15 ZIN A   1      19.166   1.358  12.409  0.00  0.00     0.291 S 
ATOM      9  O16 ZIN A   1      18.516   0.124  11.937  0.00  0.00    -0.198 OA
ATOM     10  O17 ZIN A   1      20.611   1.285  12.134  0.00  0.00    -0.198 OA
BRANCH   8  11
ATOM     11  N18 ZIN A   1      18.946   1.508  13.878  0.00  0.00    -0.102 NA
ATOM     12  C19 ZIN A   1      18.988   0.435  14.671  0.00  0.00     0.353 C 
ATOM     13  O20 ZIN A   1      19.206  -0.665  14.198  0.00  0.00    -0.244 OA
ATOM     14  N21 ZIN A   1      18.788   0.569  15.997  0.00  0.00    -0.337 N 
ATOM     15  H36 ZIN A   1      18.614   1.446  16.375  0.00  0.00     0.164 HD
BRANCH  14  16
ATOM     16  C22 ZIN A   1      18.834  -0.607  16.868  0.00  0.00     0.078 C 
ATOM     17  C23 ZIN A   1      19.280  -0.187  18.271  0.00  0.00     0.032 C 
ATOM     18  C24 ZIN A   1      17.443  -1.241  16.944  0.00  0.00     0.032 C 
ENDBRANCH  14  16
ENDBRANCH   8  11
ENDBRANCH   7   8
BRANCH   1  19
ATOM     19  N7  ZIN A   1      19.435   1.996   9.469  0.00  0.00    -0.355 N 
ATOM     20  H32 ZIN A   1      20.385   1.897   9.642  0.00  0.00     0.166 HD
BRANCH  19  21
ATOM     21  C6  ZIN A   1      18.819   1.216   8.487  0.00  0.00     0.033 A 
ATOM     22  C5  ZIN A   1      17.691   0.466   8.799  0.00  0.00     0.029 A 
ATOM     23  C4  ZIN A   1      17.086  -0.304   7.826  0.00  0.00     0.003 A 
ATOM     24  C3  ZIN A   1      17.600  -0.331   6.543  0.00  0.00     0.007 A 
ATOM     25  C2  ZIN A   1      18.722   0.415   6.228  0.00  0.00    -0.060 A 
ATOM     26  C1  ZIN A   1      19.279   0.383   4.829  0.00  0.00     0.048 C 
ATOM     27  C25 ZIN A   1      19.336   1.183   7.198  0.00  0.00     0.036 A 
ENDBRANCH  19  21
ENDBRANCH   1  19
TORSDOF 5
ENDMDL
MODEL 2
REMARK VINA RESULT:      -8.1      2.520      3.075
REMARK  5 active torsions:
REMARK  status: ('A' for Active; 'I' for Inactive)
REMARK    1  A    between atoms: C6_6  and  N7_7 
REMARK    2  A    between atoms: N7_7  and  C8_8 
REMARK    3  A    between atoms: C14_14  and  S15_15 
REMARK    4  A    between atoms: S15_15  and  N18_18 
REMARK       I    between atoms: N18_18  and  C19_19 
REMARK       I    between atoms: C19_19  and  N21_21 
REMARK    5  A    between atoms: N21_21  and  C22_22 
ROOT
ATOM      1  C8  ZIN A   1      18.715   2.553  10.448  0.00  0.00     0.059 A 
ATOM      2  C9  ZIN A   1      18.210   3.757   9.961  0.00  0.00     0.048 A 
ATOM      3  C10 ZIN A   1      17.496   4.577  10.810  0.00  0.00     0.090 A 
ATOM      4  N11 ZIN A   1      17.291   4.234  12.067  0.00  0.00    -0.374 N 
ATOM      5  H12 ZIN A   1      16.785   4.831  12.642  0.00  0.00     0.164 HD
ATOM      6  C13 ZIN A   1      17.753   3.103  12.566  0.00  0.00     0.115 A 
ATOM      7  C14 ZIN A   1      18.470   2.225  11.783  0.00  0.00     0.123 A 
ENDROOT
BRANCH   7   8
ATOM      8  S15 ZIN A   1      19.082   0.718  12.460  0.00  0.00     0.291 S 
ATOM      9  O16 ZIN A   1      20.537   0.641  12.250  0.00  0.00    -0.198 OA
ATOM     10  O17 ZIN A   1      18.793   0.675  13.902  0.00  0.00    -0.198 OA
BRANCH   8  11
ATOM     11  N18 ZIN A   1      18.419  -0.437  11.784  0.00  0.00    -0.102 NA
ATOM     12  C19 ZIN A   1      18.758  -1.685  12.112  0.00  0.00     0.353 C 
ATOM     13  O20 ZIN A   1      19.606  -1.883  12.962  0.00  0.00    -0.244 OA
ATOM     14  N21 ZIN A   1      18.160  -2.728  11.502  0.00  0.00    -0.337 N 
ATOM     15  H36 ZIN A   1      17.484  -2.571  10.824  0.00  0.00     0.164 HD
BRANCH  14  16
ATOM     16  C22 ZIN A   1      18.531  -4.098  11.861  0.00  0.00     0.078 C 
ATOM     17  C23 ZIN A   1      17.287  -4.989  11.828  0.00  0.00     0.032 C 
ATOM     18  C24 ZIN A   1      19.563  -4.626  10.862  0.00  0.00     0.032 C 
ENDBRANCH  14  16
ENDBRANCH   8  11
ENDBRANCH   7   8
BRANCH   1  19
ATOM     19  N7  ZIN A   1      19.440   1.696   9.624  0.00  0.00    -0.355 N 
ATOM     20  H32 ZIN A   1      20.386   1.553   9.785  0.00  0.00     0.166 HD
BRANCH  19  21
ATOM     21  C6  ZIN A   1      18.805   1.042   8.565  0.00  0.00     0.033 A 
ATOM     22  C5  ZIN A   1      17.616   0.355   8.783  0.00  0.00     0.029 A 
ATOM     23  C4  ZIN A   1      16.992  -0.290   7.734  0.00  0.00     0.003 A 
ATOM     24  C3  ZIN A   1      17.548  -0.255   6.468  0.00  0.00     0.007 A 
ATOM     25  C2  ZIN A   1      18.730   0.429   6.248  0.00  0.00    -0.060 A 
ATOM     26  C1  ZIN A   1      19.332   0.466   4.867  0.00  0.00     0.048 C 
ATOM     27  C25 ZIN A   1      19.363   1.072   7.294  0.00  0.00     0.036 A 
ENDBRANCH  19  21
ENDBRANCH   1  19
TORSDOF 5
ENDMDL
MODEL 3
REMARK VINA RESULT:      -8.0      1.731      4.343
REMARK  5 active torsions:
REMARK  status: ('A' for Active; 'I' for Inactive)
REMARK    1  A    between atoms: C6_6  and  N7_7 
REMARK    2  A    between atoms: N7_7  and  C8_8 
REMARK    3  A    between atoms: C14_14  and  S15_15 
REMARK    4  A    between atoms: S15_15  and  N18_18 
REMARK       I    between atoms: N18_18  and  C19_19 
REMARK       I    between atoms: C19_19  and  N21_21 
REMARK    5  A    between atoms: N21_21  and  C22_22 
ROOT
ATOM      1  C8  ZIN A   1      19.047   0.694   9.189  0.00  0.00     0.059 A 
ATOM      2  C9  ZIN A   1      18.478   0.869   7.929  0.00  0.00     0.048 A 
ATOM      3  C10 ZIN A   1      17.735  -0.156   7.380  0.00  0.00     0.090 A 
ATOM      4  N11 ZIN A   1      17.561  -1.289   8.033  0.00  0.00    -0.374 N 
ATOM      5  H12 ZIN A   1      17.034  -1.993   7.623  0.00  0.00     0.164 HD
ATOM      6  C13 ZIN A   1      18.083  -1.493   9.228  0.00  0.00     0.115 A 
ATOM      7  C14 ZIN A   1      18.843  -0.522   9.843  0.00  0.00     0.123 A 
ENDROOT
BRANCH   7   8
ATOM      8  S15 ZIN A   1      19.535  -0.806  11.439  0.00  0.00     0.291 S 
ATOM      9  O16 ZIN A   1      19.551  -2.251  11.717  0.00  0.00    -0.198 OA
ATOM     10  O17 ZIN A   1      20.912  -0.285  11.476  0.00  0.00    -0.198 OA
BRANCH   8  11
ATOM     11  N18 ZIN A   1      18.711  -0.108  12.470  0.00  0.00    -0.102 NA
ATOM     12  C19 ZIN A   1      18.920  -0.350  13.766  0.00  0.00     0.353 C 
ATOM     13  O20 ZIN A   1      19.782  -1.138  14.107  0.00  0.00    -0.244 OA
ATOM     14  N21 ZIN A   1      18.175   0.279  14.697  0.00  0.00    -0.337 N 
ATOM     15  H36 ZIN A   1      17.488   0.907  14.425  0.00  0.00     0.164 HD
BRANCH  14  16
ATOM     16  C22 ZIN A   1      18.404   0.014  16.119  0.00  0.00     0.078 C 
ATOM     17  C23 ZIN A   1      18.874   1.297  16.808  0.00  0.00     0.032 C 
ATOM     18  C24 ZIN A   1      17.102  -0.464  16.765  0.00  0.00     0.032 C 
ENDBRANCH  14  16
ENDBRANCH   8  11
ENDBRANCH   7   8
BRANCH   1  19
ATOM     19  N7  ZIN A   1      19.804   1.703   9.778  0.00  0.00    -0.355 N 
ATOM     20  H32 ZIN A   1      20.772   1.689   9.707  0.00  0.00     0.166 HD
BRANCH  19  21
ATOM     21  C6  ZIN A   1      19.170   2.738  10.472  0.00  0.00     0.033 A 
ATOM     22  C5  ZIN A   1      17.892   3.143  10.104  0.00  0.00     0.029 A 
ATOM     23  C4  ZIN A   1      17.269   4.165  10.791  0.00  0.00     0.003 A 
ATOM     24  C3  ZIN A   1      17.915   4.787  11.844  0.00  0.00     0.007 A 
ATOM     25  C2  ZIN A   1      19.186   4.386  12.214  0.00  0.00    -0.060 A 
ATOM     26  C1  ZIN A   1      19.886   5.065  13.362  0.00  0.00     0.048 C 
ATOM     27  C25 ZIN A   1      19.818   3.367  11.527  0.00  0.00     0.036 A 
ENDBRANCH  19  21
ENDBRANCH   1  19
TORSDOF 5
ENDMDL
MODEL 4
REMARK VINA RESULT:      -7.8      2.863      5.318
REMARK  5 active torsions:
REMARK  status: ('A' for Active; 'I' for Inactive)
REMARK    1  A    between atoms: C6_6  and  N7_7 
REMARK    2  A    between atoms: N7_7  and  C8_8 
REMARK    3  A    between atoms: C14_14  and  S15_15 
REMARK    4  A    between atoms: S15_15  and  N18_18 
REMARK       I    between atoms: N18_18  and  C19_19 
REMARK       I    between atoms: C19_19  and  N21_21 
REMARK    5  A    between atoms: N21_21  and  C22_22 
ROOT
ATOM      1  C8  ZIN A   1      17.987   0.929  11.819  0.00  0.00     0.059 A 
ATOM      2  C9  ZIN A   1      18.154   2.219  12.319  0.00  0.00     0.048 A 
ATOM      3  C10 ZIN A   1      18.928   2.407  13.445  0.00  0.00     0.090 A 
ATOM      4  N11 ZIN A   1      19.506   1.385  14.046  0.00  0.00    -0.374 N 
ATOM      5  H12 ZIN A   1      20.045   1.546  14.837  0.00  0.00     0.164 HD
ATOM      6  C13 ZIN A   1      19.372   0.148  13.604  0.00  0.00     0.115 A 
ATOM      7  C14 ZIN A   1      18.611  -0.125  12.488  0.00  0.00     0.123 A 
ENDROOT
BRANCH   7   8
ATOM      8  S15 ZIN A   1      18.440  -1.779  11.906  0.00  0.00     0.291 S 
ATOM      9  O16 ZIN A   1      18.948  -2.713  12.924  0.00  0.00    -0.198 OA
ATOM     10  O17 ZIN A   1      17.018  -2.063  11.647  0.00  0.00    -0.198 OA
BRANCH   8  11
ATOM     11  N18 ZIN A   1      19.219  -1.946  10.643  0.00  0.00    -0.102 NA
ATOM     12  C19 ZIN A   1      18.921  -2.938   9.802  0.00  0.00     0.353 C 
ATOM     13  O20 ZIN A   1      18.015  -3.707  10.064  0.00  0.00    -0.244 OA
ATOM     14  N21 ZIN A   1      19.625  -3.090   8.663  0.00  0.00    -0.337 N 
ATOM     15  H36 ZIN A   1      20.348  -2.477   8.454  0.00  0.00     0.164 HD
BRANCH  14  16
ATOM     16  C22 ZIN A   1      19.299  -4.179   7.739  0.00  0.00     0.078 C 
ATOM     17  C23 ZIN A   1      19.577  -3.730   6.303  0.00  0.00     0.032 C 
ATOM     18  C24 ZIN A   1      20.159  -5.400   8.067  0.00  0.00     0.032 C 
ENDBRANCH  14  16
ENDBRANCH   8  11
ENDBRANCH   7   8
BRANCH   1  19
ATOM     19  N7  ZIN A   1      17.213   0.697  10.685  0.00  0.00    -0.355 N 
ATOM     20  H32 ZIN A   1      16.284   0.434  10.777  0.00  0.00     0.166 HD
BRANCH  19  21
ATOM     21  C6  ZIN A   1      17.776   0.843   9.414  0.00  0.00     0.033 A 
ATOM     22  C5  ZIN A   1      18.783   1.776   9.201  0.00  0.00     0.029 A 
ATOM     23  C4  ZIN A   1      19.336   1.917   7.944  0.00  0.00     0.003 A 
ATOM     24  C3  ZIN A   1      18.889   1.132   6.897  0.00  0.00     0.007 A 
ATOM     25  C2  ZIN A   1      17.887   0.201   7.106  0.00  0.00    -0.060 A 
ATOM     26  C1  ZIN A   1      17.402  -0.652   5.963  0.00  0.00     0.048 C 
ATOM     27  C25 ZIN A   1      17.325   0.059   8.360  0.00  0.00     0.036 A 
ENDBRANCH  19  21
ENDBRANCH   1  19
TORSDOF 5
ENDMDL
MODEL 5
REMARK VINA RESULT:      -7.8      3.209      4.296
REMARK  5 active torsions:
REMARK  status: ('A' for Active; 'I' for Inactive)
REMARK    1  A    between atoms: C6_6  and  N7_7 
REMARK    2  A    between atoms: N7_7  and  C8_8 
REMARK    3  A    between atoms: C14_14  and  S15_15 
REMARK    4  A    between atoms: S15_15  and  N18_18 
REMARK       I    between atoms: N18_18  and  C19_19 
REMARK       I    between atoms: C19_19  and  N21_21 
REMARK    5  A    between atoms: N21_21  and  C22_22 
ROOT
ATOM      1  C8  ZIN A   1      19.514  -0.894   9.547  0.00  0.00     0.059 A 
ATOM      2  C9  ZIN A   1      19.243  -1.158   8.206  0.00  0.00     0.048 A 
ATOM      3  C10 ZIN A   1      18.943  -0.108   7.364  0.00  0.00     0.090 A 
ATOM      4  N11 ZIN A   1      18.912   1.132   7.813  0.00  0.00    -0.374 N 
ATOM      5  H12 ZIN A   1      18.697   1.852   7.198  0.00  0.00     0.164 HD
ATOM      6  C13 ZIN A   1      19.163   1.423   9.077  0.00  0.00     0.115 A 
ATOM      7  C14 ZIN A   1      19.465   0.431   9.984  0.00  0.00     0.123 A 
ENDROOT
BRANCH   7   8
ATOM      8  S15 ZIN A   1      19.799   0.830  11.667  0.00  0.00     0.291 S 
ATOM      9  O16 ZIN A   1      21.175   0.428  12.003  0.00  0.00    -0.198 OA
ATOM     10  O17 ZIN A   1      19.652   2.281  11.865  0.00  0.00    -0.198 OA
BRANCH   8  11
ATOM     11  N18 ZIN A   1      18.838   0.106  12.550  0.00  0.00    -0.102 NA
ATOM     12  C19 ZIN A   1      18.962   0.185  13.877  0.00  0.00     0.353 C 
ATOM     13  O20 ZIN A   1      19.858   0.848  14.367  0.00  0.00    -0.244 OA
ATOM     14  N21 ZIN A   1      18.095  -0.468  14.675  0.00  0.00    -0.337 N 
ATOM     15  H36 ZIN A   1      17.380  -0.997  14.285  0.00  0.00     0.164 HD
BRANCH  14  16
ATOM     16  C22 ZIN A   1      18.231  -0.382  16.131  0.00  0.00     0.078 C 
ATOM     17  C23 ZIN A   1      16.844  -0.421  16.776  0.00  0.00     0.032 C 
ATOM     18  C24 ZIN A   1      19.061  -1.563  16.637  0.00  0.00     0.032 C 
ENDBRANCH  14  16
ENDBRANCH   8  11
ENDBRANCH   7   8
BRANCH   1  19
ATOM     19  N7  ZIN A   1      19.822  -1.926  10.431  0.00  0.00    -0.355 N 
ATOM     20  H32 ZIN A   1      20.607  -1.862  10.997  0.00  0.00     0.166 HD
BRANCH  19  21
ATOM     21  C6  ZIN A   1      18.998  -3.052  10.503  0.00  0.00     0.033 A 
ATOM     22  C5  ZIN A   1      17.911  -3.067  11.369  0.00  0.00     0.029 A 
ATOM     23  C4  ZIN A   1      17.099  -4.181  11.437  0.00  0.00     0.003 A 
ATOM     24  C3  ZIN A   1      17.367  -5.283  10.645  0.00  0.00     0.007 A 
ATOM     25  C2  ZIN A   1      18.447  -5.272   9.782  0.00  0.00    -0.060 A 
ATOM     26  C1  ZIN A   1      18.735  -6.475   8.921  0.00  0.00     0.048 C 
ATOM     27  C25 ZIN A   1      19.267  -4.162   9.712  0.00  0.00     0.036 A 
ENDBRANCH  19  21
ENDBRANCH   1  19
TORSDOF 5
ENDMDL
MODEL 6
REMARK VINA RESULT:      -7.8      1.943      6.485
REMARK  5 active torsions:
REMARK  status: ('A' for Active; 'I' for Inactive)
REMARK    1  A    between atoms: C6_6  and  N7_7 
REMARK    2  A    between atoms: N7_7  and  C8_8 
REMARK    3  A    between atoms: C14_14  and  S15_15 
REMARK    4  A    between atoms: S15_15  and  N18_18 
REMARK       I    between atoms: N18_18  and  C19_19 
REMARK       I    between atoms: C19_19  and  N21_21 
REMARK    5  A    between atoms: N21_21  and  C22_22 
ROOT
ATOM      1  C8  ZIN A   1      19.519   0.985  13.469  0.00  0.00     0.059 A 
ATOM      2  C9  ZIN A   1      19.215   1.384  14.769  0.00  0.00     0.048 A 
ATOM      3  C10 ZIN A   1      18.762   0.442  15.670  0.00  0.00     0.090 A 
ATOM      4  N11 ZIN A   1      18.618  -0.820  15.314  0.00  0.00    -0.374 N 
ATOM      5  H12 ZIN A   1      18.297  -1.461  15.969  0.00  0.00     0.164 HD
ATOM      6  C13 ZIN A   1      18.895  -1.237  14.092  0.00  0.00     0.115 A 
ATOM      7  C14 ZIN A   1      19.347  -0.358  13.131  0.00  0.00     0.123 A 
ENDROOT
BRANCH   7   8
ATOM      8  S15 ZIN A   1      19.715  -0.925  11.504  0.00  0.00     0.291 S 
ATOM      9  O16 ZIN A   1      21.039  -0.427  11.099  0.00  0.00    -0.198 OA
ATOM     10  O17 ZIN A   1      19.719  -2.397  11.487  0.00  0.00    -0.198 OA
BRANCH   8  11
ATOM     11  N18 ZIN A   1      18.680  -0.418  10.555  0.00  0.00    -0.102 NA
ATOM     12  C19 ZIN A   1      18.923  -0.415   9.242  0.00  0.00     0.353 C 
ATOM     13  O20 ZIN A   1      19.988  -0.826   8.819  0.00  0.00    -0.244 OA
ATOM     14  N21 ZIN A   1      17.990   0.043   8.385  0.00  0.00    -0.337 N 
ATOM     15  H36 ZIN A   1      17.141   0.370   8.721  0.00  0.00     0.164 HD
BRANCH  14  16
ATOM     16  C22 ZIN A   1      18.257   0.046   6.945  0.00  0.00     0.078 C 
ATOM     17  C23 ZIN A   1      16.944  -0.145   6.182  0.00  0.00     0.032 C 
ATOM     18  C24 ZIN A   1      18.888   1.382   6.546  0.00  0.00     0.032 C 
ENDBRANCH  14  16
ENDBRANCH   8  11
ENDBRANCH   7   8
BRANCH   1  19
ATOM     19  N7  ZIN A   1      19.978   1.904  12.529  0.00  0.00    -0.355 N 
ATOM     20  H32 ZIN A   1      20.916   1.917  12.281  0.00  0.00     0.166 HD
BRANCH  19  21
ATOM     21  C6  ZIN A   1      19.088   2.809  11.943  0.00  0.00     0.033 A 
ATOM     22  C5  ZIN A   1      19.015   2.917  10.560  0.00  0.00     0.029 A 
ATOM     23  C4  ZIN A   1      18.134   3.811   9.985  0.00  0.00     0.003 A 
ATOM     24  C3  ZIN A   1      17.326   4.599  10.783  0.00  0.00     0.007 A 
ATOM     25  C2  ZIN A   1      17.395   4.493  12.161  0.00  0.00    -0.060 A 
ATOM     26  C1  ZIN A   1      16.512   5.354  13.027  0.00  0.00     0.048 C 
ATOM     27  C25 ZIN A   1      18.278   3.604  12.743  0.00  0.00     0.036 A 
ENDBRANCH  19  21
ENDBRANCH   1  19
TORSDOF 5
ENDMDL
MODEL 7
REMARK VINA RESULT:      -7.8      3.113      7.006
REMARK  5 active torsions:
REMARK  status: ('A' for Active; 'I' for Inactive)
REMARK    1  A    between atoms: C6_6  and  N7_7 
REMARK    2  A    between atoms: N7_7  and  C8_8 
REMARK    3  A    between atoms: C14_14  and  S15_15 
REMARK    4  A    between atoms: S15_15  and  N18_18 
REMARK       I    between atoms: N18_18  and  C19_19 
REMARK       I    between atoms: C19_19  and  N21_21 
REMARK    5  A    between atoms: N21_21  and  C22_22 
ROOT
ATOM      1  C8  ZIN A   1      19.419  -2.328  11.254  0.00  0.00     0.059 A 
ATOM      2  C9  ZIN A   1      19.359  -3.598  11.826  0.00  0.00     0.048 A 
ATOM      3  C10 ZIN A   1      18.599  -4.573  11.214  0.00  0.00     0.090 A 
ATOM      4  N11 ZIN A   1      17.936  -4.316  10.103  0.00  0.00    -0.374 N 
ATOM      5  H12 ZIN A   1      17.409  -5.021   9.694  0.00  0.00     0.164 HD
ATOM      6  C13 ZIN A   1      17.967  -3.126   9.531  0.00  0.00     0.115 A 
ATOM      7  C14 ZIN A   1      18.698  -2.096  10.082  0.00  0.00     0.123 A 
ENDROOT
BRANCH   7   8
ATOM      8  S15 ZIN A   1      18.733  -0.513   9.310  0.00  0.00     0.291 S 
ATOM      9  O16 ZIN A   1      20.131  -0.090   9.120  0.00  0.00    -0.198 OA
ATOM     10  O17 ZIN A   1      18.064  -0.590   8.001  0.00  0.00    -0.198 OA
BRANCH   8  11
ATOM     11  N18 ZIN A   1      18.026   0.478  10.174  0.00  0.00    -0.102 NA
ATOM     12  C19 ZIN A   1      18.333   1.775  10.091  0.00  0.00     0.353 C 
ATOM     13  O20 ZIN A   1      19.189   2.149   9.311  0.00  0.00    -0.244 OA
ATOM     14  N21 ZIN A   1      17.694   2.670  10.871  0.00  0.00    -0.337 N 
ATOM     15  H36 ZIN A   1      17.012   2.371  11.493  0.00  0.00     0.164 HD
BRANCH  14  16
ATOM     16  C22 ZIN A   1      18.031   4.092  10.780  0.00  0.00     0.078 C 
ATOM     17  C23 ZIN A   1      16.746   4.923  10.804  0.00  0.00     0.032 C 
ATOM     18  C24 ZIN A   1      18.914   4.484  11.966  0.00  0.00     0.032 C 
ENDBRANCH  14  16
ENDBRANCH   8  11
ENDBRANCH   7   8
BRANCH   1  19
ATOM     19  N7  ZIN A   1      20.174  -1.316  11.840  0.00  0.00    -0.355 N 
ATOM     20  H32 ZIN A   1      21.014  -1.043  11.439  0.00  0.00     0.166 HD
BRANCH  19  21
ATOM     21  C6  ZIN A   1      19.722  -0.692  13.006  0.00  0.00     0.033 A 
ATOM     22  C5  ZIN A   1      19.825   0.687  13.144  0.00  0.00     0.029 A 
ATOM     23  C4  ZIN A   1      19.377   1.299  14.297  0.00  0.00     0.003 A 
ATOM     24  C3  ZIN A   1      18.826   0.543  15.315  0.00  0.00     0.007 A 
ATOM     25  C2  ZIN A   1      18.721  -0.830  15.181  0.00  0.00    -0.060 A 
ATOM     26  C1  ZIN A   1      18.119  -1.650  16.293  0.00  0.00     0.048 C 
ATOM     27  C25 ZIN A   1      19.172  -1.450  14.032  0.00  0.00     0.036 A 
ENDBRANCH  19  21
ENDBRANCH   1  19
TORSDOF 5
ENDMDL
MODEL 8
REMARK VINA RESULT:      -7.7      2.408      3.796
REMARK  5 active torsions:
REMARK  status: ('A' for Active; 'I' for Inactive)
REMARK    1  A    between atoms: C6_6  and  N7_7 
REMARK    2  A    between atoms: N7_7  and  C8_8 
REMARK    3  A    between atoms: C14_14  and  S15_15 
REMARK    4  A    between atoms: S15_15  and  N18_18 
REMARK       I    between atoms: N18_18  and  C19_19 
REMARK       I    between atoms: C19_19  and  N21_21 
REMARK    5  A    between atoms: N21_21  and  C22_22 
ROOT
ATOM      1  C8  ZIN A   1      18.282  -1.478  10.608  0.00  0.00     0.059 A 
ATOM      2  C9  ZIN A   1      19.094  -2.536  10.204  0.00  0.00     0.048 A 
ATOM      3  C10 ZIN A   1      19.925  -3.134  11.129  0.00  0.00     0.090 A 
ATOM      4  N11 ZIN A   1      19.955  -2.717  12.380  0.00  0.00    -0.374 N 
ATOM      5  H12 ZIN A   1      20.549  -3.157  13.009  0.00  0.00     0.164 HD
ATOM      6  C13 ZIN A   1      19.201  -1.719  12.802  0.00  0.00     0.115 A 
ATOM      7  C14 ZIN A   1      18.348  -1.065  11.939  0.00  0.00     0.123 A 
ENDROOT
BRANCH   7   8
ATOM      8  S15 ZIN A   1      17.345   0.266  12.513  0.00  0.00     0.291 S 
ATOM      9  O16 ZIN A   1      17.946   1.546  12.102  0.00  0.00    -0.198 OA
ATOM     10  O17 ZIN A   1      15.997   0.149  11.934  0.00  0.00    -0.198 OA
BRANCH   8  11
ATOM     11  N18 ZIN A   1      17.254   0.214  14.003  0.00  0.00    -0.102 NA
ATOM     12  C19 ZIN A   1      18.177   0.826  14.749  0.00  0.00     0.353 C 
ATOM     13  O20 ZIN A   1      19.091   1.426  14.216  0.00  0.00    -0.244 OA
ATOM     14  N21 ZIN A   1      18.095   0.779  16.093  0.00  0.00    -0.337 N 
ATOM     15  H36 ZIN A   1      17.367   0.300  16.519  0.00  0.00     0.164 HD
BRANCH  14  16
ATOM     16  C22 ZIN A   1      19.107   1.450  16.912  0.00  0.00     0.078 C 
ATOM     17  C23 ZIN A   1      18.585   2.821  17.348  0.00  0.00     0.032 C 
ATOM     18  C24 ZIN A   1      19.406   0.602  18.150  0.00  0.00     0.032 C 
ENDBRANCH  14  16
ENDBRANCH   8  11
ENDBRANCH   7   8
BRANCH   1  19
ATOM     19  N7  ZIN A   1      17.429  -0.847   9.706  0.00  0.00    -0.355 N 
ATOM     20  H32 ZIN A   1      16.468  -0.900   9.828  0.00  0.00     0.166 HD
BRANCH  19  21
ATOM     21  C6  ZIN A   1      17.958  -0.136   8.625  0.00  0.00     0.033 A 
ATOM     22  C5  ZIN A   1      18.665   1.041   8.844  0.00  0.00     0.029 A 
ATOM     23  C4  ZIN A   1      19.186   1.739   7.774  0.00  0.00     0.003 A 
ATOM     24  C3  ZIN A   1      19.004   1.271   6.485  0.00  0.00     0.007 A 
ATOM     25  C2  ZIN A   1      18.302   0.100   6.264  0.00  0.00    -0.060 A 
ATOM     26  C1  ZIN A   1      18.108  -0.407   4.858  0.00  0.00     0.048 C 
ATOM     27  C25 ZIN A   1      17.774  -0.602   7.330  0.00  0.00     0.036 A 
ENDBRANCH  19  21
ENDBRANCH   1  19
TORSDOF 5
ENDMDL
MODEL 9
REMARK VINA RESULT:      -7.7      3.000      4.408
REMARK  5 active torsions:
REMARK  status: ('A' for Active; 'I' for Inactive)
REMARK    1  A    between atoms: C6_6  and  N7_7 
REMARK    2  A    between atoms: N7_7  and  C8_8 
REMARK    3  A    between atoms: C14_14  and  S15_15 
REMARK    4  A    between atoms: S15_15  and  N18_18 
REMARK       I    between atoms: N18_18  and  C19_19 
REMARK       I    between atoms: C19_19  and  N21_21 
REMARK    5  A    between atoms: N21_21  and  C22_22 
ROOT
ATOM      1  C8  ZIN A   1      18.460  -0.400   9.959  0.00  0.00     0.059 A 
ATOM      2  C9  ZIN A   1      18.759  -1.755   9.832  0.00  0.00     0.048 A 
ATOM      3  C10 ZIN A   1      19.538  -2.363  10.794  0.00  0.00     0.090 A 
ATOM      4  N11 ZIN A   1      19.998  -1.678  11.824  0.00  0.00    -0.374 N 
ATOM      5  H12 ZIN A   1      20.544  -2.132  12.485  0.00  0.00     0.164 HD
ATOM      6  C13 ZIN A   1      19.737  -0.394  11.980  0.00  0.00     0.115 A 
ATOM      7  C14 ZIN A   1      18.970   0.289  11.060  0.00  0.00     0.123 A 
ENDROOT
BRANCH   7   8
ATOM      8  S15 ZIN A   1      18.628   2.003  11.279  0.00  0.00     0.291 S 
ATOM      9  O16 ZIN A   1      19.296   2.777  10.220  0.00  0.00    -0.198 OA
ATOM     10  O17 ZIN A   1      17.175   2.227  11.206  0.00  0.00    -0.198 OA
BRANCH   8  11
ATOM     11  N18 ZIN A   1      19.133   2.445  12.613  0.00  0.00    -0.102 NA
ATOM     12  C19 ZIN A   1      18.970   3.712  13.002  0.00  0.00     0.353 C 
ATOM     13  O20 ZIN A   1      18.410   4.507  12.269  0.00  0.00    -0.244 OA
ATOM     14  N21 ZIN A   1      19.427   4.111  14.205  0.00  0.00    -0.337 N 
ATOM     15  H36 ZIN A   1      19.874   3.478  14.789  0.00  0.00     0.164 HD
BRANCH  14  16
ATOM     16  C22 ZIN A   1      19.249   5.501  14.632  0.00  0.00     0.078 C 
ATOM     17  C23 ZIN A   1      18.741   5.531  16.075  0.00  0.00     0.032 C 
ATOM     18  C24 ZIN A   1      20.588   6.236  14.547  0.00  0.00     0.032 C 
ENDBRANCH  14  16
ENDBRANCH   8  11
ENDBRANCH   7   8
BRANCH   1  19
ATOM     19  N7  ZIN A   1      17.677   0.252   9.010  0.00  0.00    -0.355 N 
ATOM     20  H32 ZIN A   1      16.864   0.707   9.281  0.00  0.00     0.166 HD
BRANCH  19  21
ATOM     21  C6  ZIN A   1      18.062   0.250   7.667  0.00  0.00     0.033 A 
ATOM     22  C5  ZIN A   1      19.004   1.165   7.211  0.00  0.00     0.029 A 
ATOM     23  C4  ZIN A   1      19.381   1.160   5.883  0.00  0.00     0.003 A 
ATOM     24  C3  ZIN A   1      18.823   0.248   5.006  0.00  0.00     0.007 A 
ATOM     25  C2  ZIN A   1      17.886  -0.664   5.457  0.00  0.00    -0.060 A 
ATOM     26  C1  ZIN A   1      17.281  -1.657   4.498  0.00  0.00     0.048 C 
ATOM     27  C25 ZIN A   1      17.500  -0.662   6.783  0.00  0.00     0.036 A 
ENDBRANCH  19  21
ENDBRANCH   1  19
TORSDOF 5
ENDMDL
