MODEL 1
REMARK VINA RESULT:      -8.6      0.000      0.000
REMARK  3 active torsions:
REMARK  status: ('A' for Active; 'I' for Inactive)
REMARK    1  A    between atoms: N2_2  and  C5_5 
REMARK    2  A    between atoms: C5_5  and  C6_6 
REMARK    3  A    between atoms: C9_9  and  C10_10 
ROOT
ATOM      1  C10 ZIN A   1      18.187   1.822  10.098  0.00  0.00     0.050 A 
ATOM      2  C11 ZIN A   1      18.871   1.367  11.175  0.00  0.00    -0.015 A 
ATOM      3  C12 ZIN A   1      19.821   0.224  11.250  0.00  0.00     0.061 C 
ATOM      4  C13 ZIN A   1      20.903   0.442  12.279  0.00  0.00     0.127 C 
ATOM      5  N14 ZIN A   1      20.462   0.226  13.634  0.00  0.00    -0.357 N 
ATOM      6  C15 ZIN A   1      19.578   1.036  14.249  0.00  0.00     0.252 C 
ATOM      7  O16 ZIN A   1      19.319   0.792  15.412  0.00  0.00    -0.268 OA
ATOM      8  C17 ZIN A   1      18.904   2.182  13.643  0.00  0.00     0.048 A 
ATOM      9  C18 ZIN A   1      18.550   2.205  12.277  0.00  0.00     0.015 A 
ATOM     10  C19 ZIN A   1      17.752   3.246  11.771  0.00  0.00     0.047 A 
ATOM     11  C20 ZIN A   1      17.417   4.313  12.593  0.00  0.00     0.072 A 
ATOM     12  C21 ZIN A   1      17.853   4.339  13.906  0.00  0.00     0.119 A 
ATOM     13  F22 ZIN A   1      17.564   5.406  14.683  0.00  0.00    -0.206 F 
ATOM     14  C23 ZIN A   1      18.581   3.288  14.434  0.00  0.00     0.060 A 
ATOM     15  N24 ZIN A   1      17.481   2.950  10.450  0.00  0.00    -0.354 N 
ATOM     16  H38 ZIN A   1      20.817  -0.533  14.124  0.00  0.00     0.162 HD
ATOM     17  H41 ZIN A   1      16.888   3.450   9.870  0.00  0.00     0.166 HD
ENDROOT
BRANCH   1  18
ATOM     18  C9  ZIN A   1      18.200   1.208   8.753  0.00  0.00    -0.009 A 
ATOM     19  C8  ZIN A   1      17.377   0.118   8.471  0.00  0.00     0.014 A 
ATOM     20  C7  ZIN A   1      17.396  -0.450   7.214  0.00  0.00     0.010 A 
ATOM     21  C6  ZIN A   1      18.228   0.060   6.234  0.00  0.00    -0.033 A 
ATOM     22  C26 ZIN A   1      19.051   1.137   6.508  0.00  0.00     0.010 A 
ATOM     23  C25 ZIN A   1      19.038   1.718   7.760  0.00  0.00     0.014 A 
BRANCH  21  24
ATOM     24  C5  ZIN A   1      18.242  -0.566   4.863  0.00  0.00     0.270 C 
BRANCH  24  25
ATOM     25  N2  ZIN A   1      17.137  -1.528   4.752  0.00  0.00    -0.075 N 
ATOM     26  C1  ZIN A   1      17.665  -2.834   4.332  0.00  0.00     0.267 C 
ATOM     27  H3  ZIN A   1      16.472  -1.199   4.068  0.00  0.00     0.277 HD
ATOM     28  H4  ZIN A   1      16.682  -1.622   5.648  0.00  0.00     0.277 HD
ENDBRANCH  24  25
ENDBRANCH  21  24
ENDBRANCH   1  18
TORSDOF 3
ENDMDL
MODEL 2
REMARK VINA RESULT:      -8.6      1.943      3.194
REMARK  3 active torsions:
REMARK  status: ('A' for Active; 'I' for Inactive)
REMARK    1  A    between atoms: N2_2  and  C5_5 
REMARK    2  A    between atoms: C5_5  and  C6_6 
REMARK    3  A    between atoms: C9_9  and  C10_10 
ROOT
ATOM      1  C10 ZIN A   1      18.620   1.509  10.832  0.00  0.00     0.050 A 
ATOM      2  C11 ZIN A   1      18.269   2.699  11.376  0.00  0.00    -0.015 A 
ATOM      3  C12 ZIN A   1      17.612   3.859  10.715  0.00  0.00     0.061 C 
ATOM      4  C13 ZIN A   1      16.732   4.637  11.662  0.00  0.00     0.127 C 
ATOM      5  N14 ZIN A   1      17.464   5.500  12.554  0.00  0.00    -0.357 N 
ATOM      6  C15 ZIN A   1      18.262   5.027  13.530  0.00  0.00     0.252 C 
ATOM      7  O16 ZIN A   1      18.789   5.845  14.260  0.00  0.00    -0.268 OA
ATOM      8  C17 ZIN A   1      18.551   3.619  13.792  0.00  0.00     0.048 A 
ATOM      9  C18 ZIN A   1      18.619   2.665  12.753  0.00  0.00     0.015 A 
ATOM     10  C19 ZIN A   1      19.067   1.359  13.021  0.00  0.00     0.047 A 
ATOM     11  C20 ZIN A   1      19.327   0.980  14.331  0.00  0.00     0.072 A 
ATOM     12  C21 ZIN A   1      19.160   1.889  15.361  0.00  0.00     0.119 A 
ATOM     13  F22 ZIN A   1      19.367   1.495  16.637  0.00  0.00    -0.206 F 
ATOM     14  C23 ZIN A   1      18.785   3.195  15.102  0.00  0.00     0.060 A 
ATOM     15  N24 ZIN A   1      19.130   0.692  11.815  0.00  0.00    -0.354 N 
ATOM     16  H38 ZIN A   1      17.378   6.461  12.447  0.00  0.00     0.162 HD
ATOM     17  H41 ZIN A   1      19.481  -0.202  11.681  0.00  0.00     0.166 HD
ENDROOT
BRANCH   1  18
ATOM     18  C9  ZIN A   1      18.472   1.143   9.408  0.00  0.00    -0.009 A 
ATOM     19  C8  ZIN A   1      19.293   1.728   8.443  0.00  0.00     0.014 A 
ATOM     20  C7  ZIN A   1      19.149   1.381   7.116  0.00  0.00     0.010 A 
ATOM     21  C6  ZIN A   1      18.192   0.455   6.740  0.00  0.00    -0.033 A 
ATOM     22  C26 ZIN A   1      17.371  -0.125   7.690  0.00  0.00     0.010 A 
ATOM     23  C25 ZIN A   1      17.508   0.209   9.022  0.00  0.00     0.014 A 
BRANCH  21  24
ATOM     24  C5  ZIN A   1      18.040   0.081   5.288  0.00  0.00     0.270 C 
BRANCH  24  25
ATOM     25  N2  ZIN A   1      19.301  -0.494   4.796  0.00  0.00    -0.075 N 
ATOM     26  C1  ZIN A   1      19.141  -1.943   4.616  0.00  0.00     0.267 C 
ATOM     27  H3  ZIN A   1      20.035  -0.317   5.466  0.00  0.00     0.277 HD
ATOM     28  H4  ZIN A   1      19.541  -0.070   3.912  0.00  0.00     0.277 HD
ENDBRANCH  24  25
ENDBRANCH  21  24
ENDBRANCH   1  18
TORSDOF 3
ENDMDL
MODEL 3
REMARK VINA RESULT:      -8.4      3.952      7.625
REMARK  3 active torsions:
REMARK  status: ('A' for Active; 'I' for Inactive)
REMARK    1  A    between atoms: N2_2  and  C5_5 
REMARK    2  A    between atoms: C5_5  and  C6_6 
REMARK    3  A    between atoms: C9_9  and  C10_10 
ROOT
ATOM      1  C10 ZIN A   1      18.930   0.053   9.965  0.00  0.00     0.050 A 
ATOM      2  C11 ZIN A   1      18.970  -1.160   9.364  0.00  0.00    -0.015 A 
ATOM      3  C12 ZIN A   1      18.837  -2.504   9.987  0.00  0.00     0.061 C 
ATOM      4  C13 ZIN A   1      18.198  -3.508   9.060  0.00  0.00     0.127 C 
ATOM      5  N14 ZIN A   1      19.093  -4.013   8.049  0.00  0.00    -0.357 N 
ATOM      6  C15 ZIN A   1      19.568  -3.245   7.050  0.00  0.00     0.252 C 
ATOM      7  O16 ZIN A   1      20.273  -3.788   6.221  0.00  0.00    -0.268 OA
ATOM      8  C17 ZIN A   1      19.311  -1.817   6.872  0.00  0.00     0.048 A 
ATOM      9  C18 ZIN A   1      19.142  -0.946   7.970  0.00  0.00     0.015 A 
ATOM     10  C19 ZIN A   1      19.069   0.443   7.765  0.00  0.00     0.047 A 
ATOM     11  C20 ZIN A   1      19.042   0.943   6.470  0.00  0.00     0.072 A 
ATOM     12  C21 ZIN A   1      19.104   0.078   5.392  0.00  0.00     0.119 A 
ATOM     13  F22 ZIN A   1      19.026   0.571   4.137  0.00  0.00    -0.206 F 
ATOM     14  C23 ZIN A   1      19.244  -1.285   5.582  0.00  0.00     0.060 A 
ATOM     15  N24 ZIN A   1      19.014   1.039   9.009  0.00  0.00    -0.354 N 
ATOM     16  H38 ZIN A   1      19.364  -4.943   8.091  0.00  0.00     0.162 HD
ATOM     17  H41 ZIN A   1      19.037   1.992   9.180  0.00  0.00     0.166 HD
ENDROOT
BRANCH   1  18
ATOM     18  C9  ZIN A   1      18.807   0.284  11.420  0.00  0.00    -0.009 A 
ATOM     19  C8  ZIN A   1      17.552   0.484  11.996  0.00  0.00     0.014 A 
ATOM     20  C7  ZIN A   1      17.446   0.699  13.354  0.00  0.00     0.010 A 
ATOM     21  C6  ZIN A   1      18.580   0.717  14.146  0.00  0.00    -0.033 A 
ATOM     22  C26 ZIN A   1      19.828   0.524  13.582  0.00  0.00     0.010 A 
ATOM     23  C25 ZIN A   1      19.948   0.303  12.225  0.00  0.00     0.014 A 
BRANCH  21  24
ATOM     24  C5  ZIN A   1      18.456   0.952  15.630  0.00  0.00     0.270 C 
BRANCH  24  25
ATOM     25  N2  ZIN A   1      17.144   0.480  16.092  0.00  0.00    -0.075 N 
ATOM     26  C1  ZIN A   1      17.298  -0.822  16.755  0.00  0.00     0.267 C 
ATOM     27  H3  ZIN A   1      16.523   0.383  15.302  0.00  0.00     0.277 HD
ATOM     28  H4  ZIN A   1      16.757   1.146  16.745  0.00  0.00     0.277 HD
ENDBRANCH  24  25
ENDBRANCH  21  24
ENDBRANCH   1  18
TORSDOF 3
ENDMDL
MODEL 4
REMARK VINA RESULT:      -8.2      3.812      7.518
REMARK  3 active torsions:
REMARK  status: ('A' for Active; 'I' for Inactive)
REMARK    1  A    between atoms: N2_2  and  C5_5 
REMARK    2  A    between atoms: C5_5  and  C6_6 
REMARK    3  A    between atoms: C9_9  and  C10_10 
ROOT
ATOM      1  C10 ZIN A   1      18.871   1.734   9.166  0.00  0.00     0.050 A 
ATOM      2  C11 ZIN A   1      18.730   0.389   9.232  0.00  0.00    -0.015 A 
ATOM      3  C12 ZIN A   1      18.468  -0.455  10.430  0.00  0.00     0.061 C 
ATOM      4  C13 ZIN A   1      17.662  -1.687  10.101  0.00  0.00     0.127 C 
ATOM      5  N14 ZIN A   1      18.432  -2.732   9.475  0.00  0.00    -0.357 N 
ATOM      6  C15 ZIN A   1      18.943  -2.615   8.234  0.00  0.00     0.252 C 
ATOM      7  O16 ZIN A   1      19.530  -3.580   7.784  0.00  0.00    -0.268 OA
ATOM      8  C17 ZIN A   1      18.852  -1.432   7.380  0.00  0.00     0.048 A 
ATOM      9  C18 ZIN A   1      18.851  -0.125   7.912  0.00  0.00     0.015 A 
ATOM     10  C19 ZIN A   1      18.937   0.987   7.056  0.00  0.00     0.047 A 
ATOM     11  C20 ZIN A   1      18.901   0.796   5.681  0.00  0.00     0.072 A 
ATOM     12  C21 ZIN A   1      18.798  -0.483   5.163  0.00  0.00     0.119 A 
ATOM     13  F22 ZIN A   1      18.714  -0.654   3.825  0.00  0.00    -0.206 F 
ATOM     14  C23 ZIN A   1      18.782  -1.588   5.994  0.00  0.00     0.060 A 
ATOM     15  N24 ZIN A   1      19.023   2.111   7.851  0.00  0.00    -0.354 N 
ATOM     16  H38 ZIN A   1      18.590  -3.553   9.968  0.00  0.00     0.162 HD
ATOM     17  H41 ZIN A   1      19.171   3.016   7.536  0.00  0.00     0.166 HD
ENDROOT
BRANCH   1  18
ATOM     18  C9  ZIN A   1      18.857   2.654  10.323  0.00  0.00    -0.009 A 
ATOM     19  C8  ZIN A   1      17.720   3.414  10.601  0.00  0.00     0.014 A 
ATOM     20  C7  ZIN A   1      17.715   4.270  11.682  0.00  0.00     0.010 A 
ATOM     21  C6  ZIN A   1      18.833   4.378  12.489  0.00  0.00    -0.033 A 
ATOM     22  C26 ZIN A   1      19.965   3.633  12.216  0.00  0.00     0.010 A 
ATOM     23  C25 ZIN A   1      19.982   2.767  11.141  0.00  0.00     0.014 A 
BRANCH  21  24
ATOM     24  C5  ZIN A   1      18.819   5.317  13.669  0.00  0.00     0.270 C 
BRANCH  24  25
ATOM     25  N2  ZIN A   1      19.756   4.831  14.691  0.00  0.00    -0.075 N 
ATOM     26  C1  ZIN A   1      20.286   5.972  15.451  0.00  0.00     0.267 C 
ATOM     27  H3  ZIN A   1      20.517   4.341  14.245  0.00  0.00     0.277 HD
ATOM     28  H4  ZIN A   1      19.274   4.205  15.319  0.00  0.00     0.277 HD
ENDBRANCH  24  25
ENDBRANCH  21  24
ENDBRANCH   1  18
TORSDOF 3
ENDMDL
MODEL 5
REMARK VINA RESULT:      -8.1      1.552      1.784
REMARK  3 active torsions:
REMARK  status: ('A' for Active; 'I' for Inactive)
REMARK    1  A    between atoms: N2_2  and  C5_5 
REMARK    2  A    between atoms: C5_5  and  C6_6 
REMARK    3  A    between atoms: C9_9  and  C10_10 
ROOT
ATOM      1  C10 ZIN A   1      18.311   1.459  11.348  0.00  0.00     0.050 A 
ATOM      2  C11 ZIN A   1      18.399   0.576  12.371  0.00  0.00    -0.015 A 
ATOM      3  C12 ZIN A   1      18.539  -0.904  12.305  0.00  0.00     0.061 C 
ATOM      4  C13 ZIN A   1      19.323  -1.460  13.467  0.00  0.00     0.127 C 
ATOM      5  N14 ZIN A   1      18.566  -1.540  14.690  0.00  0.00    -0.357 N 
ATOM      6  C15 ZIN A   1      18.155  -0.448  15.363  0.00  0.00     0.252 C 
ATOM      7  O16 ZIN A   1      17.569  -0.632  16.413  0.00  0.00    -0.268 OA
ATOM      8  C17 ZIN A   1      18.351   0.939  14.945  0.00  0.00     0.048 A 
ATOM      9  C18 ZIN A   1      18.360   1.315  13.585  0.00  0.00     0.015 A 
ATOM     10  C19 ZIN A   1      18.377   2.675  13.227  0.00  0.00     0.047 A 
ATOM     11  C20 ZIN A   1      18.511   3.640  14.217  0.00  0.00     0.072 A 
ATOM     12  C21 ZIN A   1      18.606   3.262  15.544  0.00  0.00     0.119 A 
ATOM     13  F22 ZIN A   1      18.786   4.207  16.494  0.00  0.00    -0.206 F 
ATOM     14  C23 ZIN A   1      18.521   1.932  15.913  0.00  0.00     0.060 A 
ATOM     15  N24 ZIN A   1      18.272   2.739  11.853  0.00  0.00    -0.354 N 
ATOM     16  H38 ZIN A   1      18.342  -2.416  15.043  0.00  0.00     0.162 HD
ATOM     17  H41 ZIN A   1      18.180   3.550  11.331  0.00  0.00     0.166 HD
ENDROOT
BRANCH   1  18
ATOM     18  C9  ZIN A   1      18.270   1.106   9.913  0.00  0.00    -0.009 A 
ATOM     19  C8  ZIN A   1      17.330   0.189   9.443  0.00  0.00     0.014 A 
ATOM     20  C7  ZIN A   1      17.298  -0.136   8.103  0.00  0.00     0.010 A 
ATOM     21  C6  ZIN A   1      18.197   0.444   7.225  0.00  0.00    -0.033 A 
ATOM     22  C26 ZIN A   1      19.135   1.349   7.686  0.00  0.00     0.010 A 
ATOM     23  C25 ZIN A   1      19.174   1.688   9.023  0.00  0.00     0.014 A 
BRANCH  21  24
ATOM     24  C5  ZIN A   1      18.156   0.084   5.762  0.00  0.00     0.270 C 
BRANCH  24  25
ATOM     25  N2  ZIN A   1      17.075  -0.883   5.526  0.00  0.00    -0.075 N 
ATOM     26  C1  ZIN A   1      17.413  -1.723   4.369  0.00  0.00     0.267 C 
ATOM     27  H3  ZIN A   1      16.215  -0.388   5.342  0.00  0.00     0.277 HD
ATOM     28  H4  ZIN A   1      16.960  -1.465   6.342  0.00  0.00     0.277 HD
ENDBRANCH  24  25
ENDBRANCH  21  24
ENDBRANCH   1  18
TORSDOF 3
ENDMDL
MODEL 6
REMARK VINA RESULT:      -8.0      2.556      3.964
REMARK  3 active torsions:
REMARK  status: ('A' for Active; 'I' for Inactive)
REMARK    1  A    between atoms: N2_2  and  C5_5 
REMARK    2  A    between atoms: C5_5  and  C6_6 
REMARK    3  A    between atoms: C9_9  and  C10_10 
ROOT
ATOM      1  C10 ZIN A   1      18.748   0.243  12.856  0.00  0.00     0.050 A 
ATOM      2  C11 ZIN A   1      18.863   1.411  13.533  0.00  0.00    -0.015 A 
ATOM      3  C12 ZIN A   1      18.796   2.798  12.999  0.00  0.00     0.061 C 
ATOM      4  C13 ZIN A   1      18.226   3.773  14.000  0.00  0.00     0.127 C 
ATOM      5  N14 ZIN A   1      19.162   4.162  15.024  0.00  0.00    -0.357 N 
ATOM      6  C15 ZIN A   1      19.609   3.307  15.964  0.00  0.00     0.252 C 
ATOM      7  O16 ZIN A   1      20.355   3.757  16.813  0.00  0.00    -0.268 OA
ATOM      8  C17 ZIN A   1      19.277   1.887  16.055  0.00  0.00     0.048 A 
ATOM      9  C18 ZIN A   1      19.044   1.098  14.908  0.00  0.00     0.015 A 
ATOM     10  C19 ZIN A   1      18.898  -0.295  15.025  0.00  0.00     0.047 A 
ATOM     11  C20 ZIN A   1      18.863  -0.876  16.286  0.00  0.00     0.072 A 
ATOM     12  C21 ZIN A   1      18.988  -0.086  17.415  0.00  0.00     0.119 A 
ATOM     13  F22 ZIN A   1      18.902  -0.655  18.638  0.00  0.00    -0.206 F 
ATOM     14  C23 ZIN A   1      19.200   1.277  17.310  0.00  0.00     0.060 A 
ATOM     15  N24 ZIN A   1      18.792  -0.805  13.747  0.00  0.00    -0.354 N 
ATOM     16  H38 ZIN A   1      19.484   5.078  15.037  0.00  0.00     0.162 HD
ATOM     17  H41 ZIN A   1      18.760  -1.745  13.515  0.00  0.00     0.166 HD
ENDROOT
BRANCH   1  18
ATOM     18  C9  ZIN A   1      18.592   0.114  11.392  0.00  0.00    -0.009 A 
ATOM     19  C8  ZIN A   1      19.704  -0.130  10.587  0.00  0.00     0.014 A 
ATOM     20  C7  ZIN A   1      19.551  -0.249   9.221  0.00  0.00     0.010 A 
ATOM     21  C6  ZIN A   1      18.297  -0.126   8.649  0.00  0.00    -0.033 A 
ATOM     22  C26 ZIN A   1      17.190   0.121   9.441  0.00  0.00     0.010 A 
ATOM     23  C25 ZIN A   1      17.329   0.237  10.809  0.00  0.00     0.014 A 
BRANCH  21  24
ATOM     24  C5  ZIN A   1      18.137  -0.258   7.156  0.00  0.00     0.270 C 
BRANCH  24  25
ATOM     25  N2  ZIN A   1      19.243  -1.059   6.614  0.00  0.00    -0.075 N 
ATOM     26  C1  ZIN A   1      19.409  -0.763   5.185  0.00  0.00     0.267 C 
ATOM     27  H3  ZIN A   1      19.038  -2.040   6.732  0.00  0.00     0.277 HD
ATOM     28  H4  ZIN A   1      20.096  -0.832   7.105  0.00  0.00     0.277 HD
ENDBRANCH  24  25
ENDBRANCH  21  24
ENDBRANCH   1  18
TORSDOF 3
ENDMDL
MODEL 7
REMARK VINA RESULT:      -7.8      4.265      8.191
REMARK  3 active torsions:
REMARK  status: ('A' for Active; 'I' for Inactive)
REMARK    1  A    between atoms: N2_2  and  C5_5 
REMARK    2  A    between atoms: C5_5  and  C6_6 
REMARK    3  A    between atoms: C9_9  and  C10_10 
ROOT
ATOM      1  C10 ZIN A   1      18.546  -1.377  10.784  0.00  0.00     0.050 A 
ATOM      2  C11 ZIN A   1      18.680  -0.499   9.762  0.00  0.00    -0.015 A 
ATOM      3  C12 ZIN A   1      18.741   0.987   9.822  0.00  0.00     0.061 C 
ATOM      4  C13 ZIN A   1      19.597   1.573   8.726  0.00  0.00     0.127 C 
ATOM      5  N14 ZIN A   1      18.947   1.604   7.440  0.00  0.00    -0.357 N 
ATOM      6  C15 ZIN A   1      18.652   0.488   6.747  0.00  0.00     0.252 C 
ATOM      7  O16 ZIN A   1      18.154   0.633   5.648  0.00  0.00    -0.268 OA
ATOM      8  C17 ZIN A   1      18.880  -0.884   7.198  0.00  0.00     0.048 A 
ATOM      9  C18 ZIN A   1      18.786  -1.248   8.559  0.00  0.00     0.015 A 
ATOM     10  C19 ZIN A   1      18.840  -2.602   8.934  0.00  0.00     0.047 A 
ATOM     11  C20 ZIN A   1      19.108  -3.568   7.972  0.00  0.00     0.072 A 
ATOM     12  C21 ZIN A   1      19.302  -3.196   6.653  0.00  0.00     0.119 A 
ATOM     13  F22 ZIN A   1      19.612  -4.138   5.735  0.00  0.00    -0.206 F 
ATOM     14  C23 ZIN A   1      19.184  -1.875   6.262  0.00  0.00     0.060 A 
ATOM     15  N24 ZIN A   1      18.616  -2.661  10.294  0.00  0.00    -0.354 N 
ATOM     16  H38 ZIN A   1      18.713   2.465   7.058  0.00  0.00     0.162 HD
ATOM     17  H41 ZIN A   1      18.519  -3.471  10.816  0.00  0.00     0.166 HD
ENDROOT
BRANCH   1  18
ATOM     18  C9  ZIN A   1      18.361  -1.014  12.205  0.00  0.00    -0.009 A 
ATOM     19  C8  ZIN A   1      17.372  -0.102  12.574  0.00  0.00     0.014 A 
ATOM     20  C7  ZIN A   1      17.206   0.232  13.902  0.00  0.00     0.010 A 
ATOM     21  C6  ZIN A   1      18.017  -0.335  14.868  0.00  0.00    -0.033 A 
ATOM     22  C26 ZIN A   1      19.003  -1.237  14.510  0.00  0.00     0.010 A 
ATOM     23  C25 ZIN A   1      19.177  -1.584  13.185  0.00  0.00     0.014 A 
BRANCH  21  24
ATOM     24  C5  ZIN A   1      17.829   0.034  16.317  0.00  0.00     0.270 C 
BRANCH  24  25
ATOM     25  N2  ZIN A   1      18.860  -0.627  17.129  0.00  0.00    -0.075 N 
ATOM     26  C1  ZIN A   1      19.239   0.247  18.247  0.00  0.00     0.267 C 
ATOM     27  H3  ZIN A   1      19.671  -0.812  16.557  0.00  0.00     0.277 HD
ATOM     28  H4  ZIN A   1      18.497  -1.497  17.490  0.00  0.00     0.277 HD
ENDBRANCH  24  25
ENDBRANCH  21  24
ENDBRANCH   1  18
TORSDOF 3
ENDMDL
MODEL 8
REMARK VINA RESULT:      -7.8      4.890      8.437
REMARK  3 active torsions:
REMARK  status: ('A' for Active; 'I' for Inactive)
REMARK    1  A    between atoms: N2_2  and  C5_5 
REMARK    2  A    between atoms: C5_5  and  C6_6 
REMARK    3  A    between atoms: C9_9  and  C10_10 
ROOT
ATOM      1  C10 ZIN A   1      18.620  -1.949  10.995  0.00  0.00     0.050 A 
ATOM      2  C11 ZIN A   1      18.302  -3.220  10.654  0.00  0.00    -0.015 A 
ATOM      3  C12 ZIN A   1      17.695  -4.280  11.503  0.00  0.00     0.061 C 
ATOM      4  C13 ZIN A   1      16.827  -5.226  10.710  0.00  0.00     0.127 C 
ATOM      5  N14 ZIN A   1      17.575  -6.197   9.951  0.00  0.00    -0.357 N 
ATOM      6  C15 ZIN A   1      18.342  -5.860   8.896  0.00  0.00     0.252 C 
ATOM      7  O16 ZIN A   1      18.885  -6.767   8.294  0.00  0.00    -0.268 OA
ATOM      8  C17 ZIN A   1      18.578  -4.503   8.409  0.00  0.00     0.048 A 
ATOM      9  C18 ZIN A   1      18.629  -3.394   9.281  0.00  0.00     0.015 A 
ATOM     10  C19 ZIN A   1      19.029  -2.134   8.802  0.00  0.00     0.047 A 
ATOM     11  C20 ZIN A   1      19.255  -1.960   7.442  0.00  0.00     0.072 A 
ATOM     12  C21 ZIN A   1      19.104  -3.027   6.574  0.00  0.00     0.119 A 
ATOM     13  F22 ZIN A   1      19.278  -2.834   5.247  0.00  0.00    -0.206 F 
ATOM     14  C23 ZIN A   1      18.778  -4.286   7.043  0.00  0.00     0.060 A 
ATOM     15  N24 ZIN A   1      19.086  -1.282   9.885  0.00  0.00    -0.354 N 
ATOM     16  H38 ZIN A   1      17.523  -7.130  10.210  0.00  0.00     0.162 HD
ATOM     17  H41 ZIN A   1      19.408  -0.368   9.868  0.00  0.00     0.166 HD
ENDROOT
BRANCH   1  18
ATOM     18  C9  ZIN A   1      18.481  -1.365  12.346  0.00  0.00    -0.009 A 
ATOM     19  C8  ZIN A   1      17.549  -0.353  12.581  0.00  0.00     0.014 A 
ATOM     20  C7  ZIN A   1      17.426   0.188  13.844  0.00  0.00     0.010 A 
ATOM     21  C6  ZIN A   1      18.222  -0.272  14.877  0.00  0.00    -0.033 A 
ATOM     22  C26 ZIN A   1      19.151  -1.271  14.651  0.00  0.00     0.010 A 
ATOM     23  C25 ZIN A   1      19.281  -1.824  13.393  0.00  0.00     0.014 A 
BRANCH  21  24
ATOM     24  C5  ZIN A   1      18.081   0.323  16.255  0.00  0.00     0.270 C 
BRANCH  24  25
ATOM     25  N2  ZIN A   1      17.971   1.785  16.148  0.00  0.00    -0.075 N 
ATOM     26  C1  ZIN A   1      19.250   2.402  16.525  0.00  0.00     0.267 C 
ATOM     27  H3  ZIN A   1      17.244   2.114  16.766  0.00  0.00     0.277 HD
ATOM     28  H4  ZIN A   1      17.744   2.036  15.197  0.00  0.00     0.277 HD
ENDBRANCH  24  25
ENDBRANCH  21  24
ENDBRANCH   1  18
TORSDOF 3
ENDMDL
MODEL 9
REMARK VINA RESULT:      -7.8      3.483      7.376
REMARK  3 active torsions:
REMARK  status: ('A' for Active; 'I' for Inactive)
REMARK    1  A    between atoms: N2_2  and  C5_5 
REMARK    2  A    between atoms: C5_5  and  C6_6 
REMARK    3  A    between atoms: C9_9  and  C10_10 
ROOT
ATOM      1  C10 ZIN A   1      18.200   2.932  10.667  0.00  0.00     0.050 A 
ATOM      2  C11 ZIN A   1      17.992   1.605  10.843  0.00  0.00    -0.015 A 
ATOM      3  C12 ZIN A   1      17.407   0.910  12.021  0.00  0.00     0.061 C 
ATOM      4  C13 ZIN A   1      16.658  -0.342  11.637  0.00  0.00     0.127 C 
ATOM      5  N14 ZIN A   1      17.517  -1.462  11.344  0.00  0.00    -0.357 N 
ATOM      6  C15 ZIN A   1      18.324  -1.496  10.267  0.00  0.00     0.252 C 
ATOM      7  O16 ZIN A   1      18.966  -2.514  10.087  0.00  0.00    -0.268 OA
ATOM      8  C17 ZIN A   1      18.497  -0.420   9.293  0.00  0.00     0.048 A 
ATOM      9  C18 ZIN A   1      18.417   0.941   9.660  0.00  0.00     0.015 A 
ATOM     10  C19 ZIN A   1      18.759   1.944   8.737  0.00  0.00     0.047 A 
ATOM     11  C20 ZIN A   1      19.058   1.594   7.426  0.00  0.00     0.072 A 
ATOM     12  C21 ZIN A   1      19.035   0.265   7.043  0.00  0.00     0.119 A 
ATOM     13  F22 ZIN A   1      19.279  -0.059   5.753  0.00  0.00    -0.206 F 
ATOM     14  C23 ZIN A   1      18.767  -0.735   7.959  0.00  0.00     0.060 A 
ATOM     15  N24 ZIN A   1      18.689   3.152   9.400  0.00  0.00    -0.354 N 
ATOM     16  H38 ZIN A   1      17.514  -2.221  11.948  0.00  0.00     0.162 HD
ATOM     17  H41 ZIN A   1      18.948   4.012   9.035  0.00  0.00     0.166 HD
ENDROOT
BRANCH   1  18
ATOM     18  C9  ZIN A   1      17.936   3.981  11.674  0.00  0.00    -0.009 A 
ATOM     19  C8  ZIN A   1      16.758   4.726  11.620  0.00  0.00     0.014 A 
ATOM     20  C7  ZIN A   1      16.519   5.703  12.563  0.00  0.00     0.010 A 
ATOM     21  C6  ZIN A   1      17.444   5.946  13.562  0.00  0.00    -0.033 A 
ATOM     22  C26 ZIN A   1      18.617   5.215  13.620  0.00  0.00     0.010 A 
ATOM     23  C25 ZIN A   1      18.866   4.230  12.686  0.00  0.00     0.014 A 
BRANCH  21  24
ATOM     24  C5  ZIN A   1      17.176   7.016  14.590  0.00  0.00     0.270 C 
BRANCH  24  25
ATOM     25  N2  ZIN A   1      15.740   7.046  14.901  0.00  0.00    -0.075 N 
ATOM     26  C1  ZIN A   1      15.546   6.833  16.342  0.00  0.00     0.267 C 
ATOM     27  H3  ZIN A   1      15.268   6.316  14.387  0.00  0.00     0.277 HD
ATOM     28  H4  ZIN A   1      15.358   7.943  14.640  0.00  0.00     0.277 HD
ENDBRANCH  24  25
ENDBRANCH  21  24
ENDBRANCH   1  18
TORSDOF 3
ENDMDL
