MODEL 1
REMARK VINA RESULT:      -6.7      0.000      0.000
REMARK  7 active torsions:
REMARK  status: ('A' for Active; 'I' for Inactive)
REMARK    1  A    between atoms: O2_2  and  C3_3 
REMARK    2  A    between atoms: C6_6  and  C7_7 
REMARK    3  A    between atoms: C7_7  and  N8_8 
REMARK    4  A    between atoms: N8_8  and  C9_9 
REMARK    5  A    between atoms: N8_8  and  C15_15 
REMARK    6  A    between atoms: C9_9  and  C10_10 
REMARK    7  A    between atoms: C10_10  and  N11_11 
ROOT
ATOM      1  N8  ZIN A   1      18.145  -0.153  11.703  0.00  0.00    -0.360 N 
ENDROOT
BRANCH   1   2
ATOM      2  C7  ZIN A   1      17.182   0.516  10.826  0.00  0.00     0.163 C 
BRANCH   2   3
ATOM      3  C6  ZIN A   1      17.765   0.640   9.442  0.00  0.00    -0.040 A 
ATOM      4  C5  ZIN A   1      18.735   1.591   9.184  0.00  0.00     0.011 A 
ATOM      5  C4  ZIN A   1      19.271   1.707   7.916  0.00  0.00     0.037 A 
ATOM      6  C3  ZIN A   1      18.836   0.869   6.900  0.00  0.00     0.068 A 
ATOM      7  C22 ZIN A   1      17.858  -0.081   7.160  0.00  0.00     0.037 A 
ATOM      8  C21 ZIN A   1      17.328  -0.197   8.431  0.00  0.00     0.011 A 
BRANCH   6   9
ATOM      9  O2  ZIN A   1      19.361   0.980   5.653  0.00  0.00    -0.356 OA
ATOM     10  C1  ZIN A   1      19.062  -0.067   4.726  0.00  0.00     0.210 C 
ENDBRANCH   6   9
ENDBRANCH   2   3
ENDBRANCH   1   2
BRANCH   1  11
ATOM     11  C9  ZIN A   1      18.928   0.628  12.663  0.00  0.00     0.152 C 
BRANCH  11  12
ATOM     12  C10 ZIN A   1      18.166   0.722  13.986  0.00  0.00     0.253 C 
BRANCH  12  13
ATOM     13  N11 ZIN A   1      19.009   0.207  15.074  0.00  0.00    -0.077 N 
ATOM     14  H12 ZIN A   1      19.980   0.266  14.804  0.00  0.00     0.279 HD
ATOM     15  C13 ZIN A   1      18.787   1.006  16.286  0.00  0.00     0.269 C 
ATOM     16  C14 ZIN A   1      18.660  -1.195  15.341  0.00  0.00     0.269 C 
ENDBRANCH  12  13
ENDBRANCH  11  12
ENDBRANCH   1  11
BRANCH   1  17
ATOM     17  C15 ZIN A   1      18.315  -1.531  11.625  0.00  0.00     0.125 A 
ATOM     18  N20 ZIN A   1      17.257  -2.318  11.503  0.00  0.00    -0.244 NA
ATOM     19  C19 ZIN A   1      17.376  -3.630  11.422  0.00  0.00     0.119 A 
ATOM     20  C18 ZIN A   1      18.617  -4.233  11.472  0.00  0.00     0.019 A 
ATOM     21  C17 ZIN A   1      19.751  -3.444  11.605  0.00  0.00     0.005 A 
ATOM     22  C16 ZIN A   1      19.596  -2.071  11.682  0.00  0.00     0.050 A 
ENDBRANCH   1  17
TORSDOF 7
ENDMDL
MODEL 2
REMARK VINA RESULT:      -6.7      0.712      1.492
REMARK  7 active torsions:
REMARK  status: ('A' for Active; 'I' for Inactive)
REMARK    1  A    between atoms: O2_2  and  C3_3 
REMARK    2  A    between atoms: C6_6  and  C7_7 
REMARK    3  A    between atoms: C7_7  and  N8_8 
REMARK    4  A    between atoms: N8_8  and  C9_9 
REMARK    5  A    between atoms: N8_8  and  C15_15 
REMARK    6  A    between atoms: C9_9  and  C10_10 
REMARK    7  A    between atoms: C10_10  and  N11_11 
ROOT
ATOM      1  N8  ZIN A   1      18.509  -0.411  11.692  0.00  0.00    -0.360 N 
ENDROOT
BRANCH   1   2
ATOM      2  C7  ZIN A   1      17.514   0.383  10.967  0.00  0.00     0.163 C 
BRANCH   2   3
ATOM      3  C6  ZIN A   1      17.950   0.547   9.534  0.00  0.00    -0.040 A 
ATOM      4  C5  ZIN A   1      17.411  -0.262   8.551  0.00  0.00     0.011 A 
ATOM      5  C4  ZIN A   1      17.809  -0.114   7.237  0.00  0.00     0.037 A 
ATOM      6  C3  ZIN A   1      18.751   0.848   6.902  0.00  0.00     0.068 A 
ATOM      7  C22 ZIN A   1      19.295   1.656   7.891  0.00  0.00     0.037 A 
ATOM      8  C21 ZIN A   1      18.890   1.506   9.204  0.00  0.00     0.011 A 
BRANCH   6   9
ATOM      9  O2  ZIN A   1      19.144   0.997   5.611  0.00  0.00    -0.356 OA
ATOM     10  C1  ZIN A   1      19.284  -0.195   4.834  0.00  0.00     0.210 C 
ENDBRANCH   6   9
ENDBRANCH   2   3
ENDBRANCH   1   2
BRANCH   1  11
ATOM     11  C9  ZIN A   1      19.542   0.256  12.487  0.00  0.00     0.152 C 
BRANCH  11  12
ATOM     12  C10 ZIN A   1      19.092   0.331  13.948  0.00  0.00     0.253 C 
BRANCH  12  13
ATOM     13  N11 ZIN A   1      19.438   1.649  14.499  0.00  0.00    -0.077 N 
ATOM     14  H12 ZIN A   1      20.436   1.787  14.440  0.00  0.00     0.279 HD
ATOM     15  C13 ZIN A   1      18.752   2.696  13.731  0.00  0.00     0.269 C 
ATOM     16  C14 ZIN A   1      19.017   1.716  15.905  0.00  0.00     0.269 C 
ENDBRANCH  12  13
ENDBRANCH  11  12
ENDBRANCH   1  11
BRANCH   1  17
ATOM     17  C15 ZIN A   1      18.472  -1.800  11.625  0.00  0.00     0.125 A 
ATOM     18  N20 ZIN A   1      17.306  -2.423  11.538  0.00  0.00    -0.244 NA
ATOM     19  C19 ZIN A   1      17.228  -3.738  11.468  0.00  0.00     0.119 A 
ATOM     20  C18 ZIN A   1      18.367  -4.517  11.496  0.00  0.00     0.019 A 
ATOM     21  C17 ZIN A   1      19.608  -3.904  11.592  0.00  0.00     0.005 A 
ATOM     22  C16 ZIN A   1      19.660  -2.523  11.658  0.00  0.00     0.050 A 
ENDBRANCH   1  17
TORSDOF 7
ENDMDL
MODEL 3
REMARK VINA RESULT:      -6.6      3.221      6.470
REMARK  7 active torsions:
REMARK  status: ('A' for Active; 'I' for Inactive)
REMARK    1  A    between atoms: O2_2  and  C3_3 
REMARK    2  A    between atoms: C6_6  and  C7_7 
REMARK    3  A    between atoms: C7_7  and  N8_8 
REMARK    4  A    between atoms: N8_8  and  C9_9 
REMARK    5  A    between atoms: N8_8  and  C15_15 
REMARK    6  A    between atoms: C9_9  and  C10_10 
REMARK    7  A    between atoms: C10_10  and  N11_11 
ROOT
ATOM      1  N8  ZIN A   1      18.506  -0.902  12.253  0.00  0.00    -0.360 N 
ENDROOT
BRANCH   1   2
ATOM      2  C7  ZIN A   1      17.463  -0.302  13.087  0.00  0.00     0.163 C 
BRANCH   2   3
ATOM      3  C6  ZIN A   1      18.045   0.080  14.423  0.00  0.00    -0.040 A 
ATOM      4  C5  ZIN A   1      18.337   1.403  14.698  0.00  0.00     0.011 A 
ATOM      5  C4  ZIN A   1      18.871   1.755  15.921  0.00  0.00     0.037 A 
ATOM      6  C3  ZIN A   1      19.116   0.780  16.877  0.00  0.00     0.068 A 
ATOM      7  C22 ZIN A   1      18.827  -0.548  16.598  0.00  0.00     0.037 A 
ATOM      8  C21 ZIN A   1      18.289  -0.895  15.374  0.00  0.00     0.011 A 
BRANCH   6   9
ATOM      9  O2  ZIN A   1      19.640   1.123  18.082  0.00  0.00    -0.356 OA
ATOM     10  C1  ZIN A   1      19.186   2.348  18.662  0.00  0.00     0.210 C 
ENDBRANCH   6   9
ENDBRANCH   2   3
ENDBRANCH   1   2
BRANCH   1  11
ATOM     11  C9  ZIN A   1      19.629  -0.086  11.783  0.00  0.00     0.152 C 
BRANCH  11  12
ATOM     12  C10 ZIN A   1      19.107   1.009  10.849  0.00  0.00     0.253 C 
BRANCH  12  13
ATOM     13  N11 ZIN A   1      19.868   0.981   9.591  0.00  0.00    -0.077 N 
ATOM     14  H12 ZIN A   1      20.819   1.267   9.767  0.00  0.00     0.279 HD
ATOM     15  C13 ZIN A   1      19.858  -0.382   9.044  0.00  0.00     0.269 C 
ATOM     16  C14 ZIN A   1      19.250   1.901   8.626  0.00  0.00     0.269 C 
ENDBRANCH  12  13
ENDBRANCH  11  12
ENDBRANCH   1  11
BRANCH   1  17
ATOM     17  C15 ZIN A   1      18.432  -2.246  11.906  0.00  0.00     0.125 A 
ATOM     18  N20 ZIN A   1      17.256  -2.789  11.629  0.00  0.00    -0.244 NA
ATOM     19  C19 ZIN A   1      17.143  -4.060  11.292  0.00  0.00     0.119 A 
ATOM     20  C18 ZIN A   1      18.254  -4.876  11.226  0.00  0.00     0.019 A 
ATOM     21  C17 ZIN A   1      19.505  -4.347  11.515  0.00  0.00     0.005 A 
ATOM     22  C16 ZIN A   1      19.593  -3.011  11.860  0.00  0.00     0.050 A 
ENDBRANCH   1  17
TORSDOF 7
ENDMDL
MODEL 4
REMARK VINA RESULT:      -6.5      3.613      6.962
REMARK  7 active torsions:
REMARK  status: ('A' for Active; 'I' for Inactive)
REMARK    1  A    between atoms: O2_2  and  C3_3 
REMARK    2  A    between atoms: C6_6  and  C7_7 
REMARK    3  A    between atoms: C7_7  and  N8_8 
REMARK    4  A    between atoms: N8_8  and  C9_9 
REMARK    5  A    between atoms: N8_8  and  C15_15 
REMARK    6  A    between atoms: C9_9  and  C10_10 
REMARK    7  A    between atoms: C10_10  and  N11_11 
ROOT
ATOM      1  N8  ZIN A   1      18.214   0.117  11.388  0.00  0.00    -0.360 N 
ENDROOT
BRANCH   1   2
ATOM      2  C7  ZIN A   1      17.257  -0.523  12.293  0.00  0.00     0.163 C 
BRANCH   2   3
ATOM      3  C6  ZIN A   1      17.796  -0.488  13.700  0.00  0.00    -0.040 A 
ATOM      4  C5  ZIN A   1      17.385   0.503  14.572  0.00  0.00     0.011 A 
ATOM      5  C4  ZIN A   1      17.877   0.538  15.862  0.00  0.00     0.037 A 
ATOM      6  C3  ZIN A   1      18.785  -0.424  16.283  0.00  0.00     0.068 A 
ATOM      7  C22 ZIN A   1      19.200  -1.414  15.405  0.00  0.00     0.037 A 
ATOM      8  C21 ZIN A   1      18.701  -1.447  14.116  0.00  0.00     0.011 A 
BRANCH   6   9
ATOM      9  O2  ZIN A   1      19.270  -0.392  17.551  0.00  0.00    -0.356 OA
ATOM     10  C1  ZIN A   1      19.281   0.876  18.211  0.00  0.00     0.210 C 
ENDBRANCH   6   9
ENDBRANCH   2   3
ENDBRANCH   1   2
BRANCH   1  11
ATOM     11  C9  ZIN A   1      19.009  -0.697  10.466  0.00  0.00     0.152 C 
BRANCH  11  12
ATOM     12  C10 ZIN A   1      18.467  -2.129  10.453  0.00  0.00     0.253 C 
BRANCH  12  13
ATOM     13  N11 ZIN A   1      19.566  -3.065  10.180  0.00  0.00    -0.077 N 
ATOM     14  H12 ZIN A   1      20.340  -2.566   9.768  0.00  0.00     0.279 HD
ATOM     15  C13 ZIN A   1      19.999  -3.691  11.436  0.00  0.00     0.269 C 
ATOM     16  C14 ZIN A   1      19.104  -4.104   9.249  0.00  0.00     0.269 C 
ENDBRANCH  12  13
ENDBRANCH  11  12
ENDBRANCH   1  11
BRANCH   1  17
ATOM     17  C15 ZIN A   1      18.367   1.499  11.403  0.00  0.00     0.125 A 
ATOM     18  N20 ZIN A   1      17.330   2.278  11.137  0.00  0.00    -0.244 NA
ATOM     19  C19 ZIN A   1      17.432   3.594  11.145  0.00  0.00     0.119 A 
ATOM     20  C18 ZIN A   1      18.636   4.208  11.424  0.00  0.00     0.019 A 
ATOM     21  C17 ZIN A   1      19.750   3.427  11.703  0.00  0.00     0.005 A 
ATOM     22  C16 ZIN A   1      19.611   2.051  11.692  0.00  0.00     0.050 A 
ENDBRANCH   1  17
TORSDOF 7
ENDMDL
MODEL 5
REMARK VINA RESULT:      -6.5      3.468      5.679
REMARK  7 active torsions:
REMARK  status: ('A' for Active; 'I' for Inactive)
REMARK    1  A    between atoms: O2_2  and  C3_3 
REMARK    2  A    between atoms: C6_6  and  C7_7 
REMARK    3  A    between atoms: C7_7  and  N8_8 
REMARK    4  A    between atoms: N8_8  and  C9_9 
REMARK    5  A    between atoms: N8_8  and  C15_15 
REMARK    6  A    between atoms: C9_9  and  C10_10 
REMARK    7  A    between atoms: C10_10  and  N11_11 
ROOT
ATOM      1  N8  ZIN A   1      18.945   1.445  10.457  0.00  0.00    -0.360 N 
ENDROOT
BRANCH   1   2
ATOM      2  C7  ZIN A   1      19.567   2.752  10.679  0.00  0.00     0.163 C 
BRANCH   2   3
ATOM      3  C6  ZIN A   1      18.602   3.650  11.408  0.00  0.00    -0.040 A 
ATOM      4  C5  ZIN A   1      17.475   4.122  10.762  0.00  0.00     0.011 A 
ATOM      5  C4  ZIN A   1      16.588   4.946  11.427  0.00  0.00     0.037 A 
ATOM      6  C3  ZIN A   1      16.830   5.301  12.747  0.00  0.00     0.068 A 
ATOM      7  C22 ZIN A   1      17.965   4.831  13.392  0.00  0.00     0.037 A 
ATOM      8  C21 ZIN A   1      18.846   4.003  12.723  0.00  0.00     0.011 A 
BRANCH   6   9
ATOM      9  O2  ZIN A   1      15.960   6.111  13.404  0.00  0.00    -0.356 OA
ATOM     10  C1  ZIN A   1      15.738   5.836  14.790  0.00  0.00     0.210 C 
ENDBRANCH   6   9
ENDBRANCH   2   3
ENDBRANCH   1   2
BRANCH   1  11
ATOM     11  C9  ZIN A   1      18.697   0.550  11.590  0.00  0.00     0.152 C 
BRANCH  11  12
ATOM     12  C10 ZIN A   1      20.019  -0.069  12.050  0.00  0.00     0.253 C 
BRANCH  12  13
ATOM     13  N11 ZIN A   1      19.751  -1.335  12.746  0.00  0.00    -0.077 N 
ATOM     14  H12 ZIN A   1      20.559  -1.936  12.677  0.00  0.00     0.279 HD
ATOM     15  C13 ZIN A   1      19.460  -1.064  14.160  0.00  0.00     0.269 C 
ATOM     16  C14 ZIN A   1      18.595  -1.998  12.127  0.00  0.00     0.269 C 
ENDBRANCH  12  13
ENDBRANCH  11  12
ENDBRANCH   1  11
BRANCH   1  17
ATOM     17  C15 ZIN A   1      18.589   1.053   9.172  0.00  0.00     0.125 A 
ATOM     18  N20 ZIN A   1      17.621   0.166   8.999  0.00  0.00    -0.244 NA
ATOM     19  C19 ZIN A   1      17.251  -0.229   7.796  0.00  0.00     0.119 A 
ATOM     20  C18 ZIN A   1      17.871   0.266   6.666  0.00  0.00     0.019 A 
ATOM     21  C17 ZIN A   1      18.895   1.194   6.804  0.00  0.00     0.005 A 
ATOM     22  C16 ZIN A   1      19.258   1.593   8.077  0.00  0.00     0.050 A 
ENDBRANCH   1  17
TORSDOF 7
ENDMDL
MODEL 6
REMARK VINA RESULT:      -6.5      3.421      7.316
REMARK  7 active torsions:
REMARK  status: ('A' for Active; 'I' for Inactive)
REMARK    1  A    between atoms: O2_2  and  C3_3 
REMARK    2  A    between atoms: C6_6  and  C7_7 
REMARK    3  A    between atoms: C7_7  and  N8_8 
REMARK    4  A    between atoms: N8_8  and  C9_9 
REMARK    5  A    between atoms: N8_8  and  C15_15 
REMARK    6  A    between atoms: C9_9  and  C10_10 
REMARK    7  A    between atoms: C10_10  and  N11_11 
ROOT
ATOM      1  N8  ZIN A   1      18.448   0.746  11.520  0.00  0.00    -0.360 N 
ENDROOT
BRANCH   1   2
ATOM      2  C7  ZIN A   1      17.467  -0.056  12.253  0.00  0.00     0.163 C 
BRANCH   2   3
ATOM      3  C6  ZIN A   1      17.927  -0.234  13.677  0.00  0.00    -0.040 A 
ATOM      4  C5  ZIN A   1      18.766  -1.281  14.007  0.00  0.00     0.011 A 
ATOM      5  C4  ZIN A   1      19.189  -1.447  15.311  0.00  0.00     0.037 A 
ATOM      6  C3  ZIN A   1      18.771  -0.560  16.293  0.00  0.00     0.068 A 
ATOM      7  C22 ZIN A   1      17.924   0.488  15.961  0.00  0.00     0.037 A 
ATOM      8  C21 ZIN A   1      17.507   0.651  14.653  0.00  0.00     0.011 A 
BRANCH   6   9
ATOM      9  O2  ZIN A   1      19.185  -0.719  17.576  0.00  0.00    -0.356 OA
ATOM     10  C1  ZIN A   1      18.767   0.269  18.521  0.00  0.00     0.210 C 
ENDBRANCH   6   9
ENDBRANCH   2   3
ENDBRANCH   1   2
BRANCH   1  11
ATOM     11  C9  ZIN A   1      19.522   0.087  10.773  0.00  0.00     0.152 C 
BRANCH  11  12
ATOM     12  C10 ZIN A   1      18.944  -0.556   9.510  0.00  0.00     0.253 C 
BRANCH  12  13
ATOM     13  N11 ZIN A   1      18.236   0.463   8.723  0.00  0.00    -0.077 N 
ATOM     14  H12 ZIN A   1      17.752   1.093   9.345  0.00  0.00     0.279 HD
ATOM     15  C13 ZIN A   1      19.202   1.216   7.914  0.00  0.00     0.269 C 
ATOM     16  C14 ZIN A   1      17.262  -0.193   7.839  0.00  0.00     0.269 C 
ENDBRANCH  12  13
ENDBRANCH  11  12
ENDBRANCH   1  11
BRANCH   1  17
ATOM     17  C15 ZIN A   1      18.359   2.133  11.532  0.00  0.00     0.125 A 
ATOM     18  N20 ZIN A   1      17.321   2.731  10.967  0.00  0.00    -0.244 NA
ATOM     19  C19 ZIN A   1      17.197   4.044  10.960  0.00  0.00     0.119 A 
ATOM     20  C18 ZIN A   1      18.159   4.849  11.538  0.00  0.00     0.019 A 
ATOM     21  C17 ZIN A   1      19.266   4.262  12.136  0.00  0.00     0.005 A 
ATOM     22  C16 ZIN A   1      19.366   2.883  12.132  0.00  0.00     0.050 A 
ENDBRANCH   1  17
TORSDOF 7
ENDMDL
MODEL 7
REMARK VINA RESULT:      -6.4      1.906      4.270
REMARK  7 active torsions:
REMARK  status: ('A' for Active; 'I' for Inactive)
REMARK    1  A    between atoms: O2_2  and  C3_3 
REMARK    2  A    between atoms: C6_6  and  C7_7 
REMARK    3  A    between atoms: C7_7  and  N8_8 
REMARK    4  A    between atoms: N8_8  and  C9_9 
REMARK    5  A    between atoms: N8_8  and  C15_15 
REMARK    6  A    between atoms: C9_9  and  C10_10 
REMARK    7  A    between atoms: C10_10  and  N11_11 
ROOT
ATOM      1  N8  ZIN A   1      18.675   1.282  11.623  0.00  0.00    -0.360 N 
ENDROOT
BRANCH   1   2
ATOM      2  C7  ZIN A   1      17.490   1.132  10.776  0.00  0.00     0.163 C 
BRANCH   2   3
ATOM      3  C6  ZIN A   1      17.916   0.969   9.339  0.00  0.00    -0.040 A 
ATOM      4  C5  ZIN A   1      18.827   1.849   8.785  0.00  0.00     0.011 A 
ATOM      5  C4  ZIN A   1      19.219   1.703   7.469  0.00  0.00     0.037 A 
ATOM      6  C3  ZIN A   1      18.699   0.670   6.702  0.00  0.00     0.068 A 
ATOM      7  C22 ZIN A   1      17.781  -0.209   7.258  0.00  0.00     0.037 A 
ATOM      8  C21 ZIN A   1      17.395  -0.061   8.577  0.00  0.00     0.011 A 
BRANCH   6   9
ATOM      9  O2  ZIN A   1      19.083   0.523   5.408  0.00  0.00    -0.356 OA
ATOM     10  C1  ZIN A   1      19.337  -0.808   4.953  0.00  0.00     0.210 C 
ENDBRANCH   6   9
ENDBRANCH   2   3
ENDBRANCH   1   2
BRANCH   1  11
ATOM     11  C9  ZIN A   1      19.651   0.194  11.718  0.00  0.00     0.152 C 
BRANCH  11  12
ATOM     12  C10 ZIN A   1      18.990  -1.029  12.357  0.00  0.00     0.253 C 
BRANCH  12  13
ATOM     13  N11 ZIN A   1      18.917  -2.116  11.371  0.00  0.00    -0.077 N 
ATOM     14  H12 ZIN A   1      19.167  -1.762  10.460  0.00  0.00     0.279 HD
ATOM     15  C13 ZIN A   1      19.847  -3.187  11.753  0.00  0.00     0.269 C 
ATOM     16  C14 ZIN A   1      17.548  -2.648  11.330  0.00  0.00     0.269 C 
ENDBRANCH  12  13
ENDBRANCH  11  12
ENDBRANCH   1  11
BRANCH   1  17
ATOM     17  C15 ZIN A   1      18.874   2.458  12.337  0.00  0.00     0.125 A 
ATOM     18  N20 ZIN A   1      18.320   2.604  13.531  0.00  0.00    -0.244 NA
ATOM     19  C19 ZIN A   1      18.487   3.702  14.243  0.00  0.00     0.119 A 
ATOM     20  C18 ZIN A   1      19.244   4.750  13.759  0.00  0.00     0.019 A 
ATOM     21  C17 ZIN A   1      19.837   4.641  12.509  0.00  0.00     0.005 A 
ATOM     22  C16 ZIN A   1      19.649   3.476  11.788  0.00  0.00     0.050 A 
ENDBRANCH   1  17
TORSDOF 7
ENDMDL
MODEL 8
REMARK VINA RESULT:      -6.4      1.074      3.873
REMARK  7 active torsions:
REMARK  status: ('A' for Active; 'I' for Inactive)
REMARK    1  A    between atoms: O2_2  and  C3_3 
REMARK    2  A    between atoms: C6_6  and  C7_7 
REMARK    3  A    between atoms: C7_7  and  N8_8 
REMARK    4  A    between atoms: N8_8  and  C9_9 
REMARK    5  A    between atoms: N8_8  and  C15_15 
REMARK    6  A    between atoms: C9_9  and  C10_10 
REMARK    7  A    between atoms: C10_10  and  N11_11 
ROOT
ATOM      1  N8  ZIN A   1      17.887  -0.913  11.531  0.00  0.00    -0.360 N 
ENDROOT
BRANCH   1   2
ATOM      2  C7  ZIN A   1      17.020  -0.012  10.770  0.00  0.00     0.163 C 
BRANCH   2   3
ATOM      3  C6  ZIN A   1      17.650   0.281   9.433  0.00  0.00    -0.040 A 
ATOM      4  C5  ZIN A   1      17.166  -0.331   8.292  0.00  0.00     0.011 A 
ATOM      5  C4  ZIN A   1      17.741  -0.064   7.065  0.00  0.00     0.037 A 
ATOM      6  C3  ZIN A   1      18.808   0.819   6.977  0.00  0.00     0.068 A 
ATOM      7  C22 ZIN A   1      19.296   1.428   8.124  0.00  0.00     0.037 A 
ATOM      8  C21 ZIN A   1      18.713   1.161   9.349  0.00  0.00     0.011 A 
BRANCH   6   9
ATOM      9  O2  ZIN A   1      19.376   1.084   5.773  0.00  0.00    -0.356 OA
ATOM     10  C1  ZIN A   1      19.328   0.046   4.791  0.00  0.00     0.210 C 
ENDBRANCH   6   9
ENDBRANCH   2   3
ENDBRANCH   1   2
BRANCH   1  11
ATOM     11  C9  ZIN A   1      18.483  -2.082  10.879  0.00  0.00     0.152 C 
BRANCH  11  12
ATOM     12  C10 ZIN A   1      17.529  -3.273  10.998  0.00  0.00     0.253 C 
BRANCH  12  13
ATOM     13  N11 ZIN A   1      18.309  -4.512  11.124  0.00  0.00    -0.077 N 
ATOM     14  H12 ZIN A   1      17.975  -5.042  11.916  0.00  0.00     0.279 HD
ATOM     15  C13 ZIN A   1      18.158  -5.311   9.901  0.00  0.00     0.269 C 
ATOM     16  C14 ZIN A   1      19.726  -4.180  11.321  0.00  0.00     0.269 C 
ENDBRANCH  12  13
ENDBRANCH  11  12
ENDBRANCH   1  11
BRANCH   1  17
ATOM     17  C15 ZIN A   1      18.146  -0.659  12.874  0.00  0.00     0.125 A 
ATOM     18  N20 ZIN A   1      19.025  -1.406  13.526  0.00  0.00    -0.244 NA
ATOM     19  C19 ZIN A   1      19.302  -1.195  14.799  0.00  0.00     0.119 A 
ATOM     20  C18 ZIN A   1      18.673  -0.188  15.503  0.00  0.00     0.019 A 
ATOM     21  C17 ZIN A   1      17.741   0.613  14.858  0.00  0.00     0.005 A 
ATOM     22  C16 ZIN A   1      17.475   0.373  13.522  0.00  0.00     0.050 A 
ENDBRANCH   1  17
TORSDOF 7
ENDMDL
MODEL 9
REMARK VINA RESULT:      -6.3      2.980      5.662
REMARK  7 active torsions:
REMARK  status: ('A' for Active; 'I' for Inactive)
REMARK    1  A    between atoms: O2_2  and  C3_3 
REMARK    2  A    between atoms: C6_6  and  C7_7 
REMARK    3  A    between atoms: C7_7  and  N8_8 
REMARK    4  A    between atoms: N8_8  and  C9_9 
REMARK    5  A    between atoms: N8_8  and  C15_15 
REMARK    6  A    between atoms: C9_9  and  C10_10 
REMARK    7  A    between atoms: C10_10  and  N11_11 
ROOT
ATOM      1  N8  ZIN A   1      18.650  -0.416   8.753  0.00  0.00    -0.360 N 
ENDROOT
BRANCH   1   2
ATOM      2  C7  ZIN A   1      17.416   0.190   9.257  0.00  0.00     0.163 C 
BRANCH   2   3
ATOM      3  C6  ZIN A   1      17.757   1.329  10.183  0.00  0.00    -0.040 A 
ATOM      4  C5  ZIN A   1      17.482   1.228  11.534  0.00  0.00     0.011 A 
ATOM      5  C4  ZIN A   1      17.793   2.270  12.384  0.00  0.00     0.037 A 
ATOM      6  C3  ZIN A   1      18.384   3.421  11.882  0.00  0.00     0.068 A 
ATOM      7  C22 ZIN A   1      18.655   3.523  10.525  0.00  0.00     0.037 A 
ATOM      8  C21 ZIN A   1      18.345   2.475   9.679  0.00  0.00     0.011 A 
BRANCH   6   9
ATOM      9  O2  ZIN A   1      18.692   4.448  12.716  0.00  0.00    -0.356 OA
ATOM     10  C1  ZIN A   1      17.606   5.072  13.406  0.00  0.00     0.210 C 
ENDBRANCH   6   9
ENDBRANCH   2   3
ENDBRANCH   1   2
BRANCH   1  11
ATOM     11  C9  ZIN A   1      19.653  -0.926   9.691  0.00  0.00     0.152 C 
BRANCH  11  12
ATOM     12  C10 ZIN A   1      19.057  -2.085  10.494  0.00  0.00     0.253 C 
BRANCH  12  13
ATOM     13  N11 ZIN A   1      19.817  -3.312  10.219  0.00  0.00    -0.077 N 
ATOM     14  H12 ZIN A   1      20.660  -3.080   9.716  0.00  0.00     0.279 HD
ATOM     15  C13 ZIN A   1      20.165  -3.967  11.486  0.00  0.00     0.269 C 
ATOM     16  C14 ZIN A   1      18.997  -4.221   9.406  0.00  0.00     0.269 C 
ENDBRANCH  12  13
ENDBRANCH  11  12
ENDBRANCH   1  11
BRANCH   1  17
ATOM     17  C15 ZIN A   1      18.870  -0.508   7.383  0.00  0.00     0.125 A 
ATOM     18  N20 ZIN A   1      19.037  -1.697   6.823  0.00  0.00    -0.244 NA
ATOM     19  C19 ZIN A   1      19.243  -1.828   5.526  0.00  0.00     0.119 A 
ATOM     20  C18 ZIN A   1      19.304  -0.721   4.704  0.00  0.00     0.019 A 
ATOM     21  C17 ZIN A   1      19.140   0.543   5.252  0.00  0.00     0.005 A 
ATOM     22  C16 ZIN A   1      18.919   0.650   6.614  0.00  0.00     0.050 A 
ENDBRANCH   1  17
TORSDOF 7
ENDMDL
