MODEL 1
REMARK VINA RESULT:      -9.0      0.000      0.000
REMARK  8 active torsions:
REMARK  status: ('A' for Active; 'I' for Inactive)
REMARK    1  A    between atoms: C2_2  and  C3_3 
REMARK    2  A    between atoms: C3_3  and  C4_4 
REMARK    3  A    between atoms: C12_12  and  C13_13 
REMARK    4  A    between atoms: C15_15  and  S16_16 
REMARK    5  A    between atoms: S16_16  and  N19_19 
REMARK    6  A    between atoms: N22_22  and  C24_24 
REMARK    7  A    between atoms: C30_30  and  O31_31 
REMARK    8  A    between atoms: O31_31  and  C32_32 
ROOT
ATOM      1  C13 ZIN A   1      18.563   0.883  14.199  0.00  0.00     0.046 A 
ATOM      2  C14 ZIN A   1      19.067   0.438  12.977  0.00  0.00     0.043 A 
ATOM      3  C15 ZIN A   1      19.239  -0.913  12.756  0.00  0.00     0.080 A 
ATOM      4  C28 ZIN A   1      18.913  -1.829  13.741  0.00  0.00     0.028 A 
ATOM      5  C29 ZIN A   1      18.412  -1.399  14.956  0.00  0.00     0.039 A 
ATOM      6  C30 ZIN A   1      18.239  -0.045  15.196  0.00  0.00     0.083 A 
ENDROOT
BRANCH   1   7
ATOM      7  C12 ZIN A   1      18.377   2.329  14.443  0.00  0.00     0.164 A 
ATOM      8  N11 ZIN A   1      18.838   2.868  15.627  0.00  0.00    -0.304 N 
ATOM      9  C9  ZIN A   1      18.687   4.186  15.885  0.00  0.00     0.278 A 
ATOM     10  H46 ZIN A   1      19.275   2.297  16.278  0.00  0.00     0.171 HD
ATOM     11  C8  ZIN A   1      18.024   5.017  14.880  0.00  0.00     0.152 A 
ATOM     12  O10 ZIN A   1      19.090   4.670  16.927  0.00  0.00    -0.265 OA
ATOM     13  C6  ZIN A   1      17.699   6.346  14.786  0.00  0.00     0.067 A 
ATOM     14  N35 ZIN A   1      17.578   4.417  13.714  0.00  0.00    -0.210 N 
ATOM     15  N5  ZIN A   1      17.091   6.526  13.612  0.00  0.00    -0.236 NA
ATOM     16  C7  ZIN A   1      17.975   7.409  15.818  0.00  0.00     0.073 C 
ATOM     17  C4  ZIN A   1      17.020   5.383  12.970  0.00  0.00     0.128 A 
ATOM     18  N34 ZIN A   1      17.784   3.047  13.533  0.00  0.00    -0.146 NA
BRANCH  17  19
ATOM     19  C3  ZIN A   1      16.400   5.185  11.610  0.00  0.00     0.080 C 
BRANCH  19  20
ATOM     20  C2  ZIN A   1      17.488   5.261  10.538  0.00  0.00     0.003 C 
ATOM     21  C1  ZIN A   1      17.925   3.845  10.154  0.00  0.00     0.005 C 
ENDBRANCH  19  20
ENDBRANCH  17  19
ENDBRANCH   1   7
BRANCH   6  22
ATOM     22  O31 ZIN A   1      17.747   0.379  16.388  0.00  0.00    -0.351 OA
BRANCH  22  23
ATOM     23  C32 ZIN A   1      18.157  -0.343  17.552  0.00  0.00     0.171 C 
ATOM     24  C33 ZIN A   1      19.374   0.344  18.175  0.00  0.00     0.034 C 
ENDBRANCH  22  23
ENDBRANCH   6  22
BRANCH   3  25
ATOM     25  S16 ZIN A   1      19.876  -1.475  11.212  0.00  0.00     0.261 S 
ATOM     26  O17 ZIN A   1      20.852  -0.523  10.811  0.00  0.00    -0.200 OA
ATOM     27  O18 ZIN A   1      20.161  -2.858  11.374  0.00  0.00    -0.200 OA
BRANCH  25  28
ATOM     28  N19 ZIN A   1      18.646  -1.377  10.108  0.00  0.00    -0.304 N 
ATOM     29  C27 ZIN A   1      18.471  -2.411   9.076  0.00  0.00     0.163 C 
ATOM     30  C26 ZIN A   1      18.342  -1.727   7.715  0.00  0.00     0.255 C 
ATOM     31  N22 ZIN A   1      17.264  -0.732   7.765  0.00  0.00    -0.068 N 
ATOM     32  C21 ZIN A   1      17.612   0.334   8.713  0.00  0.00     0.255 C 
ATOM     33  H23 ZIN A   1      16.409  -1.179   8.063  0.00  0.00     0.280 HD
ATOM     34  C20 ZIN A   1      17.701  -0.250  10.128  0.00  0.00     0.163 C 
BRANCH  31  35
ATOM     35  C24 ZIN A   1      17.073  -0.153   6.429  0.00  0.00     0.230 C 
ATOM     36  C25 ZIN A   1      18.370   0.523   5.977  0.00  0.00     0.034 C 
ENDBRANCH  31  35
ENDBRANCH  25  28
ENDBRANCH   3  25
TORSDOF 8
ENDMDL
MODEL 2
REMARK VINA RESULT:      -8.9      3.290      9.493
REMARK  8 active torsions:
REMARK  status: ('A' for Active; 'I' for Inactive)
REMARK    1  A    between atoms: C2_2  and  C3_3 
REMARK    2  A    between atoms: C3_3  and  C4_4 
REMARK    3  A    between atoms: C12_12  and  C13_13 
REMARK    4  A    between atoms: C15_15  and  S16_16 
REMARK    5  A    between atoms: S16_16  and  N19_19 
REMARK    6  A    between atoms: N22_22  and  C24_24 
REMARK    7  A    between atoms: C30_30  and  O31_31 
REMARK    8  A    between atoms: O31_31  and  C32_32 
ROOT
ATOM      1  C13 ZIN A   1      18.856  -0.494   8.698  0.00  0.00     0.046 A 
ATOM      2  C14 ZIN A   1      19.274  -0.312  10.016  0.00  0.00     0.043 A 
ATOM      3  C15 ZIN A   1      19.460   0.963  10.509  0.00  0.00     0.080 A 
ATOM      4  C28 ZIN A   1      19.232   2.063   9.702  0.00  0.00     0.028 A 
ATOM      5  C29 ZIN A   1      18.817   1.896   8.394  0.00  0.00     0.039 A 
ATOM      6  C30 ZIN A   1      18.631   0.622   7.882  0.00  0.00     0.083 A 
ENDROOT
BRANCH   1   7
ATOM      7  C12 ZIN A   1      18.655  -1.857   8.163  0.00  0.00     0.164 A 
ATOM      8  N11 ZIN A   1      19.194  -2.174   6.933  0.00  0.00    -0.304 N 
ATOM      9  C9  ZIN A   1      19.033  -3.410   6.411  0.00  0.00     0.278 A 
ATOM     10  H46 ZIN A   1      19.694  -1.505   6.439  0.00  0.00     0.171 HD
ATOM     11  C8  ZIN A   1      18.274  -4.393   7.184  0.00  0.00     0.152 A 
ATOM     12  O10 ZIN A   1      19.505  -3.698   5.326  0.00  0.00    -0.265 OA
ATOM     13  C6  ZIN A   1      17.911  -5.702   6.992  0.00  0.00     0.067 A 
ATOM     14  N35 ZIN A   1      17.752  -4.014   8.408  0.00  0.00    -0.210 N 
ATOM     15  N5  ZIN A   1      17.209  -6.082   8.061  0.00  0.00    -0.236 NA
ATOM     16  C7  ZIN A   1      18.242  -6.556   5.794  0.00  0.00     0.073 C 
ATOM     17  C4  ZIN A   1      17.115  -5.083   8.907  0.00  0.00     0.128 A 
ATOM     18  N34 ZIN A   1      17.975  -2.713   8.869  0.00  0.00    -0.146 NA
BRANCH  17  19
ATOM     19  C3  ZIN A   1      16.396  -5.128  10.231  0.00  0.00     0.080 C 
BRANCH  19  20
ATOM     20  C2  ZIN A   1      17.367  -5.574  11.325  0.00  0.00     0.003 C 
ATOM     21  C1  ZIN A   1      17.945  -4.343  12.027  0.00  0.00     0.005 C 
ENDBRANCH  19  20
ENDBRANCH  17  19
ENDBRANCH   1   7
BRANCH   6  22
ATOM     22  O31 ZIN A   1      18.223   0.456   6.597  0.00  0.00    -0.351 OA
BRANCH  22  23
ATOM     23  C32 ZIN A   1      19.130   0.867   5.571  0.00  0.00     0.171 C 
ATOM     24  C33 ZIN A   1      18.923  -0.004   4.331  0.00  0.00     0.034 C 
ENDBRANCH  22  23
ENDBRANCH   6  22
BRANCH   3  25
ATOM     25  S16 ZIN A   1      19.990   1.190  12.174  0.00  0.00     0.261 S 
ATOM     26  O17 ZIN A   1      21.280   0.602  12.268  0.00  0.00    -0.200 OA
ATOM     27  O18 ZIN A   1      19.730   2.549  12.496  0.00  0.00    -0.200 OA
BRANCH  25  28
ATOM     28  N19 ZIN A   1      18.991   0.283  13.135  0.00  0.00    -0.304 N 
ATOM     29  C27 ZIN A   1      17.655   0.771  13.511  0.00  0.00     0.163 C 
ATOM     30  C26 ZIN A   1      17.496   0.645  15.026  0.00  0.00     0.255 C 
ATOM     31  N22 ZIN A   1      17.774  -0.736  15.436  0.00  0.00    -0.068 N 
ATOM     32  C21 ZIN A   1      19.177  -1.067  15.156  0.00  0.00     0.255 C 
ATOM     33  H23 ZIN A   1      17.173  -1.366  14.924  0.00  0.00     0.280 HD
ATOM     34  C20 ZIN A   1      19.417  -1.030  13.642  0.00  0.00     0.163 C 
BRANCH  31  35
ATOM     35  C24 ZIN A   1      17.518  -0.878  16.875  0.00  0.00     0.230 C 
ATOM     36  C25 ZIN A   1      18.771  -0.476  17.657  0.00  0.00     0.034 C 
ENDBRANCH  31  35
ENDBRANCH  25  28
ENDBRANCH   3  25
TORSDOF 8
ENDMDL
MODEL 3
REMARK VINA RESULT:      -8.5      2.052      4.908
REMARK  8 active torsions:
REMARK  status: ('A' for Active; 'I' for Inactive)
REMARK    1  A    between atoms: C2_2  and  C3_3 
REMARK    2  A    between atoms: C3_3  and  C4_4 
REMARK    3  A    between atoms: C12_12  and  C13_13 
REMARK    4  A    between atoms: C15_15  and  S16_16 
REMARK    5  A    between atoms: S16_16  and  N19_19 
REMARK    6  A    between atoms: N22_22  and  C24_24 
REMARK    7  A    between atoms: C30_30  and  O31_31 
REMARK    8  A    between atoms: O31_31  and  C32_32 
ROOT
ATOM      1  C13 ZIN A   1      18.746   2.564  12.301  0.00  0.00     0.046 A 
ATOM      2  C14 ZIN A   1      19.162   1.396  11.662  0.00  0.00     0.043 A 
ATOM      3  C15 ZIN A   1      19.179   1.335  10.284  0.00  0.00     0.080 A 
ATOM      4  C28 ZIN A   1      18.785   2.428   9.532  0.00  0.00     0.028 A 
ATOM      5  C29 ZIN A   1      18.371   3.591  10.155  0.00  0.00     0.039 A 
ATOM      6  C30 ZIN A   1      18.343   3.666  11.538  0.00  0.00     0.083 A 
ENDROOT
BRANCH   1   7
ATOM      7  C12 ZIN A   1      18.725   2.636  13.778  0.00  0.00     0.164 A 
ATOM      8  N11 ZIN A   1      19.179   3.785  14.393  0.00  0.00    -0.304 N 
ATOM      9  C9  ZIN A   1      19.175   3.888  15.741  0.00  0.00     0.278 A 
ATOM     10  H46 ZIN A   1      19.502   4.524  13.855  0.00  0.00     0.171 HD
ATOM     11  C8  ZIN A   1      18.680   2.754  16.520  0.00  0.00     0.152 A 
ATOM     12  O10 ZIN A   1      19.573   4.898  16.292  0.00  0.00    -0.265 OA
ATOM     13  C6  ZIN A   1      18.526   2.493  17.859  0.00  0.00     0.067 A 
ATOM     14  N35 ZIN A   1      18.244   1.626  15.846  0.00  0.00    -0.210 N 
ATOM     15  N5  ZIN A   1      18.016   1.266  17.970  0.00  0.00    -0.236 NA
ATOM     16  C7  ZIN A   1      18.871   3.422  18.995  0.00  0.00     0.073 C 
ATOM     17  C4  ZIN A   1      17.843   0.748  16.776  0.00  0.00     0.128 A 
ATOM     18  N34 ZIN A   1      18.281   1.613  14.449  0.00  0.00    -0.146 NA
BRANCH  17  19
ATOM     19  C3  ZIN A   1      17.287  -0.625  16.496  0.00  0.00     0.080 C 
BRANCH  19  20
ATOM     20  C2  ZIN A   1      18.439  -1.605  16.266  0.00  0.00     0.003 C 
ATOM     21  C1  ZIN A   1      18.769  -1.664  14.773  0.00  0.00     0.005 C 
ENDBRANCH  19  20
ENDBRANCH  17  19
ENDBRANCH   1   7
BRANCH   6  22
ATOM     22  O31 ZIN A   1      17.936   4.808  12.151  0.00  0.00    -0.351 OA
BRANCH  22  23
ATOM     23  C32 ZIN A   1      16.554   5.153  12.028  0.00  0.00     0.171 C 
ATOM     24  C33 ZIN A   1      16.045   5.699  13.363  0.00  0.00     0.034 C 
ENDBRANCH  22  23
ENDBRANCH   6  22
BRANCH   3  25
ATOM     25  S16 ZIN A   1      19.704  -0.141   9.478  0.00  0.00     0.261 S 
ATOM     26  O17 ZIN A   1      19.718   0.146   8.086  0.00  0.00    -0.200 OA
ATOM     27  O18 ZIN A   1      20.846  -0.602  10.187  0.00  0.00    -0.200 OA
BRANCH  25  28
ATOM     28  N19 ZIN A   1      18.520  -1.275   9.710  0.00  0.00    -0.304 N 
ATOM     29  C27 ZIN A   1      18.092  -1.656  11.065  0.00  0.00     0.163 C 
ATOM     30  C26 ZIN A   1      18.115  -3.180  11.176  0.00  0.00     0.255 C 
ATOM     31  N22 ZIN A   1      17.305  -3.762  10.099  0.00  0.00    -0.068 N 
ATOM     32  C21 ZIN A   1      17.907  -3.450   8.796  0.00  0.00     0.255 C 
ATOM     33  H23 ZIN A   1      16.371  -3.379  10.137  0.00  0.00     0.280 HD
ATOM     34  C20 ZIN A   1      17.870  -1.934   8.568  0.00  0.00     0.163 C 
BRANCH  31  35
ATOM     35  C24 ZIN A   1      17.241  -5.219  10.270  0.00  0.00     0.230 C 
ATOM     36  C25 ZIN A   1      18.406  -5.871   9.521  0.00  0.00     0.034 C 
ENDBRANCH  31  35
ENDBRANCH  25  28
ENDBRANCH   3  25
TORSDOF 8
ENDMDL
MODEL 4
REMARK VINA RESULT:      -8.3      3.711      7.231
REMARK  8 active torsions:
REMARK  status: ('A' for Active; 'I' for Inactive)
REMARK    1  A    between atoms: C2_2  and  C3_3 
REMARK    2  A    between atoms: C3_3  and  C4_4 
REMARK    3  A    between atoms: C12_12  and  C13_13 
REMARK    4  A    between atoms: C15_15  and  S16_16 
REMARK    5  A    between atoms: S16_16  and  N19_19 
REMARK    6  A    between atoms: N22_22  and  C24_24 
REMARK    7  A    between atoms: C30_30  and  O31_31 
REMARK    8  A    between atoms: O31_31  and  C32_32 
ROOT
ATOM      1  C13 ZIN A   1      19.016  -1.897   8.013  0.00  0.00     0.046 A 
ATOM      2  C14 ZIN A   1      18.944  -3.052   8.791  0.00  0.00     0.043 A 
ATOM      3  C15 ZIN A   1      19.226  -4.279   8.228  0.00  0.00     0.080 A 
ATOM      4  C28 ZIN A   1      19.581  -4.370   6.893  0.00  0.00     0.028 A 
ATOM      5  C29 ZIN A   1      19.655  -3.232   6.112  0.00  0.00     0.039 A 
ATOM      6  C30 ZIN A   1      19.370  -1.993   6.661  0.00  0.00     0.083 A 
ENDROOT
BRANCH   1   7
ATOM      7  C12 ZIN A   1      18.715  -0.579   8.610  0.00  0.00     0.164 A 
ATOM      8  N11 ZIN A   1      18.985   0.559   7.877  0.00  0.00    -0.304 N 
ATOM      9  C9  ZIN A   1      18.723   1.783   8.389  0.00  0.00     0.278 A 
ATOM     10  H46 ZIN A   1      19.364   0.481   6.988  0.00  0.00     0.171 HD
ATOM     11  C8  ZIN A   1      18.150   1.862   9.733  0.00  0.00     0.152 A 
ATOM     12  O10 ZIN A   1      18.957   2.792   7.750  0.00  0.00    -0.265 OA
ATOM     13  C6  ZIN A   1      17.762   2.886  10.560  0.00  0.00     0.067 A 
ATOM     14  N35 ZIN A   1      17.907   0.685  10.421  0.00  0.00    -0.210 N 
ATOM     15  N5  ZIN A   1      17.304   2.337  11.686  0.00  0.00    -0.236 NA
ATOM     16  C7  ZIN A   1      17.838   4.360  10.254  0.00  0.00     0.073 C 
ATOM     17  C4  ZIN A   1      17.386   1.029  11.607  0.00  0.00     0.128 A 
ATOM     18  N34 ZIN A   1      18.207  -0.535   9.807  0.00  0.00    -0.146 NA
BRANCH  17  19
ATOM     19  C3  ZIN A   1      16.964   0.064  12.685  0.00  0.00     0.080 C 
BRANCH  19  20
ATOM     20  C2  ZIN A   1      18.163  -0.260  13.577  0.00  0.00     0.003 C 
ATOM     21  C1  ZIN A   1      18.664  -1.672  13.266  0.00  0.00     0.005 C 
ENDBRANCH  19  20
ENDBRANCH  17  19
ENDBRANCH   1   7
BRANCH   6  22
ATOM     22  O31 ZIN A   1      19.443  -0.874   5.895  0.00  0.00    -0.351 OA
BRANCH  22  23
ATOM     23  C32 ZIN A   1      18.970  -0.977   4.550  0.00  0.00     0.171 C 
ATOM     24  C33 ZIN A   1      17.451  -1.155   4.556  0.00  0.00     0.034 C 
ENDBRANCH  22  23
ENDBRANCH   6  22
BRANCH   3  25
ATOM     25  S16 ZIN A   1      19.134  -5.738   9.212  0.00  0.00     0.261 S 
ATOM     26  O17 ZIN A   1      20.105  -6.636   8.690  0.00  0.00    -0.200 OA
ATOM     27  O18 ZIN A   1      19.122  -5.309  10.566  0.00  0.00    -0.200 OA
BRANCH  25  28
ATOM     28  N19 ZIN A   1      17.656  -6.430   8.927  0.00  0.00    -0.304 N 
ATOM     29  C27 ZIN A   1      17.490  -7.459   7.890  0.00  0.00     0.163 C 
ATOM     30  C26 ZIN A   1      16.310  -7.070   6.999  0.00  0.00     0.255 C 
ATOM     31  N22 ZIN A   1      15.120  -6.849   7.830  0.00  0.00    -0.068 N 
ATOM     32  C21 ZIN A   1      15.339  -5.702   8.721  0.00  0.00     0.255 C 
ATOM     33  H23 ZIN A   1      14.939  -7.674   8.384  0.00  0.00     0.280 HD
ATOM     34  C20 ZIN A   1      16.472  -6.027   9.701  0.00  0.00     0.163 C 
BRANCH  31  35
ATOM     35  C24 ZIN A   1      13.965  -6.580   6.964  0.00  0.00     0.230 C 
ATOM     36  C25 ZIN A   1      12.753  -6.222   7.827  0.00  0.00     0.034 C 
ENDBRANCH  31  35
ENDBRANCH  25  28
ENDBRANCH   3  25
TORSDOF 8
ENDMDL
MODEL 5
REMARK VINA RESULT:      -8.2      2.546      8.192
REMARK  8 active torsions:
REMARK  status: ('A' for Active; 'I' for Inactive)
REMARK    1  A    between atoms: C2_2  and  C3_3 
REMARK    2  A    between atoms: C3_3  and  C4_4 
REMARK    3  A    between atoms: C12_12  and  C13_13 
REMARK    4  A    between atoms: C15_15  and  S16_16 
REMARK    5  A    between atoms: S16_16  and  N19_19 
REMARK    6  A    between atoms: N22_22  and  C24_24 
REMARK    7  A    between atoms: C30_30  and  O31_31 
REMARK    8  A    between atoms: O31_31  and  C32_32 
ROOT
ATOM      1  C13 ZIN A   1      18.700  -2.644  10.125  0.00  0.00     0.046 A 
ATOM      2  C14 ZIN A   1      19.194  -1.457  10.665  0.00  0.00     0.043 A 
ATOM      3  C15 ZIN A   1      19.279  -1.308  12.034  0.00  0.00     0.080 A 
ATOM      4  C28 ZIN A   1      18.877  -2.332  12.874  0.00  0.00     0.028 A 
ATOM      5  C29 ZIN A   1      18.386  -3.512  12.350  0.00  0.00     0.039 A 
ATOM      6  C30 ZIN A   1      18.288  -3.676  10.977  0.00  0.00     0.083 A 
ENDROOT
BRANCH   1   7
ATOM      7  C12 ZIN A   1      18.605  -2.810   8.659  0.00  0.00     0.164 A 
ATOM      8  N11 ZIN A   1      18.789  -4.067   8.120  0.00  0.00    -0.304 N 
ATOM      9  C9  ZIN A   1      18.710  -4.258   6.784  0.00  0.00     0.278 A 
ATOM     10  H46 ZIN A   1      18.976  -4.819   8.703  0.00  0.00     0.171 HD
ATOM     11  C8  ZIN A   1      18.426  -3.101   5.935  0.00  0.00     0.152 A 
ATOM     12  O10 ZIN A   1      18.871  -5.363   6.300  0.00  0.00    -0.265 OA
ATOM     13  C6  ZIN A   1      18.275  -2.906   4.585  0.00  0.00     0.067 A 
ATOM     14  N35 ZIN A   1      18.257  -1.865   6.534  0.00  0.00    -0.210 N 
ATOM     15  N5  ZIN A   1      18.022  -1.610   4.396  0.00  0.00    -0.236 NA
ATOM     16  C7  ZIN A   1      18.377  -3.960   3.513  0.00  0.00     0.073 C 
ATOM     17  C4  ZIN A   1      18.007  -0.988   5.552  0.00  0.00     0.128 A 
ATOM     18  N34 ZIN A   1      18.352  -1.765   7.925  0.00  0.00    -0.146 NA
BRANCH  17  19
ATOM     19  C3  ZIN A   1      17.755   0.486   5.743  0.00  0.00     0.080 C 
BRANCH  19  20
ATOM     20  C2  ZIN A   1      19.062   1.183   6.122  0.00  0.00     0.003 C 
ATOM     21  C1  ZIN A   1      18.998   1.628   7.584  0.00  0.00     0.005 C 
ENDBRANCH  19  20
ENDBRANCH  17  19
ENDBRANCH   1   7
BRANCH   6  22
ATOM     22  O31 ZIN A   1      17.806  -4.835  10.461  0.00  0.00    -0.351 OA
BRANCH  22  23
ATOM     23  C32 ZIN A   1      16.403  -5.074  10.601  0.00  0.00     0.171 C 
ATOM     24  C33 ZIN A   1      15.823  -5.504   9.253  0.00  0.00     0.034 C 
ENDBRANCH  22  23
ENDBRANCH   6  22
BRANCH   3  25
ATOM     25  S16 ZIN A   1      19.903   0.192  12.716  0.00  0.00     0.261 S 
ATOM     26  O17 ZIN A   1      20.151  -0.066  14.092  0.00  0.00    -0.200 OA
ATOM     27  O18 ZIN A   1      20.903   0.656  11.820  0.00  0.00    -0.200 OA
BRANCH  25  28
ATOM     28  N19 ZIN A   1      18.676   1.303  12.663  0.00  0.00    -0.304 N 
ATOM     29  C27 ZIN A   1      17.792   1.399  11.490  0.00  0.00     0.163 C 
ATOM     30  C26 ZIN A   1      17.726   2.860  11.046  0.00  0.00     0.255 C 
ATOM     31  N22 ZIN A   1      17.321   3.700  12.180  0.00  0.00    -0.068 N 
ATOM     32  C21 ZIN A   1      18.348   3.651  13.229  0.00  0.00     0.255 C 
ATOM     33  H23 ZIN A   1      16.445   3.362  12.552  0.00  0.00     0.280 HD
ATOM     34  C20 ZIN A   1      18.441   2.225  13.784  0.00  0.00     0.163 C 
BRANCH  31  35
ATOM     35  C24 ZIN A   1      17.156   5.087  11.725  0.00  0.00     0.230 C 
ATOM     36  C25 ZIN A   1      17.402   5.159  10.216  0.00  0.00     0.034 C 
ENDBRANCH  31  35
ENDBRANCH  25  28
ENDBRANCH   3  25
TORSDOF 8
ENDMDL
MODEL 6
REMARK VINA RESULT:      -8.2      1.979      2.561
REMARK  8 active torsions:
REMARK  status: ('A' for Active; 'I' for Inactive)
REMARK    1  A    between atoms: C2_2  and  C3_3 
REMARK    2  A    between atoms: C3_3  and  C4_4 
REMARK    3  A    between atoms: C12_12  and  C13_13 
REMARK    4  A    between atoms: C15_15  and  S16_16 
REMARK    5  A    between atoms: S16_16  and  N19_19 
REMARK    6  A    between atoms: N22_22  and  C24_24 
REMARK    7  A    between atoms: C30_30  and  O31_31 
REMARK    8  A    between atoms: O31_31  and  C32_32 
ROOT
ATOM      1  C13 ZIN A   1      18.824   1.042  14.298  0.00  0.00     0.046 A 
ATOM      2  C14 ZIN A   1      18.945   0.587  12.986  0.00  0.00     0.043 A 
ATOM      3  C15 ZIN A   1      19.245  -0.737  12.742  0.00  0.00     0.080 A 
ATOM      4  C28 ZIN A   1      19.425  -1.617  13.795  0.00  0.00     0.028 A 
ATOM      5  C29 ZIN A   1      19.307  -1.178  15.100  0.00  0.00     0.039 A 
ATOM      6  C30 ZIN A   1      19.012   0.150  15.362  0.00  0.00     0.083 A 
ENDROOT
BRANCH   1   7
ATOM      7  C12 ZIN A   1      18.503   2.460  14.566  0.00  0.00     0.164 A 
ATOM      8  N11 ZIN A   1      18.872   3.007  15.779  0.00  0.00    -0.304 N 
ATOM      9  C9  ZIN A   1      18.597   4.300  16.060  0.00  0.00     0.278 A 
ATOM     10  H46 ZIN A   1      19.334   2.459  16.434  0.00  0.00     0.171 HD
ATOM     11  C8  ZIN A   1      17.901   5.095  15.049  0.00  0.00     0.152 A 
ATOM     12  O10 ZIN A   1      18.919   4.790  17.127  0.00  0.00    -0.265 OA
ATOM     13  C6  ZIN A   1      17.464   6.393  14.971  0.00  0.00     0.067 A 
ATOM     14  N35 ZIN A   1      17.551   4.488  13.854  0.00  0.00    -0.210 N 
ATOM     15  N5  ZIN A   1      16.886   6.549  13.779  0.00  0.00    -0.236 NA
ATOM     16  C7  ZIN A   1      17.609   7.450  16.036  0.00  0.00     0.073 C 
ATOM     17  C4  ZIN A   1      16.938   5.420  13.111  0.00  0.00     0.128 A 
ATOM     18  N34 ZIN A   1      17.882   3.146  13.651  0.00  0.00    -0.146 NA
BRANCH  17  19
ATOM     19  C3  ZIN A   1      16.388   5.204  11.724  0.00  0.00     0.080 C 
BRANCH  19  20
ATOM     20  C2  ZIN A   1      17.530   5.251  10.708  0.00  0.00     0.003 C 
ATOM     21  C1  ZIN A   1      17.851   3.831  10.236  0.00  0.00     0.005 C 
ENDBRANCH  19  20
ENDBRANCH  17  19
ENDBRANCH   1   7
BRANCH   6  22
ATOM     22  O31 ZIN A   1      18.896   0.584  16.643  0.00  0.00    -0.351 OA
BRANCH  22  23
ATOM     23  C32 ZIN A   1      18.108  -0.216  17.529  0.00  0.00     0.171 C 
ATOM     24  C33 ZIN A   1      16.640  -0.154  17.102  0.00  0.00     0.034 C 
ENDBRANCH  22  23
ENDBRANCH   6  22
BRANCH   3  25
ATOM     25  S16 ZIN A   1      19.399  -1.311  11.083  0.00  0.00     0.261 S 
ATOM     26  O17 ZIN A   1      18.422  -0.611  10.325  0.00  0.00    -0.200 OA
ATOM     27  O18 ZIN A   1      20.785  -1.286  10.776  0.00  0.00    -0.200 OA
BRANCH  25  28
ATOM     28  N19 ZIN A   1      18.946  -2.904  11.071  0.00  0.00    -0.304 N 
ATOM     29  C27 ZIN A   1      19.952  -3.977  11.096  0.00  0.00     0.163 C 
ATOM     30  C26 ZIN A   1      19.643  -4.965   9.972  0.00  0.00     0.255 C 
ATOM     31  N22 ZIN A   1      18.257  -5.432  10.096  0.00  0.00    -0.068 N 
ATOM     32  C21 ZIN A   1      17.332  -4.308   9.901  0.00  0.00     0.255 C 
ATOM     33  H23 ZIN A   1      18.117  -5.826  11.015  0.00  0.00     0.280 HD
ATOM     34  C20 ZIN A   1      17.527  -3.287  11.028  0.00  0.00     0.163 C 
BRANCH  31  35
ATOM     35  C24 ZIN A   1      17.996  -6.459   9.080  0.00  0.00     0.230 C 
ATOM     36  C25 ZIN A   1      16.490  -6.551   8.823  0.00  0.00     0.034 C 
ENDBRANCH  31  35
ENDBRANCH  25  28
ENDBRANCH   3  25
TORSDOF 8
ENDMDL
MODEL 7
REMARK VINA RESULT:      -8.1      1.778      2.213
REMARK  8 active torsions:
REMARK  status: ('A' for Active; 'I' for Inactive)
REMARK    1  A    between atoms: C2_2  and  C3_3 
REMARK    2  A    between atoms: C3_3  and  C4_4 
REMARK    3  A    between atoms: C12_12  and  C13_13 
REMARK    4  A    between atoms: C15_15  and  S16_16 
REMARK    5  A    between atoms: S16_16  and  N19_19 
REMARK    6  A    between atoms: N22_22  and  C24_24 
REMARK    7  A    between atoms: C30_30  and  O31_31 
REMARK    8  A    between atoms: O31_31  and  C32_32 
ROOT
ATOM      1  C13 ZIN A   1      18.217   1.272  15.040  0.00  0.00     0.046 A 
ATOM      2  C14 ZIN A   1      17.669   0.958  13.796  0.00  0.00     0.043 A 
ATOM      3  C15 ZIN A   1      17.815  -0.313  13.282  0.00  0.00     0.080 A 
ATOM      4  C28 ZIN A   1      18.503  -1.280  13.994  0.00  0.00     0.028 A 
ATOM      5  C29 ZIN A   1      19.050  -0.981  15.227  0.00  0.00     0.039 A 
ATOM      6  C30 ZIN A   1      18.917   0.293  15.756  0.00  0.00     0.083 A 
ENDROOT
BRANCH   1   7
ATOM      7  C12 ZIN A   1      18.064   2.632  15.597  0.00  0.00     0.164 A 
ATOM      8  N11 ZIN A   1      18.131   2.801  16.965  0.00  0.00    -0.304 N 
ATOM      9  C9  ZIN A   1      17.997   4.030  17.512  0.00  0.00     0.278 A 
ATOM     10  H46 ZIN A   1      18.277   2.032  17.539  0.00  0.00     0.171 HD
ATOM     11  C8  ZIN A   1      17.780   5.166  16.616  0.00  0.00     0.152 A 
ATOM     12  O10 ZIN A   1      18.055   4.188  18.718  0.00  0.00    -0.265 OA
ATOM     13  C6  ZIN A   1      17.603   6.515  16.791  0.00  0.00     0.067 A 
ATOM     14  N35 ZIN A   1      17.715   4.932  15.253  0.00  0.00    -0.210 N 
ATOM     15  N5  ZIN A   1      17.448   7.056  15.582  0.00  0.00    -0.236 NA
ATOM     16  C7  ZIN A   1      17.588   7.251  18.106  0.00  0.00     0.073 C 
ATOM     17  C4  ZIN A   1      17.517   6.120  14.664  0.00  0.00     0.128 A 
ATOM     18  N34 ZIN A   1      17.871   3.626  14.779  0.00  0.00    -0.146 NA
BRANCH  17  19
ATOM     19  C3  ZIN A   1      17.386   6.345  13.180  0.00  0.00     0.080 C 
BRANCH  19  20
ATOM     20  C2  ZIN A   1      16.281   5.446  12.622  0.00  0.00     0.003 C 
ATOM     21  C1  ZIN A   1      16.718   4.878  11.270  0.00  0.00     0.005 C 
ENDBRANCH  19  20
ENDBRANCH  17  19
ENDBRANCH   1   7
BRANCH   6  22
ATOM     22  O31 ZIN A   1      19.453   0.588  16.968  0.00  0.00    -0.351 OA
BRANCH  22  23
ATOM     23  C32 ZIN A   1      19.273  -0.375  18.009  0.00  0.00     0.171 C 
ATOM     24  C33 ZIN A   1      18.252   0.151  19.019  0.00  0.00     0.034 C 
ENDBRANCH  22  23
ENDBRANCH   6  22
BRANCH   3  25
ATOM     25  S16 ZIN A   1      17.123  -0.708  11.710  0.00  0.00     0.261 S 
ATOM     26  O17 ZIN A   1      17.090  -2.127  11.631  0.00  0.00    -0.200 OA
ATOM     27  O18 ZIN A   1      15.968   0.105  11.563  0.00  0.00    -0.200 OA
BRANCH  25  28
ATOM     28  N19 ZIN A   1      18.201  -0.202  10.558  0.00  0.00    -0.304 N 
ATOM     29  C27 ZIN A   1      18.654   1.197  10.509  0.00  0.00     0.163 C 
ATOM     30  C26 ZIN A   1      18.488   1.716   9.081  0.00  0.00     0.255 C 
ATOM     31  N22 ZIN A   1      19.184   0.820   8.150  0.00  0.00    -0.068 N 
ATOM     32  C21 ZIN A   1      18.553  -0.506   8.166  0.00  0.00     0.255 C 
ATOM     33  H23 ZIN A   1      20.151   0.735   8.426  0.00  0.00     0.280 HD
ATOM     34  C20 ZIN A   1      18.727  -1.136   9.552  0.00  0.00     0.163 C 
BRANCH  31  35
ATOM     35  C24 ZIN A   1      19.112   1.378   6.793  0.00  0.00     0.230 C 
ATOM     36  C25 ZIN A   1      18.926   0.242   5.784  0.00  0.00     0.034 C 
ENDBRANCH  31  35
ENDBRANCH  25  28
ENDBRANCH   3  25
TORSDOF 8
ENDMDL
MODEL 8
REMARK VINA RESULT:      -7.7      2.518      5.129
REMARK  8 active torsions:
REMARK  status: ('A' for Active; 'I' for Inactive)
REMARK    1  A    between atoms: C2_2  and  C3_3 
REMARK    2  A    between atoms: C3_3  and  C4_4 
REMARK    3  A    between atoms: C12_12  and  C13_13 
REMARK    4  A    between atoms: C15_15  and  S16_16 
REMARK    5  A    between atoms: S16_16  and  N19_19 
REMARK    6  A    between atoms: N22_22  and  C24_24 
REMARK    7  A    between atoms: C30_30  and  O31_31 
REMARK    8  A    between atoms: O31_31  and  C32_32 
ROOT
ATOM      1  C13 ZIN A   1      18.195   0.636  12.157  0.00  0.00     0.046 A 
ATOM      2  C14 ZIN A   1      18.541  -0.711  12.255  0.00  0.00     0.043 A 
ATOM      3  C15 ZIN A   1      18.368  -1.546  11.171  0.00  0.00     0.080 A 
ATOM      4  C28 ZIN A   1      17.852  -1.052   9.985  0.00  0.00     0.028 A 
ATOM      5  C29 ZIN A   1      17.506   0.281   9.876  0.00  0.00     0.039 A 
ATOM      6  C30 ZIN A   1      17.669   1.132  10.958  0.00  0.00     0.083 A 
ENDROOT
BRANCH   1   7
ATOM      7  C12 ZIN A   1      18.378   1.536  13.316  0.00  0.00     0.164 A 
ATOM      8  N11 ZIN A   1      18.707   2.857  13.086  0.00  0.00    -0.304 N 
ATOM      9  C9  ZIN A   1      18.882   3.710  14.119  0.00  0.00     0.278 A 
ATOM     10  H46 ZIN A   1      18.813   3.175  12.175  0.00  0.00     0.171 HD
ATOM     11  C8  ZIN A   1      18.713   3.195  15.478  0.00  0.00     0.152 A 
ATOM     12  O10 ZIN A   1      19.172   4.876  13.925  0.00  0.00    -0.265 OA
ATOM     13  C6  ZIN A   1      18.805   3.736  16.735  0.00  0.00     0.067 A 
ATOM     14  N35 ZIN A   1      18.389   1.859  15.645  0.00  0.00    -0.210 N 
ATOM     15  N5  ZIN A   1      18.540   2.762  17.608  0.00  0.00    -0.236 NA
ATOM     16  C7  ZIN A   1      19.143   5.166  17.071  0.00  0.00     0.073 C 
ATOM     17  C4  ZIN A   1      18.289   1.646  16.964  0.00  0.00     0.128 A 
ATOM     18  N34 ZIN A   1      18.223   1.054  14.514  0.00  0.00    -0.146 NA
BRANCH  17  19
ATOM     19  C3  ZIN A   1      17.948   0.327  17.610  0.00  0.00     0.080 C 
BRANCH  19  20
ATOM     20  C2  ZIN A   1      19.223  -0.498  17.791  0.00  0.00     0.003 C 
ATOM     21  C1  ZIN A   1      19.248  -1.631  16.763  0.00  0.00     0.005 C 
ENDBRANCH  19  20
ENDBRANCH  17  19
ENDBRANCH   1   7
BRANCH   6  22
ATOM     22  O31 ZIN A   1      17.329   2.442  10.852  0.00  0.00    -0.351 OA
BRANCH  22  23
ATOM     23  C32 ZIN A   1      18.096   3.240   9.947  0.00  0.00     0.171 C 
ATOM     24  C33 ZIN A   1      17.751   4.716  10.151  0.00  0.00     0.034 C 
ENDBRANCH  22  23
ENDBRANCH   6  22
BRANCH   3  25
ATOM     25  S16 ZIN A   1      18.804  -3.249  11.296  0.00  0.00     0.261 S 
ATOM     26  O17 ZIN A   1      20.224  -3.301  11.270  0.00  0.00    -0.200 OA
ATOM     27  O18 ZIN A   1      18.026  -3.786  12.355  0.00  0.00    -0.200 OA
BRANCH  25  28
ATOM     28  N19 ZIN A   1      18.284  -3.992   9.910  0.00  0.00    -0.304 N 
ATOM     29  C27 ZIN A   1      16.923  -4.542   9.811  0.00  0.00     0.163 C 
ATOM     30  C26 ZIN A   1      17.012  -5.980   9.302  0.00  0.00     0.255 C 
ATOM     31  N22 ZIN A   1      17.770  -6.010   8.045  0.00  0.00    -0.068 N 
ATOM     32  C21 ZIN A   1      19.156  -5.589   8.288  0.00  0.00     0.255 C 
ATOM     33  H23 ZIN A   1      17.341  -5.383   7.380  0.00  0.00     0.280 HD
ATOM     34  C20 ZIN A   1      19.171  -4.125   8.745  0.00  0.00     0.163 C 
BRANCH  31  35
ATOM     35  C24 ZIN A   1      17.763  -7.375   7.505  0.00  0.00     0.230 C 
ATOM     36  C25 ZIN A   1      16.526  -8.118   8.015  0.00  0.00     0.034 C 
ENDBRANCH  31  35
ENDBRANCH  25  28
ENDBRANCH   3  25
TORSDOF 8
ENDMDL
MODEL 9
REMARK VINA RESULT:      -7.6      2.416      7.958
REMARK  8 active torsions:
REMARK  status: ('A' for Active; 'I' for Inactive)
REMARK    1  A    between atoms: C2_2  and  C3_3 
REMARK    2  A    between atoms: C3_3  and  C4_4 
REMARK    3  A    between atoms: C12_12  and  C13_13 
REMARK    4  A    between atoms: C15_15  and  S16_16 
REMARK    5  A    between atoms: S16_16  and  N19_19 
REMARK    6  A    between atoms: N22_22  and  C24_24 
REMARK    7  A    between atoms: C30_30  and  O31_31 
REMARK    8  A    between atoms: O31_31  and  C32_32 
ROOT
ATOM      1  C13 ZIN A   1      18.516   0.633  12.807  0.00  0.00     0.046 A 
ATOM      2  C14 ZIN A   1      18.525   1.962  12.386  0.00  0.00     0.043 A 
ATOM      3  C15 ZIN A   1      18.684   2.975  13.309  0.00  0.00     0.080 A 
ATOM      4  C28 ZIN A   1      18.834   2.677  14.653  0.00  0.00     0.028 A 
ATOM      5  C29 ZIN A   1      18.826   1.364  15.082  0.00  0.00     0.039 A 
ATOM      6  C30 ZIN A   1      18.663   0.335  14.168  0.00  0.00     0.083 A 
ENDROOT
BRANCH   1   7
ATOM      7  C12 ZIN A   1      18.347  -0.457  11.823  0.00  0.00     0.164 A 
ATOM      8  N11 ZIN A   1      17.938  -1.697  12.269  0.00  0.00    -0.304 N 
ATOM      9  C9  ZIN A   1      17.771  -2.719  11.400  0.00  0.00     0.278 A 
ATOM     10  H46 ZIN A   1      17.768  -1.838  13.214  0.00  0.00     0.171 HD
ATOM     11  C8  ZIN A   1      18.036  -2.471   9.982  0.00  0.00     0.152 A 
ATOM     12  O10 ZIN A   1      17.411  -3.816  11.784  0.00  0.00    -0.265 OA
ATOM     13  C6  ZIN A   1      17.981  -3.230   8.841  0.00  0.00     0.067 A 
ATOM     14  N35 ZIN A   1      18.450  -1.207   9.597  0.00  0.00    -0.210 N 
ATOM     15  N5  ZIN A   1      18.341  -2.446   7.823  0.00  0.00    -0.236 NA
ATOM     16  C7  ZIN A   1      17.587  -4.682   8.752  0.00  0.00     0.073 C 
ATOM     17  C4  ZIN A   1      18.617  -1.242   8.267  0.00  0.00     0.128 A 
ATOM     18  N34 ZIN A   1      18.590  -0.212  10.568  0.00  0.00    -0.146 NA
BRANCH  17  19
ATOM     19  C3  ZIN A   1      19.061  -0.081   7.415  0.00  0.00     0.080 C 
BRANCH  19  20
ATOM     20  C2  ZIN A   1      18.276  -0.083   6.101  0.00  0.00     0.003 C 
ATOM     21  C1  ZIN A   1      19.240   0.124   4.931  0.00  0.00     0.005 C 
ENDBRANCH  19  20
ENDBRANCH  17  19
ENDBRANCH   1   7
BRANCH   6  22
ATOM     22  O31 ZIN A   1      18.656  -0.956  14.588  0.00  0.00    -0.351 OA
BRANCH  22  23
ATOM     23  C32 ZIN A   1      18.122  -1.212  15.889  0.00  0.00     0.171 C 
ATOM     24  C33 ZIN A   1      19.253  -1.631  16.830  0.00  0.00     0.034 C 
ENDBRANCH  22  23
ENDBRANCH   6  22
BRANCH   3  25
ATOM     25  S16 ZIN A   1      18.694   4.654  12.776  0.00  0.00     0.261 S 
ATOM     26  O17 ZIN A   1      20.034   4.949  12.407  0.00  0.00    -0.200 OA
ATOM     27  O18 ZIN A   1      17.594   4.802  11.890  0.00  0.00    -0.200 OA
BRANCH  25  28
ATOM     28  N19 ZIN A   1      18.357   5.591  14.100  0.00  0.00    -0.304 N 
ATOM     29  C27 ZIN A   1      19.435   6.241  14.862  0.00  0.00     0.163 C 
ATOM     30  C26 ZIN A   1      19.247   5.922  16.344  0.00  0.00     0.255 C 
ATOM     31  N22 ZIN A   1      17.894   6.308  16.761  0.00  0.00    -0.068 N 
ATOM     32  C21 ZIN A   1      16.901   5.491  16.052  0.00  0.00     0.255 C 
ATOM     33  H23 ZIN A   1      17.741   7.283  16.546  0.00  0.00     0.280 HD
ATOM     34  C20 ZIN A   1      16.972   5.793  14.550  0.00  0.00     0.163 C 
BRANCH  31  35
ATOM     35  C24 ZIN A   1      17.752   6.099  18.208  0.00  0.00     0.230 C 
ATOM     36  C25 ZIN A   1      17.845   4.604  18.519  0.00  0.00     0.034 C 
ENDBRANCH  31  35
ENDBRANCH  25  28
ENDBRANCH   3  25
TORSDOF 8
ENDMDL
