MODEL 1
REMARK VINA RESULT:      -7.5      0.000      0.000
REMARK  16 active torsions:
REMARK  status: ('A' for Active; 'I' for Inactive)
REMARK    1  A    between atoms: C2_2  and  C5_5 
REMARK    2  A    between atoms: C5_5  and  O7_7 
REMARK    3  A    between atoms: O7_7  and  C8_8 
REMARK    4  A    between atoms: C8_8  and  O9_9 
REMARK    5  A    between atoms: O9_9  and  P10_10 
REMARK    6  A    between atoms: P10_10  and  C12_12 
REMARK    7  A    between atoms: P10_10  and  O26_26 
REMARK    8  A    between atoms: C12_12  and  O13_13 
REMARK    9  A    between atoms: O13_13  and  C14_14 
REMARK   10  A    between atoms: C14_14  and  C15_15 
REMARK   11  A    between atoms: C15_15  and  N16_16 
REMARK   12  A    between atoms: C20_20  and  N21_21 
REMARK   13  A    between atoms: O26_26  and  C27_27 
REMARK   14  A    between atoms: C27_27  and  O28_28 
REMARK   15  A    between atoms: O28_28  and  C29_29 
REMARK   16  A    between atoms: C29_29  and  C31_31 
ROOT
ATOM      1  P10 ZIN A   1      19.480  -2.517  11.242  0.00  0.00     0.356 P 
ATOM      2  O11 ZIN A   1      20.046  -3.878  11.111  0.00  0.00    -0.256 OA
ENDROOT
BRANCH   1   3
ATOM      3  O9  ZIN A   1      20.673  -1.437  11.245  0.00  0.00    -0.286 OA
BRANCH   3   4
ATOM      4  C8  ZIN A   1      20.568  -0.157  10.616  0.00  0.00     0.358 C 
BRANCH   4   5
ATOM      5  O7  ZIN A   1      19.810   0.740  11.468  0.00  0.00    -0.294 OA
BRANCH   5   6
ATOM      6  C5  ZIN A   1      19.587   1.980  11.004  0.00  0.00     0.268 C 
ATOM      7  O6  ZIN A   1      20.252   2.904  11.407  0.00  0.00    -0.264 OA
BRANCH   6   8
ATOM      8  C2  ZIN A   1      18.507   2.219   9.981  0.00  0.00     0.037 C 
ATOM      9  C1  ZIN A   1      17.443   1.125  10.097  0.00  0.00     0.025 C 
ATOM     10  C3  ZIN A   1      19.118   2.191   8.578  0.00  0.00     0.025 C 
ATOM     11  C4  ZIN A   1      17.863   3.584  10.228  0.00  0.00     0.025 C 
ENDBRANCH   6   8
ENDBRANCH   5   6
ENDBRANCH   4   5
ENDBRANCH   3   4
ENDBRANCH   1   3
BRANCH   1  12
ATOM     12  C12 ZIN A   1      18.544  -2.394  12.801  0.00  0.00     0.299 C 
BRANCH  12  13
ATOM     13  O13 ZIN A   1      17.670  -1.264  12.744  0.00  0.00    -0.378 OA
BRANCH  13  14
ATOM     14  C14 ZIN A   1      17.723  -0.429  13.902  0.00  0.00     0.188 C 
BRANCH  14  15
ATOM     15  C15 ZIN A   1      19.050  -0.650  14.630  0.00  0.00     0.158 C 
BRANCH  15  16
ATOM     16  N16 ZIN A   1      19.026   0.056  15.914  0.00  0.00    -0.322 N 
ATOM     17  C25 ZIN A   1      19.040   1.416  16.092  0.00  0.00     0.165 A 
ATOM     18  C19 ZIN A   1      19.002   1.624  17.482  0.00  0.00     0.149 A 
ATOM     19  N24 ZIN A   1      19.064   2.469  15.282  0.00  0.00    -0.222 NA
ATOM     20  N18 ZIN A   1      18.976   0.403  18.068  0.00  0.00    -0.236 NA
ATOM     21  C20 ZIN A   1      19.003   2.948  17.954  0.00  0.00     0.155 A 
ATOM     22  C17 ZIN A   1      18.990  -0.519  17.150  0.00  0.00     0.212 A 
ATOM     23  N22 ZIN A   1      19.034   3.936  17.068  0.00  0.00    -0.222 NA
ATOM     24  C23 ZIN A   1      19.064   3.691  15.770  0.00  0.00     0.237 A 
BRANCH  21  25
ATOM     25  N21 ZIN A   1      18.973   3.214  19.312  0.00  0.00    -0.382 N 
ATOM     26  H53 ZIN A   1      18.565   4.031  19.638  0.00  0.00     0.157 HD
ATOM     27  H54 ZIN A   1      19.360   2.582  19.939  0.00  0.00     0.157 HD
ENDBRANCH  21  25
ENDBRANCH  15  16
ENDBRANCH  14  15
ENDBRANCH  13  14
ENDBRANCH  12  13
ENDBRANCH   1  12
BRANCH   1  28
ATOM     28  O26 ZIN A   1      18.495  -2.224  10.001  0.00  0.00    -0.286 OA
BRANCH  28  29
ATOM     29  C27 ZIN A   1      18.761  -2.679   8.672  0.00  0.00     0.358 C 
BRANCH  29  30
ATOM     30  O28 ZIN A   1      19.062  -1.541   7.823  0.00  0.00    -0.294 OA
BRANCH  30  31
ATOM     31  C29 ZIN A   1      19.103  -1.762   6.499  0.00  0.00     0.268 C 
ATOM     32  O30 ZIN A   1      19.754  -2.679   6.060  0.00  0.00    -0.264 OA
BRANCH  31  33
ATOM     33  C31 ZIN A   1      18.337  -0.864   5.562  0.00  0.00     0.037 C 
ATOM     34  C32 ZIN A   1      19.298   0.139   4.919  0.00  0.00     0.025 C 
ATOM     35  C33 ZIN A   1      17.678  -1.710   4.471  0.00  0.00     0.025 C 
ATOM     36  C34 ZIN A   1      17.260  -0.109   6.343  0.00  0.00     0.025 C 
ENDBRANCH  31  33
ENDBRANCH  30  31
ENDBRANCH  29  30
ENDBRANCH  28  29
ENDBRANCH   1  28
TORSDOF 16
ENDMDL
MODEL 2
REMARK VINA RESULT:      -7.4      2.480      4.607
REMARK  16 active torsions:
REMARK  status: ('A' for Active; 'I' for Inactive)
REMARK    1  A    between atoms: C2_2  and  C5_5 
REMARK    2  A    between atoms: C5_5  and  O7_7 
REMARK    3  A    between atoms: O7_7  and  C8_8 
REMARK    4  A    between atoms: C8_8  and  O9_9 
REMARK    5  A    between atoms: O9_9  and  P10_10 
REMARK    6  A    between atoms: P10_10  and  C12_12 
REMARK    7  A    between atoms: P10_10  and  O26_26 
REMARK    8  A    between atoms: C12_12  and  O13_13 
REMARK    9  A    between atoms: O13_13  and  C14_14 
REMARK   10  A    between atoms: C14_14  and  C15_15 
REMARK   11  A    between atoms: C15_15  and  N16_16 
REMARK   12  A    between atoms: C20_20  and  N21_21 
REMARK   13  A    between atoms: O26_26  and  C27_27 
REMARK   14  A    between atoms: C27_27  and  O28_28 
REMARK   15  A    between atoms: O28_28  and  C29_29 
REMARK   16  A    between atoms: C29_29  and  C31_31 
ROOT
ATOM      1  P10 ZIN A   1      17.358   0.035  10.998  0.00  0.00     0.356 P 
ATOM      2  O11 ZIN A   1      15.961  -0.031  11.484  0.00  0.00    -0.256 OA
ENDROOT
BRANCH   1   3
ATOM      3  O9  ZIN A   1      18.367  -0.161  12.236  0.00  0.00    -0.286 OA
BRANCH   3   4
ATOM      4  C8  ZIN A   1      17.934  -0.189  13.598  0.00  0.00     0.358 C 
BRANCH   4   5
ATOM      5  O7  ZIN A   1      18.987   0.330  14.451  0.00  0.00    -0.294 OA
BRANCH   5   6
ATOM      6  C5  ZIN A   1      18.618   0.820  15.646  0.00  0.00     0.268 C 
ATOM      7  O6  ZIN A   1      18.438   2.007  15.781  0.00  0.00    -0.264 OA
BRANCH   6   8
ATOM      8  C2  ZIN A   1      18.429  -0.110  16.816  0.00  0.00     0.037 C 
ATOM      9  C1  ZIN A   1      19.073   0.502  18.062  0.00  0.00     0.025 C 
ATOM     10  C3  ZIN A   1      19.089  -1.457  16.510  0.00  0.00     0.025 C 
ATOM     11  C4  ZIN A   1      16.934  -0.319  17.065  0.00  0.00     0.025 C 
ENDBRANCH   6   8
ENDBRANCH   5   6
ENDBRANCH   4   5
ENDBRANCH   3   4
ENDBRANCH   1   3
BRANCH   1  12
ATOM     12  C12 ZIN A   1      17.655   1.658  10.222  0.00  0.00     0.299 C 
BRANCH  12  13
ATOM     13  O13 ZIN A   1      17.136   2.689  11.064  0.00  0.00    -0.378 OA
BRANCH  13  14
ATOM     14  C14 ZIN A   1      18.130   3.363  11.839  0.00  0.00     0.188 C 
BRANCH  14  15
ATOM     15  C15 ZIN A   1      17.762   4.843  11.965  0.00  0.00     0.158 C 
BRANCH  15  16
ATOM     16  N16 ZIN A   1      17.641   5.196  13.381  0.00  0.00    -0.322 N 
ATOM     17  C25 ZIN A   1      18.669   5.539  14.223  0.00  0.00     0.165 A 
ATOM     18  C19 ZIN A   1      18.078   5.796  15.472  0.00  0.00     0.149 A 
ATOM     19  N24 ZIN A   1      19.984   5.678  14.090  0.00  0.00    -0.222 NA
ATOM     20  N18 ZIN A   1      16.746   5.591  15.332  0.00  0.00    -0.236 NA
ATOM     21  C20 ZIN A   1      18.913   6.179  16.535  0.00  0.00     0.155 A 
ATOM     22  C17 ZIN A   1      16.487   5.240  14.107  0.00  0.00     0.212 A 
ATOM     23  N22 ZIN A   1      20.218   6.285  16.308  0.00  0.00    -0.222 NA
ATOM     24  C23 ZIN A   1      20.727   6.038  15.115  0.00  0.00     0.237 A 
BRANCH  21  25
ATOM     25  N21 ZIN A   1      18.388   6.439  17.789  0.00  0.00    -0.382 N 
ATOM     26  H53 ZIN A   1      18.900   6.953  18.432  0.00  0.00     0.157 HD
ATOM     27  H54 ZIN A   1      17.507   6.106  18.023  0.00  0.00     0.157 HD
ENDBRANCH  21  25
ENDBRANCH  15  16
ENDBRANCH  14  15
ENDBRANCH  13  14
ENDBRANCH  12  13
ENDBRANCH   1  12
BRANCH   1  28
ATOM     28  O26 ZIN A   1      17.604  -1.131   9.914  0.00  0.00    -0.286 OA
BRANCH  28  29
ATOM     29  C27 ZIN A   1      18.903  -1.629   9.588  0.00  0.00     0.358 C 
BRANCH  29  30
ATOM     30  O28 ZIN A   1      19.483  -0.816   8.535  0.00  0.00    -0.294 OA
BRANCH  30  31
ATOM     31  C29 ZIN A   1      19.105  -1.089   7.276  0.00  0.00     0.268 C 
ATOM     32  O30 ZIN A   1      19.133  -2.226   6.869  0.00  0.00    -0.264 OA
BRANCH  31  33
ATOM     33  C31 ZIN A   1      18.647   0.024   6.369  0.00  0.00     0.037 C 
ATOM     34  C32 ZIN A   1      19.056   1.371   6.970  0.00  0.00     0.025 C 
ATOM     35  C33 ZIN A   1      19.295  -0.139   4.994  0.00  0.00     0.025 C 
ATOM     36  C34 ZIN A   1      17.124  -0.028   6.225  0.00  0.00     0.025 C 
ENDBRANCH  31  33
ENDBRANCH  30  31
ENDBRANCH  29  30
ENDBRANCH  28  29
ENDBRANCH   1  28
TORSDOF 16
ENDMDL
MODEL 3
REMARK VINA RESULT:      -7.4      1.315      4.732
REMARK  16 active torsions:
REMARK  status: ('A' for Active; 'I' for Inactive)
REMARK    1  A    between atoms: C2_2  and  C5_5 
REMARK    2  A    between atoms: C5_5  and  O7_7 
REMARK    3  A    between atoms: O7_7  and  C8_8 
REMARK    4  A    between atoms: C8_8  and  O9_9 
REMARK    5  A    between atoms: O9_9  and  P10_10 
REMARK    6  A    between atoms: P10_10  and  C12_12 
REMARK    7  A    between atoms: P10_10  and  O26_26 
REMARK    8  A    between atoms: C12_12  and  O13_13 
REMARK    9  A    between atoms: O13_13  and  C14_14 
REMARK   10  A    between atoms: C14_14  and  C15_15 
REMARK   11  A    between atoms: C15_15  and  N16_16 
REMARK   12  A    between atoms: C20_20  and  N21_21 
REMARK   13  A    between atoms: O26_26  and  C27_27 
REMARK   14  A    between atoms: C27_27  and  O28_28 
REMARK   15  A    between atoms: O28_28  and  C29_29 
REMARK   16  A    between atoms: C29_29  and  C31_31 
ROOT
ATOM      1  P10 ZIN A   1      18.191  -1.385  10.838  0.00  0.00     0.356 P 
ATOM      2  O11 ZIN A   1      16.882  -1.221  11.508  0.00  0.00    -0.256 OA
ENDROOT
BRANCH   1   3
ATOM      3  O9  ZIN A   1      18.082  -2.539   9.721  0.00  0.00    -0.286 OA
BRANCH   3   4
ATOM      4  C8  ZIN A   1      18.942  -2.602   8.581  0.00  0.00     0.358 C 
BRANCH   4   5
ATOM      5  O7  ZIN A   1      18.145  -2.526   7.369  0.00  0.00    -0.294 OA
BRANCH   5   6
ATOM      6  C5  ZIN A   1      18.777  -2.146   6.247  0.00  0.00     0.268 C 
ATOM      7  O6  ZIN A   1      19.811  -2.681   5.927  0.00  0.00    -0.264 OA
BRANCH   6   8
ATOM      8  C2  ZIN A   1      18.195  -1.054   5.388  0.00  0.00     0.037 C 
ATOM      9  C1  ZIN A   1      17.316  -0.143   6.247  0.00  0.00     0.025 C 
ATOM     10  C3  ZIN A   1      17.351  -1.675   4.273  0.00  0.00     0.025 C 
ATOM     11  C4  ZIN A   1      19.329  -0.233   4.770  0.00  0.00     0.025 C 
ENDBRANCH   6   8
ENDBRANCH   5   6
ENDBRANCH   4   5
ENDBRANCH   3   4
ENDBRANCH   1   3
BRANCH   1  12
ATOM     12  C12 ZIN A   1      19.451  -1.849  12.071  0.00  0.00     0.299 C 
BRANCH  12  13
ATOM     13  O13 ZIN A   1      19.590  -0.796  13.028  0.00  0.00    -0.378 OA
BRANCH  13  14
ATOM     14  C14 ZIN A   1      19.434  -1.219  14.385  0.00  0.00     0.188 C 
BRANCH  14  15
ATOM     15  C15 ZIN A   1      18.058  -0.788  14.897  0.00  0.00     0.158 C 
BRANCH  15  16
ATOM     16  N16 ZIN A   1      18.219   0.003  16.120  0.00  0.00    -0.322 N 
ATOM     17  C25 ZIN A   1      18.557   1.331  16.189  0.00  0.00     0.165 A 
ATOM     18  C19 ZIN A   1      18.589   1.651  17.557  0.00  0.00     0.149 A 
ATOM     19  N24 ZIN A   1      18.818   2.280  15.297  0.00  0.00    -0.222 NA
ATOM     20  N18 ZIN A   1      18.283   0.522  18.239  0.00  0.00    -0.236 NA
ATOM     21  C20 ZIN A   1      18.909   2.970  17.922  0.00  0.00     0.155 A 
ATOM     22  C17 ZIN A   1      18.065  -0.447  17.398  0.00  0.00     0.212 A 
ATOM     23  N22 ZIN A   1      19.161   3.850  16.959  0.00  0.00    -0.222 NA
ATOM     24  C23 ZIN A   1      19.114   3.503  15.686  0.00  0.00     0.237 A 
BRANCH  21  25
ATOM     25  N21 ZIN A   1      18.961   3.342  19.254  0.00  0.00    -0.382 N 
ATOM     26  H53 ZIN A   1      18.218   3.141  19.844  0.00  0.00     0.157 HD
ATOM     27  H54 ZIN A   1      19.742   3.805  19.598  0.00  0.00     0.157 HD
ENDBRANCH  21  25
ENDBRANCH  15  16
ENDBRANCH  14  15
ENDBRANCH  13  14
ENDBRANCH  12  13
ENDBRANCH   1  12
BRANCH   1  28
ATOM     28  O26 ZIN A   1      18.612   0.003  10.137  0.00  0.00    -0.286 OA
BRANCH  28  29
ATOM     29  C27 ZIN A   1      17.665   1.005   9.761  0.00  0.00     0.358 C 
BRANCH  29  30
ATOM     30  O28 ZIN A   1      18.169   2.313  10.137  0.00  0.00    -0.294 OA
BRANCH  30  31
ATOM     31  C29 ZIN A   1      17.738   2.821  11.303  0.00  0.00     0.268 C 
ATOM     32  O30 ZIN A   1      17.213   2.101  12.118  0.00  0.00    -0.264 OA
BRANCH  31  33
ATOM     33  C31 ZIN A   1      17.909   4.290  11.593  0.00  0.00     0.037 C 
ATOM     34  C32 ZIN A   1      17.673   5.093  10.312  0.00  0.00     0.025 C 
ATOM     35  C33 ZIN A   1      16.899   4.720  12.658  0.00  0.00     0.025 C 
ATOM     36  C34 ZIN A   1      19.329   4.548  12.102  0.00  0.00     0.025 C 
ENDBRANCH  31  33
ENDBRANCH  30  31
ENDBRANCH  29  30
ENDBRANCH  28  29
ENDBRANCH   1  28
TORSDOF 16
ENDMDL
MODEL 4
REMARK VINA RESULT:      -7.4      4.871      7.010
REMARK  16 active torsions:
REMARK  status: ('A' for Active; 'I' for Inactive)
REMARK    1  A    between atoms: C2_2  and  C5_5 
REMARK    2  A    between atoms: C5_5  and  O7_7 
REMARK    3  A    between atoms: O7_7  and  C8_8 
REMARK    4  A    between atoms: C8_8  and  O9_9 
REMARK    5  A    between atoms: O9_9  and  P10_10 
REMARK    6  A    between atoms: P10_10  and  C12_12 
REMARK    7  A    between atoms: P10_10  and  O26_26 
REMARK    8  A    between atoms: C12_12  and  O13_13 
REMARK    9  A    between atoms: O13_13  and  C14_14 
REMARK   10  A    between atoms: C14_14  and  C15_15 
REMARK   11  A    between atoms: C15_15  and  N16_16 
REMARK   12  A    between atoms: C20_20  and  N21_21 
REMARK   13  A    between atoms: O26_26  and  C27_27 
REMARK   14  A    between atoms: C27_27  and  O28_28 
REMARK   15  A    between atoms: O28_28  and  C29_29 
REMARK   16  A    between atoms: C29_29  and  C31_31 
ROOT
ATOM      1  P10 ZIN A   1      19.256  -1.566  11.067  0.00  0.00     0.356 P 
ATOM      2  O11 ZIN A   1      20.600  -0.949  10.986  0.00  0.00    -0.256 OA
ENDROOT
BRANCH   1   3
ATOM      3  O9  ZIN A   1      18.306  -0.663  12.001  0.00  0.00    -0.286 OA
BRANCH   3   4
ATOM      4  C8  ZIN A   1      17.054  -0.133  11.558  0.00  0.00     0.358 C 
BRANCH   4   5
ATOM      5  O7  ZIN A   1      17.042   1.305  11.753  0.00  0.00    -0.294 OA
BRANCH   5   6
ATOM      6  C5  ZIN A   1      17.655   2.053  10.821  0.00  0.00     0.268 C 
ATOM      7  O6  ZIN A   1      17.803   1.622   9.703  0.00  0.00    -0.264 OA
BRANCH   6   8
ATOM      8  C2  ZIN A   1      18.161   3.429  11.172  0.00  0.00     0.037 C 
ATOM      9  C1  ZIN A   1      19.666   3.366  11.440  0.00  0.00     0.025 C 
ATOM     10  C3  ZIN A   1      17.439   3.934  12.423  0.00  0.00     0.025 C 
ATOM     11  C4  ZIN A   1      17.890   4.383  10.007  0.00  0.00     0.025 C 
ENDBRANCH   6   8
ENDBRANCH   5   6
ENDBRANCH   4   5
ENDBRANCH   3   4
ENDBRANCH   1   3
BRANCH   1  12
ATOM     12  C12 ZIN A   1      19.397  -3.238  11.778  0.00  0.00     0.299 C 
BRANCH  12  13
ATOM     13  O13 ZIN A   1      18.191  -3.562  12.474  0.00  0.00    -0.378 OA
BRANCH  13  14
ATOM     14  C14 ZIN A   1      17.127  -3.996  11.624  0.00  0.00     0.188 C 
BRANCH  14  15
ATOM     15  C15 ZIN A   1      17.377  -5.442  11.192  0.00  0.00     0.158 C 
BRANCH  15  16
ATOM     16  N16 ZIN A   1      17.400  -5.518   9.729  0.00  0.00    -0.322 N 
ATOM     17  C25 ZIN A   1      18.518  -5.556   8.936  0.00  0.00     0.165 A 
ATOM     18  C19 ZIN A   1      18.051  -5.629   7.612  0.00  0.00     0.149 A 
ATOM     19  N24 ZIN A   1      19.828  -5.556   9.159  0.00  0.00    -0.222 NA
ATOM     20  N18 ZIN A   1      16.697  -5.622   7.666  0.00  0.00    -0.236 NA
ATOM     21  C20 ZIN A   1      18.999  -5.687   6.576  0.00  0.00     0.155 A 
ATOM     22  C17 ZIN A   1      16.313  -5.557   8.907  0.00  0.00     0.212 A 
ATOM     23  N22 ZIN A   1      20.288  -5.674   6.897  0.00  0.00    -0.222 NA
ATOM     24  C23 ZIN A   1      20.679  -5.610   8.156  0.00  0.00     0.237 A 
BRANCH  21  25
ATOM     25  N21 ZIN A   1      18.598  -5.753   5.253  0.00  0.00    -0.382 N 
ATOM     26  H53 ZIN A   1      18.993  -5.160   4.596  0.00  0.00     0.157 HD
ATOM     27  H54 ZIN A   1      17.921  -6.395   4.984  0.00  0.00     0.157 HD
ENDBRANCH  21  25
ENDBRANCH  15  16
ENDBRANCH  14  15
ENDBRANCH  13  14
ENDBRANCH  12  13
ENDBRANCH   1  12
BRANCH   1  28
ATOM     28  O26 ZIN A   1      18.621  -1.662   9.590  0.00  0.00    -0.286 OA
BRANCH  28  29
ATOM     29  C27 ZIN A   1      19.386  -2.016   8.435  0.00  0.00     0.358 C 
BRANCH  29  30
ATOM     30  O28 ZIN A   1      18.501  -2.151   7.292  0.00  0.00    -0.294 OA
BRANCH  30  31
ATOM     31  C29 ZIN A   1      18.904  -1.591   6.140  0.00  0.00     0.268 C 
ATOM     32  O30 ZIN A   1      19.732  -2.144   5.456  0.00  0.00    -0.264 OA
BRANCH  31  33
ATOM     33  C31 ZIN A   1      18.323  -0.272   5.701  0.00  0.00     0.037 C 
ATOM     34  C32 ZIN A   1      18.303  -0.208   4.172  0.00  0.00     0.025 C 
ATOM     35  C33 ZIN A   1      16.896  -0.140   6.235  0.00  0.00     0.025 C 
ATOM     36  C34 ZIN A   1      19.180   0.872   6.247  0.00  0.00     0.025 C 
ENDBRANCH  31  33
ENDBRANCH  30  31
ENDBRANCH  29  30
ENDBRANCH  28  29
ENDBRANCH   1  28
TORSDOF 16
ENDMDL
MODEL 5
REMARK VINA RESULT:      -7.4      4.476      8.120
REMARK  16 active torsions:
REMARK  status: ('A' for Active; 'I' for Inactive)
REMARK    1  A    between atoms: C2_2  and  C5_5 
REMARK    2  A    between atoms: C5_5  and  O7_7 
REMARK    3  A    between atoms: O7_7  and  C8_8 
REMARK    4  A    between atoms: C8_8  and  O9_9 
REMARK    5  A    between atoms: O9_9  and  P10_10 
REMARK    6  A    between atoms: P10_10  and  C12_12 
REMARK    7  A    between atoms: P10_10  and  O26_26 
REMARK    8  A    between atoms: C12_12  and  O13_13 
REMARK    9  A    between atoms: O13_13  and  C14_14 
REMARK   10  A    between atoms: C14_14  and  C15_15 
REMARK   11  A    between atoms: C15_15  and  N16_16 
REMARK   12  A    between atoms: C20_20  and  N21_21 
REMARK   13  A    between atoms: O26_26  and  C27_27 
REMARK   14  A    between atoms: C27_27  and  O28_28 
REMARK   15  A    between atoms: O28_28  and  C29_29 
REMARK   16  A    between atoms: C29_29  and  C31_31 
ROOT
ATOM      1  P10 ZIN A   1      17.476   0.465  11.696  0.00  0.00     0.356 P 
ATOM      2  O11 ZIN A   1      16.073  -0.009  11.676  0.00  0.00    -0.256 OA
ENDROOT
BRANCH   1   3
ATOM      3  O9  ZIN A   1      17.753   1.266  13.064  0.00  0.00    -0.286 OA
BRANCH   3   4
ATOM      4  C8  ZIN A   1      19.064   1.631  13.501  0.00  0.00     0.358 C 
BRANCH   4   5
ATOM      5  O7  ZIN A   1      19.484   0.739  14.567  0.00  0.00    -0.294 OA
BRANCH   5   6
ATOM      6  C5  ZIN A   1      18.950   0.946  15.782  0.00  0.00     0.268 C 
ATOM      7  O6  ZIN A   1      18.786   2.073  16.185  0.00  0.00    -0.264 OA
BRANCH   6   8
ATOM      8  C2  ZIN A   1      18.556  -0.227  16.642  0.00  0.00     0.037 C 
ATOM      9  C1  ZIN A   1      19.232  -0.105  18.010  0.00  0.00     0.025 C 
ATOM     10  C3  ZIN A   1      19.000  -1.527  15.967  0.00  0.00     0.025 C 
ATOM     11  C4  ZIN A   1      17.037  -0.239  16.823  0.00  0.00     0.025 C 
ENDBRANCH   6   8
ENDBRANCH   5   6
ENDBRANCH   4   5
ENDBRANCH   3   4
ENDBRANCH   1   3
BRANCH   1  12
ATOM     12  C12 ZIN A   1      17.764   1.571  10.275  0.00  0.00     0.299 C 
BRANCH  12  13
ATOM     13  O13 ZIN A   1      19.168   1.663  10.021  0.00  0.00    -0.378 OA
BRANCH  13  14
ATOM     14  C14 ZIN A   1      19.536   1.367   8.672  0.00  0.00     0.188 C 
BRANCH  14  15
ATOM     15  C15 ZIN A   1      18.329   0.788   7.931  0.00  0.00     0.158 C 
BRANCH  15  16
ATOM     16  N16 ZIN A   1      18.615  -0.595   7.539  0.00  0.00    -0.322 N 
ATOM     17  C25 ZIN A   1      18.223  -1.207   6.377  0.00  0.00     0.165 A 
ATOM     18  C19 ZIN A   1      18.727  -2.518   6.440  0.00  0.00     0.149 A 
ATOM     19  N24 ZIN A   1      17.540  -0.830   5.301  0.00  0.00    -0.222 NA
ATOM     20  N18 ZIN A   1      19.380  -2.637   7.621  0.00  0.00    -0.236 NA
ATOM     21  C20 ZIN A   1      18.472  -3.380   5.360  0.00  0.00     0.155 A 
ATOM     22  C17 ZIN A   1      19.317  -1.510   8.267  0.00  0.00     0.212 A 
ATOM     23  N22 ZIN A   1      17.774  -2.914   4.330  0.00  0.00    -0.222 NA
ATOM     24  C23 ZIN A   1      17.325  -1.672   4.313  0.00  0.00     0.237 A 
BRANCH  21  25
ATOM     25  N21 ZIN A   1      18.938  -4.683   5.370  0.00  0.00    -0.382 N 
ATOM     26  H53 ZIN A   1      18.816  -5.248   4.591  0.00  0.00     0.157 HD
ATOM     27  H54 ZIN A   1      19.388  -5.031   6.156  0.00  0.00     0.157 HD
ENDBRANCH  21  25
ENDBRANCH  15  16
ENDBRANCH  14  15
ENDBRANCH  13  14
ENDBRANCH  12  13
ENDBRANCH   1  12
BRANCH   1  28
ATOM     28  O26 ZIN A   1      18.470  -0.798  11.602  0.00  0.00    -0.286 OA
BRANCH  28  29
ATOM     29  C27 ZIN A   1      18.261  -2.009  12.333  0.00  0.00     0.358 C 
BRANCH  29  30
ATOM     30  O28 ZIN A   1      17.703  -3.017  11.449  0.00  0.00    -0.294 OA
BRANCH  30  31
ATOM     31  C29 ZIN A   1      18.545  -3.952  10.981  0.00  0.00     0.268 C 
ATOM     32  O30 ZIN A   1      19.727  -3.874  11.219  0.00  0.00    -0.264 OA
BRANCH  31  33
ATOM     33  C31 ZIN A   1      18.016  -5.098  10.159  0.00  0.00     0.037 C 
ATOM     34  C32 ZIN A   1      17.323  -6.107  11.078  0.00  0.00     0.025 C 
ATOM     35  C33 ZIN A   1      17.012  -4.569   9.134  0.00  0.00     0.025 C 
ATOM     36  C34 ZIN A   1      19.175  -5.783   9.432  0.00  0.00     0.025 C 
ENDBRANCH  31  33
ENDBRANCH  30  31
ENDBRANCH  29  30
ENDBRANCH  28  29
ENDBRANCH   1  28
TORSDOF 16
ENDMDL
MODEL 6
REMARK VINA RESULT:      -7.3      2.780      5.311
REMARK  16 active torsions:
REMARK  status: ('A' for Active; 'I' for Inactive)
REMARK    1  A    between atoms: C2_2  and  C5_5 
REMARK    2  A    between atoms: C5_5  and  O7_7 
REMARK    3  A    between atoms: O7_7  and  C8_8 
REMARK    4  A    between atoms: C8_8  and  O9_9 
REMARK    5  A    between atoms: O9_9  and  P10_10 
REMARK    6  A    between atoms: P10_10  and  C12_12 
REMARK    7  A    between atoms: P10_10  and  O26_26 
REMARK    8  A    between atoms: C12_12  and  O13_13 
REMARK    9  A    between atoms: O13_13  and  C14_14 
REMARK   10  A    between atoms: C14_14  and  C15_15 
REMARK   11  A    between atoms: C15_15  and  N16_16 
REMARK   12  A    between atoms: C20_20  and  N21_21 
REMARK   13  A    between atoms: O26_26  and  C27_27 
REMARK   14  A    between atoms: C27_27  and  O28_28 
REMARK   15  A    between atoms: O28_28  and  C29_29 
REMARK   16  A    between atoms: C29_29  and  C31_31 
ROOT
ATOM      1  P10 ZIN A   1      17.286   0.062  11.626  0.00  0.00     0.356 P 
ATOM      2  O11 ZIN A   1      15.812   0.117  11.500  0.00  0.00    -0.256 OA
ENDROOT
BRANCH   1   3
ATOM      3  O9  ZIN A   1      17.695   0.102  13.183  0.00  0.00    -0.286 OA
BRANCH   3   4
ATOM      4  C8  ZIN A   1      18.418   1.186  13.770  0.00  0.00     0.358 C 
BRANCH   4   5
ATOM      5  O7  ZIN A   1      17.843   1.507  15.063  0.00  0.00    -0.294 OA
BRANCH   5   6
ATOM      6  C5  ZIN A   1      18.577   1.211  16.148  0.00  0.00     0.268 C 
ATOM      7  O6  ZIN A   1      19.438   1.972  16.519  0.00  0.00    -0.264 OA
BRANCH   6   8
ATOM      8  C2  ZIN A   1      18.327  -0.070  16.901  0.00  0.00     0.037 C 
ATOM      9  C1  ZIN A   1      19.082  -1.215  16.223  0.00  0.00     0.025 C 
ATOM     10  C3  ZIN A   1      16.827  -0.377  16.902  0.00  0.00     0.025 C 
ATOM     11  C4  ZIN A   1      18.817   0.082  18.342  0.00  0.00     0.025 C 
ENDBRANCH   6   8
ENDBRANCH   5   6
ENDBRANCH   4   5
ENDBRANCH   3   4
ENDBRANCH   1   3
BRANCH   1  12
ATOM     12  C12 ZIN A   1      18.023   1.490  10.766  0.00  0.00     0.299 C 
BRANCH  12  13
ATOM     13  O13 ZIN A   1      17.126   2.601  10.836  0.00  0.00    -0.378 OA
BRANCH  13  14
ATOM     14  C14 ZIN A   1      17.706   3.843  10.430  0.00  0.00     0.188 C 
BRANCH  14  15
ATOM     15  C15 ZIN A   1      17.174   4.969  11.320  0.00  0.00     0.158 C 
BRANCH  15  16
ATOM     16  N16 ZIN A   1      17.855   4.927  12.617  0.00  0.00    -0.322 N 
ATOM     17  C25 ZIN A   1      17.307   5.250  13.832  0.00  0.00     0.165 A 
ATOM     18  C19 ZIN A   1      18.326   5.056  14.781  0.00  0.00     0.149 A 
ATOM     19  N24 ZIN A   1      16.110   5.655  14.244  0.00  0.00    -0.222 NA
ATOM     20  N18 ZIN A   1      19.425   4.641  14.106  0.00  0.00    -0.236 NA
ATOM     21  C20 ZIN A   1      18.033   5.313  16.131  0.00  0.00     0.155 A 
ATOM     22  C17 ZIN A   1      19.151   4.564  12.836  0.00  0.00     0.212 A 
ATOM     23  N22 ZIN A   1      16.809   5.721  16.447  0.00  0.00    -0.222 NA
ATOM     24  C23 ZIN A   1      15.882   5.884  15.520  0.00  0.00     0.237 A 
BRANCH  21  25
ATOM     25  N21 ZIN A   1      18.999   5.146  17.108  0.00  0.00    -0.382 N 
ATOM     26  H53 ZIN A   1      19.622   4.405  17.052  0.00  0.00     0.157 HD
ATOM     27  H54 ZIN A   1      19.052   5.771  17.849  0.00  0.00     0.157 HD
ENDBRANCH  21  25
ENDBRANCH  15  16
ENDBRANCH  14  15
ENDBRANCH  13  14
ENDBRANCH  12  13
ENDBRANCH   1  12
BRANCH   1  28
ATOM     28  O26 ZIN A   1      17.830  -1.302  10.964  0.00  0.00    -0.286 OA
BRANCH  28  29
ATOM     29  C27 ZIN A   1      17.941  -1.491   9.551  0.00  0.00     0.358 C 
BRANCH  29  30
ATOM     30  O28 ZIN A   1      18.955  -2.494   9.276  0.00  0.00    -0.294 OA
BRANCH  30  31
ATOM     31  C29 ZIN A   1      18.524  -3.726   8.960  0.00  0.00     0.268 C 
ATOM     32  O30 ZIN A   1      17.995  -3.925   7.892  0.00  0.00    -0.264 OA
BRANCH  31  33
ATOM     33  C31 ZIN A   1      18.699  -4.859   9.938  0.00  0.00     0.037 C 
ATOM     34  C32 ZIN A   1      17.379  -5.107  10.672  0.00  0.00     0.025 C 
ATOM     35  C33 ZIN A   1      19.110  -6.124   9.184  0.00  0.00     0.025 C 
ATOM     36  C34 ZIN A   1      19.785  -4.494  10.952  0.00  0.00     0.025 C 
ENDBRANCH  31  33
ENDBRANCH  30  31
ENDBRANCH  29  30
ENDBRANCH  28  29
ENDBRANCH   1  28
TORSDOF 16
ENDMDL
MODEL 7
REMARK VINA RESULT:      -7.3      4.108      8.374
REMARK  16 active torsions:
REMARK  status: ('A' for Active; 'I' for Inactive)
REMARK    1  A    between atoms: C2_2  and  C5_5 
REMARK    2  A    between atoms: C5_5  and  O7_7 
REMARK    3  A    between atoms: O7_7  and  C8_8 
REMARK    4  A    between atoms: C8_8  and  O9_9 
REMARK    5  A    between atoms: O9_9  and  P10_10 
REMARK    6  A    between atoms: P10_10  and  C12_12 
REMARK    7  A    between atoms: P10_10  and  O26_26 
REMARK    8  A    between atoms: C12_12  and  O13_13 
REMARK    9  A    between atoms: O13_13  and  C14_14 
REMARK   10  A    between atoms: C14_14  and  C15_15 
REMARK   11  A    between atoms: C15_15  and  N16_16 
REMARK   12  A    between atoms: C20_20  and  N21_21 
REMARK   13  A    between atoms: O26_26  and  C27_27 
REMARK   14  A    between atoms: C27_27  and  O28_28 
REMARK   15  A    between atoms: O28_28  and  C29_29 
REMARK   16  A    between atoms: C29_29  and  C31_31 
ROOT
ATOM      1  P10 ZIN A   1      18.531  -1.518  11.931  0.00  0.00     0.356 P 
ATOM      2  O11 ZIN A   1      17.070  -1.464  11.694  0.00  0.00    -0.256 OA
ENDROOT
BRANCH   1   3
ATOM      3  O9  ZIN A   1      19.292  -0.688  10.781  0.00  0.00    -0.286 OA
BRANCH   3   4
ATOM      4  C8  ZIN A   1      19.542   0.717  10.870  0.00  0.00     0.358 C 
BRANCH   4   5
ATOM      5  O7  ZIN A   1      18.282   1.436  10.837  0.00  0.00    -0.294 OA
BRANCH   5   6
ATOM      6  C5  ZIN A   1      18.336   2.750  10.566  0.00  0.00     0.268 C 
ATOM      7  O6  ZIN A   1      18.585   3.126   9.446  0.00  0.00    -0.264 OA
BRANCH   6   8
ATOM      8  C2  ZIN A   1      18.087   3.756  11.661  0.00  0.00     0.037 C 
ATOM      9  C1  ZIN A   1      17.038   4.768  11.194  0.00  0.00     0.025 C 
ATOM     10  C3  ZIN A   1      19.391   4.486  11.990  0.00  0.00     0.025 C 
ATOM     11  C4  ZIN A   1      17.578   3.034  12.910  0.00  0.00     0.025 C 
ENDBRANCH   6   8
ENDBRANCH   5   6
ENDBRANCH   4   5
ENDBRANCH   3   4
ENDBRANCH   1   3
BRANCH   1  12
ATOM     12  C12 ZIN A   1      19.089  -3.253  11.900  0.00  0.00     0.299 C 
BRANCH  12  13
ATOM     13  O13 ZIN A   1      19.787  -3.505  10.678  0.00  0.00    -0.378 OA
BRANCH  13  14
ATOM     14  C14 ZIN A   1      19.278  -4.615   9.936  0.00  0.00     0.188 C 
BRANCH  14  15
ATOM     15  C15 ZIN A   1      18.129  -4.146   9.042  0.00  0.00     0.158 C 
BRANCH  15  16
ATOM     16  N16 ZIN A   1      18.667  -3.358   7.930  0.00  0.00    -0.322 N 
ATOM     17  C25 ZIN A   1      18.354  -2.056   7.631  0.00  0.00     0.165 A 
ATOM     18  C19 ZIN A   1      19.111  -1.728   6.493  0.00  0.00     0.149 A 
ATOM     19  N24 ZIN A   1      17.563  -1.134   8.168  0.00  0.00    -0.222 NA
ATOM     20  N18 ZIN A   1      19.827  -2.828   6.158  0.00  0.00    -0.236 NA
ATOM     21  C20 ZIN A   1      18.986  -0.431   5.965  0.00  0.00     0.155 A 
ATOM     22  C17 ZIN A   1      19.568  -3.786   7.000  0.00  0.00     0.212 A 
ATOM     23  N22 ZIN A   1      18.165   0.421   6.568  0.00  0.00    -0.222 NA
ATOM     24  C23 ZIN A   1      17.477   0.068   7.639  0.00  0.00     0.237 A 
BRANCH  21  25
ATOM     25  N21 ZIN A   1      19.702  -0.053   4.843  0.00  0.00    -0.382 N 
ATOM     26  H53 ZIN A   1      20.176   0.793   4.832  0.00  0.00     0.157 HD
ATOM     27  H54 ZIN A   1      19.730  -0.634   4.066  0.00  0.00     0.157 HD
ENDBRANCH  21  25
ENDBRANCH  15  16
ENDBRANCH  14  15
ENDBRANCH  13  14
ENDBRANCH  12  13
ENDBRANCH   1  12
BRANCH   1  28
ATOM     28  O26 ZIN A   1      18.865  -0.872  13.368  0.00  0.00    -0.286 OA
BRANCH  28  29
ATOM     29  C27 ZIN A   1      17.854  -0.466  14.293  0.00  0.00     0.358 C 
BRANCH  29  30
ATOM     30  O28 ZIN A   1      18.277  -0.787  15.644  0.00  0.00    -0.294 OA
BRANCH  30  31
ATOM     31  C29 ZIN A   1      17.645  -0.156  16.647  0.00  0.00     0.268 C 
ATOM     32  O30 ZIN A   1      16.459  -0.317  16.809  0.00  0.00    -0.264 OA
BRANCH  31  33
ATOM     33  C31 ZIN A   1      18.416   0.751  17.571  0.00  0.00     0.037 C 
ATOM     34  C32 ZIN A   1      17.459   1.372  18.591  0.00  0.00     0.025 C 
ATOM     35  C33 ZIN A   1      19.488  -0.057  18.303  0.00  0.00     0.025 C 
ATOM     36  C34 ZIN A   1      19.082   1.862  16.756  0.00  0.00     0.025 C 
ENDBRANCH  31  33
ENDBRANCH  30  31
ENDBRANCH  29  30
ENDBRANCH  28  29
ENDBRANCH   1  28
TORSDOF 16
ENDMDL
MODEL 8
REMARK VINA RESULT:      -7.2      4.596      9.424
REMARK  16 active torsions:
REMARK  status: ('A' for Active; 'I' for Inactive)
REMARK    1  A    between atoms: C2_2  and  C5_5 
REMARK    2  A    between atoms: C5_5  and  O7_7 
REMARK    3  A    between atoms: O7_7  and  C8_8 
REMARK    4  A    between atoms: C8_8  and  O9_9 
REMARK    5  A    between atoms: O9_9  and  P10_10 
REMARK    6  A    between atoms: P10_10  and  C12_12 
REMARK    7  A    between atoms: P10_10  and  O26_26 
REMARK    8  A    between atoms: C12_12  and  O13_13 
REMARK    9  A    between atoms: O13_13  and  C14_14 
REMARK   10  A    between atoms: C14_14  and  C15_15 
REMARK   11  A    between atoms: C15_15  and  N16_16 
REMARK   12  A    between atoms: C20_20  and  N21_21 
REMARK   13  A    between atoms: O26_26  and  C27_27 
REMARK   14  A    between atoms: C27_27  and  O28_28 
REMARK   15  A    between atoms: O28_28  and  C29_29 
REMARK   16  A    between atoms: C29_29  and  C31_31 
ROOT
ATOM      1  P10 ZIN A   1      18.306   0.668  11.656  0.00  0.00     0.356 P 
ATOM      2  O11 ZIN A   1      19.679   0.128  11.536  0.00  0.00    -0.256 OA
ENDROOT
BRANCH   1   3
ATOM      3  O9  ZIN A   1      17.309  -0.499  12.143  0.00  0.00    -0.286 OA
BRANCH   3   4
ATOM      4  C8  ZIN A   1      17.754  -1.820  12.461  0.00  0.00     0.358 C 
BRANCH   4   5
ATOM      5  O7  ZIN A   1      17.039  -2.781  11.642  0.00  0.00    -0.294 OA
BRANCH   5   6
ATOM      6  C5  ZIN A   1      17.720  -3.352  10.636  0.00  0.00     0.268 C 
ATOM      7  O6  ZIN A   1      17.831  -2.777   9.580  0.00  0.00    -0.264 OA
BRANCH   6   8
ATOM      8  C2  ZIN A   1      18.346  -4.710  10.825  0.00  0.00     0.037 C 
ATOM      9  C1  ZIN A   1      19.796  -4.544  11.285  0.00  0.00     0.025 C 
ATOM     10  C3  ZIN A   1      18.316  -5.475   9.499  0.00  0.00     0.025 C 
ATOM     11  C4  ZIN A   1      17.561  -5.490  11.881  0.00  0.00     0.025 C 
ENDBRANCH   6   8
ENDBRANCH   5   6
ENDBRANCH   4   5
ENDBRANCH   3   4
ENDBRANCH   1   3
BRANCH   1  12
ATOM     12  C12 ZIN A   1      17.757   1.298  10.035  0.00  0.00     0.299 C 
BRANCH  12  13
ATOM     13  O13 ZIN A   1      18.783   2.120   9.473  0.00  0.00    -0.378 OA
BRANCH  13  14
ATOM     14  C14 ZIN A   1      19.137   1.773   8.133  0.00  0.00     0.188 C 
BRANCH  14  15
ATOM     15  C15 ZIN A   1      19.454   0.278   8.061  0.00  0.00     0.158 C 
BRANCH  15  16
ATOM     16  N16 ZIN A   1      18.803  -0.303   6.885  0.00  0.00    -0.322 N 
ATOM     17  C25 ZIN A   1      18.939  -1.591   6.434  0.00  0.00     0.165 A 
ATOM     18  C19 ZIN A   1      18.130  -1.688   5.288  0.00  0.00     0.149 A 
ATOM     19  N24 ZIN A   1      19.611  -2.662   6.842  0.00  0.00    -0.222 NA
ATOM     20  N18 ZIN A   1      17.560  -0.474   5.099  0.00  0.00    -0.236 NA
ATOM     21  C20 ZIN A   1      18.078  -2.921   4.616  0.00  0.00     0.155 A 
ATOM     22  C17 ZIN A   1      17.952   0.340   6.034  0.00  0.00     0.212 A 
ATOM     23  N22 ZIN A   1      18.789  -3.935   5.097  0.00  0.00    -0.222 NA
ATOM     24  C23 ZIN A   1      19.532  -3.797   6.180  0.00  0.00     0.237 A 
BRANCH  21  25
ATOM     25  N21 ZIN A   1      17.303  -3.075   3.480  0.00  0.00    -0.382 N 
ATOM     26  H53 ZIN A   1      16.415  -2.686   3.441  0.00  0.00     0.157 HD
ATOM     27  H54 ZIN A   1      17.649  -3.571   2.721  0.00  0.00     0.157 HD
ENDBRANCH  21  25
ENDBRANCH  15  16
ENDBRANCH  14  15
ENDBRANCH  13  14
ENDBRANCH  12  13
ENDBRANCH   1  12
BRANCH   1  28
ATOM     28  O26 ZIN A   1      18.293   1.868  12.730  0.00  0.00    -0.286 OA
BRANCH  28  29
ATOM     29  C27 ZIN A   1      19.250   1.977  13.786  0.00  0.00     0.358 C 
BRANCH  29  30
ATOM     30  O28 ZIN A   1      19.162   0.808  14.642  0.00  0.00    -0.294 OA
BRANCH  30  31
ATOM     31  C29 ZIN A   1      18.701   0.999  15.889  0.00  0.00     0.268 C 
ATOM     32  O30 ZIN A   1      18.500   2.120  16.294  0.00  0.00    -0.264 OA
BRANCH  31  33
ATOM     33  C31 ZIN A   1      18.434  -0.184  16.783  0.00  0.00     0.037 C 
ATOM     34  C32 ZIN A   1      19.094  -1.430  16.188  0.00  0.00     0.025 C 
ATOM     35  C33 ZIN A   1      19.013   0.086  18.172  0.00  0.00     0.025 C 
ATOM     36  C34 ZIN A   1      16.925  -0.411  16.894  0.00  0.00     0.025 C 
ENDBRANCH  31  33
ENDBRANCH  30  31
ENDBRANCH  29  30
ENDBRANCH  28  29
ENDBRANCH   1  28
TORSDOF 16
ENDMDL
MODEL 9
REMARK VINA RESULT:      -7.2      2.327      4.848
REMARK  16 active torsions:
REMARK  status: ('A' for Active; 'I' for Inactive)
REMARK    1  A    between atoms: C2_2  and  C5_5 
REMARK    2  A    between atoms: C5_5  and  O7_7 
REMARK    3  A    between atoms: O7_7  and  C8_8 
REMARK    4  A    between atoms: C8_8  and  O9_9 
REMARK    5  A    between atoms: O9_9  and  P10_10 
REMARK    6  A    between atoms: P10_10  and  C12_12 
REMARK    7  A    between atoms: P10_10  and  O26_26 
REMARK    8  A    between atoms: C12_12  and  O13_13 
REMARK    9  A    between atoms: O13_13  and  C14_14 
REMARK   10  A    between atoms: C14_14  and  C15_15 
REMARK   11  A    between atoms: C15_15  and  N16_16 
REMARK   12  A    between atoms: C20_20  and  N21_21 
REMARK   13  A    between atoms: O26_26  and  C27_27 
REMARK   14  A    between atoms: C27_27  and  O28_28 
REMARK   15  A    between atoms: O28_28  and  C29_29 
REMARK   16  A    between atoms: C29_29  and  C31_31 
ROOT
ATOM      1  P10 ZIN A   1      18.450  -1.284  11.581  0.00  0.00     0.356 P 
ATOM      2  O11 ZIN A   1      16.971  -1.345  11.609  0.00  0.00    -0.256 OA
ENDROOT
BRANCH   1   3
ATOM      3  O9  ZIN A   1      19.043  -2.016  12.887  0.00  0.00    -0.286 OA
BRANCH   3   4
ATOM      4  C8  ZIN A   1      19.477  -1.305  14.049  0.00  0.00     0.358 C 
BRANCH   4   5
ATOM      5  O7  ZIN A   1      18.416  -1.304  15.039  0.00  0.00    -0.294 OA
BRANCH   5   6
ATOM      6  C5  ZIN A   1      18.775  -1.108  16.318  0.00  0.00     0.268 C 
ATOM      7  O6  ZIN A   1      19.558  -1.860  16.847  0.00  0.00    -0.264 OA
BRANCH   6   8
ATOM      8  C2  ZIN A   1      18.202   0.050  17.093  0.00  0.00     0.037 C 
ATOM      9  C1  ZIN A   1      18.732   0.016  18.528  0.00  0.00     0.025 C 
ATOM     10  C3  ZIN A   1      16.675  -0.052  17.110  0.00  0.00     0.025 C 
ATOM     11  C4  ZIN A   1      18.617   1.364  16.427  0.00  0.00     0.025 C 
ENDBRANCH   6   8
ENDBRANCH   5   6
ENDBRANCH   4   5
ENDBRANCH   3   4
ENDBRANCH   1   3
BRANCH   1  12
ATOM     12  C12 ZIN A   1      18.987   0.458  11.565  0.00  0.00     0.299 C 
BRANCH  12  13
ATOM     13  O13 ZIN A   1      18.114   1.216  10.723  0.00  0.00    -0.378 OA
BRANCH  13  14
ATOM     14  C14 ZIN A   1      18.702   2.409  10.199  0.00  0.00     0.188 C 
BRANCH  14  15
ATOM     15  C15 ZIN A   1      17.824   3.609  10.558  0.00  0.00     0.158 C 
BRANCH  15  16
ATOM     16  N16 ZIN A   1      18.339   4.244  11.774  0.00  0.00    -0.322 N 
ATOM     17  C25 ZIN A   1      17.603   4.936  12.702  0.00  0.00     0.165 A 
ATOM     18  C19 ZIN A   1      18.516   5.354  13.686  0.00  0.00     0.149 A 
ATOM     19  N24 ZIN A   1      16.318   5.242  12.842  0.00  0.00    -0.222 NA
ATOM     20  N18 ZIN A   1      19.739   4.910  13.309  0.00  0.00    -0.236 NA
ATOM     21  C20 ZIN A   1      18.024   6.092  14.776  0.00  0.00     0.155 A 
ATOM     22  C17 ZIN A   1      19.638   4.259  12.188  0.00  0.00     0.212 A 
ATOM     23  N22 ZIN A   1      16.723   6.355  14.827  0.00  0.00    -0.222 NA
ATOM     24  C23 ZIN A   1      15.903   5.937  13.880  0.00  0.00     0.237 A 
BRANCH  21  25
ATOM     25  N21 ZIN A   1      18.877   6.535  15.772  0.00  0.00    -0.382 N 
ATOM     26  H53 ZIN A   1      18.537   7.090  16.491  0.00  0.00     0.157 HD
ATOM     27  H54 ZIN A   1      19.816   6.289  15.752  0.00  0.00     0.157 HD
ENDBRANCH  21  25
ENDBRANCH  15  16
ENDBRANCH  14  15
ENDBRANCH  13  14
ENDBRANCH  12  13
ENDBRANCH   1  12
BRANCH   1  28
ATOM     28  O26 ZIN A   1      18.993  -2.025  10.258  0.00  0.00    -0.286 OA
BRANCH  28  29
ATOM     29  C27 ZIN A   1      18.443  -1.798   8.958  0.00  0.00     0.358 C 
BRANCH  29  30
ATOM     30  O28 ZIN A   1      19.431  -1.140   8.123  0.00  0.00    -0.294 OA
BRANCH  30  31
ATOM     31  C29 ZIN A   1      19.239  -1.191   6.795  0.00  0.00     0.268 C 
ATOM     32  O30 ZIN A   1      19.558  -2.177   6.175  0.00  0.00    -0.264 OA
BRANCH  31  33
ATOM     33  C31 ZIN A   1      18.624  -0.016   6.078  0.00  0.00     0.037 C 
ATOM     34  C32 ZIN A   1      17.101  -0.166   6.067  0.00  0.00     0.025 C 
ATOM     35  C33 ZIN A   1      19.004   1.277   6.800  0.00  0.00     0.025 C 
ATOM     36  C34 ZIN A   1      19.142   0.031   4.639  0.00  0.00     0.025 C 
ENDBRANCH  31  33
ENDBRANCH  30  31
ENDBRANCH  29  30
ENDBRANCH  28  29
ENDBRANCH   1  28
TORSDOF 16
ENDMDL
