MODEL 1
REMARK VINA RESULT:      -9.4      0.000      0.000
REMARK  5 active torsions:
REMARK  status: ('A' for Active; 'I' for Inactive)
REMARK    1  A    between atoms: N10_10  and  C11_11 
REMARK    2  A    between atoms: C11_11  and  C12_12 
REMARK    3  A    between atoms: C12_12  and  N13_13 
REMARK    4  A    between atoms: N16_16  and  C17_17 
REMARK    5  A    between atoms: C21_21  and  C22_22 
ROOT
ATOM      1  N13 ZIN A   1      18.239   1.628  10.918  0.00  0.00     0.092 N 
ATOM      2  C14 ZIN A   1      18.496   2.558   9.811  0.00  0.00     0.287 C 
ATOM      3  C15 ZIN A   1      19.035   1.781   8.609  0.00  0.00     0.126 C 
ATOM      4  N16 ZIN A   1      18.060   0.755   8.215  0.00  0.00    -0.280 NA
ATOM      5  C27 ZIN A   1      17.802  -0.176   9.322  0.00  0.00     0.126 C 
ATOM      6  C28 ZIN A   1      17.262   0.602  10.524  0.00  0.00     0.287 C 
ENDROOT
BRANCH   1   7
ATOM      7  C12 ZIN A   1      17.790   2.348  12.118  0.00  0.00     0.292 C 
BRANCH   7   8
ATOM      8  C11 ZIN A   1      18.946   2.450  13.113  0.00  0.00     0.164 C 
BRANCH   8   9
ATOM      9  N10 ZIN A   1      19.271   1.115  13.623  0.00  0.00    -0.296 N 
ATOM     10  C2  ZIN A   1      20.244   0.310  13.158  0.00  0.00     0.327 A 
ATOM     11  O1  ZIN A   1      20.998   0.579  12.241  0.00  0.00    -0.246 OA
ATOM     12  N3  ZIN A   1      20.261  -0.836  13.864  0.00  0.00    -0.306 N 
ATOM     13  C4  ZIN A   1      19.254  -0.775  14.824  0.00  0.00     0.063 A 
ATOM     14  H29 ZIN A   1      20.871  -1.578  13.727  0.00  0.00     0.171 HD
ATOM     15  C9  ZIN A   1      18.623   0.461  14.669  0.00  0.00     0.065 A 
ATOM     16  C5  ZIN A   1      18.821  -1.652  15.806  0.00  0.00     0.032 A 
ATOM     17  C8  ZIN A   1      17.566   0.806  15.496  0.00  0.00     0.032 A 
ATOM     18  C7  ZIN A   1      17.143  -0.074  16.473  0.00  0.00     0.002 A 
ATOM     19  C6  ZIN A   1      17.767  -1.299  16.627  0.00  0.00     0.002 A 
ENDBRANCH   8   9
ENDBRANCH   7   8
ENDBRANCH   1   7
BRANCH   4  20
ATOM     20  C17 ZIN A   1      18.486   0.070   7.074  0.00  0.00     0.011 A 
ATOM     21  C26 ZIN A   1      18.582  -1.315   7.089  0.00  0.00     0.039 A 
ATOM     22  C21 ZIN A   1      18.999  -1.990   5.958  0.00  0.00     0.049 A 
ATOM     23  C20 ZIN A   1      19.331  -1.286   4.815  0.00  0.00     0.016 A 
ATOM     24  C19 ZIN A   1      19.240   0.094   4.798  0.00  0.00     0.003 A 
ATOM     25  C18 ZIN A   1      18.819   0.775   5.924  0.00  0.00     0.024 A 
BRANCH  22  26
ATOM     26  C22 ZIN A   1      19.099  -3.493   5.972  0.00  0.00     0.417 C 
ATOM     27  F23 ZIN A   1      20.364  -3.871   6.432  0.00  0.00    -0.166 F 
ATOM     28  F24 ZIN A   1      18.118  -4.018   6.819  0.00  0.00    -0.166 F 
ATOM     29  F25 ZIN A   1      18.907  -3.984   4.675  0.00  0.00    -0.166 F 
ENDBRANCH  22  26
ENDBRANCH   4  20
TORSDOF 5
ENDMDL
MODEL 2
REMARK VINA RESULT:      -9.3      1.429      2.199
REMARK  5 active torsions:
REMARK  status: ('A' for Active; 'I' for Inactive)
REMARK    1  A    between atoms: N10_10  and  C11_11 
REMARK    2  A    between atoms: C11_11  and  C12_12 
REMARK    3  A    between atoms: C12_12  and  N13_13 
REMARK    4  A    between atoms: N16_16  and  C17_17 
REMARK    5  A    between atoms: C21_21  and  C22_22 
ROOT
ATOM      1  N13 ZIN A   1      17.760   2.374  10.625  0.00  0.00     0.092 N 
ATOM      2  C14 ZIN A   1      17.456   0.938  10.660  0.00  0.00     0.287 C 
ATOM      3  C15 ZIN A   1      17.517   0.372   9.240  0.00  0.00     0.126 C 
ATOM      4  N16 ZIN A   1      18.853   0.611   8.677  0.00  0.00    -0.280 NA
ATOM      5  C27 ZIN A   1      19.157   2.048   8.641  0.00  0.00     0.126 C 
ATOM      6  C28 ZIN A   1      19.097   2.614  10.062  0.00  0.00     0.287 C 
ENDROOT
BRANCH   1   7
ATOM      7  C12 ZIN A   1      17.638   2.971  11.963  0.00  0.00     0.292 C 
BRANCH   7   8
ATOM      8  C11 ZIN A   1      18.976   2.860  12.694  0.00  0.00     0.164 C 
BRANCH   8   9
ATOM      9  N10 ZIN A   1      18.751   2.358  14.052  0.00  0.00    -0.296 N 
ATOM     10  C2  ZIN A   1      18.369   3.096  15.111  0.00  0.00     0.327 A 
ATOM     11  O1  ZIN A   1      18.155   4.294  15.091  0.00  0.00    -0.246 OA
ATOM     12  N3  ZIN A   1      18.254   2.306  16.196  0.00  0.00    -0.306 N 
ATOM     13  C4  ZIN A   1      18.579   1.003  15.827  0.00  0.00     0.063 A 
ATOM     14  H29 ZIN A   1      17.989   2.596  17.083  0.00  0.00     0.171 HD
ATOM     15  C9  ZIN A   1      18.898   1.036  14.468  0.00  0.00     0.065 A 
ATOM     16  C5  ZIN A   1      18.632  -0.196  16.520  0.00  0.00     0.032 A 
ATOM     17  C8  ZIN A   1      19.268  -0.130  13.817  0.00  0.00     0.032 A 
ATOM     18  C7  ZIN A   1      19.316  -1.320  14.515  0.00  0.00     0.002 A 
ATOM     19  C6  ZIN A   1      19.001  -1.354  15.861  0.00  0.00     0.002 A 
ENDBRANCH   8   9
ENDBRANCH   7   8
ENDBRANCH   1   7
BRANCH   4  20
ATOM     20  C17 ZIN A   1      18.969   0.044   7.405  0.00  0.00     0.011 A 
ATOM     21  C26 ZIN A   1      19.003  -1.337   7.259  0.00  0.00     0.039 A 
ATOM     22  C21 ZIN A   1      19.112  -1.895   6.000  0.00  0.00     0.049 A 
ATOM     23  C20 ZIN A   1      19.198  -1.079   4.886  0.00  0.00     0.016 A 
ATOM     24  C19 ZIN A   1      19.169   0.296   5.029  0.00  0.00     0.003 A 
ATOM     25  C18 ZIN A   1      19.055   0.861   6.285  0.00  0.00     0.024 A 
BRANCH  22  26
ATOM     26  C22 ZIN A   1      19.144  -3.392   5.840  0.00  0.00     0.417 C 
ATOM     27  F23 ZIN A   1      19.034  -3.719   4.485  0.00  0.00    -0.166 F 
ATOM     28  F24 ZIN A   1      20.350  -3.889   6.343  0.00  0.00    -0.166 F 
ATOM     29  F25 ZIN A   1      18.075  -3.959   6.544  0.00  0.00    -0.166 F 
ENDBRANCH  22  26
ENDBRANCH   4  20
TORSDOF 5
ENDMDL
MODEL 3
REMARK VINA RESULT:      -8.8      2.529      4.325
REMARK  5 active torsions:
REMARK  status: ('A' for Active; 'I' for Inactive)
REMARK    1  A    between atoms: N10_10  and  C11_11 
REMARK    2  A    between atoms: C11_11  and  C12_12 
REMARK    3  A    between atoms: C12_12  and  N13_13 
REMARK    4  A    between atoms: N16_16  and  C17_17 
REMARK    5  A    between atoms: C21_21  and  C22_22 
ROOT
ATOM      1  N13 ZIN A   1      18.606  -0.364  11.701  0.00  0.00     0.092 N 
ATOM      2  C14 ZIN A   1      18.024  -1.691  11.460  0.00  0.00     0.287 C 
ATOM      3  C15 ZIN A   1      17.902  -1.925   9.953  0.00  0.00     0.126 C 
ATOM      4  N16 ZIN A   1      19.230  -1.815   9.334  0.00  0.00    -0.280 NA
ATOM      5  C27 ZIN A   1      19.813  -0.488   9.576  0.00  0.00     0.126 C 
ATOM      6  C28 ZIN A   1      19.935  -0.254  11.084  0.00  0.00     0.287 C 
ENDROOT
BRANCH   1   7
ATOM      7  C12 ZIN A   1      18.669  -0.071  13.140  0.00  0.00     0.292 C 
BRANCH   7   8
ATOM      8  C11 ZIN A   1      19.540   1.164  13.371  0.00  0.00     0.164 C 
BRANCH   8   9
ATOM      9  N10 ZIN A   1      18.684   2.342  13.537  0.00  0.00    -0.296 N 
ATOM     10  C2  ZIN A   1      18.224   2.823  14.707  0.00  0.00     0.327 A 
ATOM     11  O1  ZIN A   1      18.456   2.344  15.801  0.00  0.00    -0.246 OA
ATOM     12  N3  ZIN A   1      17.472   3.917  14.483  0.00  0.00    -0.306 N 
ATOM     13  C4  ZIN A   1      17.438   4.153  13.111  0.00  0.00     0.063 A 
ATOM     14  H29 ZIN A   1      17.029   4.450  15.163  0.00  0.00     0.171 HD
ATOM     15  C9  ZIN A   1      18.204   3.152  12.510  0.00  0.00     0.065 A 
ATOM     16  C5  ZIN A   1      16.830   5.122  12.328  0.00  0.00     0.032 A 
ATOM     17  C8  ZIN A   1      18.351   3.129  11.132  0.00  0.00     0.032 A 
ATOM     18  C7  ZIN A   1      17.742   4.099  10.360  0.00  0.00     0.002 A 
ATOM     19  C6  ZIN A   1      16.984   5.091  10.955  0.00  0.00     0.002 A 
ENDBRANCH   8   9
ENDBRANCH   7   8
ENDBRANCH   1   7
BRANCH   4  20
ATOM     20  C17 ZIN A   1      19.171  -2.094   7.966  0.00  0.00     0.011 A 
ATOM     21  C26 ZIN A   1      18.806  -1.099   7.069  0.00  0.00     0.039 A 
ATOM     22  C21 ZIN A   1      18.754  -1.376   5.716  0.00  0.00     0.049 A 
ATOM     23  C20 ZIN A   1      19.053  -2.646   5.257  0.00  0.00     0.016 A 
ATOM     24  C19 ZIN A   1      19.411  -3.640   6.149  0.00  0.00     0.003 A 
ATOM     25  C18 ZIN A   1      19.471  -3.368   7.502  0.00  0.00     0.024 A 
BRANCH  22  26
ATOM     26  C22 ZIN A   1      18.363  -0.296   4.741  0.00  0.00     0.417 C 
ATOM     27  F23 ZIN A   1      19.515   0.329   4.252  0.00  0.00    -0.166 F 
ATOM     28  F24 ZIN A   1      17.652  -0.862   3.679  0.00  0.00    -0.166 F 
ATOM     29  F25 ZIN A   1      17.560   0.649   5.390  0.00  0.00    -0.166 F 
ENDBRANCH  22  26
ENDBRANCH   4  20
TORSDOF 5
ENDMDL
MODEL 4
REMARK VINA RESULT:      -8.8      4.470      7.698
REMARK  5 active torsions:
REMARK  status: ('A' for Active; 'I' for Inactive)
REMARK    1  A    between atoms: N10_10  and  C11_11 
REMARK    2  A    between atoms: C11_11  and  C12_12 
REMARK    3  A    between atoms: C12_12  and  N13_13 
REMARK    4  A    between atoms: N16_16  and  C17_17 
REMARK    5  A    between atoms: C21_21  and  C22_22 
ROOT
ATOM      1  N13 ZIN A   1      18.460   0.469  10.151  0.00  0.00     0.092 N 
ATOM      2  C14 ZIN A   1      17.800   1.701  10.602  0.00  0.00     0.287 C 
ATOM      3  C15 ZIN A   1      17.672   1.679  12.126  0.00  0.00     0.126 C 
ATOM      4  N16 ZIN A   1      19.008   1.551  12.725  0.00  0.00    -0.280 NA
ATOM      5  C27 ZIN A   1      19.669   0.318  12.273  0.00  0.00     0.126 C 
ATOM      6  C28 ZIN A   1      19.796   0.342  10.748  0.00  0.00     0.287 C 
ENDROOT
BRANCH   1   7
ATOM      7  C12 ZIN A   1      18.533   0.418   8.683  0.00  0.00     0.292 C 
BRANCH   7   8
ATOM      8  C11 ZIN A   1      17.672  -0.736   8.170  0.00  0.00     0.164 C 
BRANCH   8   9
ATOM      9  N10 ZIN A   1      18.395  -1.998   8.341  0.00  0.00    -0.296 N 
ATOM     10  C2  ZIN A   1      19.259  -2.537   7.461  0.00  0.00     0.327 A 
ATOM     11  O1  ZIN A   1      19.564  -2.048   6.389  0.00  0.00    -0.246 OA
ATOM     12  N3  ZIN A   1      19.739  -3.697   7.947  0.00  0.00    -0.306 N 
ATOM     13  C4  ZIN A   1      19.159  -3.923   9.193  0.00  0.00     0.063 A 
ATOM     14  H29 ZIN A   1      20.380  -4.276   7.505  0.00  0.00     0.171 HD
ATOM     15  C9  ZIN A   1      18.304  -2.848   9.442  0.00  0.00     0.065 A 
ATOM     16  C5  ZIN A   1      19.282  -4.939  10.129  0.00  0.00     0.032 A 
ATOM     17  C8  ZIN A   1      17.580  -2.800  10.622  0.00  0.00     0.032 A 
ATOM     18  C7  ZIN A   1      17.709  -3.816  11.549  0.00  0.00     0.002 A 
ATOM     19  C6  ZIN A   1      18.556  -4.882  11.304  0.00  0.00     0.002 A 
ENDBRANCH   8   9
ENDBRANCH   7   8
ENDBRANCH   1   7
BRANCH   4  20
ATOM     20  C17 ZIN A   1      18.939   1.599  14.120  0.00  0.00     0.011 A 
ATOM     21  C26 ZIN A   1      18.904   0.422  14.856  0.00  0.00     0.039 A 
ATOM     22  C21 ZIN A   1      18.841   0.473  16.235  0.00  0.00     0.049 A 
ATOM     23  C20 ZIN A   1      18.802   1.695  16.882  0.00  0.00     0.016 A 
ATOM     24  C19 ZIN A   1      18.832   2.869  16.152  0.00  0.00     0.003 A 
ATOM     25  C18 ZIN A   1      18.900   2.825  14.772  0.00  0.00     0.024 A 
BRANCH  22  26
ATOM     26  C22 ZIN A   1      18.808  -0.803  17.035  0.00  0.00     0.417 C 
ATOM     27  F23 ZIN A   1      19.388  -0.583  18.288  0.00  0.00    -0.166 F 
ATOM     28  F24 ZIN A   1      17.483  -1.216  17.200  0.00  0.00    -0.166 F 
ATOM     29  F25 ZIN A   1      19.525  -1.796  16.357  0.00  0.00    -0.166 F 
ENDBRANCH  22  26
ENDBRANCH   4  20
TORSDOF 5
ENDMDL
MODEL 5
REMARK VINA RESULT:      -8.8      4.690      9.357
REMARK  5 active torsions:
REMARK  status: ('A' for Active; 'I' for Inactive)
REMARK    1  A    between atoms: N10_10  and  C11_11 
REMARK    2  A    between atoms: C11_11  and  C12_12 
REMARK    3  A    between atoms: C12_12  and  N13_13 
REMARK    4  A    between atoms: N16_16  and  C17_17 
REMARK    5  A    between atoms: C21_21  and  C22_22 
ROOT
ATOM      1  N13 ZIN A   1      18.399  -0.756  11.495  0.00  0.00     0.092 N 
ATOM      2  C14 ZIN A   1      19.528   0.121  11.834  0.00  0.00     0.287 C 
ATOM      3  C15 ZIN A   1      19.352   0.647  13.259  0.00  0.00     0.126 C 
ATOM      4  N16 ZIN A   1      19.272  -0.486  14.191  0.00  0.00    -0.280 NA
ATOM      5  C27 ZIN A   1      18.142  -1.363  13.853  0.00  0.00     0.126 C 
ATOM      6  C28 ZIN A   1      18.319  -1.890  12.427  0.00  0.00     0.287 C 
ENDROOT
BRANCH   1   7
ATOM      7  C12 ZIN A   1      18.493  -1.223  10.105  0.00  0.00     0.292 C 
BRANCH   7   8
ATOM      8  C11 ZIN A   1      19.749  -0.641   9.456  0.00  0.00     0.164 C 
BRANCH   8   9
ATOM      9  N10 ZIN A   1      19.396  -0.024   8.175  0.00  0.00    -0.296 N 
ATOM     10  C2  ZIN A   1      19.203   1.291   7.961  0.00  0.00     0.327 A 
ATOM     11  O1  ZIN A   1      19.295   2.160   8.808  0.00  0.00    -0.246 OA
ATOM     12  N3  ZIN A   1      18.897   1.500   6.667  0.00  0.00    -0.306 N 
ATOM     13  C4  ZIN A   1      18.885   0.270   6.014  0.00  0.00     0.063 A 
ATOM     14  H29 ZIN A   1      18.715   2.362   6.258  0.00  0.00     0.171 HD
ATOM     15  C9  ZIN A   1      19.198  -0.697   6.971  0.00  0.00     0.065 A 
ATOM     16  C5  ZIN A   1      18.639  -0.110   4.704  0.00  0.00     0.032 A 
ATOM     17  C8  ZIN A   1      19.260  -2.033   6.609  0.00  0.00     0.032 A 
ATOM     18  C7  ZIN A   1      19.014  -2.402   5.300  0.00  0.00     0.002 A 
ATOM     19  C6  ZIN A   1      18.704  -1.445   4.351  0.00  0.00     0.002 A 
ENDBRANCH   8   9
ENDBRANCH   7   8
ENDBRANCH   1   7
BRANCH   4  20
ATOM     20  C17 ZIN A   1      19.182  -0.042  15.513  0.00  0.00     0.011 A 
ATOM     21  C26 ZIN A   1      19.210   1.318  15.794  0.00  0.00     0.039 A 
ATOM     22  C21 ZIN A   1      19.115   1.753  17.101  0.00  0.00     0.049 A 
ATOM     23  C20 ZIN A   1      19.005   0.836  18.131  0.00  0.00     0.016 A 
ATOM     24  C19 ZIN A   1      18.982  -0.519  17.854  0.00  0.00     0.003 A 
ATOM     25  C18 ZIN A   1      19.070  -0.961  16.549  0.00  0.00     0.024 A 
BRANCH  22  26
ATOM     26  C22 ZIN A   1      19.141   3.228  17.407  0.00  0.00     0.417 C 
ATOM     27  F23 ZIN A   1      20.268   3.807  16.818  0.00  0.00    -0.166 F 
ATOM     28  F24 ZIN A   1      17.986   3.830  16.897  0.00  0.00    -0.166 F 
ATOM     29  F25 ZIN A   1      19.191   3.415  18.794  0.00  0.00    -0.166 F 
ENDBRANCH  22  26
ENDBRANCH   4  20
TORSDOF 5
ENDMDL
MODEL 6
REMARK VINA RESULT:      -8.6      4.592      8.888
REMARK  5 active torsions:
REMARK  status: ('A' for Active; 'I' for Inactive)
REMARK    1  A    between atoms: N10_10  and  C11_11 
REMARK    2  A    between atoms: C11_11  and  C12_12 
REMARK    3  A    between atoms: C12_12  and  N13_13 
REMARK    4  A    between atoms: N16_16  and  C17_17 
REMARK    5  A    between atoms: C21_21  and  C22_22 
ROOT
ATOM      1  N13 ZIN A   1      17.683  -2.536  10.624  0.00  0.00     0.092 N 
ATOM      2  C14 ZIN A   1      17.678  -1.097  10.331  0.00  0.00     0.287 C 
ATOM      3  C15 ZIN A   1      17.545  -0.314  11.639  0.00  0.00     0.126 C 
ATOM      4  N16 ZIN A   1      18.658  -0.663  12.532  0.00  0.00    -0.280 NA
ATOM      5  C27 ZIN A   1      18.663  -2.103  12.825  0.00  0.00     0.126 C 
ATOM      6  C28 ZIN A   1      18.797  -2.886  11.517  0.00  0.00     0.287 C 
ENDROOT
BRANCH   1   7
ATOM      7  C12 ZIN A   1      17.734  -3.326   9.386  0.00  0.00     0.292 C 
BRANCH   7   8
ATOM      8  C11 ZIN A   1      19.168  -3.352   8.856  0.00  0.00     0.164 C 
BRANCH   8   9
ATOM      9  N10 ZIN A   1      19.152  -3.242   7.396  0.00  0.00    -0.296 N 
ATOM     10  C2  ZIN A   1      19.210  -4.270   6.528  0.00  0.00     0.327 A 
ATOM     11  O1  ZIN A   1      19.286  -5.445   6.837  0.00  0.00    -0.246 OA
ATOM     12  N3  ZIN A   1      19.168  -3.802   5.267  0.00  0.00    -0.306 N 
ATOM     13  C4  ZIN A   1      19.083  -2.412   5.317  0.00  0.00     0.063 A 
ATOM     14  H29 ZIN A   1      19.192  -4.341   4.460  0.00  0.00     0.171 HD
ATOM     15  C9  ZIN A   1      19.077  -2.057   6.667  0.00  0.00     0.065 A 
ATOM     16  C5  ZIN A   1      19.012  -1.428   4.343  0.00  0.00     0.032 A 
ATOM     17  C8  ZIN A   1      19.001  -0.722   7.030  0.00  0.00     0.032 A 
ATOM     18  C7  ZIN A   1      18.929   0.252   6.052  0.00  0.00     0.002 A 
ATOM     19  C6  ZIN A   1      18.935  -0.099   4.714  0.00  0.00     0.002 A 
ENDBRANCH   8   9
ENDBRANCH   7   8
ENDBRANCH   1   7
BRANCH   4  20
ATOM     20  C17 ZIN A   1      18.610   0.088  13.709  0.00  0.00     0.011 A 
ATOM     21  C26 ZIN A   1      18.092  -0.472  14.870  0.00  0.00     0.039 A 
ATOM     22  C21 ZIN A   1      18.051   0.270  16.035  0.00  0.00     0.049 A 
ATOM     23  C20 ZIN A   1      18.514   1.573  16.042  0.00  0.00     0.016 A 
ATOM     24  C19 ZIN A   1      19.026   2.135  14.886  0.00  0.00     0.003 A 
ATOM     25  C18 ZIN A   1      19.076   1.396  13.720  0.00  0.00     0.024 A 
BRANCH  22  26
ATOM     26  C22 ZIN A   1      17.493  -0.337  17.295  0.00  0.00     0.417 C 
ATOM     27  F23 ZIN A   1      18.532  -0.555  18.206  0.00  0.00    -0.166 F 
ATOM     28  F24 ZIN A   1      16.555   0.534  17.858  0.00  0.00    -0.166 F 
ATOM     29  F25 ZIN A   1      16.875  -1.555  16.992  0.00  0.00    -0.166 F 
ENDBRANCH  22  26
ENDBRANCH   4  20
TORSDOF 5
ENDMDL
MODEL 7
REMARK VINA RESULT:      -8.6      2.412      3.143
REMARK  5 active torsions:
REMARK  status: ('A' for Active; 'I' for Inactive)
REMARK    1  A    between atoms: N10_10  and  C11_11 
REMARK    2  A    between atoms: C11_11  and  C12_12 
REMARK    3  A    between atoms: C12_12  and  N13_13 
REMARK    4  A    between atoms: N16_16  and  C17_17 
REMARK    5  A    between atoms: C21_21  and  C22_22 
ROOT
ATOM      1  N13 ZIN A   1      18.778   2.698  12.147  0.00  0.00     0.092 N 
ATOM      2  C14 ZIN A   1      19.938   1.800  12.081  0.00  0.00     0.287 C 
ATOM      3  C15 ZIN A   1      19.628   0.640  11.133  0.00  0.00     0.126 C 
ATOM      4  N16 ZIN A   1      19.300   1.171   9.803  0.00  0.00    -0.280 NA
ATOM      5  C27 ZIN A   1      18.139   2.070   9.870  0.00  0.00     0.126 C 
ATOM      6  C28 ZIN A   1      18.450   3.231  10.817  0.00  0.00     0.287 C 
ENDROOT
BRANCH   1   7
ATOM      7  C12 ZIN A   1      19.009   3.787  13.107  0.00  0.00     0.292 C 
BRANCH   7   8
ATOM      8  C11 ZIN A   1      17.934   3.746  14.193  0.00  0.00     0.164 C 
BRANCH   8   9
ATOM      9  N10 ZIN A   1      18.468   3.079  15.383  0.00  0.00    -0.296 N 
ATOM     10  C2  ZIN A   1      19.137   3.675  16.388  0.00  0.00     0.327 A 
ATOM     11  O1  ZIN A   1      19.395   4.863  16.450  0.00  0.00    -0.246 OA
ATOM     12  N3  ZIN A   1      19.473   2.760  17.316  0.00  0.00    -0.306 N 
ATOM     13  C4  ZIN A   1      19.007   1.516  16.894  0.00  0.00     0.063 A 
ATOM     14  H29 ZIN A   1      19.957   2.936  18.138  0.00  0.00     0.171 HD
ATOM     15  C9  ZIN A   1      18.373   1.718  15.667  0.00  0.00     0.065 A 
ATOM     16  C5  ZIN A   1      19.066   0.244  17.441  0.00  0.00     0.032 A 
ATOM     17  C8  ZIN A   1      17.806   0.645  14.998  0.00  0.00     0.032 A 
ATOM     18  C7  ZIN A   1      17.869  -0.620  15.551  0.00  0.00     0.002 A 
ATOM     19  C6  ZIN A   1      18.497  -0.820  16.767  0.00  0.00     0.002 A 
ENDBRANCH   8   9
ENDBRANCH   7   8
ENDBRANCH   1   7
BRANCH   4  20
ATOM     20  C17 ZIN A   1      19.080   0.136   8.891  0.00  0.00     0.011 A 
ATOM     21  C26 ZIN A   1      19.119   0.391   7.526  0.00  0.00     0.039 A 
ATOM     22  C21 ZIN A   1      18.907  -0.636   6.627  0.00  0.00     0.049 A 
ATOM     23  C20 ZIN A   1      18.645  -1.914   7.084  0.00  0.00     0.016 A 
ATOM     24  C19 ZIN A   1      18.601  -2.171   8.442  0.00  0.00     0.003 A 
ATOM     25  C18 ZIN A   1      18.818  -1.150   9.348  0.00  0.00     0.024 A 
BRANCH  22  26
ATOM     26  C22 ZIN A   1      18.953  -0.361   5.146  0.00  0.00     0.417 C 
ATOM     27  F23 ZIN A   1      19.590   0.863   4.919  0.00  0.00    -0.166 F 
ATOM     28  F24 ZIN A   1      19.661  -1.382   4.504  0.00  0.00    -0.166 F 
ATOM     29  F25 ZIN A   1      17.649  -0.310   4.641  0.00  0.00    -0.166 F 
ENDBRANCH  22  26
ENDBRANCH   4  20
TORSDOF 5
ENDMDL
MODEL 8
REMARK VINA RESULT:      -8.6      4.484      9.165
REMARK  5 active torsions:
REMARK  status: ('A' for Active; 'I' for Inactive)
REMARK    1  A    between atoms: N10_10  and  C11_11 
REMARK    2  A    between atoms: C11_11  and  C12_12 
REMARK    3  A    between atoms: C12_12  and  N13_13 
REMARK    4  A    between atoms: N16_16  and  C17_17 
REMARK    5  A    between atoms: C21_21  and  C22_22 
ROOT
ATOM      1  N13 ZIN A   1      18.531  -0.586  11.419  0.00  0.00     0.092 N 
ATOM      2  C14 ZIN A   1      17.321   0.115  11.868  0.00  0.00     0.287 C 
ATOM      3  C15 ZIN A   1      17.459   0.466  13.350  0.00  0.00     0.126 C 
ATOM      4  N16 ZIN A   1      18.650   1.304  13.544  0.00  0.00    -0.280 NA
ATOM      5  C27 ZIN A   1      19.862   0.603  13.095  0.00  0.00     0.126 C 
ATOM      6  C28 ZIN A   1      19.723   0.252  11.611  0.00  0.00     0.287 C 
ENDROOT
BRANCH   1   7
ATOM      7  C12 ZIN A   1      18.406  -1.008  10.017  0.00  0.00     0.292 C 
BRANCH   7   8
ATOM      8  C11 ZIN A   1      19.686  -0.652   9.261  0.00  0.00     0.164 C 
BRANCH   8   9
ATOM      9  N10 ZIN A   1      19.344  -0.168   7.921  0.00  0.00    -0.296 N 
ATOM     10  C2  ZIN A   1      19.131   1.116   7.578  0.00  0.00     0.327 A 
ATOM     11  O1  ZIN A   1      19.193   2.064   8.338  0.00  0.00    -0.246 OA
ATOM     12  N3  ZIN A   1      18.843   1.193   6.265  0.00  0.00    -0.306 N 
ATOM     13  C4  ZIN A   1      18.866  -0.095   5.734  0.00  0.00     0.063 A 
ATOM     14  H29 ZIN A   1      18.653   2.007   5.772  0.00  0.00     0.171 HD
ATOM     15  C9  ZIN A   1      19.180  -0.959   6.785  0.00  0.00     0.065 A 
ATOM     16  C5  ZIN A   1      18.649  -0.604   4.463  0.00  0.00     0.032 A 
ATOM     17  C8  ZIN A   1      19.271  -2.322   6.555  0.00  0.00     0.032 A 
ATOM     18  C7  ZIN A   1      19.055  -2.820   5.285  0.00  0.00     0.002 A 
ATOM     19  C6  ZIN A   1      18.744  -1.965   4.243  0.00  0.00     0.002 A 
ENDBRANCH   8   9
ENDBRANCH   7   8
ENDBRANCH   1   7
BRANCH   4  20
ATOM     20  C17 ZIN A   1      18.770   1.705  14.877  0.00  0.00     0.011 A 
ATOM     21  C26 ZIN A   1      18.489   0.810  15.901  0.00  0.00     0.039 A 
ATOM     22  C21 ZIN A   1      18.614   1.207  17.218  0.00  0.00     0.049 A 
ATOM     23  C20 ZIN A   1      19.007   2.499  17.517  0.00  0.00     0.016 A 
ATOM     24  C19 ZIN A   1      19.282   3.395  16.499  0.00  0.00     0.003 A 
ATOM     25  C18 ZIN A   1      19.165   3.002  15.180  0.00  0.00     0.024 A 
BRANCH  22  26
ATOM     26  C22 ZIN A   1      18.314   0.236  18.329  0.00  0.00     0.417 C 
ATOM     27  F23 ZIN A   1      19.507  -0.330  18.788  0.00  0.00    -0.166 F 
ATOM     28  F24 ZIN A   1      17.684   0.910  19.380  0.00  0.00    -0.166 F 
ATOM     29  F25 ZIN A   1      17.472  -0.774  17.851  0.00  0.00    -0.166 F 
ENDBRANCH  22  26
ENDBRANCH   4  20
TORSDOF 5
ENDMDL
MODEL 9
REMARK VINA RESULT:      -8.6      4.796      9.131
REMARK  5 active torsions:
REMARK  status: ('A' for Active; 'I' for Inactive)
REMARK    1  A    between atoms: N10_10  and  C11_11 
REMARK    2  A    between atoms: C11_11  and  C12_12 
REMARK    3  A    between atoms: C12_12  and  N13_13 
REMARK    4  A    between atoms: N16_16  and  C17_17 
REMARK    5  A    between atoms: C21_21  and  C22_22 
ROOT
ATOM      1  N13 ZIN A   1      18.269  -1.732  11.740  0.00  0.00     0.092 N 
ATOM      2  C14 ZIN A   1      18.760  -2.617  12.805  0.00  0.00     0.287 C 
ATOM      3  C15 ZIN A   1      19.240  -1.772  13.986  0.00  0.00     0.126 C 
ATOM      4  N16 ZIN A   1      18.132  -0.936  14.469  0.00  0.00    -0.280 NA
ATOM      5  C27 ZIN A   1      17.642  -0.050  13.404  0.00  0.00     0.126 C 
ATOM      6  C28 ZIN A   1      17.161  -0.896  12.222  0.00  0.00     0.287 C 
ENDROOT
BRANCH   1   7
ATOM      7  C12 ZIN A   1      17.869  -2.505  10.556  0.00  0.00     0.292 C 
BRANCH   7   8
ATOM      8  C11 ZIN A   1      19.088  -2.737   9.662  0.00  0.00     0.164 C 
BRANCH   8   9
ATOM      9  N10 ZIN A   1      18.797  -2.264   8.307  0.00  0.00    -0.296 N 
ATOM     10  C2  ZIN A   1      18.401  -3.029   7.273  0.00  0.00     0.327 A 
ATOM     11  O1  ZIN A   1      18.226  -4.233   7.319  0.00  0.00    -0.246 OA
ATOM     12  N3  ZIN A   1      18.222  -2.261   6.182  0.00  0.00    -0.306 N 
ATOM     13  C4  ZIN A   1      18.519  -0.943   6.520  0.00  0.00     0.063 A 
ATOM     14  H29 ZIN A   1      17.934  -2.573   5.309  0.00  0.00     0.171 HD
ATOM     15  C9  ZIN A   1      18.887  -0.945   7.867  0.00  0.00     0.065 A 
ATOM     16  C5  ZIN A   1      18.509   0.247   5.808  0.00  0.00     0.032 A 
ATOM     17  C8  ZIN A   1      19.244   0.242   8.487  0.00  0.00     0.032 A 
ATOM     18  C7  ZIN A   1      19.230   1.423   7.770  0.00  0.00     0.002 A 
ATOM     19  C6  ZIN A   1      18.865   1.426   6.436  0.00  0.00     0.002 A 
ENDBRANCH   8   9
ENDBRANCH   7   8
ENDBRANCH   1   7
BRANCH   4  20
ATOM     20  C17 ZIN A   1      18.513  -0.201  15.595  0.00  0.00     0.011 A 
ATOM     21  C26 ZIN A   1      18.576   1.185  15.533  0.00  0.00     0.039 A 
ATOM     22  C21 ZIN A   1      18.947   1.909  16.649  0.00  0.00     0.049 A 
ATOM     23  C20 ZIN A   1      19.267   1.254  17.824  0.00  0.00     0.016 A 
ATOM     24  C19 ZIN A   1      19.210  -0.126  17.888  0.00  0.00     0.003 A 
ATOM     25  C18 ZIN A   1      18.834  -0.856  16.777  0.00  0.00     0.024 A 
BRANCH  22  26
ATOM     26  C22 ZIN A   1      19.011   3.412  16.584  0.00  0.00     0.417 C 
ATOM     27  F23 ZIN A   1      18.567   3.951  17.796  0.00  0.00    -0.166 F 
ATOM     28  F24 ZIN A   1      20.331   3.814  16.351  0.00  0.00    -0.166 F 
ATOM     29  F25 ZIN A   1      18.194   3.869  15.543  0.00  0.00    -0.166 F 
ENDBRANCH  22  26
ENDBRANCH   4  20
TORSDOF 5
ENDMDL
