MODEL 1
REMARK VINA RESULT:      -6.9      0.000      0.000
REMARK  4 active torsions:
REMARK  status: ('A' for Active; 'I' for Inactive)
REMARK    1  A    between atoms: N2_2  and  C5_5 
REMARK    2  A    between atoms: C5_5  and  C6_6 
REMARK    3  A    between atoms: C6_6  and  C7_7 
REMARK    4  A    between atoms: C7_7  and  N8_8 
ROOT
ATOM      1  N8  <0> d   1      18.328  -0.195   9.981  0.00  0.00    -0.346 N 
ATOM      2  C9  <0> d   1      18.500   1.014  10.645  0.00  0.00     0.041 A 
ATOM      3  C10 <0> d   1      17.502   1.973  10.440  0.00  0.00     0.030 A 
ATOM      4  C11 <0> d   1      17.555   3.195  11.072  0.00  0.00     0.002 A 
ATOM      5  C12 <0> d   1      18.611   3.470  11.922  0.00  0.00     0.001 A 
ATOM      6  C13 <0> d   1      19.599   2.533  12.116  0.00  0.00     0.009 A 
ATOM      7  C14 <0> d   1      19.567   1.295  11.468  0.00  0.00    -0.031 A 
ATOM      8  C15 <0> d   1      20.765   0.420  11.740  0.00  0.00     0.045 C 
ATOM      9  C16 <0> d   1      20.907  -0.755  10.805  0.00  0.00     0.045 C 
ATOM     10  C17 <0> d   1      19.801  -1.753  10.972  0.00  0.00    -0.031 A 
ATOM     11  C18 <0> d   1      20.063  -2.996  11.523  0.00  0.00     0.011 A 
ATOM     12  C19 <0> d   1      19.029  -3.901  11.690  0.00  0.00     0.024 A 
ATOM     13  C20 <0> d   1      17.739  -3.568  11.313  0.00  0.00     0.036 A 
ATOM     14 Cl21 <0> d   1      16.448  -4.707  11.539  0.00  0.00    -0.084 Cl
ATOM     15  C22 <0> d   1      17.480  -2.328  10.757  0.00  0.00     0.054 A 
ATOM     16  C23 <0> d   1      18.521  -1.432  10.585  0.00  0.00     0.042 A 
ENDROOT
BRANCH   1  17
ATOM     17  C7  <0> d   1      17.916  -0.163   8.575  0.00  0.00     0.131 C 
BRANCH  17  18
ATOM     18  C6  <0> d   1      19.156  -0.198   7.680  0.00  0.00     0.048 C 
BRANCH  18  19
ATOM     19  C5  <0> d   1      19.180  -1.509   6.892  0.00  0.00     0.235 C 
BRANCH  19  20
ATOM     20  N2  <0> d   1      18.692  -1.269   5.527  0.00  0.00    -0.079 N 
ATOM     21  C1  <0> d   1      19.354  -0.080   4.972  0.00  0.00     0.269 C 
ATOM     22  H3  <0> d   1      17.694  -1.120   5.547  0.00  0.00     0.278 HD
ATOM     23  C4  <0> d   1      18.997  -2.435   4.686  0.00  0.00     0.269 C 
ENDBRANCH  19  20
ENDBRANCH  18  19
ENDBRANCH  17  18
ENDBRANCH   1  17
TORSDOF 4
ENDMDL
MODEL 2
REMARK VINA RESULT:      -6.8      2.445      3.779
REMARK  4 active torsions:
REMARK  status: ('A' for Active; 'I' for Inactive)
REMARK    1  A    between atoms: N2_2  and  C5_5 
REMARK    2  A    between atoms: C5_5  and  C6_6 
REMARK    3  A    between atoms: C6_6  and  C7_7 
REMARK    4  A    between atoms: C7_7  and  N8_8 
ROOT
ATOM      1  N8  <0> d   1      17.849  -2.827   9.687  0.00  0.00    -0.346 N 
ATOM      2  C9  <0> d   1      18.101  -2.344  10.964  0.00  0.00     0.041 A 
ATOM      3  C10 <0> d   1      17.381  -1.204  11.341  0.00  0.00     0.030 A 
ATOM      4  C11 <0> d   1      17.529  -0.657  12.596  0.00  0.00     0.002 A 
ATOM      5  C12 <0> d   1      18.400  -1.249  13.493  0.00  0.00     0.001 A 
ATOM      6  C13 <0> d   1      19.116  -2.362  13.121  0.00  0.00     0.009 A 
ATOM      7  C14 <0> d   1      18.989  -2.919  11.845  0.00  0.00    -0.031 A 
ATOM      8  C15 <0> d   1      19.901  -4.092  11.584  0.00  0.00     0.045 C 
ATOM      9  C16 <0> d   1      20.017  -4.485  10.132  0.00  0.00     0.045 C 
ATOM     10  C17 <0> d   1      18.728  -5.017   9.582  0.00  0.00    -0.031 A 
ATOM     11  C18 <0> d   1      18.611  -6.359   9.258  0.00  0.00     0.011 A 
ATOM     12  C19 <0> d   1      17.410  -6.842   8.770  0.00  0.00     0.024 A 
ATOM     13  C20 <0> d   1      16.328  -5.993   8.607  0.00  0.00     0.036 A 
ATOM     14 Cl21 <0> d   1      14.822  -6.613   8.004  0.00  0.00    -0.084 Cl
ATOM     15  C22 <0> d   1      16.448  -4.651   8.924  0.00  0.00     0.054 A 
ATOM     16  C23 <0> d   1      17.656  -4.175   9.404  0.00  0.00     0.042 A 
ENDROOT
BRANCH   1  17
ATOM     17  C7  <0> d   1      17.778  -1.868   8.582  0.00  0.00     0.131 C 
BRANCH  17  18
ATOM     18  C6  <0> d   1      19.187  -1.590   8.056  0.00  0.00     0.048 C 
BRANCH  18  19
ATOM     19  C5  <0> d   1      19.666  -0.232   8.570  0.00  0.00     0.235 C 
BRANCH  19  20
ATOM     20  N2  <0> d   1      18.735   0.816   8.128  0.00  0.00    -0.079 N 
ATOM     21  C1  <0> d   1      18.976   2.042   8.900  0.00  0.00     0.269 C 
ATOM     22  H3  <0> d   1      17.786   0.506   8.275  0.00  0.00     0.278 HD
ATOM     23  C4  <0> d   1      18.946   1.087   6.700  0.00  0.00     0.269 C 
ENDBRANCH  19  20
ENDBRANCH  18  19
ENDBRANCH  17  18
ENDBRANCH   1  17
TORSDOF 4
ENDMDL
MODEL 3
REMARK VINA RESULT:      -6.8      2.602      3.603
REMARK  4 active torsions:
REMARK  status: ('A' for Active; 'I' for Inactive)
REMARK    1  A    between atoms: N2_2  and  C5_5 
REMARK    2  A    between atoms: C5_5  and  C6_6 
REMARK    3  A    between atoms: C6_6  and  C7_7 
REMARK    4  A    between atoms: C7_7  and  N8_8 
ROOT
ATOM      1  N8  <0> d   1      17.844  -2.897   9.638  0.00  0.00    -0.346 N 
ATOM      2  C9  <0> d   1      18.129  -2.415  10.910  0.00  0.00     0.041 A 
ATOM      3  C10 <0> d   1      17.435  -1.264  11.299  0.00  0.00     0.030 A 
ATOM      4  C11 <0> d   1      17.617  -0.717  12.548  0.00  0.00     0.002 A 
ATOM      5  C12 <0> d   1      18.497  -1.320  13.429  0.00  0.00     0.001 A 
ATOM      6  C13 <0> d   1      19.189  -2.445  13.044  0.00  0.00     0.009 A 
ATOM      7  C14 <0> d   1      19.027  -3.003  11.773  0.00  0.00    -0.031 A 
ATOM      8  C15 <0> d   1      19.915  -4.190  11.496  0.00  0.00     0.045 C 
ATOM      9  C16 <0> d   1      19.995  -4.587  10.043  0.00  0.00     0.045 C 
ATOM     10  C17 <0> d   1      18.687  -5.101   9.521  0.00  0.00    -0.031 A 
ATOM     11  C18 <0> d   1      18.543  -6.441   9.202  0.00  0.00     0.011 A 
ATOM     12  C19 <0> d   1      17.325  -6.907   8.740  0.00  0.00     0.024 A 
ATOM     13  C20 <0> d   1      16.253  -6.042   8.597  0.00  0.00     0.036 A 
ATOM     14 Cl21 <0> d   1      14.726  -6.640   8.028  0.00  0.00    -0.084 Cl
ATOM     15  C22 <0> d   1      16.400  -4.701   8.909  0.00  0.00     0.054 A 
ATOM     16  C23 <0> d   1      17.625  -4.243   9.363  0.00  0.00     0.042 A 
ENDROOT
BRANCH   1  17
ATOM     17  C7  <0> d   1      17.765  -1.939   8.533  0.00  0.00     0.131 C 
BRANCH  17  18
ATOM     18  C6  <0> d   1      19.168  -1.676   7.984  0.00  0.00     0.048 C 
BRANCH  18  19
ATOM     19  C5  <0> d   1      19.422  -2.584   6.778  0.00  0.00     0.235 C 
BRANCH  19  20
ATOM     20  N2  <0> d   1      18.162  -2.803   6.056  0.00  0.00    -0.079 N 
ATOM     21  C1  <0> d   1      18.109  -1.919   4.883  0.00  0.00     0.269 C 
ATOM     22  H3  <0> d   1      17.384  -2.600   6.666  0.00  0.00     0.278 HD
ATOM     23  C4  <0> d   1      18.086  -4.203   5.616  0.00  0.00     0.269 C 
ENDBRANCH  19  20
ENDBRANCH  18  19
ENDBRANCH  17  18
ENDBRANCH   1  17
TORSDOF 4
ENDMDL
MODEL 4
REMARK VINA RESULT:      -6.7      3.618      7.119
REMARK  4 active torsions:
REMARK  status: ('A' for Active; 'I' for Inactive)
REMARK    1  A    between atoms: N2_2  and  C5_5 
REMARK    2  A    between atoms: C5_5  and  C6_6 
REMARK    3  A    between atoms: C6_6  and  C7_7 
REMARK    4  A    between atoms: C7_7  and  N8_8 
ROOT
ATOM      1  N8  <0> d   1      18.204   0.211  12.754  0.00  0.00    -0.346 N 
ATOM      2  C9  <0> d   1      18.413  -0.971  12.055  0.00  0.00     0.041 A 
ATOM      3  C10 <0> d   1      17.385  -1.917  12.129  0.00  0.00     0.030 A 
ATOM      4  C11 <0> d   1      17.473  -3.111  11.451  0.00  0.00     0.002 A 
ATOM      5  C12 <0> d   1      18.594  -3.373  10.685  0.00  0.00     0.001 A 
ATOM      6  C13 <0> d   1      19.611  -2.450  10.620  0.00  0.00     0.009 A 
ATOM      7  C14 <0> d   1      19.544  -1.239  11.316  0.00  0.00    -0.031 A 
ATOM      8  C15 <0> d   1      20.776  -0.379  11.189  0.00  0.00     0.045 C 
ATOM      9  C16 <0> d   1      20.856   0.752  12.184  0.00  0.00     0.045 C 
ATOM     10  C17 <0> d   1      19.786   1.779  11.964  0.00  0.00    -0.031 A 
ATOM     11  C18 <0> d   1      20.117   3.039  11.494  0.00  0.00     0.011 A 
ATOM     12  C19 <0> d   1      19.117   3.971  11.277  0.00  0.00     0.024 A 
ATOM     13  C20 <0> d   1      17.794   3.650  11.525  0.00  0.00     0.036 A 
ATOM     14 Cl21 <0> d   1      16.547   4.824  11.238  0.00  0.00    -0.084 Cl
ATOM     15  C22 <0> d   1      17.465   2.393  12.002  0.00  0.00     0.054 A 
ATOM     16  C23 <0> d   1      18.472   1.469  12.224  0.00  0.00     0.042 A 
ENDROOT
BRANCH   1  17
ATOM     17  C7  <0> d   1      17.670   0.129  14.116  0.00  0.00     0.131 C 
BRANCH  17  18
ATOM     18  C6  <0> d   1      18.824  -0.027  15.107  0.00  0.00     0.048 C 
BRANCH  18  19
ATOM     19  C5  <0> d   1      19.003   1.275  15.891  0.00  0.00     0.235 C 
BRANCH  19  20
ATOM     20  N2  <0> d   1      19.267   0.965  17.302  0.00  0.00    -0.079 N 
ATOM     21  C1  <0> d   1      18.380   1.769  18.154  0.00  0.00     0.269 C 
ATOM     22  H3  <0> d   1      20.229   1.180  17.520  0.00  0.00     0.278 HD
ATOM     23  C4  <0> d   1      19.016  -0.462  17.546  0.00  0.00     0.269 C 
ENDBRANCH  19  20
ENDBRANCH  18  19
ENDBRANCH  17  18
ENDBRANCH   1  17
TORSDOF 4
ENDMDL
MODEL 5
REMARK VINA RESULT:      -6.7      3.240      6.700
REMARK  4 active torsions:
REMARK  status: ('A' for Active; 'I' for Inactive)
REMARK    1  A    between atoms: N2_2  and  C5_5 
REMARK    2  A    between atoms: C5_5  and  C6_6 
REMARK    3  A    between atoms: C6_6  and  C7_7 
REMARK    4  A    between atoms: C7_7  and  N8_8 
ROOT
ATOM      1  N8  <0> d   1      18.860  -0.569  11.475  0.00  0.00    -0.346 N 
ATOM      2  C9  <0> d   1      18.369  -1.756  10.946  0.00  0.00     0.041 A 
ATOM      3  C10 <0> d   1      17.746  -2.620  11.854  0.00  0.00     0.030 A 
ATOM      4  C11 <0> d   1      17.197  -3.810  11.434  0.00  0.00     0.002 A 
ATOM      5  C12 <0> d   1      17.262  -4.150  10.095  0.00  0.00     0.001 A 
ATOM      6  C13 <0> d   1      17.884  -3.307   9.203  0.00  0.00     0.009 A 
ATOM      7  C14 <0> d   1      18.461  -2.103   9.617  0.00  0.00    -0.031 A 
ATOM      8  C15 <0> d   1      19.162  -1.340   8.521  0.00  0.00     0.045 C 
ATOM      9  C16 <0> d   1      20.060  -0.230   9.007  0.00  0.00     0.045 C 
ATOM     10  C17 <0> d   1      19.291   0.880   9.660  0.00  0.00    -0.031 A 
ATOM     11  C18 <0> d   1      19.193   2.115   9.042  0.00  0.00     0.011 A 
ATOM     12  C19 <0> d   1      18.464   3.125   9.645  0.00  0.00     0.024 A 
ATOM     13  C20 <0> d   1      17.833   2.905  10.857  0.00  0.00     0.036 A 
ATOM     14 Cl21 <0> d   1      16.911   4.175  11.599  0.00  0.00    -0.084 Cl
ATOM     15  C22 <0> d   1      17.938   1.672  11.478  0.00  0.00     0.054 A 
ATOM     16  C23 <0> d   1      18.676   0.670  10.871  0.00  0.00     0.042 A 
ENDROOT
BRANCH   1  17
ATOM     17  C7  <0> d   1      19.605  -0.625  12.736  0.00  0.00     0.131 C 
BRANCH  17  18
ATOM     18  C6  <0> d   1      18.715  -0.129  13.876  0.00  0.00     0.048 C 
BRANCH  18  19
ATOM     19  C5  <0> d   1      18.857  -1.066  15.078  0.00  0.00     0.235 C 
BRANCH  19  20
ATOM     20  N2  <0> d   1      18.573  -0.324  16.314  0.00  0.00    -0.079 N 
ATOM     21  C1  <0> d   1      18.634   1.119  16.044  0.00  0.00     0.269 C 
ATOM     22  H3  <0> d   1      19.258  -0.564  17.015  0.00  0.00     0.278 HD
ATOM     23  C4  <0> d   1      17.231  -0.674  16.799  0.00  0.00     0.269 C 
ENDBRANCH  19  20
ENDBRANCH  18  19
ENDBRANCH  17  18
ENDBRANCH   1  17
TORSDOF 4
ENDMDL
MODEL 6
REMARK VINA RESULT:      -6.5      3.255      5.937
REMARK  4 active torsions:
REMARK  status: ('A' for Active; 'I' for Inactive)
REMARK    1  A    between atoms: N2_2  and  C5_5 
REMARK    2  A    between atoms: C5_5  and  C6_6 
REMARK    3  A    between atoms: C6_6  and  C7_7 
REMARK    4  A    between atoms: C7_7  and  N8_8 
ROOT
ATOM      1  N8  <0> d   1      19.125  -0.091  12.690  0.00  0.00    -0.346 N 
ATOM      2  C9  <0> d   1      18.951   1.071  11.950  0.00  0.00     0.041 A 
ATOM      3  C10 <0> d   1      19.960   2.034  12.074  0.00  0.00     0.030 A 
ATOM      4  C11 <0> d   1      19.906   3.211  11.363  0.00  0.00     0.002 A 
ATOM      5  C12 <0> d   1      18.840   3.438  10.512  0.00  0.00     0.001 A 
ATOM      6  C13 <0> d   1      17.842   2.499  10.397  0.00  0.00     0.009 A 
ATOM      7  C14 <0> d   1      17.874   1.306  11.125  0.00  0.00    -0.031 A 
ATOM      8  C15 <0> d   1      16.665   0.426  10.930  0.00  0.00     0.045 C 
ATOM      9  C16 <0> d   1      16.528  -0.683  11.944  0.00  0.00     0.045 C 
ATOM     10  C17 <0> d   1      17.624  -1.699  11.827  0.00  0.00    -0.031 A 
ATOM     11  C18 <0> d   1      17.344  -2.974  11.365  0.00  0.00     0.011 A 
ATOM     12  C19 <0> d   1      18.368  -3.897  11.243  0.00  0.00     0.024 A 
ATOM     13  C20 <0> d   1      19.666  -3.552  11.578  0.00  0.00     0.036 A 
ATOM     14 Cl21 <0> d   1      20.945  -4.714  11.409  0.00  0.00    -0.084 Cl
ATOM     15  C22 <0> d   1      19.944  -2.279  12.046  0.00  0.00     0.054 A 
ATOM     16  C23 <0> d   1      18.912  -1.365  12.173  0.00  0.00     0.042 A 
ENDROOT
BRANCH   1  17
ATOM     17  C7  <0> d   1      19.558   0.031  14.084  0.00  0.00     0.131 C 
BRANCH  17  18
ATOM     18  C6  <0> d   1      18.435  -0.437  15.010  0.00  0.00     0.048 C 
BRANCH  18  19
ATOM     19  C5  <0> d   1      19.035  -1.172  16.210  0.00  0.00     0.235 C 
BRANCH  19  20
ATOM     20  N2  <0> d   1      18.416  -0.678  17.448  0.00  0.00    -0.079 N 
ATOM     21  C1  <0> d   1      19.348   0.228  18.133  0.00  0.00     0.269 C 
ATOM     22  H3  <0> d   1      18.201  -1.458  18.051  0.00  0.00     0.278 HD
ATOM     23  C4  <0> d   1      17.180   0.046  17.122  0.00  0.00     0.269 C 
ENDBRANCH  19  20
ENDBRANCH  18  19
ENDBRANCH  17  18
ENDBRANCH   1  17
TORSDOF 4
ENDMDL
MODEL 7
REMARK VINA RESULT:      -6.5      3.455      7.155
REMARK  4 active torsions:
REMARK  status: ('A' for Active; 'I' for Inactive)
REMARK    1  A    between atoms: N2_2  and  C5_5 
REMARK    2  A    between atoms: C5_5  and  C6_6 
REMARK    3  A    between atoms: C6_6  and  C7_7 
REMARK    4  A    between atoms: C7_7  and  N8_8 
ROOT
ATOM      1  N8  <0> d   1      18.735   1.402  11.883  0.00  0.00    -0.346 N 
ATOM      2  C9  <0> d   1      18.359   0.188  11.322  0.00  0.00     0.041 A 
ATOM      3  C10 <0> d   1      18.151  -0.864  12.221  0.00  0.00     0.030 A 
ATOM      4  C11 <0> d   1      17.747  -2.103  11.779  0.00  0.00     0.002 A 
ATOM      5  C12 <0> d   1      17.542  -2.304  10.426  0.00  0.00     0.001 A 
ATOM      6  C13 <0> d   1      17.756  -1.274   9.539  0.00  0.00     0.009 A 
ATOM      7  C14 <0> d   1      18.183  -0.015   9.971  0.00  0.00    -0.031 A 
ATOM      8  C15 <0> d   1      18.436   0.972   8.860  0.00  0.00     0.045 C 
ATOM      9  C16 <0> d   1      19.203   2.202   9.277  0.00  0.00     0.045 C 
ATOM     10  C17 <0> d   1      18.426   3.061  10.229  0.00  0.00    -0.031 A 
ATOM     11  C18 <0> d   1      17.950   4.296   9.821  0.00  0.00     0.011 A 
ATOM     12  C19 <0> d   1      17.217   5.071  10.703  0.00  0.00     0.024 A 
ATOM     13  C20 <0> d   1      16.958   4.617  11.985  0.00  0.00     0.036 A 
ATOM     14 Cl21 <0> d   1      16.027   5.593  13.079  0.00  0.00    -0.084 Cl
ATOM     15  C22 <0> d   1      17.440   3.386  12.394  0.00  0.00     0.054 A 
ATOM     16  C23 <0> d   1      18.179   2.621  11.508  0.00  0.00     0.042 A 
ENDROOT
BRANCH   1  17
ATOM     17  C7  <0> d   1      19.765   1.398  12.925  0.00  0.00     0.131 C 
BRANCH  17  18
ATOM     18  C6  <0> d   1      19.180   0.825  14.217  0.00  0.00     0.048 C 
BRANCH  18  19
ATOM     19  C5  <0> d   1      19.097   1.930  15.272  0.00  0.00     0.235 C 
BRANCH  19  20
ATOM     20  N2  <0> d   1      18.099   1.563  16.287  0.00  0.00    -0.079 N 
ATOM     21  C1  <0> d   1      17.589   0.214  16.007  0.00  0.00     0.269 C 
ATOM     22  H3  <0> d   1      17.336   2.223  16.263  0.00  0.00     0.278 HD
ATOM     23  C4  <0> d   1      18.723   1.584  17.617  0.00  0.00     0.269 C 
ENDBRANCH  19  20
ENDBRANCH  18  19
ENDBRANCH  17  18
ENDBRANCH   1  17
TORSDOF 4
ENDMDL
MODEL 8
REMARK VINA RESULT:      -6.5      4.801      8.151
REMARK  4 active torsions:
REMARK  status: ('A' for Active; 'I' for Inactive)
REMARK    1  A    between atoms: N2_2  and  C5_5 
REMARK    2  A    between atoms: C5_5  and  C6_6 
REMARK    3  A    between atoms: C6_6  and  C7_7 
REMARK    4  A    between atoms: C7_7  and  N8_8 
ROOT
ATOM      1  N8  <0> d   1      18.804   2.140  14.641  0.00  0.00    -0.346 N 
ATOM      2  C9  <0> d   1      18.482   0.915  15.211  0.00  0.00     0.041 A 
ATOM      3  C10 <0> d   1      17.771   0.967  16.415  0.00  0.00     0.030 A 
ATOM      4  C11 <0> d   1      17.373  -0.187  17.052  0.00  0.00     0.002 A 
ATOM      5  C12 <0> d   1      17.680  -1.411  16.487  0.00  0.00     0.001 A 
ATOM      6  C13 <0> d   1      18.389  -1.465  15.309  0.00  0.00     0.009 A 
ATOM      7  C14 <0> d   1      18.814  -0.303  14.659  0.00  0.00    -0.031 A 
ATOM      8  C15 <0> d   1      19.638  -0.548  13.421  0.00  0.00     0.045 C 
ATOM      9  C16 <0> d   1      20.373   0.665  12.907  0.00  0.00     0.045 C 
ATOM     10  C17 <0> d   1      19.440   1.725  12.404  0.00  0.00    -0.031 A 
ATOM     11  C18 <0> d   1      19.370   2.004  11.049  0.00  0.00     0.011 A 
ATOM     12  C19 <0> d   1      18.490   2.971  10.596  0.00  0.00     0.024 A 
ATOM     13  C20 <0> d   1      17.681   3.656  11.487  0.00  0.00     0.036 A 
ATOM     14 Cl21 <0> d   1      16.572   4.859  10.905  0.00  0.00    -0.084 Cl
ATOM     15  C22 <0> d   1      17.757   3.381  12.842  0.00  0.00     0.054 A 
ATOM     16  C23 <0> d   1      18.646   2.417  13.287  0.00  0.00     0.042 A 
ENDROOT
BRANCH   1  17
ATOM     17  C7  <0> d   1      19.331   3.194  15.511  0.00  0.00     0.131 C 
BRANCH  17  18
ATOM     18  C6  <0> d   1      18.328   4.347  15.581  0.00  0.00     0.048 C 
BRANCH  18  19
ATOM     19  C5  <0> d   1      18.363   4.968  16.979  0.00  0.00     0.235 C 
BRANCH  19  20
ATOM     20  N2  <0> d   1      17.327   4.349  17.817  0.00  0.00    -0.079 N 
ATOM     21  C1  <0> d   1      17.958   3.678  18.961  0.00  0.00     0.269 C 
ATOM     22  H3  <0> d   1      16.813   3.673  17.271  0.00  0.00     0.278 HD
ATOM     23  C4  <0> d   1      16.407   5.386  18.305  0.00  0.00     0.269 C 
ENDBRANCH  19  20
ENDBRANCH  18  19
ENDBRANCH  17  18
ENDBRANCH   1  17
TORSDOF 4
ENDMDL
MODEL 9
REMARK VINA RESULT:      -6.4      2.238      3.332
REMARK  4 active torsions:
REMARK  status: ('A' for Active; 'I' for Inactive)
REMARK    1  A    between atoms: N2_2  and  C5_5 
REMARK    2  A    between atoms: C5_5  and  C6_6 
REMARK    3  A    between atoms: C6_6  and  C7_7 
REMARK    4  A    between atoms: C7_7  and  N8_8 
ROOT
ATOM      1  N8  <0> d   1      18.563   2.307  11.833  0.00  0.00    -0.346 N 
ATOM      2  C9  <0> d   1      17.840   3.408  12.276  0.00  0.00     0.041 A 
ATOM      3  C10 <0> d   1      17.260   4.202  11.280  0.00  0.00     0.030 A 
ATOM      4  C11 <0> d   1      16.498   5.300  11.607  0.00  0.00     0.002 A 
ATOM      5  C12 <0> d   1      16.303   5.616  12.939  0.00  0.00     0.001 A 
ATOM      6  C13 <0> d   1      16.882   4.844  13.919  0.00  0.00     0.009 A 
ATOM      7  C14 <0> d   1      17.672   3.736  13.603  0.00  0.00    -0.031 A 
ATOM      8  C15 <0> d   1      18.285   3.048  14.797  0.00  0.00     0.045 C 
ATOM      9  C16 <0> d   1      19.389   2.076  14.462  0.00  0.00     0.045 C 
ATOM     10  C17 <0> d   1      18.889   0.889  13.694  0.00  0.00    -0.031 A 
ATOM     11  C18 <0> d   1      18.859  -0.361  14.288  0.00  0.00     0.011 A 
ATOM     12  C19 <0> d   1      18.376  -1.445  13.576  0.00  0.00     0.024 A 
ATOM     13  C20 <0> d   1      17.923  -1.284  12.278  0.00  0.00     0.036 A 
ATOM     14 Cl21 <0> d   1      17.307  -2.648  11.397  0.00  0.00    -0.084 Cl
ATOM     15  C22 <0> d   1      17.959  -0.035  11.682  0.00  0.00     0.054 A 
ATOM     16  C23 <0> d   1      18.451   1.042  12.400  0.00  0.00     0.042 A 
ENDROOT
BRANCH   1  17
ATOM     17  C7  <0> d   1      19.484   2.487  10.708  0.00  0.00     0.131 C 
BRANCH  17  18
ATOM     18  C6  <0> d   1      18.729   2.291   9.393  0.00  0.00     0.048 C 
BRANCH  18  19
ATOM     19  C5  <0> d   1      19.515   1.339   8.490  0.00  0.00     0.235 C 
BRANCH  19  20
ATOM     20  N2  <0> d   1      18.582   0.454   7.781  0.00  0.00    -0.079 N 
ATOM     21  C1  <0> d   1      18.669   0.707   6.336  0.00  0.00     0.269 C 
ATOM     22  H3  <0> d   1      17.641   0.634   8.097  0.00  0.00     0.278 HD
ATOM     23  C4  <0> d   1      18.932  -0.947   8.054  0.00  0.00     0.269 C 
ENDBRANCH  19  20
ENDBRANCH  18  19
ENDBRANCH  17  18
ENDBRANCH   1  17
TORSDOF 4
ENDMDL
