MODEL 1
REMARK VINA RESULT:      -7.8      0.000      0.000
REMARK  6 active torsions:
REMARK  status: ('A' for Active; 'I' for Inactive)
REMARK    1  A    between atoms: C5_5  and  C6_6 
REMARK    2  A    between atoms: C6_6  and  C8_7 
REMARK    3  A    between atoms: C6_6  and  O14_13 
REMARK    4  A    between atoms: C8_7  and  N9_8 
REMARK    5  A    between atoms: O14_13  and  C15_14 
REMARK    6  A    between atoms: C15_14  and  C16_15 
ROOT
ATOM      1  C6  ZIN A   1      19.134   0.639  14.166  0.00  0.00     0.174 C 
ENDROOT
BRANCH   1   2
ATOM      2  C5  ZIN A   1      18.877   1.607  13.040  0.00  0.00    -0.006 A 
ATOM      3  C4  ZIN A   1      17.737   2.388  13.045  0.00  0.00     0.013 A 
ATOM      4  C3  ZIN A   1      17.500   3.275  12.012  0.00  0.00     0.024 A 
ATOM      5  C2  ZIN A   1      18.407   3.382  10.972  0.00  0.00     0.035 A 
ATOM      6 Cl1  ZIN A   1      18.110   4.498   9.675  0.00  0.00    -0.084 Cl
ATOM      7  C28 ZIN A   1      19.545   2.597  10.962  0.00  0.00     0.048 A 
ATOM      8  C26 ZIN A   1      19.783   1.713  11.999  0.00  0.00     0.044 A 
ATOM      9 Cl27 ZIN A   1      21.216   0.732  11.991  0.00  0.00    -0.084 Cl
ENDBRANCH   1   2
BRANCH   1  10
ATOM     10  C8  ZIN A   1      18.014   0.754  15.202  0.00  0.00     0.166 C 
BRANCH  10  11
ATOM     11  N9  ZIN A   1      18.585   0.678  16.549  0.00  0.00    -0.347 N 
ATOM     12  C13 ZIN A   1      19.252   1.661  17.192  0.00  0.00     0.209 A 
ATOM     13  N12 ZIN A   1      19.606   1.224  18.371  0.00  0.00    -0.255 NA
ATOM     14  C11 ZIN A   1      19.188  -0.042  18.516  0.00  0.00     0.135 A 
ATOM     15  C10 ZIN A   1      18.547  -0.402  17.388  0.00  0.00     0.111 A 
ENDBRANCH  10  11
ENDBRANCH   1  10
BRANCH   1  16
ATOM     16  O14 ZIN A   1      19.169  -0.694  13.649  0.00  0.00    -0.375 OA
BRANCH  16  17
ATOM     17  C15 ZIN A   1      17.926  -1.137  13.102  0.00  0.00     0.208 C 
BRANCH  17  18
ATOM     18  C16 ZIN A   1      18.187  -1.962  11.868  0.00  0.00    -0.016 A 
ATOM     19  C25 ZIN A   1      17.951  -1.455  10.525  0.00  0.00    -0.009 A 
ATOM     20  C19 ZIN A   1      18.272  -2.403   9.549  0.00  0.00     0.037 A 
ATOM     21  C24 ZIN A   1      17.480  -0.189  10.116  0.00  0.00     0.013 A 
ATOM     22  S18 ZIN A   1      18.837  -3.880  10.321  0.00  0.00    -0.099 SA
ATOM     23  C20 ZIN A   1      18.110  -2.087   8.196  0.00  0.00     0.052 A 
ATOM     24  C17 ZIN A   1      18.641  -3.198  11.923  0.00  0.00     0.060 A 
ATOM     25 Cl21 ZIN A   1      18.501  -3.264   6.980  0.00  0.00    -0.083 Cl
ATOM     26  C22 ZIN A   1      17.644  -0.847   7.826  0.00  0.00     0.025 A 
ATOM     27  C23 ZIN A   1      17.330   0.097   8.795  0.00  0.00     0.003 A 
ENDBRANCH  17  18
ENDBRANCH  16  17
ENDBRANCH   1  16
TORSDOF 6
ENDMDL
MODEL 2
REMARK VINA RESULT:      -7.8      3.754      7.385
REMARK  6 active torsions:
REMARK  status: ('A' for Active; 'I' for Inactive)
REMARK    1  A    between atoms: C5_5  and  C6_6 
REMARK    2  A    between atoms: C6_6  and  C8_7 
REMARK    3  A    between atoms: C6_6  and  O14_13 
REMARK    4  A    between atoms: C8_7  and  N9_8 
REMARK    5  A    between atoms: O14_13  and  C15_14 
REMARK    6  A    between atoms: C15_14  and  C16_15 
ROOT
ATOM      1  C6  ZIN A   1      18.495   0.813  10.846  0.00  0.00     0.174 C 
ENDROOT
BRANCH   1   2
ATOM      2  C5  ZIN A   1      18.518  -0.674  11.086  0.00  0.00    -0.006 A 
ATOM      3  C4  ZIN A   1      17.340  -1.353  11.334  0.00  0.00     0.013 A 
ATOM      4  C3  ZIN A   1      17.360  -2.717  11.555  0.00  0.00     0.024 A 
ATOM      5  C2  ZIN A   1      18.562  -3.404  11.529  0.00  0.00     0.035 A 
ATOM      6 Cl1  ZIN A   1      18.586  -5.117  11.806  0.00  0.00    -0.084 Cl
ATOM      7  C28 ZIN A   1      19.742  -2.724  11.287  0.00  0.00     0.048 A 
ATOM      8  C26 ZIN A   1      19.719  -1.360  11.061  0.00  0.00     0.044 A 
ATOM      9 Cl27 ZIN A   1      21.200  -0.508  10.751  0.00  0.00    -0.084 Cl
ENDBRANCH   1   2
BRANCH   1  10
ATOM     10  C8  ZIN A   1      17.442   1.143   9.786  0.00  0.00     0.166 C 
BRANCH  10  11
ATOM     11  N9  ZIN A   1      17.946   0.768   8.463  0.00  0.00    -0.347 N 
ATOM     12  C13 ZIN A   1      19.044   1.265   7.854  0.00  0.00     0.209 A 
ATOM     13  N12 ZIN A   1      19.173   0.688   6.690  0.00  0.00    -0.255 NA
ATOM     14  C11 ZIN A   1      18.168  -0.182   6.514  0.00  0.00     0.135 A 
ATOM     15  C10 ZIN A   1      17.389  -0.147   7.612  0.00  0.00     0.111 A 
ENDBRANCH  10  11
ENDBRANCH   1  10
BRANCH   1  16
ATOM     16  O14 ZIN A   1      18.172   1.488  12.064  0.00  0.00    -0.375 OA
BRANCH  16  17
ATOM     17  C15 ZIN A   1      19.301   2.063  12.727  0.00  0.00     0.208 C 
BRANCH  17  18
ATOM     18  C16 ZIN A   1      19.084   2.015  14.217  0.00  0.00    -0.016 A 
ATOM     19  C25 ZIN A   1      19.067   0.768  14.965  0.00  0.00    -0.009 A 
ATOM     20  C19 ZIN A   1      18.855   0.983  16.329  0.00  0.00     0.037 A 
ATOM     21  C24 ZIN A   1      19.246  -0.554  14.504  0.00  0.00     0.013 A 
ATOM     22  S18 ZIN A   1      18.672   2.706  16.636  0.00  0.00    -0.099 SA
ATOM     23  C20 ZIN A   1      18.811  -0.107  17.205  0.00  0.00     0.052 A 
ATOM     24  C17 ZIN A   1      18.891   3.099  14.942  0.00  0.00     0.060 A 
ATOM     25 Cl21 ZIN A   1      18.540   0.155  18.900  0.00  0.00    -0.083 Cl
ATOM     26  C22 ZIN A   1      18.982  -1.386  16.727  0.00  0.00     0.025 A 
ATOM     27  C23 ZIN A   1      19.200  -1.600  15.373  0.00  0.00     0.003 A 
ENDBRANCH  17  18
ENDBRANCH  16  17
ENDBRANCH   1  16
TORSDOF 6
ENDMDL
MODEL 3
REMARK VINA RESULT:      -7.7      4.351      7.938
REMARK  6 active torsions:
REMARK  status: ('A' for Active; 'I' for Inactive)
REMARK    1  A    between atoms: C5_5  and  C6_6 
REMARK    2  A    between atoms: C6_6  and  C8_7 
REMARK    3  A    between atoms: C6_6  and  O14_13 
REMARK    4  A    between atoms: C8_7  and  N9_8 
REMARK    5  A    between atoms: O14_13  and  C15_14 
REMARK    6  A    between atoms: C15_14  and  C16_15 
ROOT
ATOM      1  C6  ZIN A   1      19.444  -1.439   8.814  0.00  0.00     0.174 C 
ENDROOT
BRANCH   1   2
ATOM      2  C5  ZIN A   1      18.916  -2.548   9.688  0.00  0.00    -0.006 A 
ATOM      3  C4  ZIN A   1      18.282  -2.247  10.879  0.00  0.00     0.013 A 
ATOM      4  C3  ZIN A   1      17.799  -3.264  11.681  0.00  0.00     0.024 A 
ATOM      5  C2  ZIN A   1      17.949  -4.583  11.291  0.00  0.00     0.035 A 
ATOM      6 Cl1  ZIN A   1      17.341  -5.860  12.298  0.00  0.00    -0.084 Cl
ATOM      7  C28 ZIN A   1      18.588  -4.885  10.102  0.00  0.00     0.048 A 
ATOM      8  C26 ZIN A   1      19.067  -3.867   9.298  0.00  0.00     0.044 A 
ATOM      9 Cl27 ZIN A   1      19.863  -4.244   7.802  0.00  0.00    -0.084 Cl
ENDBRANCH   1   2
BRANCH   1  10
ATOM     10  C8  ZIN A   1      18.302  -0.866   7.971  0.00  0.00     0.166 C 
BRANCH  10  11
ATOM     11  N9  ZIN A   1      18.742  -0.729   6.581  0.00  0.00    -0.347 N 
ATOM     12  C13 ZIN A   1      19.304  -1.692   5.820  0.00  0.00     0.209 A 
ATOM     13  N12 ZIN A   1      19.558  -1.197   4.639  0.00  0.00    -0.255 NA
ATOM     14  C11 ZIN A   1      19.179   0.088   4.608  0.00  0.00     0.135 A 
ATOM     15  C10 ZIN A   1      18.665   0.401   5.813  0.00  0.00     0.111 A 
ENDBRANCH  10  11
ENDBRANCH   1  10
BRANCH   1  16
ATOM     16  O14 ZIN A   1      19.994  -0.407   9.635  0.00  0.00    -0.375 OA
BRANCH  16  17
ATOM     17  C15 ZIN A   1      19.379   0.871   9.451  0.00  0.00     0.208 C 
BRANCH  17  18
ATOM     18  C16 ZIN A   1      19.024   1.454  10.795  0.00  0.00    -0.016 A 
ATOM     19  C25 ZIN A   1      18.383   2.751  10.939  0.00  0.00    -0.009 A 
ATOM     20  C19 ZIN A   1      18.152   3.070  12.280  0.00  0.00     0.037 A 
ATOM     21  C24 ZIN A   1      17.975   3.664   9.942  0.00  0.00     0.013 A 
ATOM     22  S18 ZIN A   1      18.744   1.771  13.308  0.00  0.00    -0.099 SA
ATOM     23  C20 ZIN A   1      17.538   4.284  12.609  0.00  0.00     0.052 A 
ATOM     24  C17 ZIN A   1      19.277   0.831  11.929  0.00  0.00     0.060 A 
ATOM     25 Cl21 ZIN A   1      17.256   4.688  14.274  0.00  0.00    -0.083 Cl
ATOM     26  C22 ZIN A   1      17.156   5.157  11.616  0.00  0.00     0.025 A 
ATOM     27  C23 ZIN A   1      17.379   4.838  10.284  0.00  0.00     0.003 A 
ENDBRANCH  17  18
ENDBRANCH  16  17
ENDBRANCH   1  16
TORSDOF 6
ENDMDL
MODEL 4
REMARK VINA RESULT:      -7.6      2.530      3.626
REMARK  6 active torsions:
REMARK  status: ('A' for Active; 'I' for Inactive)
REMARK    1  A    between atoms: C5_5  and  C6_6 
REMARK    2  A    between atoms: C6_6  and  C8_7 
REMARK    3  A    between atoms: C6_6  and  O14_13 
REMARK    4  A    between atoms: C8_7  and  N9_8 
REMARK    5  A    between atoms: O14_13  and  C15_14 
REMARK    6  A    between atoms: C15_14  and  C16_15 
ROOT
ATOM      1  C6  ZIN A   1      17.994  -1.325  11.636  0.00  0.00     0.174 C 
ENDROOT
BRANCH   1   2
ATOM      2  C5  ZIN A   1      18.240  -0.676  10.299  0.00  0.00    -0.006 A 
ATOM      3  C4  ZIN A   1      17.201  -0.528   9.400  0.00  0.00     0.013 A 
ATOM      4  C3  ZIN A   1      17.427   0.066   8.172  0.00  0.00     0.024 A 
ATOM      5  C2  ZIN A   1      18.694   0.513   7.843  0.00  0.00     0.035 A 
ATOM      6 Cl1  ZIN A   1      18.977   1.261   6.302  0.00  0.00    -0.084 Cl
ATOM      7  C28 ZIN A   1      19.736   0.361   8.740  0.00  0.00     0.048 A 
ATOM      8  C26 ZIN A   1      19.508  -0.229   9.970  0.00  0.00     0.044 A 
ATOM      9 Cl27 ZIN A   1      20.814  -0.415  11.099  0.00  0.00    -0.084 Cl
ENDBRANCH   1   2
BRANCH   1  10
ATOM     10  C8  ZIN A   1      17.327  -0.318  12.576  0.00  0.00     0.166 C 
BRANCH  10  11
ATOM     11  N9  ZIN A   1      17.915  -0.434  13.913  0.00  0.00    -0.347 N 
ATOM     12  C13 ZIN A   1      18.883  -1.296  14.290  0.00  0.00     0.209 A 
ATOM     13  N12 ZIN A   1      19.149  -1.101  15.553  0.00  0.00    -0.255 NA
ATOM     14  C11 ZIN A   1      18.362  -0.122  16.023  0.00  0.00     0.135 A 
ATOM     15  C10 ZIN A   1      17.583   0.309  15.013  0.00  0.00     0.111 A 
ENDBRANCH  10  11
ENDBRANCH   1  10
BRANCH   1  16
ATOM     16  O14 ZIN A   1      17.138  -2.457  11.466  0.00  0.00    -0.375 OA
BRANCH  16  17
ATOM     17  C15 ZIN A   1      17.836  -3.696  11.321  0.00  0.00     0.208 C 
BRANCH  17  18
ATOM     18  C16 ZIN A   1      17.318  -4.424  10.108  0.00  0.00    -0.016 A 
ATOM     19  C25 ZIN A   1      17.930  -4.289   8.795  0.00  0.00    -0.009 A 
ATOM     20  C19 ZIN A   1      17.274  -5.064   7.835  0.00  0.00     0.037 A 
ATOM     21  C24 ZIN A   1      19.052  -3.527   8.405  0.00  0.00     0.013 A 
ATOM     22  S18 ZIN A   1      15.926  -5.915   8.580  0.00  0.00    -0.099 SA
ATOM     23  C20 ZIN A   1      17.729  -5.061   6.512  0.00  0.00     0.052 A 
ATOM     24  C17 ZIN A   1      16.272  -5.225  10.153  0.00  0.00     0.060 A 
ATOM     25 Cl21 ZIN A   1      16.914  -6.017   5.313  0.00  0.00    -0.083 Cl
ATOM     26  C22 ZIN A   1      18.822  -4.303   6.159  0.00  0.00     0.025 A 
ATOM     27  C23 ZIN A   1      19.478  -3.538   7.113  0.00  0.00     0.003 A 
ENDBRANCH  17  18
ENDBRANCH  16  17
ENDBRANCH   1  16
TORSDOF 6
ENDMDL
MODEL 5
REMARK VINA RESULT:      -7.6      4.156      7.807
REMARK  6 active torsions:
REMARK  status: ('A' for Active; 'I' for Inactive)
REMARK    1  A    between atoms: C5_5  and  C6_6 
REMARK    2  A    between atoms: C6_6  and  C8_7 
REMARK    3  A    between atoms: C6_6  and  O14_13 
REMARK    4  A    between atoms: C8_7  and  N9_8 
REMARK    5  A    between atoms: O14_13  and  C15_14 
REMARK    6  A    between atoms: C15_14  and  C16_15 
ROOT
ATOM      1  C6  ZIN A   1      17.987   1.333  11.264  0.00  0.00     0.174 C 
ENDROOT
BRANCH   1   2
ATOM      2  C5  ZIN A   1      18.275   0.622  12.561  0.00  0.00    -0.006 A 
ATOM      3  C4  ZIN A   1      17.329   0.610  13.568  0.00  0.00     0.013 A 
ATOM      4  C3  ZIN A   1      17.593  -0.041  14.758  0.00  0.00     0.024 A 
ATOM      5  C2  ZIN A   1      18.806  -0.682  14.941  0.00  0.00     0.035 A 
ATOM      6 Cl1  ZIN A   1      19.137  -1.501  16.436  0.00  0.00    -0.084 Cl
ATOM      7  C28 ZIN A   1      19.756  -0.665  13.936  0.00  0.00     0.048 A 
ATOM      8  C26 ZIN A   1      19.488  -0.018  12.744  0.00  0.00     0.044 A 
ATOM      9 Cl27 ZIN A   1      20.677  -0.003  11.479  0.00  0.00    -0.084 Cl
ENDBRANCH   1   2
BRANCH   1  10
ATOM     10  C8  ZIN A   1      17.259   0.382  10.311  0.00  0.00     0.166 C 
BRANCH  10  11
ATOM     11  N9  ZIN A   1      17.807   0.529   8.961  0.00  0.00    -0.347 N 
ATOM     12  C13 ZIN A   1      18.818   1.345   8.591  0.00  0.00     0.209 A 
ATOM     13  N12 ZIN A   1      19.026   1.200   7.311  0.00  0.00    -0.255 NA
ATOM     14  C11 ZIN A   1      18.158   0.301   6.822  0.00  0.00     0.135 A 
ATOM     15  C10 ZIN A   1      17.388  -0.131   7.838  0.00  0.00     0.111 A 
ENDBRANCH  10  11
ENDBRANCH   1  10
BRANCH   1  16
ATOM     16  O14 ZIN A   1      17.164   2.474  11.519  0.00  0.00    -0.375 OA
BRANCH  16  17
ATOM     17  C15 ZIN A   1      17.888   3.702  11.620  0.00  0.00     0.208 C 
BRANCH  17  18
ATOM     18  C16 ZIN A   1      17.358   4.501  12.782  0.00  0.00    -0.016 A 
ATOM     19  C25 ZIN A   1      17.877   4.355  14.133  0.00  0.00    -0.009 A 
ATOM     20  C19 ZIN A   1      17.229   5.206  15.033  0.00  0.00     0.037 A 
ATOM     21  C24 ZIN A   1      18.909   3.518  14.610  0.00  0.00     0.013 A 
ATOM     22  S18 ZIN A   1      16.001   6.139  14.187  0.00  0.00    -0.099 SA
ATOM     23  C20 ZIN A   1      17.602   5.203  16.381  0.00  0.00     0.052 A 
ATOM     24  C17 ZIN A   1      16.385   5.381  12.654  0.00  0.00     0.060 A 
ATOM     25 Cl21 ZIN A   1      16.795   6.253  17.505  0.00  0.00    -0.083 Cl
ATOM     26  C22 ZIN A   1      18.607   4.372  16.819  0.00  0.00     0.025 A 
ATOM     27  C23 ZIN A   1      19.256   3.531  15.925  0.00  0.00     0.003 A 
ENDBRANCH  17  18
ENDBRANCH  16  17
ENDBRANCH   1  16
TORSDOF 6
ENDMDL
MODEL 6
REMARK VINA RESULT:      -7.5      3.574      6.416
REMARK  6 active torsions:
REMARK  status: ('A' for Active; 'I' for Inactive)
REMARK    1  A    between atoms: C5_5  and  C6_6 
REMARK    2  A    between atoms: C6_6  and  C8_7 
REMARK    3  A    between atoms: C6_6  and  O14_13 
REMARK    4  A    between atoms: C8_7  and  N9_8 
REMARK    5  A    between atoms: O14_13  and  C15_14 
REMARK    6  A    between atoms: C15_14  and  C16_15 
ROOT
ATOM      1  C6  ZIN A   1      18.455  -2.440  10.914  0.00  0.00     0.174 C 
ENDROOT
BRANCH   1   2
ATOM      2  C5  ZIN A   1      18.588  -1.477   9.762  0.00  0.00    -0.006 A 
ATOM      3  C4  ZIN A   1      17.636  -1.462   8.760  0.00  0.00     0.013 A 
ATOM      4  C3  ZIN A   1      17.759  -0.580   7.704  0.00  0.00     0.024 A 
ATOM      5  C2  ZIN A   1      18.835   0.289   7.649  0.00  0.00     0.035 A 
ATOM      6 Cl1  ZIN A   1      18.987   1.398   6.321  0.00  0.00    -0.084 Cl
ATOM      7  C28 ZIN A   1      19.791   0.270   8.648  0.00  0.00     0.048 A 
ATOM      8  C26 ZIN A   1      19.665  -0.610   9.708  0.00  0.00     0.044 A 
ATOM      9 Cl27 ZIN A   1      20.861  -0.629  10.966  0.00  0.00    -0.084 Cl
ENDBRANCH   1   2
BRANCH   1  10
ATOM     10  C8  ZIN A   1      19.620  -3.432  10.887  0.00  0.00     0.166 C 
BRANCH  10  11
ATOM     11  N9  ZIN A   1      19.235  -4.618  10.118  0.00  0.00    -0.347 N 
ATOM     12  C13 ZIN A   1      20.046  -5.368   9.342  0.00  0.00     0.209 A 
ATOM     13  N12 ZIN A   1      19.346  -6.339   8.822  0.00  0.00    -0.255 NA
ATOM     14  C11 ZIN A   1      18.075  -6.239   9.237  0.00  0.00     0.135 A 
ATOM     15  C10 ZIN A   1      17.984  -5.169  10.049  0.00  0.00     0.111 A 
ENDBRANCH  10  11
ENDBRANCH   1  10
BRANCH   1  16
ATOM     16  O14 ZIN A   1      18.476  -1.715  12.146  0.00  0.00    -0.375 OA
BRANCH  16  17
ATOM     17  C15 ZIN A   1      17.312  -0.916  12.369  0.00  0.00     0.208 C 
BRANCH  17  18
ATOM     18  C16 ZIN A   1      17.712   0.379  13.027  0.00  0.00    -0.016 A 
ATOM     19  C25 ZIN A   1      17.815   1.630  12.292  0.00  0.00    -0.009 A 
ATOM     20  C19 ZIN A   1      18.198   2.689  13.120  0.00  0.00     0.037 A 
ATOM     21  C24 ZIN A   1      17.572   1.888  10.926  0.00  0.00     0.013 A 
ATOM     22  S18 ZIN A   1      18.428   2.103  14.763  0.00  0.00    -0.099 SA
ATOM     23  C20 ZIN A   1      18.345   3.972  12.582  0.00  0.00     0.052 A 
ATOM     24  C17 ZIN A   1      18.002   0.464  14.310  0.00  0.00     0.060 A 
ATOM     25 Cl21 ZIN A   1      18.827   5.289  13.605  0.00  0.00    -0.083 Cl
ATOM     26  C22 ZIN A   1      18.107   4.193  11.245  0.00  0.00     0.025 A 
ATOM     27  C23 ZIN A   1      17.720   3.143  10.423  0.00  0.00     0.003 A 
ENDBRANCH  17  18
ENDBRANCH  16  17
ENDBRANCH   1  16
TORSDOF 6
ENDMDL
MODEL 7
REMARK VINA RESULT:      -7.4      2.835      4.791
REMARK  6 active torsions:
REMARK  status: ('A' for Active; 'I' for Inactive)
REMARK    1  A    between atoms: C5_5  and  C6_6 
REMARK    2  A    between atoms: C6_6  and  C8_7 
REMARK    3  A    between atoms: C6_6  and  O14_13 
REMARK    4  A    between atoms: C8_7  and  N9_8 
REMARK    5  A    between atoms: O14_13  and  C15_14 
REMARK    6  A    between atoms: C15_14  and  C16_15 
ROOT
ATOM      1  C6  ZIN A   1      18.698   1.667  12.885  0.00  0.00     0.174 C 
ENDROOT
BRANCH   1   2
ATOM      2  C5  ZIN A   1      18.674   1.233  14.328  0.00  0.00    -0.006 A 
ATOM      3  C4  ZIN A   1      19.107   2.096  15.317  0.00  0.00     0.013 A 
ATOM      4  C3  ZIN A   1      19.086   1.697  16.640  0.00  0.00     0.024 A 
ATOM      5  C2  ZIN A   1      18.631   0.433  16.975  0.00  0.00     0.035 A 
ATOM      6 Cl1  ZIN A   1      18.604  -0.066  18.637  0.00  0.00    -0.084 Cl
ATOM      7  C28 ZIN A   1      18.204  -0.433  15.985  0.00  0.00     0.048 A 
ATOM      8  C26 ZIN A   1      18.221  -0.031  14.661  0.00  0.00     0.044 A 
ATOM      9 Cl27 ZIN A   1      17.678  -1.115  13.419  0.00  0.00    -0.084 Cl
ENDBRANCH   1   2
BRANCH   1  10
ATOM     10  C8  ZIN A   1      19.114   3.138  12.802  0.00  0.00     0.166 C 
BRANCH  10  11
ATOM     11  N9  ZIN A   1      17.963   3.949  12.401  0.00  0.00    -0.347 N 
ATOM     12  C13 ZIN A   1      17.347   3.927  11.200  0.00  0.00     0.209 A 
ATOM     13  N12 ZIN A   1      16.362   4.785  11.219  0.00  0.00    -0.255 NA
ATOM     14  C11 ZIN A   1      16.322   5.384  12.418  0.00  0.00     0.135 A 
ATOM     15  C10 ZIN A   1      17.315   4.875  13.172  0.00  0.00     0.111 A 
ENDBRANCH  10  11
ENDBRANCH   1  10
BRANCH   1  16
ATOM     16  O14 ZIN A   1      19.635   0.866  12.162  0.00  0.00    -0.375 OA
BRANCH  16  17
ATOM     17  C15 ZIN A   1      19.784   1.242  10.791  0.00  0.00     0.208 C 
BRANCH  17  18
ATOM     18  C16 ZIN A   1      19.468   0.060   9.910  0.00  0.00    -0.016 A 
ATOM     19  C25 ZIN A   1      19.204   0.195   8.486  0.00  0.00    -0.009 A 
ATOM     20  C19 ZIN A   1      18.942  -1.040   7.888  0.00  0.00     0.037 A 
ATOM     21  C24 ZIN A   1      19.199   1.355   7.683  0.00  0.00     0.013 A 
ATOM     22  S18 ZIN A   1      19.017  -2.314   9.100  0.00  0.00    -0.099 SA
ATOM     23  C20 ZIN A   1      18.669  -1.103   6.517  0.00  0.00     0.052 A 
ATOM     24  C17 ZIN A   1      19.404  -1.172  10.372  0.00  0.00     0.060 A 
ATOM     25 Cl21 ZIN A   1      18.335  -2.635   5.770  0.00  0.00    -0.083 Cl
ATOM     26  C22 ZIN A   1      18.664   0.045   5.760  0.00  0.00     0.025 A 
ATOM     27  C23 ZIN A   1      18.931   1.272   6.352  0.00  0.00     0.003 A 
ENDBRANCH  17  18
ENDBRANCH  16  17
ENDBRANCH   1  16
TORSDOF 6
ENDMDL
MODEL 8
REMARK VINA RESULT:      -7.4      1.258      2.186
REMARK  6 active torsions:
REMARK  status: ('A' for Active; 'I' for Inactive)
REMARK    1  A    between atoms: C5_5  and  C6_6 
REMARK    2  A    between atoms: C6_6  and  C8_7 
REMARK    3  A    between atoms: C6_6  and  O14_13 
REMARK    4  A    between atoms: C8_7  and  N9_8 
REMARK    5  A    between atoms: O14_13  and  C15_14 
REMARK    6  A    between atoms: C15_14  and  C16_15 
ROOT
ATOM      1  C6  ZIN A   1      19.040   0.405  13.953  0.00  0.00     0.174 C 
ENDROOT
BRANCH   1   2
ATOM      2  C5  ZIN A   1      18.811   1.425  12.867  0.00  0.00    -0.006 A 
ATOM      3  C4  ZIN A   1      17.667   2.200  12.877  0.00  0.00     0.013 A 
ATOM      4  C3  ZIN A   1      17.456   3.135  11.880  0.00  0.00     0.024 A 
ATOM      5  C2  ZIN A   1      18.391   3.294  10.873  0.00  0.00     0.035 A 
ATOM      6 Cl1  ZIN A   1      18.126   4.469   9.622  0.00  0.00    -0.084 Cl
ATOM      7  C28 ZIN A   1      19.534   2.515  10.860  0.00  0.00     0.048 A 
ATOM      8  C26 ZIN A   1      19.746   1.584  11.860  0.00  0.00     0.044 A 
ATOM      9 Cl27 ZIN A   1      21.184   0.610  11.847  0.00  0.00    -0.084 Cl
ENDBRANCH   1   2
BRANCH   1  10
ATOM     10  C8  ZIN A   1      17.958   0.550  15.025  0.00  0.00     0.166 C 
BRANCH  10  11
ATOM     11  N9  ZIN A   1      18.578   0.530  16.351  0.00  0.00    -0.347 N 
ATOM     12  C13 ZIN A   1      19.159   1.575  16.979  0.00  0.00     0.209 A 
ATOM     13  N12 ZIN A   1      19.595   1.174  18.143  0.00  0.00    -0.255 NA
ATOM     14  C11 ZIN A   1      19.317  -0.129  18.293  0.00  0.00     0.135 A 
ATOM     15  C10 ZIN A   1      18.681  -0.551  17.184  0.00  0.00     0.111 A 
ENDBRANCH  10  11
ENDBRANCH   1  10
BRANCH   1  16
ATOM     16  O14 ZIN A   1      18.983  -0.908  13.392  0.00  0.00    -0.375 OA
BRANCH  16  17
ATOM     17  C15 ZIN A   1      17.688  -1.280  12.915  0.00  0.00     0.208 C 
BRANCH  17  18
ATOM     18  C16 ZIN A   1      17.812  -1.862  11.530  0.00  0.00    -0.016 A 
ATOM     19  C25 ZIN A   1      17.699  -3.288  11.269  0.00  0.00    -0.009 A 
ATOM     20  C19 ZIN A   1      17.845  -3.580   9.910  0.00  0.00     0.037 A 
ATOM     21  C24 ZIN A   1      17.456  -4.347  12.171  0.00  0.00     0.013 A 
ATOM     22  S18 ZIN A   1      18.129  -2.094   9.012  0.00  0.00    -0.099 SA
ATOM     23  C20 ZIN A   1      17.763  -4.906   9.473  0.00  0.00     0.052 A 
ATOM     24  C17 ZIN A   1      18.037  -1.118  10.466  0.00  0.00     0.060 A 
ATOM     25 Cl21 ZIN A   1      17.951  -5.275   7.786  0.00  0.00    -0.083 Cl
ATOM     26  C22 ZIN A   1      17.531  -5.919  10.375  0.00  0.00     0.025 A 
ATOM     27  C23 ZIN A   1      17.379  -5.630  11.724  0.00  0.00     0.003 A 
ENDBRANCH  17  18
ENDBRANCH  16  17
ENDBRANCH   1  16
TORSDOF 6
ENDMDL
MODEL 9
REMARK VINA RESULT:      -7.4      3.957      7.126
REMARK  6 active torsions:
REMARK  status: ('A' for Active; 'I' for Inactive)
REMARK    1  A    between atoms: C5_5  and  C6_6 
REMARK    2  A    between atoms: C6_6  and  C8_7 
REMARK    3  A    between atoms: C6_6  and  O14_13 
REMARK    4  A    between atoms: C8_7  and  N9_8 
REMARK    5  A    between atoms: O14_13  and  C15_14 
REMARK    6  A    between atoms: C15_14  and  C16_15 
ROOT
ATOM      1  C6  ZIN A   1      17.901   2.307  11.242  0.00  0.00     0.174 C 
ENDROOT
BRANCH   1   2
ATOM      2  C5  ZIN A   1      18.158   1.652   9.909  0.00  0.00    -0.006 A 
ATOM      3  C4  ZIN A   1      18.858   2.330   8.929  0.00  0.00     0.013 A 
ATOM      4  C3  ZIN A   1      19.092   1.730   7.706  0.00  0.00     0.024 A 
ATOM      5  C2  ZIN A   1      18.626   0.449   7.463  0.00  0.00     0.035 A 
ATOM      6 Cl1  ZIN A   1      18.922  -0.304   5.927  0.00  0.00    -0.084 Cl
ATOM      7  C28 ZIN A   1      17.920  -0.227   8.441  0.00  0.00     0.048 A 
ATOM      8  C26 ZIN A   1      17.690   0.372   9.666  0.00  0.00     0.044 A 
ATOM      9 Cl27 ZIN A   1      16.810  -0.479  10.897  0.00  0.00    -0.084 Cl
ENDBRANCH   1   2
BRANCH   1  10
ATOM     10  C8  ZIN A   1      19.224   2.470  11.993  0.00  0.00     0.166 C 
BRANCH  10  11
ATOM     11  N9  ZIN A   1      19.276   1.517  13.104  0.00  0.00    -0.347 N 
ATOM     12  C13 ZIN A   1      19.919   0.329  13.111  0.00  0.00     0.209 A 
ATOM     13  N12 ZIN A   1      19.741  -0.236  14.274  0.00  0.00    -0.255 NA
ATOM     14  C11 ZIN A   1      18.980   0.560  15.040  0.00  0.00     0.135 A 
ATOM     15  C10 ZIN A   1      18.679   1.662  14.326  0.00  0.00     0.111 A 
ENDBRANCH  10  11
ENDBRANCH   1  10
BRANCH   1  16
ATOM     16  O14 ZIN A   1      17.310   3.592  11.035  0.00  0.00    -0.375 OA
BRANCH  16  17
ATOM     17  C15 ZIN A   1      18.109   4.681  11.502  0.00  0.00     0.208 C 
BRANCH  17  18
ATOM     18  C16 ZIN A   1      17.507   5.238  12.767  0.00  0.00    -0.016 A 
ATOM     19  C25 ZIN A   1      18.304   5.536  13.946  0.00  0.00    -0.009 A 
ATOM     20  C19 ZIN A   1      17.522   6.046  14.985  0.00  0.00     0.037 A 
ATOM     21  C24 ZIN A   1      19.694   5.396  14.146  0.00  0.00     0.013 A 
ATOM     22  S18 ZIN A   1      15.839   6.125  14.477  0.00  0.00    -0.099 SA
ATOM     23  C20 ZIN A   1      18.123   6.393  16.200  0.00  0.00     0.052 A 
ATOM     24  C17 ZIN A   1      16.219   5.485  12.890  0.00  0.00     0.060 A 
ATOM     25 Cl21 ZIN A   1      17.154   7.020  17.498  0.00  0.00    -0.083 Cl
ATOM     26  C22 ZIN A   1      19.480   6.240  16.369  0.00  0.00     0.025 A 
ATOM     27  C23 ZIN A   1      20.259   5.740  15.335  0.00  0.00     0.003 A 
ENDBRANCH  17  18
ENDBRANCH  16  17
ENDBRANCH   1  16
TORSDOF 6
ENDMDL
