MODEL 1
REMARK VINA RESULT:      -8.8      0.000      0.000
REMARK  1 active torsions:
REMARK  status: ('A' for Active; 'I' for Inactive)
REMARK    1  A    between atoms: C13_11  and  O15_12 
ROOT
ATOM      1  C1  ZIN A   1      19.607   0.294  13.001  0.00  0.00     0.024 C 
ATOM      2  C2  ZIN A   1      18.161   0.782  13.116  0.00  0.00     0.021 C 
ATOM      3  C3  ZIN A   1      17.220  -0.267  12.558  0.00  0.00     0.018 C 
ATOM      4  C4  ZIN A   1      17.694  -0.588  11.132  0.00  0.00     0.007 C 
ATOM      5  C5  ZIN A   1      17.730   0.661  10.254  0.00  0.00     0.003 C 
ATOM      6  C7  ZIN A   1      18.570   1.779  10.885  0.00  0.00    -0.001 C 
ATOM      7  C9  ZIN A   1      18.457   3.022   9.995  0.00  0.00     0.033 C 
ATOM      8  C10 ZIN A   1      18.881   2.670   8.599  0.00  0.00    -0.023 C 
ATOM      9  C11 ZIN A   1      18.796   1.466   8.114  0.00  0.00    -0.072 C 
ATOM     10  C12 ZIN A   1      19.247   1.234   6.682  0.00  0.00     0.066 C 
ATOM     11  C13 ZIN A   1      18.126   0.504   5.936  0.00  0.00     0.122 C 
ATOM     12  C16 ZIN A   1      17.763  -0.777   6.687  0.00  0.00     0.033 C 
ATOM     13  C17 ZIN A   1      17.201  -0.425   8.066  0.00  0.00     0.016 C 
ATOM     14  C18 ZIN A   1      18.278   0.308   8.881  0.00  0.00    -0.017 C 
ATOM     15  C19 ZIN A   1      19.448  -0.654   9.097  0.00  0.00     0.020 C 
ATOM     16  C20 ZIN A   1      17.972   2.066  12.264  0.00  0.00     0.006 C 
ATOM     17  C22 ZIN A   1      18.717   3.111  13.105  0.00  0.00     0.013 C 
ATOM     18  C23 ZIN A   1      18.305   2.734  14.553  0.00  0.00     0.079 C 
ATOM     19  C24 ZIN A   1      17.895   1.247  14.517  0.00  0.00     0.135 C 
ATOM     20  O25 ZIN A   1      17.448   0.594  15.430  0.00  0.00    -0.297 OA
ENDROOT
BRANCH  11  21
ATOM     21  O15 ZIN A   1      18.568   0.174   4.618  0.00  0.00    -0.395 OA
ATOM     22  H38 ZIN A   1      17.885  -0.226   4.061  0.00  0.00     0.210 HD
ENDBRANCH  11  21
TORSDOF 1
ENDMDL
MODEL 2
REMARK VINA RESULT:      -8.8      1.266      6.165
REMARK  1 active torsions:
REMARK  status: ('A' for Active; 'I' for Inactive)
REMARK    1  A    between atoms: C13_11  and  O15_12 
ROOT
ATOM      1  C1  ZIN A   1      17.280  -0.790   7.481  0.00  0.00     0.024 C 
ATOM      2  C2  ZIN A   1      18.807  -0.720   7.406  0.00  0.00     0.021 C 
ATOM      3  C3  ZIN A   1      19.412  -1.505   8.554  0.00  0.00     0.018 C 
ATOM      4  C4  ZIN A   1      18.790  -0.962   9.851  0.00  0.00     0.007 C 
ATOM      5  C5  ZIN A   1      19.028   0.538  10.007  0.00  0.00     0.003 C 
ATOM      6  C7  ZIN A   1      18.542   1.324   8.782  0.00  0.00    -0.001 C 
ATOM      7  C9  ZIN A   1      18.922   2.796   8.978  0.00  0.00     0.033 C 
ATOM      8  C10 ZIN A   1      18.342   3.288  10.272  0.00  0.00    -0.023 C 
ATOM      9  C11 ZIN A   1      18.086   2.503  11.277  0.00  0.00    -0.072 C 
ATOM     10  C12 ZIN A   1      17.509   3.119  12.541  0.00  0.00     0.066 C 
ATOM     11  C13 ZIN A   1      18.359   2.662  13.731  0.00  0.00     0.122 C 
ATOM     12  C16 ZIN A   1      18.421   1.135  13.758  0.00  0.00     0.033 C 
ATOM     13  C17 ZIN A   1      19.133   0.625  12.503  0.00  0.00     0.016 C 
ATOM     14  C18 ZIN A   1      18.330   1.041  11.260  0.00  0.00    -0.017 C 
ATOM     15  C19 ZIN A   1      16.965   0.351  11.323  0.00  0.00     0.020 C 
ATOM     16  C20 ZIN A   1      19.272   0.752   7.564  0.00  0.00     0.006 C 
ATOM     17  C22 ZIN A   1      18.871   1.353   6.210  0.00  0.00     0.013 C 
ATOM     18  C23 ZIN A   1      19.254   0.224   5.215  0.00  0.00     0.079 C 
ATOM     19  C24 ZIN A   1      19.263  -1.088   6.026  0.00  0.00     0.135 C 
ATOM     20  O25 ZIN A   1      19.578  -2.185   5.630  0.00  0.00    -0.297 OA
ENDROOT
BRANCH  11  21
ATOM     21  O15 ZIN A   1      17.773   3.137  14.944  0.00  0.00    -0.395 OA
ATOM     22  H38 ZIN A   1      18.178   2.776  15.745  0.00  0.00     0.210 HD
ENDBRANCH  11  21
TORSDOF 1
ENDMDL
MODEL 3
REMARK VINA RESULT:      -8.5      1.371      1.734
REMARK  1 active torsions:
REMARK  status: ('A' for Active; 'I' for Inactive)
REMARK    1  A    between atoms: C13_11  and  O15_12 
ROOT
ATOM      1  C1  ZIN A   1      20.024  -0.363  13.889  0.00  0.00     0.024 C 
ATOM      2  C2  ZIN A   1      18.546  -0.758  13.930  0.00  0.00     0.021 C 
ATOM      3  C3  ZIN A   1      18.323  -1.995  13.082  0.00  0.00     0.018 C 
ATOM      4  C4  ZIN A   1      18.884  -1.692  11.683  0.00  0.00     0.007 C 
ATOM      5  C5  ZIN A   1      18.228  -0.459  11.066  0.00  0.00     0.003 C 
ATOM      6  C7  ZIN A   1      18.331   0.764  11.986  0.00  0.00    -0.001 C 
ATOM      7  C9  ZIN A   1      17.553   1.916  11.339  0.00  0.00     0.033 C 
ATOM      8  C10 ZIN A   1      18.090   2.160   9.959  0.00  0.00    -0.023 C 
ATOM      9  C11 ZIN A   1      18.670   1.236   9.250  0.00  0.00    -0.072 C 
ATOM     10  C12 ZIN A   1      19.163   1.600   7.860  0.00  0.00     0.066 C 
ATOM     11  C13 ZIN A   1      18.614   0.570   6.868  0.00  0.00     0.122 C 
ATOM     12  C16 ZIN A   1      19.011  -0.836   7.319  0.00  0.00     0.033 C 
ATOM     13  C17 ZIN A   1      18.358  -1.149   8.667  0.00  0.00     0.016 C 
ATOM     14  C18 ZIN A   1      18.870  -0.155   9.722  0.00  0.00    -0.017 C 
ATOM     15  C19 ZIN A   1      20.377  -0.367   9.884  0.00  0.00     0.020 C 
ATOM     16  C20 ZIN A   1      17.683   0.378  13.319  0.00  0.00     0.006 C 
ATOM     17  C22 ZIN A   1      17.747   1.445  14.419  0.00  0.00     0.013 C 
ATOM     18  C23 ZIN A   1      17.617   0.600  15.715  0.00  0.00     0.079 C 
ATOM     19  C24 ZIN A   1      18.081  -0.826  15.354  0.00  0.00     0.135 C 
ATOM     20  O25 ZIN A   1      18.067  -1.798  16.071  0.00  0.00    -0.297 OA
ENDROOT
BRANCH  11  21
ATOM     21  O15 ZIN A   1      19.154   0.824   5.570  0.00  0.00    -0.395 OA
ATOM     22  H38 ZIN A   1      18.521   1.213   4.949  0.00  0.00     0.210 HD
ENDBRANCH  11  21
TORSDOF 1
ENDMDL
MODEL 4
REMARK VINA RESULT:      -8.3      3.244      4.455
REMARK  1 active torsions:
REMARK  status: ('A' for Active; 'I' for Inactive)
REMARK    1  A    between atoms: C13_11  and  O15_12 
ROOT
ATOM      1  C1  ZIN A   1      19.384   0.541  11.377  0.00  0.00     0.024 C 
ATOM      2  C2  ZIN A   1      18.052   0.876  10.702  0.00  0.00     0.021 C 
ATOM      3  C3  ZIN A   1      16.963  -0.032  11.239  0.00  0.00     0.018 C 
ATOM      4  C4  ZIN A   1      17.449  -1.479  11.055  0.00  0.00     0.007 C 
ATOM      5  C5  ZIN A   1      17.769  -1.786   9.594  0.00  0.00     0.003 C 
ATOM      6  C7  ZIN A   1      18.768  -0.781   9.005  0.00  0.00    -0.001 C 
ATOM      7  C9  ZIN A   1      18.942  -1.098   7.515  0.00  0.00     0.033 C 
ATOM      8  C10 ZIN A   1      19.371  -2.528   7.361  0.00  0.00    -0.023 C 
ATOM      9  C11 ZIN A   1      19.089  -3.451   8.234  0.00  0.00    -0.072 C 
ATOM     10  C12 ZIN A   1      19.569  -4.867   7.963  0.00  0.00     0.066 C 
ATOM     11  C13 ZIN A   1      18.375  -5.816   8.104  0.00  0.00     0.122 C 
ATOM     12  C16 ZIN A   1      17.735  -5.630   9.480  0.00  0.00     0.033 C 
ATOM     13  C17 ZIN A   1      17.171  -4.213   9.600  0.00  0.00     0.016 C 
ATOM     14  C18 ZIN A   1      18.319  -3.198   9.475  0.00  0.00    -0.017 C 
ATOM     15  C19 ZIN A   1      19.273  -3.411  10.653  0.00  0.00     0.020 C 
ATOM     16  C20 ZIN A   1      18.157   0.612   9.176  0.00  0.00     0.006 C 
ATOM     17  C22 ZIN A   1      19.036   1.782   8.717  0.00  0.00     0.013 C 
ATOM     18  C23 ZIN A   1      18.479   2.969   9.548  0.00  0.00     0.079 C 
ATOM     19  C24 ZIN A   1      17.799   2.352  10.788  0.00  0.00     0.135 C 
ATOM     20  O25 ZIN A   1      17.185   2.938  11.647  0.00  0.00    -0.297 OA
ENDROOT
BRANCH  11  21
ATOM     21  O15 ZIN A   1      18.821  -7.166   7.964  0.00  0.00    -0.395 OA
ATOM     22  H38 ZIN A   1      19.307  -7.338   7.146  0.00  0.00     0.210 HD
ENDBRANCH  11  21
TORSDOF 1
ENDMDL
MODEL 5
REMARK VINA RESULT:      -8.1      1.901      3.613
REMARK  1 active torsions:
REMARK  status: ('A' for Active; 'I' for Inactive)
REMARK    1  A    between atoms: C13_11  and  O15_12 
ROOT
ATOM      1  C1  ZIN A   1      17.393   1.519  10.522  0.00  0.00     0.024 C 
ATOM      2  C2  ZIN A   1      18.910   1.715  10.554  0.00  0.00     0.021 C 
ATOM      3  C3  ZIN A   1      19.356   2.465   9.313  0.00  0.00     0.018 C 
ATOM      4  C4  ZIN A   1      18.818   1.689   8.099  0.00  0.00     0.007 C 
ATOM      5  C5  ZIN A   1      19.307   0.243   8.090  0.00  0.00     0.003 C 
ATOM      6  C7  ZIN A   1      18.980  -0.478   9.404  0.00  0.00    -0.001 C 
ATOM      7  C9  ZIN A   1      19.603  -1.878   9.348  0.00  0.00     0.033 C 
ATOM      8  C10 ZIN A   1      19.098  -2.595   8.130  0.00  0.00    -0.023 C 
ATOM      9  C11 ZIN A   1      18.696  -1.976   7.059  0.00  0.00    -0.072 C 
ATOM     10  C12 ZIN A   1      18.216  -2.811   5.884  0.00  0.00     0.066 C 
ATOM     11  C13 ZIN A   1      18.959  -2.347   4.626  0.00  0.00     0.122 C 
ATOM     12  C16 ZIN A   1      18.758  -0.843   4.442  0.00  0.00     0.033 C 
ATOM     13  C17 ZIN A   1      19.390  -0.090   5.614  0.00  0.00     0.016 C 
ATOM     14  C18 ZIN A   1      18.688  -0.500   6.918  0.00  0.00    -0.017 C 
ATOM     15  C19 ZIN A   1      17.224  -0.062   6.829  0.00  0.00     0.020 C 
ATOM     16  C20 ZIN A   1      19.618   0.334  10.533  0.00  0.00     0.006 C 
ATOM     17  C22 ZIN A   1      19.345  -0.177  11.954  0.00  0.00     0.013 C 
ATOM     18  C23 ZIN A   1      19.543   1.099  12.815  0.00  0.00     0.079 C 
ATOM     19  C24 ZIN A   1      19.316   2.300  11.874  0.00  0.00     0.135 C 
ATOM     20  O25 ZIN A   1      19.445   3.470  12.145  0.00  0.00    -0.297 OA
ENDROOT
BRANCH  11  21
ATOM     21  O15 ZIN A   1      18.445  -3.040   3.488  0.00  0.00    -0.395 OA
ATOM     22  H38 ZIN A   1      18.529  -2.551   2.658  0.00  0.00     0.210 HD
ENDBRANCH  11  21
TORSDOF 1
ENDMDL
MODEL 6
REMARK VINA RESULT:      -8.1      1.428      3.020
REMARK  1 active torsions:
REMARK  status: ('A' for Active; 'I' for Inactive)
REMARK    1  A    between atoms: C13_11  and  O15_12 
ROOT
ATOM      1  C1  ZIN A   1      16.466   0.008  11.933  0.00  0.00     0.024 C 
ATOM      2  C2  ZIN A   1      17.909   0.353  12.305  0.00  0.00     0.021 C 
ATOM      3  C3  ZIN A   1      18.366   1.564  11.514  0.00  0.00     0.018 C 
ATOM      4  C4  ZIN A   1      18.126   1.251  10.029  0.00  0.00     0.007 C 
ATOM      5  C5  ZIN A   1      18.859  -0.015   9.593  0.00  0.00     0.003 C 
ATOM      6  C7  ZIN A   1      18.504  -1.215  10.481  0.00  0.00    -0.001 C 
ATOM      7  C9  ZIN A   1      19.365  -2.405  10.043  0.00  0.00     0.033 C 
ATOM      8  C10 ZIN A   1      19.147  -2.660   8.580  0.00  0.00    -0.023 C 
ATOM      9  C11 ZIN A   1      18.778  -1.732   7.746  0.00  0.00    -0.072 C 
ATOM     10  C12 ZIN A   1      18.600  -2.108   6.285  0.00  0.00     0.066 C 
ATOM     11  C13 ZIN A   1      19.399  -1.118   5.431  0.00  0.00     0.122 C 
ATOM     12  C16 ZIN A   1      18.962   0.309   5.761  0.00  0.00     0.033 C 
ATOM     13  C17 ZIN A   1      19.303   0.629   7.219  0.00  0.00     0.016 C 
ATOM     14  C18 ZIN A   1      18.528  -0.325   8.142  0.00  0.00    -0.017 C 
ATOM     15  C19 ZIN A   1      17.033  -0.060   7.954  0.00  0.00     0.020 C 
ATOM     16  C20 ZIN A   1      18.846  -0.823  11.921  0.00  0.00     0.006 C 
ATOM     17  C22 ZIN A   1      18.495  -1.864  12.992  0.00  0.00     0.013 C 
ATOM     18  C23 ZIN A   1      18.358  -0.997  14.272  0.00  0.00     0.079 C 
ATOM     19  C24 ZIN A   1      18.041   0.436  13.797  0.00  0.00     0.135 C 
ATOM     20  O25 ZIN A   1      17.928   1.422  14.486  0.00  0.00    -0.297 OA
ENDROOT
BRANCH  11  21
ATOM     21  O15 ZIN A   1      19.159  -1.381   4.047  0.00  0.00    -0.395 OA
ATOM     22  H38 ZIN A   1      19.340  -2.294   3.783  0.00  0.00     0.210 HD
ENDBRANCH  11  21
TORSDOF 1
ENDMDL
MODEL 7
REMARK VINA RESULT:      -8.0      1.739      6.193
REMARK  1 active torsions:
REMARK  status: ('A' for Active; 'I' for Inactive)
REMARK    1  A    between atoms: C13_11  and  O15_12 
ROOT
ATOM      1  C1  ZIN A   1      20.284  -0.318   9.178  0.00  0.00     0.024 C 
ATOM      2  C2  ZIN A   1      18.912  -0.223   8.507  0.00  0.00     0.021 C 
ATOM      3  C3  ZIN A   1      18.687   1.188   8.001  0.00  0.00     0.018 C 
ATOM      4  C4  ZIN A   1      18.905   2.136   9.191  0.00  0.00     0.007 C 
ATOM      5  C5  ZIN A   1      17.978   1.802  10.357  0.00  0.00     0.003 C 
ATOM      6  C7  ZIN A   1      18.103   0.333  10.782  0.00  0.00    -0.001 C 
ATOM      7  C9  ZIN A   1      17.062   0.062  11.875  0.00  0.00     0.033 C 
ATOM      8  C10 ZIN A   1      17.268   1.030  13.004  0.00  0.00    -0.023 C 
ATOM      9  C11 ZIN A   1      17.809   2.203  12.842  0.00  0.00    -0.072 C 
ATOM     10  C12 ZIN A   1      17.954   3.101  14.059  0.00  0.00     0.066 C 
ATOM     11  C13 ZIN A   1      17.356   4.470  13.722  0.00  0.00     0.122 C 
ATOM     12  C16 ZIN A   1      18.021   5.021  12.461  0.00  0.00     0.033 C 
ATOM     13  C17 ZIN A   1      17.706   4.112  11.271  0.00  0.00     0.016 C 
ATOM     14  C18 ZIN A   1      18.285   2.713  11.534  0.00  0.00    -0.017 C 
ATOM     15  C19 ZIN A   1      19.808   2.838  11.623  0.00  0.00     0.020 C 
ATOM     16  C20 ZIN A   1      17.799  -0.519   9.547  0.00  0.00     0.006 C 
ATOM     17  C22 ZIN A   1      17.943  -2.035   9.736  0.00  0.00     0.013 C 
ATOM     18  C23 ZIN A   1      18.195  -2.532   8.287  0.00  0.00     0.079 C 
ATOM     19  C24 ZIN A   1      18.761  -1.329   7.505  0.00  0.00     0.135 C 
ATOM     20  O25 ZIN A   1      19.025  -1.287   6.327  0.00  0.00    -0.297 OA
ENDROOT
BRANCH  11  21
ATOM     21  O15 ZIN A   1      17.580   5.368  14.810  0.00  0.00    -0.395 OA
ATOM     22  H38 ZIN A   1      18.335   5.132  15.367  0.00  0.00     0.210 HD
ENDBRANCH  11  21
TORSDOF 1
ENDMDL
MODEL 8
REMARK VINA RESULT:      -8.0      2.178      4.066
REMARK  1 active torsions:
REMARK  status: ('A' for Active; 'I' for Inactive)
REMARK    1  A    between atoms: C13_11  and  O15_12 
ROOT
ATOM      1  C1  ZIN A   1      17.041   0.358  15.745  0.00  0.00     0.024 C 
ATOM      2  C2  ZIN A   1      18.547   0.630  15.741  0.00  0.00     0.021 C 
ATOM      3  C3  ZIN A   1      18.858   1.773  14.794  0.00  0.00     0.018 C 
ATOM      4  C4  ZIN A   1      18.251   1.408  13.429  0.00  0.00     0.007 C 
ATOM      5  C5  ZIN A   1      18.794   0.080  12.907  0.00  0.00     0.003 C 
ATOM      6  C7  ZIN A   1      18.605  -1.053  13.923  0.00  0.00    -0.001 C 
ATOM      7  C9  ZIN A   1      19.276  -2.313  13.363  0.00  0.00     0.033 C 
ATOM      8  C10 ZIN A   1      18.699  -2.620  12.012  0.00  0.00    -0.023 C 
ATOM      9  C11 ZIN A   1      18.185  -1.710  11.237  0.00  0.00    -0.072 C 
ATOM     10  C12 ZIN A   1      17.641  -2.141   9.885  0.00  0.00     0.066 C 
ATOM     11  C13 ZIN A   1      18.258  -1.242   8.808  0.00  0.00     0.122 C 
ATOM     12  C16 ZIN A   1      17.984   0.223   9.149  0.00  0.00     0.033 C 
ATOM     13  C17 ZIN A   1      18.682   0.587  10.462  0.00  0.00     0.016 C 
ATOM     14  C18 ZIN A   1      18.108  -0.274  11.597  0.00  0.00    -0.017 C 
ATOM     15  C19 ZIN A   1      16.626   0.075  11.756  0.00  0.00     0.020 C 
ATOM     16  C20 ZIN A   1      19.304  -0.618  15.214  0.00  0.00     0.006 C 
ATOM     17  C22 ZIN A   1      19.171  -1.586  16.398  0.00  0.00     0.013 C 
ATOM     18  C23 ZIN A   1      19.390  -0.654  17.620  0.00  0.00     0.079 C 
ATOM     19  C24 ZIN A   1      19.039   0.772  17.150  0.00  0.00     0.135 C 
ATOM     20  O25 ZIN A   1      19.144   1.794  17.787  0.00  0.00    -0.297 OA
ENDROOT
BRANCH  11  21
ATOM     21  O15 ZIN A   1      17.678  -1.553   7.540  0.00  0.00    -0.395 OA
ATOM     22  H38 ZIN A   1      18.321  -1.627   6.821  0.00  0.00     0.210 HD
ENDBRANCH  11  21
TORSDOF 1
ENDMDL
MODEL 9
REMARK VINA RESULT:      -7.9      1.752      3.489
REMARK  1 active torsions:
REMARK  status: ('A' for Active; 'I' for Inactive)
REMARK    1  A    between atoms: C13_11  and  O15_12 
ROOT
ATOM      1  C1  ZIN A   1      17.168   0.585  14.935  0.00  0.00     0.024 C 
ATOM      2  C2  ZIN A   1      18.676   0.619  15.189  0.00  0.00     0.021 C 
ATOM      3  C3  ZIN A   1      19.252   1.927  14.679  0.00  0.00     0.018 C 
ATOM      4  C4  ZIN A   1      18.829   2.063  13.208  0.00  0.00     0.007 C 
ATOM      5  C5  ZIN A   1      19.301   0.876  12.372  0.00  0.00     0.003 C 
ATOM      6  C7  ZIN A   1      18.836  -0.460  12.965  0.00  0.00    -0.001 C 
ATOM      7  C9  ZIN A   1      19.447  -1.592  12.129  0.00  0.00     0.033 C 
ATOM      8  C10 ZIN A   1      19.057  -1.408  10.691  0.00  0.00    -0.023 C 
ATOM      9  C11 ZIN A   1      18.772  -0.248  10.177  0.00  0.00    -0.072 C 
ATOM     10  C12 ZIN A   1      18.402  -0.187   8.704  0.00  0.00     0.066 C 
ATOM     11  C13 ZIN A   1      19.271   0.881   8.033  0.00  0.00     0.122 C 
ATOM     12  C16 ZIN A   1      19.106   2.211   8.770  0.00  0.00     0.033 C 
ATOM     13  C17 ZIN A   1      19.626   2.074  10.202  0.00  0.00     0.016 C 
ATOM     14  C18 ZIN A   1      18.793   1.019  10.946  0.00  0.00    -0.017 C 
ATOM     15  C19 ZIN A   1      17.350   1.523  11.030  0.00  0.00     0.020 C 
ATOM     16  C20 ZIN A   1      19.368  -0.524  14.399  0.00  0.00     0.006 C 
ATOM     17  C22 ZIN A   1      18.949  -1.759  15.207  0.00  0.00     0.013 C 
ATOM     18  C23 ZIN A   1      19.074  -1.262  16.672  0.00  0.00     0.079 C 
ATOM     19  C24 ZIN A   1      18.955   0.276  16.623  0.00  0.00     0.135 C 
ATOM     20  O25 ZIN A   1      19.069   1.044  17.548  0.00  0.00    -0.297 OA
ENDROOT
BRANCH  11  21
ATOM     21  O15 ZIN A   1      18.866   1.038   6.672  0.00  0.00    -0.395 OA
ATOM     22  H38 ZIN A   1      18.584   1.935   6.445  0.00  0.00     0.210 HD
ENDBRANCH  11  21
TORSDOF 1
ENDMDL
