MODEL 1
REMARK VINA RESULT:      -8.9      0.000      0.000
REMARK  5 active torsions:
REMARK  status: ('A' for Active; 'I' for Inactive)
REMARK    1  A    between atoms: O1_1  and  C2_2 
REMARK    2  A    between atoms: C2_2  and  C4_3 
REMARK    3  A    between atoms: C2_2  and  C22_21 
REMARK    4  A    between atoms: C9_8  and  C10_9 
REMARK    5  A    between atoms: C16_15  and  C17_16 
ROOT
ATOM      1  C4  <0> d   1      19.630   0.532  11.829  0.00  0.00    -0.013 A 
ATOM      2  C5  <0> d   1      19.108   1.701  11.243  0.00  0.00     0.002 A 
ATOM      3  C6  <0> d   1      19.105   1.883   9.851  0.00  0.00     0.014 A 
ATOM      4  C7  <0> d   1      18.591   3.028   9.323  0.00  0.00     0.002 A 
ATOM      5  C8  <0> d   1      18.066   4.023  10.147  0.00  0.00     0.019 A 
ATOM      6  C9  <0> d   1      18.053   3.879  11.499  0.00  0.00     0.077 A 
ATOM      7  C14 <0> d   1      18.575   2.711  12.082  0.00  0.00     0.083 A 
ATOM      8  N15 <0> d   1      18.574   2.541  13.408  0.00  0.00    -0.243 NA
ATOM      9  C16 <0> d   1      19.059   1.454  13.957  0.00  0.00     0.141 A 
ATOM     10  C21 <0> d   1      19.593   0.421  13.189  0.00  0.00     0.047 A 
ENDROOT
BRANCH   1  11
ATOM     11  C2  <0> d   1      20.206  -0.570  10.977  0.00  0.00     0.182 C 
BRANCH  11  12
ATOM     12  O1  <0> d   1      21.631  -0.559  11.087  0.00  0.00    -0.389 OA
ATOM     13  H31 <0> d   1      22.009  -1.401  11.376  0.00  0.00     0.210 HD
ENDBRANCH  11  12
BRANCH  11  14
ATOM     14  C22 <0> d   1      19.668  -1.919  11.455  0.00  0.00     0.219 C 
ATOM     15  N28 <0> d   1      20.587  -2.987  11.040  0.00  0.00    -0.068 N 
ATOM     16  C27 <0> d   1      20.119  -4.277  11.561  0.00  0.00     0.233 C 
ATOM     17  H29 <0> d   1      20.624  -3.025  10.033  0.00  0.00     0.277 HD
ATOM     18  H30 <0> d   1      21.508  -2.793  11.403  0.00  0.00     0.277 HD
ATOM     19  C26 <0> d   1      18.755  -4.612  10.953  0.00  0.00     0.027 C 
ATOM     20  C25 <0> d   1      17.753  -3.515  11.325  0.00  0.00     0.004 C 
ATOM     21  C24 <0> d   1      18.288  -2.164  10.843  0.00  0.00     0.036 C 
ENDBRANCH  11  14
ENDBRANCH   1  11
BRANCH   9  22
ATOM     22  C17 <0> d   1      19.032   1.314  15.457  0.00  0.00     0.434 C 
ATOM     23  F18 <0> d   1      17.717   1.450  15.915  0.00  0.00    -0.165 F 
ATOM     24  F19 <0> d   1      19.525   0.055  15.818  0.00  0.00    -0.165 F 
ATOM     25  F20 <0> d   1      19.830   2.310  16.032  0.00  0.00    -0.165 F 
ENDBRANCH   9  22
BRANCH   6  26
ATOM     26  C10 <0> d   1      17.480   4.968  12.369  0.00  0.00     0.419 C 
ATOM     27  F11 <0> d   1      18.504   5.549  13.124  0.00  0.00    -0.166 F 
ATOM     28  F12 <0> d   1      16.884   5.944  11.564  0.00  0.00    -0.166 F 
ATOM     29  F13 <0> d   1      16.520   4.422  13.228  0.00  0.00    -0.166 F 
ENDBRANCH   6  26
TORSDOF 5
ENDMDL
MODEL 2
REMARK VINA RESULT:      -8.7      1.775      2.356
REMARK  5 active torsions:
REMARK  status: ('A' for Active; 'I' for Inactive)
REMARK    1  A    between atoms: O1_1  and  C2_2 
REMARK    2  A    between atoms: C2_2  and  C4_3 
REMARK    3  A    between atoms: C2_2  and  C22_21 
REMARK    4  A    between atoms: C9_8  and  C10_9 
REMARK    5  A    between atoms: C16_15  and  C17_16 
ROOT
ATOM      1  C4  <0> d   1      19.176  -1.091  11.156  0.00  0.00    -0.013 A 
ATOM      2  C5  <0> d   1      19.078  -0.006  10.264  0.00  0.00     0.002 A 
ATOM      3  C6  <0> d   1      19.342  -0.159   8.894  0.00  0.00     0.014 A 
ATOM      4  C7  <0> d   1      19.236   0.915   8.064  0.00  0.00     0.002 A 
ATOM      5  C8  <0> d   1      18.867   2.166   8.557  0.00  0.00     0.019 A 
ATOM      6  C9  <0> d   1      18.604   2.349   9.879  0.00  0.00     0.077 A 
ATOM      7  C14 <0> d   1      18.703   1.265  10.768  0.00  0.00     0.083 A 
ATOM      8  N15 <0> d   1      18.448   1.415  12.071  0.00  0.00    -0.243 NA
ATOM      9  C16 <0> d   1      18.539   0.407  12.904  0.00  0.00     0.141 A 
ATOM     10  C21 <0> d   1      18.898  -0.869  12.474  0.00  0.00     0.047 A 
ENDROOT
BRANCH   1  11
ATOM     11  C2  <0> d   1      19.571  -2.461  10.667  0.00  0.00     0.182 C 
BRANCH  11  12
ATOM     12  O1  <0> d   1      20.666  -2.947  11.447  0.00  0.00    -0.389 OA
ATOM     13  H31 <0> d   1      20.656  -2.649  12.367  0.00  0.00     0.210 HD
ENDBRANCH  11  12
BRANCH  11  14
ATOM     14  C22 <0> d   1      18.383  -3.415  10.807  0.00  0.00     0.219 C 
ATOM     15  N28 <0> d   1      18.748  -4.523  11.698  0.00  0.00    -0.068 N 
ATOM     16  C27 <0> d   1      17.590  -5.402  11.900  0.00  0.00     0.233 C 
ATOM     17  H29 <0> d   1      19.503  -5.051  11.285  0.00  0.00     0.277 HD
ATOM     18  H30 <0> d   1      19.046  -4.151  12.587  0.00  0.00     0.277 HD
ATOM     19  C26 <0> d   1      17.183  -6.029  10.564  0.00  0.00     0.027 C 
ATOM     20  C25 <0> d   1      16.817  -4.918   9.575  0.00  0.00     0.004 C 
ATOM     21  C24 <0> d   1      18.007  -3.965   9.430  0.00  0.00     0.036 C 
ENDBRANCH  11  14
ENDBRANCH   1  11
BRANCH   9  22
ATOM     22  C17 <0> d   1      18.240   0.631  14.364  0.00  0.00     0.434 C 
ATOM     23  F18 <0> d   1      17.583   1.857  14.522  0.00  0.00    -0.165 F 
ATOM     24  F19 <0> d   1      17.423  -0.401  14.838  0.00  0.00    -0.165 F 
ATOM     25  F20 <0> d   1      19.438   0.649  15.088  0.00  0.00    -0.165 F 
ENDBRANCH   9  22
BRANCH   6  26
ATOM     26  C10 <0> d   1      18.206   3.711  10.389  0.00  0.00     0.419 C 
ATOM     27  F11 <0> d   1      16.956   3.630  11.010  0.00  0.00    -0.166 F 
ATOM     28  F12 <0> d   1      19.157   4.160  11.311  0.00  0.00    -0.166 F 
ATOM     29  F13 <0> d   1      18.137   4.608   9.316  0.00  0.00    -0.166 F 
ENDBRANCH   6  26
TORSDOF 5
ENDMDL
MODEL 3
REMARK VINA RESULT:      -8.5      4.501      7.576
REMARK  5 active torsions:
REMARK  status: ('A' for Active; 'I' for Inactive)
REMARK    1  A    between atoms: O1_1  and  C2_2 
REMARK    2  A    between atoms: C2_2  and  C4_3 
REMARK    3  A    between atoms: C2_2  and  C22_21 
REMARK    4  A    between atoms: C9_8  and  C10_9 
REMARK    5  A    between atoms: C16_15  and  C17_16 
ROOT
ATOM      1  C4  <0> d   1      19.773  -0.548  10.573  0.00  0.00    -0.013 A 
ATOM      2  C5  <0> d   1      19.651  -1.950  10.541  0.00  0.00     0.002 A 
ATOM      3  C6  <0> d   1      19.929  -2.735  11.672  0.00  0.00     0.014 A 
ATOM      4  C7  <0> d   1      19.799  -4.088  11.600  0.00  0.00     0.002 A 
ATOM      5  C8  <0> d   1      19.391  -4.706  10.418  0.00  0.00     0.019 A 
ATOM      6  C9  <0> d   1      19.114  -3.976   9.305  0.00  0.00     0.077 A 
ATOM      7  C14 <0> d   1      19.238  -2.576   9.338  0.00  0.00     0.083 A 
ATOM      8  N15 <0> d   1      18.970  -1.834   8.260  0.00  0.00    -0.243 NA
ATOM      9  C16 <0> d   1      19.082  -0.527   8.286  0.00  0.00     0.141 A 
ATOM     10  C21 <0> d   1      19.480   0.150   9.437  0.00  0.00     0.047 A 
ENDROOT
BRANCH   1  11
ATOM     11  C2  <0> d   1      20.209   0.162  11.829  0.00  0.00     0.182 C 
BRANCH  11  12
ATOM     12  O1  <0> d   1      21.628   0.333  11.810  0.00  0.00    -0.389 OA
ATOM     13  H31 <0> d   1      21.957   0.959  12.470  0.00  0.00     0.210 HD
ENDBRANCH  11  12
BRANCH  11  14
ATOM     14  C22 <0> d   1      19.531   1.532  11.902  0.00  0.00     0.219 C 
ATOM     15  N28 <0> d   1      20.554   2.585  11.881  0.00  0.00    -0.068 N 
ATOM     16  C27 <0> d   1      19.911   3.904  11.872  0.00  0.00     0.233 C 
ATOM     17  H29 <0> d   1      21.138   2.502  12.699  0.00  0.00     0.277 HD
ATOM     18  H30 <0> d   1      21.121   2.483  11.052  0.00  0.00     0.277 HD
ATOM     19  C26 <0> d   1      19.112   4.094  13.164  0.00  0.00     0.027 C 
ATOM     20  C25 <0> d   1      18.042   3.002  13.262  0.00  0.00     0.004 C 
ATOM     21  C24 <0> d   1      18.719   1.631  13.194  0.00  0.00     0.036 C 
ENDBRANCH  11  14
ENDBRANCH   1  11
BRANCH   9  22
ATOM     22  C17 <0> d   1      18.768   0.262   7.042  0.00  0.00     0.434 C 
ATOM     23  F18 <0> d   1      19.427  -0.310   5.948  0.00  0.00    -0.165 F 
ATOM     24  F19 <0> d   1      17.387   0.246   6.815  0.00  0.00    -0.165 F 
ATOM     25  F20 <0> d   1      19.199   1.583   7.207  0.00  0.00    -0.165 F 
ENDBRANCH   9  22
BRANCH   6  26
ATOM     26  C10 <0> d   1      18.676  -4.667   8.038  0.00  0.00     0.419 C 
ATOM     27  F11 <0> d   1      17.352  -4.319   7.752  0.00  0.00    -0.166 F 
ATOM     28  F12 <0> d   1      19.501  -4.270   6.981  0.00  0.00    -0.166 F 
ATOM     29  F13 <0> d   1      18.769  -6.053   8.207  0.00  0.00    -0.166 F 
ENDBRANCH   6  26
TORSDOF 5
ENDMDL
MODEL 4
REMARK VINA RESULT:      -8.5      4.947      7.146
REMARK  5 active torsions:
REMARK  status: ('A' for Active; 'I' for Inactive)
REMARK    1  A    between atoms: O1_1  and  C2_2 
REMARK    2  A    between atoms: C2_2  and  C4_3 
REMARK    3  A    between atoms: C2_2  and  C22_21 
REMARK    4  A    between atoms: C9_8  and  C10_9 
REMARK    5  A    between atoms: C16_15  and  C17_16 
ROOT
ATOM      1  C4  <0> d   1      17.753  -0.869  10.047  0.00  0.00    -0.013 A 
ATOM      2  C5  <0> d   1      17.861  -1.010   8.651  0.00  0.00     0.002 A 
ATOM      3  C6  <0> d   1      17.387  -0.018   7.777  0.00  0.00     0.014 A 
ATOM      4  C7  <0> d   1      17.510  -0.191   6.432  0.00  0.00     0.002 A 
ATOM      5  C8  <0> d   1      18.102  -1.341   5.910  0.00  0.00     0.019 A 
ATOM      6  C9  <0> d   1      18.570  -2.321   6.728  0.00  0.00     0.077 A 
ATOM      7  C14 <0> d   1      18.462  -2.180   8.123  0.00  0.00     0.083 A 
ATOM      8  N15 <0> d   1      18.916  -3.125   8.950  0.00  0.00    -0.243 NA
ATOM      9  C16 <0> d   1      18.817  -2.998  10.252  0.00  0.00     0.141 A 
ATOM     10  C21 <0> d   1      18.241  -1.871  10.835  0.00  0.00     0.047 A 
ENDROOT
BRANCH   1  11
ATOM     11  C2  <0> d   1      17.122   0.357  10.655  0.00  0.00     0.182 C 
BRANCH  11  12
ATOM     12  O1  <0> d   1      16.117  -0.039  11.591  0.00  0.00    -0.389 OA
ATOM     13  H31 <0> d   1      15.523  -0.728  11.262  0.00  0.00     0.210 HD
ENDBRANCH  11  12
BRANCH  11  14
ATOM     14  C22 <0> d   1      18.193   1.178  11.376  0.00  0.00     0.219 C 
ATOM     15  N28 <0> d   1      17.646   1.699  12.635  0.00  0.00    -0.068 N 
ATOM     16  C27 <0> d   1      18.689   2.423  13.370  0.00  0.00     0.233 C 
ATOM     17  H29 <0> d   1      16.880   2.325  12.435  0.00  0.00     0.277 HD
ATOM     18  H30 <0> d   1      17.312   0.929  13.196  0.00  0.00     0.277 HD
ATOM     19  C26 <0> d   1      19.143   3.636  12.555  0.00  0.00     0.027 C 
ATOM     20  C25 <0> d   1      19.700   3.161  11.209  0.00  0.00     0.004 C 
ATOM     21  C24 <0> d   1      18.628   2.343  10.485  0.00  0.00     0.036 C 
ENDBRANCH  11  14
ENDBRANCH   1  11
BRANCH   9  22
ATOM     22  C17 <0> d   1      19.346  -4.095  11.139  0.00  0.00     0.434 C 
ATOM     23  F18 <0> d   1      19.816  -5.149  10.348  0.00  0.00    -0.165 F 
ATOM     24  F19 <0> d   1      20.392  -3.598  11.923  0.00  0.00    -0.165 F 
ATOM     25  F20 <0> d   1      18.319  -4.559  11.969  0.00  0.00    -0.165 F 
ENDBRANCH   9  22
BRANCH   6  26
ATOM     26  C10 <0> d   1      19.206  -3.556   6.141  0.00  0.00     0.419 C 
ATOM     27  F11 <0> d   1      20.504  -3.695   6.641  0.00  0.00    -0.166 F 
ATOM     28  F12 <0> d   1      18.449  -4.680   6.488  0.00  0.00    -0.166 F 
ATOM     29  F13 <0> d   1      19.252  -3.438   4.747  0.00  0.00    -0.166 F 
ENDBRANCH   6  26
TORSDOF 5
ENDMDL
MODEL 5
REMARK VINA RESULT:      -8.4      4.417      5.482
REMARK  5 active torsions:
REMARK  status: ('A' for Active; 'I' for Inactive)
REMARK    1  A    between atoms: O1_1  and  C2_2 
REMARK    2  A    between atoms: C2_2  and  C4_3 
REMARK    3  A    between atoms: C2_2  and  C22_21 
REMARK    4  A    between atoms: C9_8  and  C10_9 
REMARK    5  A    between atoms: C16_15  and  C17_16 
ROOT
ATOM      1  C4  <0> d   1      19.289  -2.551   7.587  0.00  0.00    -0.013 A 
ATOM      2  C5  <0> d   1      19.146  -1.156   7.466  0.00  0.00     0.002 A 
ATOM      3  C6  <0> d   1      19.286  -0.511   6.226  0.00  0.00     0.014 A 
ATOM      4  C7  <0> d   1      19.140   0.840   6.150  0.00  0.00     0.002 A 
ATOM      5  C8  <0> d   1      18.852   1.593   7.288  0.00  0.00     0.019 A 
ATOM      6  C9  <0> d   1      18.710   1.001   8.504  0.00  0.00     0.077 A 
ATOM      7  C14 <0> d   1      18.854  -0.393   8.623  0.00  0.00     0.083 A 
ATOM      8  N15 <0> d   1      18.718  -1.002   9.805  0.00  0.00    -0.243 NA
ATOM      9  C16 <0> d   1      18.851  -2.301   9.922  0.00  0.00     0.141 A 
ATOM     10  C21 <0> d   1      19.133  -3.110   8.823  0.00  0.00     0.047 A 
ENDROOT
BRANCH   1  11
ATOM     11  C2  <0> d   1      19.599  -3.405   6.384  0.00  0.00     0.182 C 
BRANCH  11  12
ATOM     12  O1  <0> d   1      20.833  -4.095   6.596  0.00  0.00    -0.389 OA
ATOM     13  H31 <0> d   1      21.161  -4.563   5.816  0.00  0.00     0.210 HD
ENDBRANCH  11  12
BRANCH  11  14
ATOM     14  C22 <0> d   1      18.476  -4.422   6.177  0.00  0.00     0.219 C 
ATOM     15  N28 <0> d   1      19.049  -5.771   6.081  0.00  0.00    -0.068 N 
ATOM     16  C27 <0> d   1      17.973  -6.761   5.960  0.00  0.00     0.233 C 
ATOM     17  H29 <0> d   1      19.647  -5.825   5.271  0.00  0.00     0.277 HD
ATOM     18  H30 <0> d   1      19.589  -5.963   6.912  0.00  0.00     0.277 HD
ATOM     19  C26 <0> d   1      17.198  -6.522   4.662  0.00  0.00     0.027 C 
ATOM     20  C25 <0> d   1      16.598  -5.113   4.685  0.00  0.00     0.004 C 
ATOM     21  C24 <0> d   1      17.722  -4.093   4.887  0.00  0.00     0.036 C 
ENDBRANCH  11  14
ENDBRANCH   1  11
BRANCH   9  22
ATOM     22  C17 <0> d   1      18.687  -2.937  11.278  0.00  0.00     0.434 C 
ATOM     23  F18 <0> d   1      19.575  -2.343  12.182  0.00  0.00    -0.165 F 
ATOM     24  F19 <0> d   1      17.374  -2.753  11.724  0.00  0.00    -0.165 F 
ATOM     25  F20 <0> d   1      18.963  -4.306  11.187  0.00  0.00    -0.165 F 
ENDBRANCH   9  22
BRANCH   6  26
ATOM     26  C10 <0> d   1      18.399   1.836   9.720  0.00  0.00     0.419 C 
ATOM     27  F11 <0> d   1      18.287   3.179   9.347  0.00  0.00    -0.166 F 
ATOM     28  F12 <0> d   1      17.193   1.407  10.285  0.00  0.00    -0.166 F 
ATOM     29  F13 <0> d   1      19.428   1.696  10.657  0.00  0.00    -0.166 F 
ENDBRANCH   6  26
TORSDOF 5
ENDMDL
MODEL 6
REMARK VINA RESULT:      -8.2      4.054      5.772
REMARK  5 active torsions:
REMARK  status: ('A' for Active; 'I' for Inactive)
REMARK    1  A    between atoms: O1_1  and  C2_2 
REMARK    2  A    between atoms: C2_2  and  C4_3 
REMARK    3  A    between atoms: C2_2  and  C22_21 
REMARK    4  A    between atoms: C9_8  and  C10_9 
REMARK    5  A    between atoms: C16_15  and  C17_16 
ROOT
ATOM      1  C4  <0> d   1      19.114  -0.824  10.336  0.00  0.00    -0.013 A 
ATOM      2  C5  <0> d   1      18.969  -1.294   9.017  0.00  0.00     0.002 A 
ATOM      3  C6  <0> d   1      19.047  -2.664   8.716  0.00  0.00     0.014 A 
ATOM      4  C7  <0> d   1      18.902  -3.078   7.428  0.00  0.00     0.002 A 
ATOM      5  C8  <0> d   1      18.676  -2.161   6.402  0.00  0.00     0.019 A 
ATOM      6  C9  <0> d   1      18.595  -0.828   6.659  0.00  0.00     0.077 A 
ATOM      7  C14 <0> d   1      18.740  -0.360   7.976  0.00  0.00     0.083 A 
ATOM      8  N15 <0> d   1      18.663   0.944   8.258  0.00  0.00    -0.243 NA
ATOM      9  C16 <0> d   1      18.798   1.386   9.485  0.00  0.00     0.141 A 
ATOM     10  C21 <0> d   1      19.020   0.521  10.554  0.00  0.00     0.047 A 
ENDROOT
BRANCH   1  11
ATOM     11  C2  <0> d   1      19.358  -1.779  11.476  0.00  0.00     0.182 C 
BRANCH  11  12
ATOM     12  O1  <0> d   1      20.701  -2.264  11.410  0.00  0.00    -0.389 OA
ATOM     13  H31 <0> d   1      21.218  -1.894  10.682  0.00  0.00     0.210 HD
ENDBRANCH  11  12
BRANCH  11  14
ATOM     14  C22 <0> d   1      19.143  -1.053  12.805  0.00  0.00     0.219 C 
ATOM     15  N28 <0> d   1      19.706  -1.856  13.898  0.00  0.00    -0.068 N 
ATOM     16  C27 <0> d   1      19.574  -1.132  15.167  0.00  0.00     0.233 C 
ATOM     17  H29 <0> d   1      19.212  -2.733  13.959  0.00  0.00     0.277 HD
ATOM     18  H30 <0> d   1      20.683  -2.032  13.712  0.00  0.00     0.277 HD
ATOM     19  C26 <0> d   1      18.092  -0.930  15.491  0.00  0.00     0.027 C 
ATOM     20  C25 <0> d   1      17.435  -0.121  14.369  0.00  0.00     0.004 C 
ATOM     21  C24 <0> d   1      17.645  -0.848  13.038  0.00  0.00     0.036 C 
ENDBRANCH  11  14
ENDBRANCH   1  11
BRANCH   9  22
ATOM     22  C17 <0> d   1      18.702   2.867   9.747  0.00  0.00     0.434 C 
ATOM     23  F18 <0> d   1      19.685   3.241  10.670  0.00  0.00    -0.165 F 
ATOM     24  F19 <0> d   1      18.895   3.566   8.550  0.00  0.00    -0.165 F 
ATOM     25  F20 <0> d   1      17.437   3.167  10.265  0.00  0.00    -0.165 F 
ENDBRANCH   9  22
BRANCH   6  26
ATOM     26  C10 <0> d   1      18.350   0.144   5.533  0.00  0.00     0.419 C 
ATOM     27  F11 <0> d   1      17.128   0.794   5.735  0.00  0.00    -0.166 F 
ATOM     28  F12 <0> d   1      19.381   1.090   5.500  0.00  0.00    -0.166 F 
ATOM     29  F13 <0> d   1      18.315  -0.549   4.318  0.00  0.00    -0.166 F 
ENDBRANCH   6  26
TORSDOF 5
ENDMDL
MODEL 7
REMARK VINA RESULT:      -8.2      5.024      7.936
REMARK  5 active torsions:
REMARK  status: ('A' for Active; 'I' for Inactive)
REMARK    1  A    between atoms: O1_1  and  C2_2 
REMARK    2  A    between atoms: C2_2  and  C4_3 
REMARK    3  A    between atoms: C2_2  and  C22_21 
REMARK    4  A    between atoms: C9_8  and  C10_9 
REMARK    5  A    between atoms: C16_15  and  C17_16 
ROOT
ATOM      1  C4  <0> d   1      19.523  -1.513  10.060  0.00  0.00    -0.013 A 
ATOM      2  C5  <0> d   1      18.875  -2.681  10.505  0.00  0.00     0.002 A 
ATOM      3  C6  <0> d   1      18.811  -3.008  11.870  0.00  0.00     0.014 A 
ATOM      4  C7  <0> d   1      18.176  -4.146  12.260  0.00  0.00     0.002 A 
ATOM      5  C8  <0> d   1      17.585  -4.993  11.322  0.00  0.00     0.019 A 
ATOM      6  C9  <0> d   1      17.628  -4.707   9.993  0.00  0.00     0.077 A 
ATOM      7  C14 <0> d   1      18.276  -3.540   9.551  0.00  0.00     0.083 A 
ATOM      8  N15 <0> d   1      18.332  -3.232   8.252  0.00  0.00    -0.243 NA
ATOM      9  C16 <0> d   1      18.935  -2.146   7.833  0.00  0.00     0.141 A 
ATOM     10  C21 <0> d   1      19.540  -1.257   8.719  0.00  0.00     0.047 A 
ENDROOT
BRANCH   1  11
ATOM     11  C2  <0> d   1      20.174  -0.569  11.038  0.00  0.00     0.182 C 
BRANCH  11  12
ATOM     12  O1  <0> d   1      21.588  -0.572  10.833  0.00  0.00    -0.389 OA
ATOM     13  H31 <0> d   1      21.958  -1.447  10.654  0.00  0.00     0.210 HD
ENDBRANCH  11  12
BRANCH  11  14
ATOM     14  C22 <0> d   1      19.631   0.845  10.821  0.00  0.00     0.219 C 
ATOM     15  N28 <0> d   1      20.375   1.789  11.663  0.00  0.00    -0.068 N 
ATOM     16  C27 <0> d   1      19.914   3.158  11.405  0.00  0.00     0.233 C 
ATOM     17  H29 <0> d   1      20.226   1.563  12.635  0.00  0.00     0.277 HD
ATOM     18  H30 <0> d   1      21.359   1.721  11.450  0.00  0.00     0.277 HD
ATOM     19  C26 <0> d   1      18.441   3.286  11.800  0.00  0.00     0.027 C 
ATOM     20  C25 <0> d   1      17.609   2.300  10.974  0.00  0.00     0.004 C 
ATOM     21  C24 <0> d   1      18.148   0.884  11.194  0.00  0.00     0.036 C 
ENDBRANCH  11  14
ENDBRANCH   1  11
BRANCH   9  22
ATOM     22  C17 <0> d   1      18.968  -1.846   6.357  0.00  0.00     0.434 C 
ATOM     23  F18 <0> d   1      17.659  -1.739   5.873  0.00  0.00    -0.165 F 
ATOM     24  F19 <0> d   1      19.647  -0.642   6.140  0.00  0.00    -0.165 F 
ATOM     25  F20 <0> d   1      19.628  -2.882   5.686  0.00  0.00    -0.165 F 
ENDBRANCH   9  22
BRANCH   6  26
ATOM     26  C10 <0> d   1      16.983  -5.637   8.999  0.00  0.00     0.419 C 
ATOM     27  F11 <0> d   1      15.735  -5.128   8.625  0.00  0.00    -0.166 F 
ATOM     28  F12 <0> d   1      17.798  -5.750   7.868  0.00  0.00    -0.166 F 
ATOM     29  F13 <0> d   1      16.817  -6.899   9.581  0.00  0.00    -0.166 F 
ENDBRANCH   6  26
TORSDOF 5
ENDMDL
MODEL 8
REMARK VINA RESULT:      -8.1      3.406      5.411
REMARK  5 active torsions:
REMARK  status: ('A' for Active; 'I' for Inactive)
REMARK    1  A    between atoms: O1_1  and  C2_2 
REMARK    2  A    between atoms: C2_2  and  C4_3 
REMARK    3  A    between atoms: C2_2  and  C22_21 
REMARK    4  A    between atoms: C9_8  and  C10_9 
REMARK    5  A    between atoms: C16_15  and  C17_16 
ROOT
ATOM      1  C4  <0> d   1      18.734   1.467  13.353  0.00  0.00    -0.013 A 
ATOM      2  C5  <0> d   1      18.641   2.095  12.097  0.00  0.00     0.002 A 
ATOM      3  C6  <0> d   1      18.475   3.485  11.985  0.00  0.00     0.014 A 
ATOM      4  C7  <0> d   1      18.389   4.055  10.752  0.00  0.00     0.002 A 
ATOM      5  C8  <0> d   1      18.465   3.277   9.597  0.00  0.00     0.019 A 
ATOM      6  C9  <0> d   1      18.626   1.928   9.670  0.00  0.00     0.077 A 
ATOM      7  C14 <0> d   1      18.718   1.302  10.925  0.00  0.00     0.083 A 
ATOM      8  N15 <0> d   1      18.878  -0.020  11.027  0.00  0.00    -0.243 NA
ATOM      9  C16 <0> d   1      18.965  -0.609  12.195  0.00  0.00     0.141 A 
ATOM     10  C21 <0> d   1      18.901   0.112  13.386  0.00  0.00     0.047 A 
ENDROOT
BRANCH   1  11
ATOM     11  C2  <0> d   1      18.657   2.269  14.627  0.00  0.00     0.182 C 
BRANCH  11  12
ATOM     12  O1  <0> d   1      17.438   3.014  14.648  0.00  0.00    -0.389 OA
ATOM     13  H31 <0> d   1      17.537   3.921  14.967  0.00  0.00     0.210 HD
ENDBRANCH  11  12
BRANCH  11  14
ATOM     14  C22 <0> d   1      18.697   1.322  15.829  0.00  0.00     0.219 C 
ATOM     15  N28 <0> d   1      17.334   0.884  16.151  0.00  0.00    -0.068 N 
ATOM     16  C27 <0> d   1      17.370  -0.085  17.253  0.00  0.00     0.233 C 
ATOM     17  H29 <0> d   1      16.780   1.682  16.424  0.00  0.00     0.277 HD
ATOM     18  H30 <0> d   1      16.922   0.451  15.338  0.00  0.00     0.277 HD
ATOM     19  C26 <0> d   1      17.922   0.590  18.512  0.00  0.00     0.027 C 
ATOM     20  C25 <0> d   1      19.338   1.100  18.231  0.00  0.00     0.004 C 
ATOM     21  C24 <0> d   1      19.300   2.051  17.032  0.00  0.00     0.036 C 
ENDBRANCH  11  14
ENDBRANCH   1  11
BRANCH   9  22
ATOM     22  C17 <0> d   1      19.146  -2.104  12.253  0.00  0.00     0.434 C 
ATOM     23  F18 <0> d   1      19.881  -2.528  11.140  0.00  0.00    -0.165 F 
ATOM     24  F19 <0> d   1      19.832  -2.447  13.423  0.00  0.00    -0.165 F 
ATOM     25  F20 <0> d   1      17.892  -2.726  12.247  0.00  0.00    -0.165 F 
ENDBRANCH   9  22
BRANCH   6  26
ATOM     26  C10 <0> d   1      18.705   1.108   8.408  0.00  0.00     0.419 C 
ATOM     27  F11 <0> d   1      19.797   0.237   8.486  0.00  0.00    -0.166 F 
ATOM     28  F12 <0> d   1      17.528   0.367   8.258  0.00  0.00    -0.166 F 
ATOM     29  F13 <0> d   1      18.863   1.958   7.308  0.00  0.00    -0.166 F 
ENDBRANCH   6  26
TORSDOF 5
ENDMDL
MODEL 9
REMARK VINA RESULT:      -8.1      3.878      4.978
REMARK  5 active torsions:
REMARK  status: ('A' for Active; 'I' for Inactive)
REMARK    1  A    between atoms: O1_1  and  C2_2 
REMARK    2  A    between atoms: C2_2  and  C4_3 
REMARK    3  A    between atoms: C2_2  and  C22_21 
REMARK    4  A    between atoms: C9_8  and  C10_9 
REMARK    5  A    between atoms: C16_15  and  C17_16 
ROOT
ATOM      1  C4  <0> d   1      19.053  -2.346   7.942  0.00  0.00    -0.013 A 
ATOM      2  C5  <0> d   1      19.007  -0.962   7.689  0.00  0.00     0.002 A 
ATOM      3  C6  <0> d   1      19.137  -0.452   6.388  0.00  0.00     0.014 A 
ATOM      4  C7  <0> d   1      19.088   0.893   6.185  0.00  0.00     0.002 A 
ATOM      5  C8  <0> d   1      18.908   1.772   7.252  0.00  0.00     0.019 A 
ATOM      6  C9  <0> d   1      18.780   1.311   8.526  0.00  0.00     0.077 A 
ATOM      7  C14 <0> d   1      18.826  -0.071   8.776  0.00  0.00     0.083 A 
ATOM      8  N15 <0> d   1      18.700  -0.552  10.016  0.00  0.00    -0.243 NA
ATOM      9  C16 <0> d   1      18.742  -1.841  10.256  0.00  0.00     0.141 A 
ATOM     10  C21 <0> d   1      18.913  -2.771   9.232  0.00  0.00     0.047 A 
ENDROOT
BRANCH   1  11
ATOM     11  C2  <0> d   1      19.244  -3.332   6.819  0.00  0.00     0.182 C 
BRANCH  11  12
ATOM     12  O1  <0> d   1      20.599  -3.785   6.808  0.00  0.00    -0.389 OA
ATOM     13  H31 <0> d   1      21.064  -3.653   7.645  0.00  0.00     0.210 HD
ENDBRANCH  11  12
BRANCH  11  14
ATOM     14  C22 <0> d   1      18.309  -4.526   7.023  0.00  0.00     0.219 C 
ATOM     15  N28 <0> d   1      19.097  -5.703   7.412  0.00  0.00    -0.068 N 
ATOM     16  C27 <0> d   1      18.201  -6.833   7.686  0.00  0.00     0.233 C 
ATOM     17  H29 <0> d   1      19.727  -5.948   6.664  0.00  0.00     0.277 HD
ATOM     18  H30 <0> d   1      19.628  -5.487   8.243  0.00  0.00     0.277 HD
ATOM     19  C26 <0> d   1      17.449  -7.213   6.409  0.00  0.00     0.027 C 
ATOM     20  C25 <0> d   1      16.627  -6.012   5.930  0.00  0.00     0.004 C 
ATOM     21  C24 <0> d   1      17.562  -4.818   5.720  0.00  0.00     0.036 C 
ENDBRANCH  11  14
ENDBRANCH   1  11
BRANCH   9  22
ATOM     22  C17 <0> d   1      18.594  -2.330  11.674  0.00  0.00     0.434 C 
ATOM     23  F18 <0> d   1      19.782  -2.948  12.080  0.00  0.00    -0.165 F 
ATOM     24  F19 <0> d   1      18.320  -1.246  12.515  0.00  0.00    -0.165 F 
ATOM     25  F20 <0> d   1      17.543  -3.251  11.742  0.00  0.00    -0.165 F 
ENDBRANCH   9  22
BRANCH   6  26
ATOM     26  C10 <0> d   1      18.587   2.280   9.664  0.00  0.00     0.419 C 
ATOM     27  F11 <0> d   1      17.409   1.967  10.349  0.00  0.00    -0.166 F 
ATOM     28  F12 <0> d   1      19.673   2.192  10.541  0.00  0.00    -0.166 F 
ATOM     29  F13 <0> d   1      18.501   3.582   9.158  0.00  0.00    -0.166 F 
ENDBRANCH   6  26
TORSDOF 5
ENDMDL
