MODEL 1
REMARK VINA RESULT:      -6.2      0.000      0.000
REMARK  7 active torsions:
REMARK  status: ('A' for Active; 'I' for Inactive)
REMARK       I    between atoms: N1_1  and  C2_2 
REMARK    1  A    between atoms: C2_2  and  O4_4 
REMARK    2  A    between atoms: O4_4  and  C5_5 
REMARK    3  A    between atoms: C5_5  and  C6_6 
REMARK    4  A    between atoms: C6_6  and  C7_7 
REMARK    5  A    between atoms: C6_6  and  C12_12 
REMARK    6  A    between atoms: C7_7  and  O8_8 
REMARK    7  A    between atoms: O8_8  and  C9_9 
REMARK       I    between atoms: C9_9  and  N10_10 
ROOT
ATOM      1  C6  <0> d   1      18.739   1.337  10.348  0.00  0.00     0.067 C 
ENDROOT
BRANCH   1   2
ATOM      2  C5  <0> d   1      17.880   2.532  10.770  0.00  0.00     0.192 C 
BRANCH   2   3
ATOM      3  O4  <0> d   1      18.725   3.702  10.929  0.00  0.00    -0.303 OA
BRANCH   3   4
ATOM      4  C2  <0> d   1      19.622   3.676  11.932  0.00  0.00     0.358 C 
ATOM      5  N1  <0> d   1      19.202   3.603  13.211  0.00  0.00    -0.346 N 
ATOM      6  H18 <0> d   1      19.848   3.585  13.934  0.00  0.00     0.161 HD
ATOM      7  H19 <0> d   1      18.252   3.573  13.408  0.00  0.00     0.161 HD
ATOM      8  O3  <0> d   1      20.811   3.719  11.686  0.00  0.00    -0.239 OA
ENDBRANCH   3   4
ENDBRANCH   2   3
ENDBRANCH   1   2
BRANCH   1   9
ATOM      9  C7  <0> d   1      18.401   0.132  11.228  0.00  0.00     0.192 C 
BRANCH   9  10
ATOM     10  O8  <0> d   1      19.630  -0.473  11.712  0.00  0.00    -0.303 OA
BRANCH  10  11
ATOM     11  C9  <0> d   1      20.381   0.262  12.554  0.00  0.00     0.358 C 
ATOM     12  N10 <0> d   1      21.619   0.650  12.187  0.00  0.00    -0.346 N 
ATOM     13  H25 <0> d   1      21.967   0.401  11.317  0.00  0.00     0.161 HD
ATOM     14  H26 <0> d   1      22.160   1.179  12.793  0.00  0.00     0.161 HD
ATOM     15  O11 <0> d   1      19.944   0.574  13.643  0.00  0.00    -0.239 OA
ENDBRANCH  10  11
ENDBRANCH   9  10
ENDBRANCH   1   9
BRANCH   1  16
ATOM     16  C12 <0> d   1      18.458   1.002   8.906  0.00  0.00    -0.050 A 
ATOM     17  C17 <0> d   1      17.462   0.097   8.588  0.00  0.00     0.007 A 
ATOM     18  C16 <0> d   1      17.201  -0.207   7.266  0.00  0.00     0.001 A 
ATOM     19  C15 <0> d   1      17.941   0.386   6.261  0.00  0.00     0.000 A 
ATOM     20  C14 <0> d   1      18.940   1.288   6.579  0.00  0.00     0.001 A 
ATOM     21  C13 <0> d   1      19.198   1.595   7.901  0.00  0.00     0.007 A 
ENDBRANCH   1  16
TORSDOF 7
ENDMDL
MODEL 2
REMARK VINA RESULT:      -6.1      1.572      3.699
REMARK  7 active torsions:
REMARK  status: ('A' for Active; 'I' for Inactive)
REMARK       I    between atoms: N1_1  and  C2_2 
REMARK    1  A    between atoms: C2_2  and  O4_4 
REMARK    2  A    between atoms: O4_4  and  C5_5 
REMARK    3  A    between atoms: C5_5  and  C6_6 
REMARK    4  A    between atoms: C6_6  and  C7_7 
REMARK    5  A    between atoms: C6_6  and  C12_12 
REMARK    6  A    between atoms: C7_7  and  O8_8 
REMARK    7  A    between atoms: O8_8  and  C9_9 
REMARK       I    between atoms: C9_9  and  N10_10 
ROOT
ATOM      1  C6  <0> d   1      17.710   1.276  10.324  0.00  0.00     0.067 C 
ENDROOT
BRANCH   1   2
ATOM      2  C5  <0> d   1      18.582   0.373  11.199  0.00  0.00     0.192 C 
BRANCH   2   3
ATOM      3  O4  <0> d   1      19.352   1.190  12.120  0.00  0.00    -0.303 OA
BRANCH   3   4
ATOM      4  C2  <0> d   1      20.389   0.597  12.743  0.00  0.00     0.358 C 
ATOM      5  N1  <0> d   1      21.604   0.578  12.160  0.00  0.00    -0.346 N 
ATOM      6  H18 <0> d   1      22.350   0.152  12.609  0.00  0.00     0.161 HD
ATOM      7  H19 <0> d   1      21.731   0.989  11.291  0.00  0.00     0.161 HD
ATOM      8  O3  <0> d   1      20.228   0.079  13.830  0.00  0.00    -0.239 OA
ENDBRANCH   3   4
ENDBRANCH   2   3
ENDBRANCH   1   2
BRANCH   1   9
ATOM      9  C7  <0> d   1      18.057   2.741  10.598  0.00  0.00     0.192 C 
BRANCH   9  10
ATOM     10  O8  <0> d   1      16.865   3.448  11.028  0.00  0.00    -0.303 OA
BRANCH  10  11
ATOM     11  C9  <0> d   1      16.911   4.794  11.005  0.00  0.00     0.358 C 
ATOM     12  N10 <0> d   1      17.378   5.433   9.913  0.00  0.00    -0.346 N 
ATOM     13  H25 <0> d   1      17.681   4.924   9.145  0.00  0.00     0.161 HD
ATOM     14  H26 <0> d   1      17.412   6.402   9.897  0.00  0.00     0.161 HD
ATOM     15  O11 <0> d   1      16.532   5.431  11.967  0.00  0.00    -0.239 OA
ENDBRANCH  10  11
ENDBRANCH   9  10
ENDBRANCH   1   9
BRANCH   1  16
ATOM     16  C12 <0> d   1      17.963   0.963   8.872  0.00  0.00    -0.050 A 
ATOM     17  C17 <0> d   1      18.880   1.708   8.153  0.00  0.00     0.007 A 
ATOM     18  C16 <0> d   1      19.116   1.417   6.823  0.00  0.00     0.001 A 
ATOM     19  C15 <0> d   1      18.429   0.387   6.208  0.00  0.00     0.000 A 
ATOM     20  C14 <0> d   1      17.509  -0.355   6.925  0.00  0.00     0.001 A 
ATOM     21  C13 <0> d   1      17.277  -0.067   8.257  0.00  0.00     0.007 A 
ENDBRANCH   1  16
TORSDOF 7
ENDMDL
MODEL 3
REMARK VINA RESULT:      -6.1      1.108      1.654
REMARK  7 active torsions:
REMARK  status: ('A' for Active; 'I' for Inactive)
REMARK       I    between atoms: N1_1  and  C2_2 
REMARK    1  A    between atoms: C2_2  and  O4_4 
REMARK    2  A    between atoms: O4_4  and  C5_5 
REMARK    3  A    between atoms: C5_5  and  C6_6 
REMARK    4  A    between atoms: C6_6  and  C7_7 
REMARK    5  A    between atoms: C6_6  and  C12_12 
REMARK    6  A    between atoms: C7_7  and  O8_8 
REMARK    7  A    between atoms: O8_8  and  C9_9 
REMARK       I    between atoms: C9_9  and  N10_10 
ROOT
ATOM      1  C6  <0> d   1      18.620   1.520  10.336  0.00  0.00     0.067 C 
ENDROOT
BRANCH   1   2
ATOM      2  C5  <0> d   1      17.729   2.723  10.658  0.00  0.00     0.192 C 
BRANCH   2   3
ATOM      3  O4  <0> d   1      17.399   2.715  12.072  0.00  0.00    -0.303 OA
BRANCH   3   4
ATOM      4  C2  <0> d   1      17.915   3.705  12.825  0.00  0.00     0.358 C 
ATOM      5  N1  <0> d   1      19.162   3.592  13.324  0.00  0.00    -0.346 N 
ATOM      6  H18 <0> d   1      19.534   4.305  13.866  0.00  0.00     0.161 HD
ATOM      7  H19 <0> d   1      19.687   2.797  13.142  0.00  0.00     0.161 HD
ATOM      8  O3  <0> d   1      17.256   4.699  13.056  0.00  0.00    -0.239 OA
ENDBRANCH   3   4
ENDBRANCH   2   3
ENDBRANCH   1   2
BRANCH   1   9
ATOM      9  C7  <0> d   1      18.263   0.359  11.265  0.00  0.00     0.192 C 
BRANCH   9  10
ATOM     10  O8  <0> d   1      19.477  -0.325  11.673  0.00  0.00    -0.303 OA
BRANCH  10  11
ATOM     11  C9  <0> d   1      20.302   0.339  12.505  0.00  0.00     0.358 C 
ATOM     12  N10 <0> d   1      21.568   0.607  12.126  0.00  0.00    -0.346 N 
ATOM     13  H25 <0> d   1      21.884   0.321  11.254  0.00  0.00     0.161 HD
ATOM     14  H26 <0> d   1      22.162   1.085  12.725  0.00  0.00     0.161 HD
ATOM     15  O11 <0> d   1      19.906   0.697  13.596  0.00  0.00    -0.239 OA
ENDBRANCH  10  11
ENDBRANCH   9  10
ENDBRANCH   1   9
BRANCH   1  16
ATOM     16  C12 <0> d   1      18.402   1.104   8.904  0.00  0.00    -0.050 A 
ATOM     17  C17 <0> d   1      19.151   1.680   7.895  0.00  0.00     0.007 A 
ATOM     18  C16 <0> d   1      18.955   1.295   6.583  0.00  0.00     0.001 A 
ATOM     19  C15 <0> d   1      18.004   0.340   6.277  0.00  0.00     0.000 A 
ATOM     20  C14 <0> d   1      17.250  -0.232   7.285  0.00  0.00     0.001 A 
ATOM     21  C13 <0> d   1      17.450   0.150   8.598  0.00  0.00     0.007 A 
ENDBRANCH   1  16
TORSDOF 7
ENDMDL
MODEL 4
REMARK VINA RESULT:      -6.1      1.439      3.421
REMARK  7 active torsions:
REMARK  status: ('A' for Active; 'I' for Inactive)
REMARK       I    between atoms: N1_1  and  C2_2 
REMARK    1  A    between atoms: C2_2  and  O4_4 
REMARK    2  A    between atoms: O4_4  and  C5_5 
REMARK    3  A    between atoms: C5_5  and  C6_6 
REMARK    4  A    between atoms: C6_6  and  C7_7 
REMARK    5  A    between atoms: C6_6  and  C12_12 
REMARK    6  A    between atoms: C7_7  and  O8_8 
REMARK    7  A    between atoms: O8_8  and  C9_9 
REMARK       I    between atoms: C9_9  and  N10_10 
ROOT
ATOM      1  C6  <0> d   1      18.346   1.346   9.949  0.00  0.00     0.067 C 
ENDROOT
BRANCH   1   2
ATOM      2  C5  <0> d   1      19.195   0.311  10.692  0.00  0.00     0.192 C 
BRANCH   2   3
ATOM      3  O4  <0> d   1      19.168   0.597  12.115  0.00  0.00    -0.303 OA
BRANCH   3   4
ATOM      4  C2  <0> d   1      20.321   0.440  12.792  0.00  0.00     0.358 C 
ATOM      5  N1  <0> d   1      21.501   0.610  12.161  0.00  0.00    -0.346 N 
ATOM      6  H18 <0> d   1      22.332   0.498  12.648  0.00  0.00     0.161 HD
ATOM      7  H19 <0> d   1      21.518   0.842  11.219  0.00  0.00     0.161 HD
ATOM      8  O3  <0> d   1      20.300   0.146  13.970  0.00  0.00    -0.239 OA
ENDBRANCH   3   4
ENDBRANCH   2   3
ENDBRANCH   1   2
BRANCH   1   9
ATOM      9  C7  <0> d   1      18.997   2.725  10.075  0.00  0.00     0.192 C 
BRANCH   9  10
ATOM     10  O8  <0> d   1      18.282   3.508  11.067  0.00  0.00    -0.303 OA
BRANCH  10  11
ATOM     11  C9  <0> d   1      17.384   4.401  10.609  0.00  0.00     0.358 C 
ATOM     12  N10 <0> d   1      17.676   5.156   9.531  0.00  0.00    -0.346 N 
ATOM     13  H25 <0> d   1      18.532   5.056   9.086  0.00  0.00     0.161 HD
ATOM     14  H26 <0> d   1      17.030   5.800   9.201  0.00  0.00     0.161 HD
ATOM     15  O11 <0> d   1      16.312   4.526  11.166  0.00  0.00    -0.239 OA
ENDBRANCH  10  11
ENDBRANCH   9  10
ENDBRANCH   1   9
BRANCH   1  16
ATOM     16  C12 <0> d   1      18.253   0.966   8.494  0.00  0.00    -0.050 A 
ATOM     17  C17 <0> d   1      17.325   0.026   8.082  0.00  0.00     0.007 A 
ATOM     18  C16 <0> d   1      17.236  -0.319   6.748  0.00  0.00     0.001 A 
ATOM     19  C15 <0> d   1      18.079   0.268   5.824  0.00  0.00     0.000 A 
ATOM     20  C14 <0> d   1      19.011   1.204   6.235  0.00  0.00     0.001 A 
ATOM     21  C13 <0> d   1      19.096   1.553   7.570  0.00  0.00     0.007 A 
ENDBRANCH   1  16
TORSDOF 7
ENDMDL
MODEL 5
REMARK VINA RESULT:      -5.9      2.878      5.954
REMARK  7 active torsions:
REMARK  status: ('A' for Active; 'I' for Inactive)
REMARK       I    between atoms: N1_1  and  C2_2 
REMARK    1  A    between atoms: C2_2  and  O4_4 
REMARK    2  A    between atoms: O4_4  and  C5_5 
REMARK    3  A    between atoms: C5_5  and  C6_6 
REMARK    4  A    between atoms: C6_6  and  C7_7 
REMARK    5  A    between atoms: C6_6  and  C12_12 
REMARK    6  A    between atoms: C7_7  and  O8_8 
REMARK    7  A    between atoms: O8_8  and  C9_9 
REMARK       I    between atoms: C9_9  and  N10_10 
ROOT
ATOM      1  C6  <0> d   1      18.743   0.387  13.070  0.00  0.00     0.067 C 
ENDROOT
BRANCH   1   2
ATOM      2  C5  <0> d   1      18.277  -0.638  12.034  0.00  0.00     0.192 C 
BRANCH   2   3
ATOM      3  O4  <0> d   1      19.434  -1.283  11.438  0.00  0.00    -0.303 OA
BRANCH   3   4
ATOM      4  C2  <0> d   1      20.278  -0.499  10.741  0.00  0.00     0.358 C 
ATOM      5  N1  <0> d   1      21.603  -0.553  10.982  0.00  0.00    -0.346 N 
ATOM      6  H18 <0> d   1      22.211   0.011  10.480  0.00  0.00     0.161 HD
ATOM      7  H19 <0> d   1      21.948  -1.155  11.661  0.00  0.00     0.161 HD
ATOM      8  O3  <0> d   1      19.846   0.258   9.894  0.00  0.00    -0.239 OA
ENDBRANCH   3   4
ENDBRANCH   2   3
ENDBRANCH   1   2
BRANCH   1   9
ATOM      9  C7  <0> d   1      18.000   1.707  12.851  0.00  0.00     0.192 C 
BRANCH   9  10
ATOM     10  O8  <0> d   1      18.947   2.807  12.885  0.00  0.00    -0.303 OA
BRANCH  10  11
ATOM     11  C9  <0> d   1      19.529   3.148  11.720  0.00  0.00     0.358 C 
ATOM     12  N10 <0> d   1      20.858   2.986  11.557  0.00  0.00    -0.346 N 
ATOM     13  H25 <0> d   1      21.394   2.623  12.280  0.00  0.00     0.161 HD
ATOM     14  H26 <0> d   1      21.277   3.232  10.718  0.00  0.00     0.161 HD
ATOM     15  O11 <0> d   1      18.857   3.601  10.815  0.00  0.00    -0.239 OA
ENDBRANCH  10  11
ENDBRANCH   9  10
ENDBRANCH   1   9
BRANCH   1  16
ATOM     16  C12 <0> d   1      18.451  -0.130  14.455  0.00  0.00    -0.050 A 
ATOM     17  C17 <0> d   1      19.188  -1.180  14.971  0.00  0.00     0.007 A 
ATOM     18  C16 <0> d   1      18.924  -1.651  16.242  0.00  0.00     0.001 A 
ATOM     19  C15 <0> d   1      17.916  -1.080  16.996  0.00  0.00     0.000 A 
ATOM     20  C14 <0> d   1      17.175  -0.033  16.479  0.00  0.00     0.001 A 
ATOM     21  C13 <0> d   1      17.443   0.441  15.209  0.00  0.00     0.007 A 
ENDBRANCH   1  16
TORSDOF 7
ENDMDL
MODEL 6
REMARK VINA RESULT:      -5.9      1.352      3.316
REMARK  7 active torsions:
REMARK  status: ('A' for Active; 'I' for Inactive)
REMARK       I    between atoms: N1_1  and  C2_2 
REMARK    1  A    between atoms: C2_2  and  O4_4 
REMARK    2  A    between atoms: O4_4  and  C5_5 
REMARK    3  A    between atoms: C5_5  and  C6_6 
REMARK    4  A    between atoms: C6_6  and  C7_7 
REMARK    5  A    between atoms: C6_6  and  C12_12 
REMARK    6  A    between atoms: C7_7  and  O8_8 
REMARK    7  A    between atoms: O8_8  and  C9_9 
REMARK       I    between atoms: C9_9  and  N10_10 
ROOT
ATOM      1  C6  <0> d   1      18.060   2.500  11.167  0.00  0.00     0.067 C 
ENDROOT
BRANCH   1   2
ATOM      2  C5  <0> d   1      18.185   1.533  12.345  0.00  0.00     0.192 C 
BRANCH   2   3
ATOM      3  O4  <0> d   1      19.563   1.504  12.803  0.00  0.00    -0.303 OA
BRANCH   3   4
ATOM      4  C2  <0> d   1      20.287   0.411  12.495  0.00  0.00     0.358 C 
ATOM      5  N1  <0> d   1      21.578   0.539  12.129  0.00  0.00    -0.346 N 
ATOM      6  H18 <0> d   1      22.099  -0.248  11.907  0.00  0.00     0.161 HD
ATOM      7  H19 <0> d   1      21.984   1.419  12.085  0.00  0.00     0.161 HD
ATOM      8  O3  <0> d   1      19.776  -0.690  12.546  0.00  0.00    -0.239 OA
ENDBRANCH   3   4
ENDBRANCH   2   3
ENDBRANCH   1   2
BRANCH   1   9
ATOM      9  C7  <0> d   1      19.183   3.537  11.236  0.00  0.00     0.192 C 
BRANCH   9  10
ATOM     10  O8  <0> d   1      18.667   4.773  11.797  0.00  0.00    -0.303 OA
BRANCH  10  11
ATOM     11  C9  <0> d   1      18.821   4.954  13.122  0.00  0.00     0.358 C 
ATOM     12  N10 <0> d   1      19.933   4.506  13.738  0.00  0.00    -0.346 N 
ATOM     13  H25 <0> d   1      20.622   4.053  13.227  0.00  0.00     0.161 HD
ATOM     14  H26 <0> d   1      20.044   4.636  14.693  0.00  0.00     0.161 HD
ATOM     15  O11 <0> d   1      17.958   5.521  13.762  0.00  0.00    -0.239 OA
ENDBRANCH  10  11
ENDBRANCH   9  10
ENDBRANCH   1   9
BRANCH   1  16
ATOM     16  C12 <0> d   1      18.164   1.732   9.874  0.00  0.00    -0.050 A 
ATOM     17  C17 <0> d   1      17.415   0.586   9.689  0.00  0.00     0.007 A 
ATOM     18  C16 <0> d   1      17.506  -0.116   8.502  0.00  0.00     0.001 A 
ATOM     19  C15 <0> d   1      18.354   0.324   7.503  0.00  0.00     0.000 A 
ATOM     20  C14 <0> d   1      19.108   1.468   7.690  0.00  0.00     0.001 A 
ATOM     21  C13 <0> d   1      19.012   2.172   8.875  0.00  0.00     0.007 A 
ENDBRANCH   1  16
TORSDOF 7
ENDMDL
MODEL 7
REMARK VINA RESULT:      -5.9      3.130      5.705
REMARK  7 active torsions:
REMARK  status: ('A' for Active; 'I' for Inactive)
REMARK       I    between atoms: N1_1  and  C2_2 
REMARK    1  A    between atoms: C2_2  and  O4_4 
REMARK    2  A    between atoms: O4_4  and  C5_5 
REMARK    3  A    between atoms: C5_5  and  C6_6 
REMARK    4  A    between atoms: C6_6  and  C7_7 
REMARK    5  A    between atoms: C6_6  and  C12_12 
REMARK    6  A    between atoms: C7_7  and  O8_8 
REMARK    7  A    between atoms: O8_8  and  C9_9 
REMARK       I    between atoms: C9_9  and  N10_10 
ROOT
ATOM      1  C6  <0> d   1      18.128   0.097  13.144  0.00  0.00     0.067 C 
ENDROOT
BRANCH   1   2
ATOM      2  C5  <0> d   1      17.799   1.582  12.970  0.00  0.00     0.192 C 
BRANCH   2   3
ATOM      3  O4  <0> d   1      17.084   1.776  11.721  0.00  0.00    -0.303 OA
BRANCH   3   4
ATOM      4  C2  <0> d   1      17.746   2.400  10.729  0.00  0.00     0.358 C 
ATOM      5  N1  <0> d   1      18.004   1.750   9.577  0.00  0.00    -0.346 N 
ATOM      6  H18 <0> d   1      18.480   2.199   8.862  0.00  0.00     0.161 HD
ATOM      7  H19 <0> d   1      17.715   0.830   9.465  0.00  0.00     0.161 HD
ATOM      8  O3  <0> d   1      18.110   3.550  10.872  0.00  0.00    -0.239 OA
ENDBRANCH   3   4
ENDBRANCH   2   3
ENDBRANCH   1   2
BRANCH   1   9
ATOM      9  C7  <0> d   1      19.504  -0.194  12.542  0.00  0.00     0.192 C 
BRANCH   9  10
ATOM     10  O8  <0> d   1      19.347  -0.640  11.169  0.00  0.00    -0.303 OA
BRANCH  10  11
ATOM     11  C9  <0> d   1      20.419  -0.526  10.363  0.00  0.00     0.358 C 
ATOM     12  N10 <0> d   1      21.662  -0.628  10.877  0.00  0.00    -0.346 N 
ATOM     13  H25 <0> d   1      21.782  -0.784  11.827  0.00  0.00     0.161 HD
ATOM     14  H26 <0> d   1      22.434  -0.546  10.296  0.00  0.00     0.161 HD
ATOM     15  O11 <0> d   1      20.268  -0.331   9.174  0.00  0.00    -0.239 OA
ENDBRANCH  10  11
ENDBRANCH   9  10
ENDBRANCH   1   9
BRANCH   1  16
ATOM     16  C12 <0> d   1      18.138  -0.246  14.611  0.00  0.00    -0.050 A 
ATOM     17  C17 <0> d   1      19.016  -1.199  15.092  0.00  0.00     0.007 A 
ATOM     18  C16 <0> d   1      19.029  -1.510  16.438  0.00  0.00     0.001 A 
ATOM     19  C15 <0> d   1      18.159  -0.874  17.303  0.00  0.00     0.000 A 
ATOM     20  C14 <0> d   1      17.277   0.076  16.822  0.00  0.00     0.001 A 
ATOM     21  C13 <0> d   1      17.268   0.390  15.476  0.00  0.00     0.007 A 
ENDBRANCH   1  16
TORSDOF 7
ENDMDL
MODEL 8
REMARK VINA RESULT:      -5.8      3.776      5.262
REMARK  7 active torsions:
REMARK  status: ('A' for Active; 'I' for Inactive)
REMARK       I    between atoms: N1_1  and  C2_2 
REMARK    1  A    between atoms: C2_2  and  O4_4 
REMARK    2  A    between atoms: O4_4  and  C5_5 
REMARK    3  A    between atoms: C5_5  and  C6_6 
REMARK    4  A    between atoms: C6_6  and  C7_7 
REMARK    5  A    between atoms: C6_6  and  C12_12 
REMARK    6  A    between atoms: C7_7  and  O8_8 
REMARK    7  A    between atoms: O8_8  and  C9_9 
REMARK       I    between atoms: C9_9  and  N10_10 
ROOT
ATOM      1  C6  <0> d   1      17.986  -1.345   8.102  0.00  0.00     0.067 C 
ENDROOT
BRANCH   1   2
ATOM      2  C5  <0> d   1      19.166  -1.677   7.186  0.00  0.00     0.192 C 
BRANCH   2   3
ATOM      3  O4  <0> d   1      18.670  -2.253   5.948  0.00  0.00    -0.303 OA
BRANCH   3   4
ATOM      4  C2  <0> d   1      18.856  -1.536   4.824  0.00  0.00     0.358 C 
ATOM      5  N1  <0> d   1      17.844  -1.387   3.945  0.00  0.00    -0.346 N 
ATOM      6  H18 <0> d   1      17.978  -0.871   3.135  0.00  0.00     0.161 HD
ATOM      7  H19 <0> d   1      16.984  -1.799   4.122  0.00  0.00     0.161 HD
ATOM      8  O3  <0> d   1      19.934  -1.024   4.601  0.00  0.00    -0.239 OA
ENDBRANCH   3   4
ENDBRANCH   2   3
ENDBRANCH   1   2
BRANCH   1   9
ATOM      9  C7  <0> d   1      17.917  -2.369   9.236  0.00  0.00     0.192 C 
BRANCH   9  10
ATOM     10  O8  <0> d   1      19.263  -2.734   9.641  0.00  0.00    -0.303 OA
BRANCH  10  11
ATOM     11  C9  <0> d   1      19.522  -2.743  10.962  0.00  0.00     0.358 C 
ATOM     12  N10 <0> d   1      20.696  -3.227  11.415  0.00  0.00    -0.346 N 
ATOM     13  H25 <0> d   1      21.354  -3.569  10.789  0.00  0.00     0.161 HD
ATOM     14  H26 <0> d   1      20.883  -3.234  12.367  0.00  0.00     0.161 HD
ATOM     15  O11 <0> d   1      18.698  -2.316  11.746  0.00  0.00    -0.239 OA
ENDBRANCH  10  11
ENDBRANCH   9  10
ENDBRANCH   1   9
BRANCH   1  16
ATOM     16  C12 <0> d   1      18.174   0.034   8.681  0.00  0.00    -0.050 A 
ATOM     17  C17 <0> d   1      17.541   0.381   9.860  0.00  0.00     0.007 A 
ATOM     18  C16 <0> d   1      17.717   1.643  10.393  0.00  0.00     0.001 A 
ATOM     19  C15 <0> d   1      18.518   2.563   9.744  0.00  0.00     0.000 A 
ATOM     20  C14 <0> d   1      19.148   2.218   8.561  0.00  0.00     0.001 A 
ATOM     21  C13 <0> d   1      18.976   0.953   8.031  0.00  0.00     0.007 A 
ENDBRANCH   1  16
TORSDOF 7
ENDMDL
MODEL 9
REMARK VINA RESULT:      -5.6      1.612      3.581
REMARK  7 active torsions:
REMARK  status: ('A' for Active; 'I' for Inactive)
REMARK       I    between atoms: N1_1  and  C2_2 
REMARK    1  A    between atoms: C2_2  and  O4_4 
REMARK    2  A    between atoms: O4_4  and  C5_5 
REMARK    3  A    between atoms: C5_5  and  C6_6 
REMARK    4  A    between atoms: C6_6  and  C7_7 
REMARK    5  A    between atoms: C6_6  and  C12_12 
REMARK    6  A    between atoms: C7_7  and  O8_8 
REMARK    7  A    between atoms: O8_8  and  C9_9 
REMARK       I    between atoms: C9_9  and  N10_10 
ROOT
ATOM      1  C6  <0> d   1      18.095   1.128   9.036  0.00  0.00     0.067 C 
ENDROOT
BRANCH   1   2
ATOM      2  C5  <0> d   1      18.010  -0.100   9.946  0.00  0.00     0.192 C 
BRANCH   2   3
ATOM      3  O4  <0> d   1      19.314  -0.365  10.526  0.00  0.00    -0.303 OA
BRANCH   3   4
ATOM      4  C2  <0> d   1      19.496  -1.570  11.098  0.00  0.00     0.358 C 
ATOM      5  N1  <0> d   1      20.741  -2.063  11.252  0.00  0.00    -0.346 N 
ATOM      6  H18 <0> d   1      20.872  -2.930  11.664  0.00  0.00     0.161 HD
ATOM      7  H19 <0> d   1      21.506  -1.549  10.949  0.00  0.00     0.161 HD
ATOM      8  O3  <0> d   1      18.537  -2.214  11.474  0.00  0.00    -0.239 OA
ENDBRANCH   3   4
ENDBRANCH   2   3
ENDBRANCH   1   2
BRANCH   1   9
ATOM      9  C7  <0> d   1      19.346   1.935   9.388  0.00  0.00     0.192 C 
BRANCH   9  10
ATOM     10  O8  <0> d   1      18.997   2.982  10.331  0.00  0.00    -0.303 OA
BRANCH  10  11
ATOM     11  C9  <0> d   1      19.776   3.105  11.423  0.00  0.00     0.358 C 
ATOM     12  N10 <0> d   1      20.590   2.094  11.787  0.00  0.00    -0.346 N 
ATOM     13  H25 <0> d   1      20.615   1.278  11.262  0.00  0.00     0.161 HD
ATOM     14  H26 <0> d   1      21.151   2.182  12.573  0.00  0.00     0.161 HD
ATOM     15  O11 <0> d   1      19.745   4.127  12.080  0.00  0.00    -0.239 OA
ENDBRANCH  10  11
ENDBRANCH   9  10
ENDBRANCH   1   9
BRANCH   1  16
ATOM     16  C12 <0> d   1      18.171   0.683   7.599  0.00  0.00    -0.050 A 
ATOM     17  C17 <0> d   1      19.188   1.146   6.784  0.00  0.00     0.007 A 
ATOM     18  C16 <0> d   1      19.261   0.734   5.468  0.00  0.00     0.001 A 
ATOM     19  C15 <0> d   1      18.311  -0.133   4.961  0.00  0.00     0.000 A 
ATOM     20  C14 <0> d   1      17.291  -0.592   5.774  0.00  0.00     0.001 A 
ATOM     21  C13 <0> d   1      17.222  -0.184   7.092  0.00  0.00     0.007 A 
ENDBRANCH   1  16
TORSDOF 7
ENDMDL
