MODEL 1
REMARK VINA RESULT:      -7.3      0.000      0.000
REMARK  2 active torsions:
REMARK  status: ('A' for Active; 'I' for Inactive)
REMARK    1  A    between atoms: O2_2  and  C3_3 
REMARK    2  A    between atoms: C14_12  and  O16_13 
ROOT
ATOM      1  C3  ZIN A   1      19.515   3.407  11.688  0.00  0.00     0.102 A 
ATOM      2  C4  ZIN A   1      18.480   3.733  10.814  0.00  0.00     0.040 A 
ATOM      3  C5  ZIN A   1      17.713   2.786  10.151  0.00  0.00     0.011 A 
ATOM      4  C6  ZIN A   1      17.967   1.438  10.329  0.00  0.00    -0.046 A 
ATOM      5  C7  ZIN A   1      17.172   0.321   9.735  0.00  0.00     0.073 C 
ATOM      6  C8  ZIN A   1      17.744  -1.054  10.037  0.00  0.00     0.200 C 
ATOM      7  C10 ZIN A   1      18.400  -1.199  11.402  0.00  0.00     0.055 C 
ATOM      8  C12 ZIN A   1      17.473  -1.058  12.553  0.00  0.00    -0.020 C 
ATOM      9  C13 ZIN A   1      17.808  -0.429  13.633  0.00  0.00     0.003 C 
ATOM     10  C14 ZIN A   1      19.084   0.290  13.880  0.00  0.00     0.171 C 
ATOM     11  C17 ZIN A   1      20.181   0.033  12.839  0.00  0.00     0.175 C 
ATOM     12  O19 ZIN A   1      20.733   1.379  12.595  0.00  0.00    -0.338 OA
ATOM     13  C20 ZIN A   1      19.783   2.048  11.876  0.00  0.00     0.110 A 
ATOM     14  C21 ZIN A   1      19.016   1.137  11.162  0.00  0.00    -0.003 A 
ATOM     15  C22 ZIN A   1      19.560  -0.234  11.475  0.00  0.00     0.030 C 
ATOM     16  C23 ZIN A   1      20.599  -0.598  10.411  0.00  0.00     0.045 C 
ATOM     17  C24 ZIN A   1      19.897  -0.508   9.047  0.00  0.00     0.236 C 
ATOM     18  N25 ZIN A   1      18.747  -1.418   9.022  0.00  0.00    -0.070 N 
ATOM     19  H26 ZIN A   1      19.072  -2.363   9.158  0.00  0.00     0.279 HD
ATOM     20  C27 ZIN A   1      18.087  -1.321   7.712  0.00  0.00     0.270 C 
ENDROOT
BRANCH   1  21
ATOM     21  O2  ZIN A   1      20.236   4.369  12.325  0.00  0.00    -0.353 OA
ATOM     22  C1  ZIN A   1      19.581   5.080  13.378  0.00  0.00     0.210 C 
ENDBRANCH   1  21
BRANCH  10  23
ATOM     23  O16 ZIN A   1      18.814   1.692  13.910  0.00  0.00    -0.389 OA
ATOM     24  H37 ZIN A   1      19.005   2.147  13.078  0.00  0.00     0.210 HD
ENDBRANCH  10  23
TORSDOF 2
ENDMDL
MODEL 2
REMARK VINA RESULT:      -6.9      2.667      5.250
REMARK  2 active torsions:
REMARK  status: ('A' for Active; 'I' for Inactive)
REMARK    1  A    between atoms: O2_2  and  C3_3 
REMARK    2  A    between atoms: C14_12  and  O16_13 
ROOT
ATOM      1  C3  ZIN A   1      18.719  -2.698  10.203  0.00  0.00     0.102 A 
ATOM      2  C4  ZIN A   1      17.717  -2.971  11.132  0.00  0.00     0.040 A 
ATOM      3  C5  ZIN A   1      17.280  -2.053  12.076  0.00  0.00     0.011 A 
ATOM      4  C6  ZIN A   1      17.854  -0.797  12.141  0.00  0.00    -0.046 A 
ATOM      5  C7  ZIN A   1      17.427   0.304  13.057  0.00  0.00     0.073 C 
ATOM      6  C8  ZIN A   1      18.303   1.542  12.962  0.00  0.00     0.200 C 
ATOM      7  C10 ZIN A   1      18.851   1.845  11.575  0.00  0.00     0.055 C 
ATOM      8  C12 ZIN A   1      17.820   2.192  10.565  0.00  0.00    -0.020 C 
ATOM      9  C13 ZIN A   1      17.887   1.771   9.342  0.00  0.00     0.003 C 
ATOM     10  C14 ZIN A   1      18.909   0.856   8.775  0.00  0.00     0.171 C 
ATOM     11  C17 ZIN A   1      20.122   0.605   9.678  0.00  0.00     0.175 C 
ATOM     12  O19 ZIN A   1      20.332  -0.851   9.563  0.00  0.00    -0.338 OA
ATOM     13  C20 ZIN A   1      19.309  -1.431  10.259  0.00  0.00     0.110 A 
ATOM     14  C21 ZIN A   1      18.867  -0.559  11.245  0.00  0.00    -0.003 A 
ATOM     15  C22 ZIN A   1      19.714   0.683  11.143  0.00  0.00     0.030 C 
ATOM     16  C23 ZIN A   1      20.901   0.542  12.099  0.00  0.00     0.045 C 
ATOM     17  C24 ZIN A   1      20.324   0.301  13.502  0.00  0.00     0.236 C 
ATOM     18  N25 ZIN A   1      19.452   1.420  13.876  0.00  0.00    -0.070 N 
ATOM     19  H26 ZIN A   1      19.994   2.270  13.890  0.00  0.00     0.279 HD
ATOM     20  C27 ZIN A   1      18.908   1.176  15.219  0.00  0.00     0.270 C 
ENDROOT
BRANCH   1  21
ATOM     21  O2  ZIN A   1      19.111  -3.626   9.288  0.00  0.00    -0.353 OA
ATOM     22  C1  ZIN A   1      19.542  -4.892   9.792  0.00  0.00     0.210 C 
ENDBRANCH   1  21
BRANCH  10  23
ATOM     23  O16 ZIN A   1      18.288  -0.401   8.500  0.00  0.00    -0.389 OA
ATOM     24  H37 ZIN A   1      17.466  -0.548   8.988  0.00  0.00     0.210 HD
ENDBRANCH  10  23
TORSDOF 2
ENDMDL
MODEL 3
REMARK VINA RESULT:      -6.8      2.031      3.893
REMARK  2 active torsions:
REMARK  status: ('A' for Active; 'I' for Inactive)
REMARK    1  A    between atoms: O2_2  and  C3_3 
REMARK    2  A    between atoms: C14_12  and  O16_13 
ROOT
ATOM      1  C3  ZIN A   1      18.354   3.559  10.787  0.00  0.00     0.102 A 
ATOM      2  C4  ZIN A   1      19.071   3.948  11.917  0.00  0.00     0.040 A 
ATOM      3  C5  ZIN A   1      19.592   3.052  12.838  0.00  0.00     0.011 A 
ATOM      4  C6  ZIN A   1      19.400   1.693  12.671  0.00  0.00    -0.046 A 
ATOM      5  C7  ZIN A   1      19.968   0.623  13.545  0.00  0.00     0.073 C 
ATOM      6  C8  ZIN A   1      19.511  -0.775  13.163  0.00  0.00     0.200 C 
ATOM      7  C10 ZIN A   1      19.307  -1.007  11.673  0.00  0.00     0.055 C 
ATOM      8  C12 ZIN A   1      20.544  -0.919  10.857  0.00  0.00    -0.020 C 
ATOM      9  C13 ZIN A   1      20.561  -0.358   9.691  0.00  0.00     0.003 C 
ATOM     10  C14 ZIN A   1      19.426   0.328   9.021  0.00  0.00     0.171 C 
ATOM     11  C17 ZIN A   1      18.061   0.115   9.687  0.00  0.00     0.175 C 
ATOM     12  O19 ZIN A   1      17.466   1.465   9.671  0.00  0.00    -0.338 OA
ATOM     13  C20 ZIN A   1      18.151   2.187  10.606  0.00  0.00     0.110 A 
ATOM     14  C21 ZIN A   1      18.657   1.329  11.574  0.00  0.00    -0.003 A 
ATOM     15  C22 ZIN A   1      18.230  -0.064  11.190  0.00  0.00     0.030 C 
ATOM     16  C23 ZIN A   1      16.913  -0.382  11.902  0.00  0.00     0.045 C 
ATOM     17  C24 ZIN A   1      17.160  -0.203  13.408  0.00  0.00     0.236 C 
ATOM     18  N25 ZIN A   1      18.242  -1.095  13.839  0.00  0.00    -0.070 N 
ATOM     19  H26 ZIN A   1      17.972  -2.050  13.666  0.00  0.00     0.279 HD
ATOM     20  C27 ZIN A   1      18.467  -0.913  15.280  0.00  0.00     0.270 C 
ENDROOT
BRANCH   1  21
ATOM     21  O2  ZIN A   1      17.869   4.473   9.904  0.00  0.00    -0.353 OA
ATOM     22  C1  ZIN A   1      17.015   5.492  10.429  0.00  0.00     0.210 C 
ENDBRANCH   1  21
BRANCH  10  23
ATOM     23  O16 ZIN A   1      19.698   1.730   8.994  0.00  0.00    -0.389 OA
ATOM     24  H37 ZIN A   1      19.588   2.135   8.123  0.00  0.00     0.210 HD
ENDBRANCH  10  23
TORSDOF 2
ENDMDL
MODEL 4
REMARK VINA RESULT:      -6.8      4.298      6.482
REMARK  2 active torsions:
REMARK  status: ('A' for Active; 'I' for Inactive)
REMARK    1  A    between atoms: O2_2  and  C3_3 
REMARK    2  A    between atoms: C14_12  and  O16_13 
ROOT
ATOM      1  C3  ZIN A   1      18.761  -1.260   7.843  0.00  0.00     0.102 A 
ATOM      2  C4  ZIN A   1      19.185  -0.833   9.099  0.00  0.00     0.040 A 
ATOM      3  C5  ZIN A   1      19.374  -1.689  10.174  0.00  0.00     0.011 A 
ATOM      4  C6  ZIN A   1      19.125  -3.042  10.037  0.00  0.00    -0.046 A 
ATOM      5  C7  ZIN A   1      19.358  -4.077  11.089  0.00  0.00     0.073 C 
ATOM      6  C8  ZIN A   1      18.907  -5.468  10.677  0.00  0.00     0.200 C 
ATOM      7  C10 ZIN A   1      19.082  -5.798   9.201  0.00  0.00     0.055 C 
ATOM      8  C12 ZIN A   1      20.493  -5.848   8.742  0.00  0.00    -0.020 C 
ATOM      9  C13 ZIN A   1      20.859  -5.376   7.592  0.00  0.00     0.003 C 
ATOM     10  C14 ZIN A   1      19.998  -4.674   6.608  0.00  0.00     0.171 C 
ATOM     11  C17 ZIN A   1      18.493  -4.751   6.897  0.00  0.00     0.175 C 
ATOM     12  O19 ZIN A   1      18.032  -3.372   6.647  0.00  0.00    -0.338 OA
ATOM     13  C20 ZIN A   1      18.504  -2.626   7.690  0.00  0.00     0.110 A 
ATOM     14  C21 ZIN A   1      18.669  -3.439   8.803  0.00  0.00    -0.003 A 
ATOM     15  C22 ZIN A   1      18.248  -4.829   8.397  0.00  0.00     0.030 C 
ATOM     16  C23 ZIN A   1      16.769  -5.010   8.749  0.00  0.00     0.045 C 
ATOM     17  C24 ZIN A   1      16.627  -4.736  10.254  0.00  0.00     0.236 C 
ATOM     18  N25 ZIN A   1      17.485  -5.658  11.007  0.00  0.00    -0.070 N 
ATOM     19  H26 ZIN A   1      17.194  -6.605  10.821  0.00  0.00     0.279 HD
ATOM     20  C27 ZIN A   1      17.338  -5.384  12.444  0.00  0.00     0.270 C 
ENDROOT
BRANCH   1  21
ATOM     21  O2  ZIN A   1      18.597  -0.386   6.813  0.00  0.00    -0.353 OA
ATOM     22  C1  ZIN A   1      18.877   0.990   7.080  0.00  0.00     0.210 C 
ENDBRANCH   1  21
BRANCH  10  23
ATOM     23  O16 ZIN A   1      20.377  -3.297   6.576  0.00  0.00    -0.389 OA
ATOM     24  H37 ZIN A   1      20.457  -2.891   7.450  0.00  0.00     0.210 HD
ENDBRANCH  10  23
TORSDOF 2
ENDMDL
MODEL 5
REMARK VINA RESULT:      -6.8      3.246      5.873
REMARK  2 active torsions:
REMARK  status: ('A' for Active; 'I' for Inactive)
REMARK    1  A    between atoms: O2_2  and  C3_3 
REMARK    2  A    between atoms: C14_12  and  O16_13 
ROOT
ATOM      1  C3  ZIN A   1      18.483  -4.246   9.628  0.00  0.00     0.102 A 
ATOM      2  C4  ZIN A   1      17.657  -4.382  10.741  0.00  0.00     0.040 A 
ATOM      3  C5  ZIN A   1      17.280  -3.319  11.549  0.00  0.00     0.011 A 
ATOM      4  C6  ZIN A   1      17.740  -2.044  11.278  0.00  0.00    -0.046 A 
ATOM      5  C7  ZIN A   1      17.354  -0.807  12.022  0.00  0.00     0.073 C 
ATOM      6  C8  ZIN A   1      18.090   0.435  11.551  0.00  0.00     0.200 C 
ATOM      7  C10 ZIN A   1      18.400   0.481  10.061  0.00  0.00     0.055 C 
ATOM      8  C12 ZIN A   1      17.205   0.553   9.183  0.00  0.00    -0.020 C 
ATOM      9  C13 ZIN A   1      17.130  -0.104   8.069  0.00  0.00     0.003 C 
ATOM     10  C14 ZIN A   1      18.138  -1.053   7.531  0.00  0.00     0.171 C 
ATOM     11  C17 ZIN A   1      19.488  -1.041   8.258  0.00  0.00     0.175 C 
ATOM     12  O19 ZIN A   1      19.810  -2.475   8.393  0.00  0.00    -0.338 OA
ATOM     13  C20 ZIN A   1      18.957  -2.961   9.343  0.00  0.00     0.110 A 
ATOM     14  C21 ZIN A   1      18.586  -1.934  10.202  0.00  0.00    -0.003 A 
ATOM     15  C22 ZIN A   1      19.293  -0.690   9.727  0.00  0.00     0.030 C 
ATOM     16  C23 ZIN A   1      20.615  -0.562  10.488  0.00  0.00     0.045 C 
ATOM     17  C24 ZIN A   1      20.273  -0.546  11.986  0.00  0.00     0.236 C 
ATOM     18  N25 ZIN A   1      19.366   0.572  12.273  0.00  0.00    -0.070 N 
ATOM     19  H26 ZIN A   1      19.825   1.438  12.036  0.00  0.00     0.279 HD
ATOM     20  C27 ZIN A   1      19.049   0.575  13.708  0.00  0.00     0.270 C 
ENDROOT
BRANCH   1  21
ATOM     21  O2  ZIN A   1      18.819  -5.315   8.858  0.00  0.00    -0.353 OA
ATOM     22  C1  ZIN A   1      20.072  -5.945   9.133  0.00  0.00     0.210 C 
ENDBRANCH   1  21
BRANCH  10  23
ATOM     23  O16 ZIN A   1      17.600  -2.374   7.607  0.00  0.00    -0.389 OA
ATOM     24  H37 ZIN A   1      16.634  -2.405   7.618  0.00  0.00     0.210 HD
ENDBRANCH  10  23
TORSDOF 2
ENDMDL
MODEL 6
REMARK VINA RESULT:      -6.7      3.350      5.311
REMARK  2 active torsions:
REMARK  status: ('A' for Active; 'I' for Inactive)
REMARK    1  A    between atoms: O2_2  and  C3_3 
REMARK    2  A    between atoms: C14_12  and  O16_13 
ROOT
ATOM      1  C3  ZIN A   1      18.566  -1.411   7.849  0.00  0.00     0.102 A 
ATOM      2  C4  ZIN A   1      19.457  -0.340   7.866  0.00  0.00     0.040 A 
ATOM      3  C5  ZIN A   1      20.007   0.179   9.029  0.00  0.00     0.011 A 
ATOM      4  C6  ZIN A   1      19.666  -0.356  10.257  0.00  0.00    -0.046 A 
ATOM      5  C7  ZIN A   1      20.239   0.059  11.573  0.00  0.00     0.073 C 
ATOM      6  C8  ZIN A   1      19.605  -0.648  12.758  0.00  0.00     0.200 C 
ATOM      7  C10 ZIN A   1      19.187  -2.090  12.507  0.00  0.00     0.055 C 
ATOM      8  C12 ZIN A   1      20.311  -3.021  12.233  0.00  0.00    -0.020 C 
ATOM      9  C13 ZIN A   1      20.228  -3.954  11.339  0.00  0.00     0.003 C 
ATOM     10  C14 ZIN A   1      19.086  -4.206  10.424  0.00  0.00     0.171 C 
ATOM     11  C17 ZIN A   1      17.806  -3.433  10.763  0.00  0.00     0.175 C 
ATOM     12  O19 ZIN A   1      17.344  -2.954   9.446  0.00  0.00    -0.338 OA
ATOM     13  C20 ZIN A   1      18.211  -1.961   9.085  0.00  0.00     0.110 A 
ATOM     14  C21 ZIN A   1      18.755  -1.385  10.225  0.00  0.00    -0.003 A 
ATOM     15  C22 ZIN A   1      18.151  -2.098  11.407  0.00  0.00     0.030 C 
ATOM     16  C23 ZIN A   1      16.914  -1.320  11.863  0.00  0.00     0.045 C 
ATOM     17  C24 ZIN A   1      17.371   0.113  12.173  0.00  0.00     0.236 C 
ATOM     18  N25 ZIN A   1      18.411   0.087  13.208  0.00  0.00    -0.070 N 
ATOM     19  H26 ZIN A   1      18.030  -0.321  14.048  0.00  0.00     0.279 HD
ATOM     20  C27 ZIN A   1      18.837   1.464  13.493  0.00  0.00     0.270 C 
ENDROOT
BRANCH   1  21
ATOM     21  O2  ZIN A   1      18.059  -1.895   6.683  0.00  0.00    -0.353 OA
ATOM     22  C1  ZIN A   1      18.975  -2.537   5.794  0.00  0.00     0.210 C 
ENDBRANCH   1  21
BRANCH  10  23
ATOM     23  O16 ZIN A   1      19.484  -3.853   9.098  0.00  0.00    -0.389 OA
ATOM     24  H37 ZIN A   1      20.258  -4.337   8.778  0.00  0.00     0.210 HD
ENDBRANCH  10  23
TORSDOF 2
ENDMDL
MODEL 7
REMARK VINA RESULT:      -6.7      2.240      4.374
REMARK  2 active torsions:
REMARK  status: ('A' for Active; 'I' for Inactive)
REMARK    1  A    between atoms: O2_2  and  C3_3 
REMARK    2  A    between atoms: C14_12  and  O16_13 
ROOT
ATOM      1  C3  ZIN A   1      18.143   0.995   9.136  0.00  0.00     0.102 A 
ATOM      2  C4  ZIN A   1      17.103   0.137   9.489  0.00  0.00     0.040 A 
ATOM      3  C5  ZIN A   1      16.749  -0.135  10.803  0.00  0.00     0.011 A 
ATOM      4  C6  ZIN A   1      17.450   0.444  11.845  0.00  0.00    -0.046 A 
ATOM      5  C7  ZIN A   1      17.126   0.294  13.296  0.00  0.00     0.073 C 
ATOM      6  C8  ZIN A   1      18.128   0.976  14.211  0.00  0.00     0.200 C 
ATOM      7  C10 ZIN A   1      18.726   2.268  13.672  0.00  0.00     0.055 C 
ATOM      8  C12 ZIN A   1      17.753   3.376  13.499  0.00  0.00    -0.020 C 
ATOM      9  C13 ZIN A   1      17.794   4.174  12.480  0.00  0.00     0.003 C 
ATOM     10  C14 ZIN A   1      18.724   4.089  11.326  0.00  0.00     0.171 C 
ATOM     11  C17 ZIN A   1      19.891   3.110  11.508  0.00  0.00     0.175 C 
ATOM     12  O19 ZIN A   1      19.949   2.412  10.209  0.00  0.00    -0.338 OA
ATOM     13  C20 ZIN A   1      18.861   1.586  10.180  0.00  0.00     0.110 A 
ATOM     14  C21 ZIN A   1      18.497   1.255  11.479  0.00  0.00    -0.003 A 
ATOM     15  C22 ZIN A   1      19.470   1.949  12.397  0.00  0.00     0.030 C 
ATOM     16  C23 ZIN A   1      20.621   0.986  12.701  0.00  0.00     0.045 C 
ATOM     17  C24 ZIN A   1      19.999  -0.284  13.303  0.00  0.00     0.236 C 
ATOM     18  N25 ZIN A   1      19.243   0.062  14.512  0.00  0.00    -0.070 N 
ATOM     19  H26 ZIN A   1      19.871   0.469  15.189  0.00  0.00     0.279 HD
ATOM     20  C27 ZIN A   1      18.656  -1.160  15.077  0.00  0.00     0.270 C 
ENDROOT
BRANCH   1  21
ATOM     21  O2  ZIN A   1      18.449   1.240   7.833  0.00  0.00    -0.353 OA
ATOM     22  C1  ZIN A   1      18.460   0.119   6.947  0.00  0.00     0.210 C 
ENDBRANCH   1  21
BRANCH  10  23
ATOM     23  O16 ZIN A   1      17.980   3.690  10.174  0.00  0.00    -0.389 OA
ATOM     24  H37 ZIN A   1      17.846   2.735  10.105  0.00  0.00     0.210 HD
ENDBRANCH  10  23
TORSDOF 2
ENDMDL
MODEL 8
REMARK VINA RESULT:      -6.7      2.763      4.854
REMARK  2 active torsions:
REMARK  status: ('A' for Active; 'I' for Inactive)
REMARK    1  A    between atoms: O2_2  and  C3_3 
REMARK    2  A    between atoms: C14_12  and  O16_13 
ROOT
ATOM      1  C3  ZIN A   1      18.164  -0.032   7.597  0.00  0.00     0.102 A 
ATOM      2  C4  ZIN A   1      18.726   1.171   7.173  0.00  0.00     0.040 A 
ATOM      3  C5  ZIN A   1      19.246   2.120   8.041  0.00  0.00     0.011 A 
ATOM      4  C6  ZIN A   1      19.210   1.906   9.406  0.00  0.00    -0.046 A 
ATOM      5  C7  ZIN A   1      19.798   2.810  10.441  0.00  0.00     0.073 C 
ATOM      6  C8  ZIN A   1      19.524   2.356  11.864  0.00  0.00     0.200 C 
ATOM      7  C10 ZIN A   1      19.489   0.849  12.070  0.00  0.00     0.055 C 
ATOM      8  C12 ZIN A   1      20.783   0.161  11.835  0.00  0.00    -0.020 C 
ATOM      9  C13 ZIN A   1      20.853  -0.986  11.240  0.00  0.00     0.003 C 
ATOM     10  C14 ZIN A   1      19.724  -1.750  10.651  0.00  0.00     0.171 C 
ATOM     11  C17 ZIN A   1      18.330  -1.226  11.018  0.00  0.00     0.175 C 
ATOM     12  O19 ZIN A   1      17.604  -1.273   9.734  0.00  0.00    -0.338 OA
ATOM     13  C20 ZIN A   1      18.120  -0.260   8.976  0.00  0.00     0.110 A 
ATOM     14  C21 ZIN A   1      18.616   0.735   9.808  0.00  0.00    -0.003 A 
ATOM     15  C22 ZIN A   1      18.372   0.282  11.225  0.00  0.00     0.030 C 
ATOM     16  C23 ZIN A   1      17.032   0.855  11.694  0.00  0.00     0.045 C 
ATOM     17  C24 ZIN A   1      17.115   2.381  11.538  0.00  0.00     0.236 C 
ATOM     18  N25 ZIN A   1      18.236   2.898  12.330  0.00  0.00    -0.070 N 
ATOM     19  H26 ZIN A   1      18.082   2.679  13.302  0.00  0.00     0.279 HD
ATOM     20  C27 ZIN A   1      18.302   4.358  12.171  0.00  0.00     0.270 C 
ENDROOT
BRANCH   1  21
ATOM     21  O2  ZIN A   1      17.674  -0.939   6.710  0.00  0.00    -0.353 OA
ATOM     22  C1  ZIN A   1      18.621  -1.595   5.864  0.00  0.00     0.210 C 
ENDBRANCH   1  21
BRANCH  10  23
ATOM     23  O16 ZIN A   1      19.852  -1.721   9.228  0.00  0.00    -0.389 OA
ATOM     24  H37 ZIN A   1      19.998  -0.838   8.864  0.00  0.00     0.210 HD
ENDBRANCH  10  23
TORSDOF 2
ENDMDL
MODEL 9
REMARK VINA RESULT:      -6.7      1.613      3.500
REMARK  2 active torsions:
REMARK  status: ('A' for Active; 'I' for Inactive)
REMARK    1  A    between atoms: O2_2  and  C3_3 
REMARK    2  A    between atoms: C14_12  and  O16_13 
ROOT
ATOM      1  C3  ZIN A   1      18.904   2.102  13.629  0.00  0.00     0.102 A 
ATOM      2  C4  ZIN A   1      19.968   1.265  13.958  0.00  0.00     0.040 A 
ATOM      3  C5  ZIN A   1      20.423   0.247  13.132  0.00  0.00     0.011 A 
ATOM      4  C6  ZIN A   1      19.805   0.008  11.919  0.00  0.00    -0.046 A 
ATOM      5  C7  ZIN A   1      20.240  -1.003  10.909  0.00  0.00     0.073 C 
ATOM      6  C8  ZIN A   1      19.312  -1.097   9.710  0.00  0.00     0.200 C 
ATOM      7  C10 ZIN A   1      18.672   0.215   9.279  0.00  0.00     0.055 C 
ATOM      8  C12 ZIN A   1      19.628   1.232   8.774  0.00  0.00    -0.020 C 
ATOM      9  C13 ZIN A   1      19.507   2.490   9.058  0.00  0.00     0.003 C 
ATOM     10  C14 ZIN A   1      18.491   3.103   9.950  0.00  0.00     0.171 C 
ATOM     11  C17 ZIN A   1      17.343   2.171  10.356  0.00  0.00     0.175 C 
ATOM     12  O19 ZIN A   1      17.185   2.440  11.798  0.00  0.00    -0.338 OA
ATOM     13  C20 ZIN A   1      18.268   1.871  12.405  0.00  0.00     0.110 A 
ATOM     14  C21 ZIN A   1      18.732   0.816  11.630  0.00  0.00    -0.003 A 
ATOM     15  C22 ZIN A   1      17.832   0.731  10.423  0.00  0.00     0.030 C 
ATOM     16  C23 ZIN A   1      16.709  -0.265  10.725  0.00  0.00     0.045 C 
ATOM     17  C24 ZIN A   1      17.376  -1.599  11.095  0.00  0.00     0.236 C 
ATOM     18  N25 ZIN A   1      18.224  -2.051   9.986  0.00  0.00    -0.070 N 
ATOM     19  H26 ZIN A   1      17.650  -2.191   9.168  0.00  0.00     0.279 HD
ATOM     20  C27 ZIN A   1      18.854  -3.326  10.354  0.00  0.00     0.270 C 
ENDROOT
BRANCH   1  21
ATOM     21  O2  ZIN A   1      18.497   3.095  14.465  0.00  0.00    -0.353 OA
ATOM     22  C1  ZIN A   1      18.863   2.975  15.841  0.00  0.00     0.210 C 
ENDBRANCH   1  21
BRANCH  10  23
ATOM     23  O16 ZIN A   1      19.144   3.552  11.138  0.00  0.00    -0.389 OA
ATOM     24  H37 ZIN A   1      19.210   4.514  11.211  0.00  0.00     0.210 HD
ENDBRANCH  10  23
TORSDOF 2
ENDMDL
