MODEL 1
REMARK VINA RESULT:      -8.4      0.000      0.000
REMARK  5 active torsions:
REMARK  status: ('A' for Active; 'I' for Inactive)
REMARK    1  A    between atoms: N4_4  and  N5_5 
REMARK    2  A    between atoms: N5_5  and  C6_6 
REMARK    3  A    between atoms: C6_6  and  C7_7 
REMARK    4  A    between atoms: C10_10  and  C11_11 
REMARK    5  A    between atoms: C14_14  and  N15_15 
ROOT
ATOM      1  C7  <0> d   1      18.059   2.439  12.292  0.00  0.00     0.095 A 
ATOM      2  C8  <0> d   1      17.819   3.701  11.575  0.00  0.00     0.041 A 
ATOM      3  C9  <0> d   1      17.863   3.403  10.252  0.00  0.00     0.041 A 
ATOM      4  C10 <0> d   1      18.120   2.014  10.136  0.00  0.00     0.086 A 
ATOM      5  O20 <0> d   1      18.235   1.476  11.361  0.00  0.00    -0.308 OA
ENDROOT
BRANCH   1   6
ATOM      6  C6  <0> d   1      18.103   2.270  13.669  0.00  0.00     0.176 C 
BRANCH   6   7
ATOM      7  N5  <0> d   1      18.046   1.050  14.191  0.00  0.00    -0.178 NA
BRANCH   7   8
ATOM      8  N4  <0> d   1      18.462   0.843  15.394  0.00  0.00    -0.211 N 
ATOM      9  C3  <0> d   1      18.957   1.858  16.341  0.00  0.00     0.259 A 
ATOM     10  C2  <0> d   1      19.300   1.053  17.578  0.00  0.00     0.245 A 
ATOM     11  O1  <0> d   1      19.748   1.472  18.624  0.00  0.00    -0.271 OA
ATOM     12  N23 <0> d   1      19.010  -0.227  17.273  0.00  0.00    -0.276 N 
ATOM     13  C21 <0> d   1      18.528  -0.340  16.029  0.00  0.00     0.345 A 
ATOM     14  H33 <0> d   1      19.129  -0.974  17.880  0.00  0.00     0.173 HD
ATOM     15  O22 <0> d   1      18.192  -1.394  15.529  0.00  0.00    -0.245 OA
ENDBRANCH   7   8
ENDBRANCH   6   7
ENDBRANCH   1   6
BRANCH   4  16
ATOM     16  C11 <0> d   1      18.241   1.304   8.915  0.00  0.00    -0.002 A 
ATOM     17  C19 <0> d   1      19.032   1.820   7.870  0.00  0.00     0.017 A 
ATOM     18  C18 <0> d   1      19.146   1.122   6.696  0.00  0.00     0.037 A 
ATOM     19  C14 <0> d   1      18.477  -0.082   6.530  0.00  0.00     0.102 A 
ATOM     20  C13 <0> d   1      17.692  -0.597   7.551  0.00  0.00     0.037 A 
ATOM     21  C12 <0> d   1      17.567   0.080   8.736  0.00  0.00     0.017 A 
BRANCH  19  22
ATOM     22  N15 <0> d   1      18.604  -0.823   5.255  0.00  0.00    -0.116 N 
ATOM     23  O16 <0> d   1      19.796  -1.110   4.775  0.00  0.00    -0.532 OA
ATOM     24  O17 <0> d   1      17.524  -1.195   4.600  0.00  0.00    -0.532 OA
ENDBRANCH  19  22
ENDBRANCH   4  16
TORSDOF 5
ENDMDL
MODEL 2
REMARK VINA RESULT:      -8.3      2.450      3.037
REMARK  5 active torsions:
REMARK  status: ('A' for Active; 'I' for Inactive)
REMARK    1  A    between atoms: N4_4  and  N5_5 
REMARK    2  A    between atoms: N5_5  and  C6_6 
REMARK    3  A    between atoms: C6_6  and  C7_7 
REMARK    4  A    between atoms: C10_10  and  C11_11 
REMARK    5  A    between atoms: C14_14  and  N15_15 
ROOT
ATOM      1  C7  <0> d   1      18.807   3.435  11.553  0.00  0.00     0.095 A 
ATOM      2  C8  <0> d   1      17.710   2.587  12.042  0.00  0.00     0.041 A 
ATOM      3  C9  <0> d   1      17.449   1.694  11.054  0.00  0.00     0.041 A 
ATOM      4  C10 <0> d   1      18.340   1.966   9.986  0.00  0.00     0.086 A 
ATOM      5  O20 <0> d   1      19.126   3.004  10.313  0.00  0.00    -0.308 OA
ENDROOT
BRANCH   1   6
ATOM      6  C6  <0> d   1      19.400   4.488  12.237  0.00  0.00     0.176 C 
BRANCH   6   7
ATOM      7  N5  <0> d   1      18.800   5.013  13.299  0.00  0.00    -0.178 NA
BRANCH   7   8
ATOM      8  N4  <0> d   1      19.267   4.791  14.480  0.00  0.00    -0.211 N 
ATOM      9  C3  <0> d   1      18.999   3.615  15.325  0.00  0.00     0.259 A 
ATOM     10  C2  <0> d   1      19.799   3.891  16.583  0.00  0.00     0.245 A 
ATOM     11  O1  <0> d   1      19.881   3.187  17.567  0.00  0.00    -0.271 OA
ATOM     12  N23 <0> d   1      20.394   5.082  16.382  0.00  0.00    -0.276 N 
ATOM     13  C21 <0> d   1      20.092   5.589  15.181  0.00  0.00     0.345 A 
ATOM     14  H33 <0> d   1      20.975   5.517  17.026  0.00  0.00     0.173 HD
ATOM     15  O22 <0> d   1      20.512   6.652  14.771  0.00  0.00    -0.245 OA
ENDBRANCH   7   8
ENDBRANCH   6   7
ENDBRANCH   1   6
BRANCH   4  16
ATOM     16  C11 <0> d   1      18.391   1.254   8.762  0.00  0.00    -0.002 A 
ATOM     17  C19 <0> d   1      19.145   1.752   7.682  0.00  0.00     0.017 A 
ATOM     18  C18 <0> d   1      19.191   1.052   6.505  0.00  0.00     0.037 A 
ATOM     19  C14 <0> d   1      18.490  -0.136   6.370  0.00  0.00     0.102 A 
ATOM     20  C13 <0> d   1      17.740  -0.635   7.425  0.00  0.00     0.037 A 
ATOM     21  C12 <0> d   1      17.683   0.045   8.614  0.00  0.00     0.017 A 
BRANCH  19  22
ATOM     22  N15 <0> d   1      18.544  -0.880   5.091  0.00  0.00    -0.116 N 
ATOM     23  O16 <0> d   1      19.702  -1.101   4.505  0.00  0.00    -0.532 OA
ATOM     24  O17 <0> d   1      17.433  -1.320   4.538  0.00  0.00    -0.532 OA
ENDBRANCH  19  22
ENDBRANCH   4  16
TORSDOF 5
ENDMDL
MODEL 3
REMARK VINA RESULT:      -8.1      2.236      2.863
REMARK  5 active torsions:
REMARK  status: ('A' for Active; 'I' for Inactive)
REMARK    1  A    between atoms: N4_4  and  N5_5 
REMARK    2  A    between atoms: N5_5  and  C6_6 
REMARK    3  A    between atoms: C6_6  and  C7_7 
REMARK    4  A    between atoms: C10_10  and  C11_11 
REMARK    5  A    between atoms: C14_14  and  N15_15 
ROOT
ATOM      1  C7  <0> d   1      18.089   2.585  12.304  0.00  0.00     0.095 A 
ATOM      2  C8  <0> d   1      17.782   3.821  11.568  0.00  0.00     0.041 A 
ATOM      3  C9  <0> d   1      17.806   3.498  10.251  0.00  0.00     0.041 A 
ATOM      4  C10 <0> d   1      18.115   2.118  10.156  0.00  0.00     0.086 A 
ATOM      5  O20 <0> d   1      18.280   1.610  11.388  0.00  0.00    -0.308 OA
ENDROOT
BRANCH   1   6
ATOM      6  C6  <0> d   1      18.172   2.447  13.682  0.00  0.00     0.176 C 
BRANCH   6   7
ATOM      7  N5  <0> d   1      17.973   3.499  14.469  0.00  0.00    -0.178 NA
BRANCH   7   8
ATOM      8  N4  <0> d   1      18.980   4.111  14.994  0.00  0.00    -0.211 N 
ATOM      9  C3  <0> d   1      19.690   5.275  14.436  0.00  0.00     0.259 A 
ATOM     10  C2  <0> d   1      20.767   5.561  15.464  0.00  0.00     0.245 A 
ATOM     11  O1  <0> d   1      21.601   6.440  15.425  0.00  0.00    -0.271 OA
ATOM     12  N23 <0> d   1      20.609   4.631  16.426  0.00  0.00    -0.276 N 
ATOM     13  C21 <0> d   1      19.587   3.811  16.156  0.00  0.00     0.345 A 
ATOM     14  H33 <0> d   1      21.163   4.567  17.220  0.00  0.00     0.173 HD
ATOM     15  O22 <0> d   1      19.246   2.895  16.877  0.00  0.00    -0.245 OA
ENDBRANCH   7   8
ENDBRANCH   6   7
ENDBRANCH   1   6
BRANCH   4  16
ATOM     16  C11 <0> d   1      18.234   1.388   8.947  0.00  0.00    -0.002 A 
ATOM     17  C19 <0> d   1      17.504   0.198   8.761  0.00  0.00     0.017 A 
ATOM     18  C18 <0> d   1      17.623  -0.497   7.586  0.00  0.00     0.037 A 
ATOM     19  C14 <0> d   1      18.468  -0.039   6.586  0.00  0.00     0.102 A 
ATOM     20  C13 <0> d   1      19.196   1.128   6.759  0.00  0.00     0.037 A 
ATOM     21  C12 <0> d   1      19.089   1.843   7.925  0.00  0.00     0.017 A 
BRANCH  19  22
ATOM     22  N15 <0> d   1      18.592  -0.802   5.324  0.00  0.00    -0.116 N 
ATOM     23  O16 <0> d   1      19.780  -0.999   4.787  0.00  0.00    -0.532 OA
ATOM     24  O17 <0> d   1      17.517  -1.284   4.736  0.00  0.00    -0.532 OA
ENDBRANCH  19  22
ENDBRANCH   4  16
TORSDOF 5
ENDMDL
MODEL 4
REMARK VINA RESULT:      -8.1      1.554      2.047
REMARK  5 active torsions:
REMARK  status: ('A' for Active; 'I' for Inactive)
REMARK    1  A    between atoms: N4_4  and  N5_5 
REMARK    2  A    between atoms: N5_5  and  C6_6 
REMARK    3  A    between atoms: C6_6  and  C7_7 
REMARK    4  A    between atoms: C10_10  and  C11_11 
REMARK    5  A    between atoms: C14_14  and  N15_15 
ROOT
ATOM      1  C7  <0> d   1      18.087   2.486  12.254  0.00  0.00     0.095 A 
ATOM      2  C8  <0> d   1      18.076   3.774  11.544  0.00  0.00     0.041 A 
ATOM      3  C9  <0> d   1      18.150   3.481  10.221  0.00  0.00     0.041 A 
ATOM      4  C10 <0> d   1      18.207   2.071  10.098  0.00  0.00     0.086 A 
ATOM      5  O20 <0> d   1      18.172   1.513  11.320  0.00  0.00    -0.308 OA
ENDROOT
BRANCH   1   6
ATOM      6  C6  <0> d   1      18.028   2.303  13.628  0.00  0.00     0.176 C 
BRANCH   6   7
ATOM      7  N5  <0> d   1      18.055   3.354  14.440  0.00  0.00    -0.178 NA
BRANCH   7   8
ATOM      8  N4  <0> d   1      18.472   3.222  15.653  0.00  0.00    -0.211 N 
ATOM      9  C3  <0> d   1      18.933   1.979  16.295  0.00  0.00     0.259 A 
ATOM     10  C2  <0> d   1      19.294   2.416  17.700  0.00  0.00     0.245 A 
ATOM     11  O1  <0> d   1      19.724   1.720  18.596  0.00  0.00    -0.271 OA
ATOM     12  N23 <0> d   1      19.034   3.737  17.749  0.00  0.00    -0.276 N 
ATOM     13  C21 <0> d   1      18.571   4.192  16.580  0.00  0.00     0.345 A 
ATOM     14  H33 <0> d   1      19.171   4.292  18.533  0.00  0.00     0.173 HD
ATOM     15  O22 <0> d   1      18.269   5.351  16.377  0.00  0.00    -0.245 OA
ENDBRANCH   7   8
ENDBRANCH   6   7
ENDBRANCH   1   6
BRANCH   4  16
ATOM     16  C11 <0> d   1      18.291   1.359   8.875  0.00  0.00    -0.002 A 
ATOM     17  C19 <0> d   1      19.084   1.852   7.821  0.00  0.00     0.017 A 
ATOM     18  C18 <0> d   1      19.162   1.152   6.645  0.00  0.00     0.037 A 
ATOM     19  C14 <0> d   1      18.455  -0.030   6.487  0.00  0.00     0.102 A 
ATOM     20  C13 <0> d   1      17.667  -0.523   7.516  0.00  0.00     0.037 A 
ATOM     21  C12 <0> d   1      17.578   0.157   8.704  0.00  0.00     0.017 A 
BRANCH  19  22
ATOM     22  N15 <0> d   1      18.543  -0.774   5.209  0.00  0.00    -0.116 N 
ATOM     23  O16 <0> d   1      19.718  -1.005   4.661  0.00  0.00    -0.532 OA
ATOM     24  O17 <0> d   1      17.447  -1.204   4.621  0.00  0.00    -0.532 OA
ENDBRANCH  19  22
ENDBRANCH   4  16
TORSDOF 5
ENDMDL
MODEL 5
REMARK VINA RESULT:      -8.1      3.644      9.325
REMARK  5 active torsions:
REMARK  status: ('A' for Active; 'I' for Inactive)
REMARK    1  A    between atoms: N4_4  and  N5_5 
REMARK    2  A    between atoms: N5_5  and  C6_6 
REMARK    3  A    between atoms: C6_6  and  C7_7 
REMARK    4  A    between atoms: C10_10  and  C11_11 
REMARK    5  A    between atoms: C14_14  and  N15_15 
ROOT
ATOM      1  C7  <0> d   1      18.882  -3.198  11.648  0.00  0.00     0.095 A 
ATOM      2  C8  <0> d   1      17.706  -2.438  11.198  0.00  0.00     0.041 A 
ATOM      3  C9  <0> d   1      17.516  -1.453  12.112  0.00  0.00     0.041 A 
ATOM      4  C10 <0> d   1      18.526  -1.582  13.097  0.00  0.00     0.086 A 
ATOM      5  O20 <0> d   1      19.315  -2.627  12.794  0.00  0.00    -0.308 OA
ENDROOT
BRANCH   1   6
ATOM      6  C6  <0> d   1      19.441  -4.299  11.016  0.00  0.00     0.176 C 
BRANCH   6   7
ATOM      7  N5  <0> d   1      18.856  -4.817   9.941  0.00  0.00    -0.178 NA
BRANCH   7   8
ATOM      8  N4  <0> d   1      19.348  -4.595   8.769  0.00  0.00    -0.211 N 
ATOM      9  C3  <0> d   1      19.004  -3.483   7.866  0.00  0.00     0.259 A 
ATOM     10  C2  <0> d   1      19.877  -3.727   6.652  0.00  0.00     0.245 A 
ATOM     11  O1  <0> d   1      19.931  -3.057   5.642  0.00  0.00    -0.271 OA
ATOM     12  N23 <0> d   1      20.575  -4.846   6.924  0.00  0.00    -0.276 N 
ATOM     13  C21 <0> d   1      20.274  -5.334   8.133  0.00  0.00     0.345 A 
ATOM     14  H33 <0> d   1      21.221  -5.247   6.321  0.00  0.00     0.173 HD
ATOM     15  O22 <0> d   1      20.778  -6.334   8.603  0.00  0.00    -0.245 OA
ENDBRANCH   7   8
ENDBRANCH   6   7
ENDBRANCH   1   6
BRANCH   4  16
ATOM     16  C11 <0> d   1      18.679  -0.742  14.227  0.00  0.00    -0.002 A 
ATOM     17  C19 <0> d   1      18.605  -1.281  15.527  0.00  0.00     0.017 A 
ATOM     18  C18 <0> d   1      18.760  -0.459  16.613  0.00  0.00     0.037 A 
ATOM     19  C14 <0> d   1      18.977   0.899  16.437  0.00  0.00     0.102 A 
ATOM     20  C13 <0> d   1      19.047   1.441  15.162  0.00  0.00     0.037 A 
ATOM     21  C12 <0> d   1      18.901   0.639  14.061  0.00  0.00     0.017 A 
BRANCH  19  22
ATOM     22  N15 <0> d   1      19.137   1.776  17.619  0.00  0.00    -0.116 N 
ATOM     23  O16 <0> d   1      18.553   2.957  17.646  0.00  0.00    -0.532 OA
ATOM     24  O17 <0> d   1      19.862   1.378  18.642  0.00  0.00    -0.532 OA
ENDBRANCH  19  22
ENDBRANCH   4  16
TORSDOF 5
ENDMDL
MODEL 6
REMARK VINA RESULT:      -8.1      1.348      2.024
REMARK  5 active torsions:
REMARK  status: ('A' for Active; 'I' for Inactive)
REMARK    1  A    between atoms: N4_4  and  N5_5 
REMARK    2  A    between atoms: N5_5  and  C6_6 
REMARK    3  A    between atoms: C6_6  and  C7_7 
REMARK    4  A    between atoms: C10_10  and  C11_11 
REMARK    5  A    between atoms: C14_14  and  N15_15 
ROOT
ATOM      1  C7  <0> d   1      17.928   2.993  12.358  0.00  0.00     0.095 A 
ATOM      2  C8  <0> d   1      17.694   4.170  11.508  0.00  0.00     0.041 A 
ATOM      3  C9  <0> d   1      17.800   3.742  10.225  0.00  0.00     0.041 A 
ATOM      4  C10 <0> d   1      18.090   2.355  10.260  0.00  0.00     0.086 A 
ATOM      5  O20 <0> d   1      18.163   1.946  11.537  0.00  0.00    -0.308 OA
ENDROOT
BRANCH   1   6
ATOM      6  C6  <0> d   1      17.917   2.964  13.745  0.00  0.00     0.176 C 
BRANCH   6   7
ATOM      7  N5  <0> d   1      18.931   2.419  14.407  0.00  0.00    -0.178 NA
BRANCH   7   8
ATOM      8  N4  <0> d   1      18.890   1.173  14.738  0.00  0.00    -0.211 N 
ATOM      9  C3  <0> d   1      18.011   0.559  15.747  0.00  0.00     0.259 A 
ATOM     10  C2  <0> d   1      18.396  -0.907  15.711  0.00  0.00     0.245 A 
ATOM     11  O1  <0> d   1      17.929  -1.803  16.381  0.00  0.00    -0.271 OA
ATOM     12  N23 <0> d   1      19.369  -1.005  14.784  0.00  0.00    -0.276 N 
ATOM     13  C21 <0> d   1      19.643   0.181  14.230  0.00  0.00     0.345 A 
ATOM     14  H33 <0> d   1      19.812  -1.834  14.544  0.00  0.00     0.173 HD
ATOM     15  O22 <0> d   1      20.481   0.346  13.366  0.00  0.00    -0.245 OA
ENDBRANCH   7   8
ENDBRANCH   6   7
ENDBRANCH   1   6
BRANCH   4  16
ATOM     16  C11 <0> d   1      18.277   1.530   9.123  0.00  0.00    -0.002 A 
ATOM     17  C19 <0> d   1      17.610   0.293   9.028  0.00  0.00     0.017 A 
ATOM     18  C18 <0> d   1      17.794  -0.495   7.921  0.00  0.00     0.037 A 
ATOM     19  C14 <0> d   1      18.642  -0.084   6.904  0.00  0.00     0.102 A 
ATOM     20  C13 <0> d   1      19.308   1.130   6.989  0.00  0.00     0.037 A 
ATOM     21  C12 <0> d   1      19.135   1.937   8.084  0.00  0.00     0.017 A 
BRANCH  19  22
ATOM     22  N15 <0> d   1      18.837  -0.947   5.716  0.00  0.00    -0.116 N 
ATOM     23  O16 <0> d   1      18.029  -1.965   5.502  0.00  0.00    -0.532 OA
ATOM     24  O17 <0> d   1      19.818  -0.697   4.875  0.00  0.00    -0.532 OA
ENDBRANCH  19  22
ENDBRANCH   4  16
TORSDOF 5
ENDMDL
MODEL 7
REMARK VINA RESULT:      -8.0      2.484      9.477
REMARK  5 active torsions:
REMARK  status: ('A' for Active; 'I' for Inactive)
REMARK    1  A    between atoms: N4_4  and  N5_5 
REMARK    2  A    between atoms: N5_5  and  C6_6 
REMARK    3  A    between atoms: C6_6  and  C7_7 
REMARK    4  A    between atoms: C10_10  and  C11_11 
REMARK    5  A    between atoms: C14_14  and  N15_15 
ROOT
ATOM      1  C7  <0> d   1      19.325  -1.200  10.811  0.00  0.00     0.095 A 
ATOM      2  C8  <0> d   1      18.755  -2.473  11.278  0.00  0.00     0.041 A 
ATOM      3  C9  <0> d   1      18.554  -2.334  12.613  0.00  0.00     0.041 A 
ATOM      4  C10 <0> d   1      18.978  -1.031  12.975  0.00  0.00     0.086 A 
ATOM      5  O20 <0> d   1      19.432  -0.389  11.886  0.00  0.00    -0.308 OA
ENDROOT
BRANCH   1   6
ATOM      6  C6  <0> d   1      19.691  -0.891   9.508  0.00  0.00     0.176 C 
BRANCH   6   7
ATOM      7  N5  <0> d   1      18.793  -0.393   8.666  0.00  0.00    -0.178 NA
BRANCH   7   8
ATOM      8  N4  <0> d   1      18.985  -0.477   7.393  0.00  0.00    -0.211 N 
ATOM      9  C3  <0> d   1      19.215  -1.708   6.618  0.00  0.00     0.259 A 
ATOM     10  C2  <0> d   1      19.373  -1.209   5.196  0.00  0.00     0.245 A 
ATOM     11  O1  <0> d   1      19.581  -1.876   4.204  0.00  0.00    -0.271 OA
ATOM     12  N23 <0> d   1      19.240   0.130   5.262  0.00  0.00    -0.276 N 
ATOM     13  C21 <0> d   1      19.014   0.542   6.516  0.00  0.00     0.345 A 
ATOM     14  H33 <0> d   1      19.295   0.723   4.496  0.00  0.00     0.173 HD
ATOM     15  O22 <0> d   1      18.857   1.705   6.827  0.00  0.00    -0.245 OA
ENDBRANCH   7   8
ENDBRANCH   6   7
ENDBRANCH   1   6
BRANCH   4  16
ATOM     16  C11 <0> d   1      18.932  -0.490  14.284  0.00  0.00    -0.002 A 
ATOM     17  C19 <0> d   1      18.869  -1.344  15.403  0.00  0.00     0.017 A 
ATOM     18  C18 <0> d   1      18.831  -0.810  16.664  0.00  0.00     0.037 A 
ATOM     19  C14 <0> d   1      18.842   0.565  16.842  0.00  0.00     0.102 A 
ATOM     20  C13 <0> d   1      18.899   1.416  15.748  0.00  0.00     0.037 A 
ATOM     21  C12 <0> d   1      18.943   0.905  14.477  0.00  0.00     0.017 A 
BRANCH  19  22
ATOM     22  N15 <0> d   1      18.794   1.129  18.210  0.00  0.00    -0.116 N 
ATOM     23  O16 <0> d   1      17.662   1.130  18.883  0.00  0.00    -0.532 OA
ATOM     24  O17 <0> d   1      19.883   1.631  18.754  0.00  0.00    -0.532 OA
ENDBRANCH  19  22
ENDBRANCH   4  16
TORSDOF 5
ENDMDL
MODEL 8
REMARK VINA RESULT:      -7.9      1.296      1.647
REMARK  5 active torsions:
REMARK  status: ('A' for Active; 'I' for Inactive)
REMARK    1  A    between atoms: N4_4  and  N5_5 
REMARK    2  A    between atoms: N5_5  and  C6_6 
REMARK    3  A    between atoms: C6_6  and  C7_7 
REMARK    4  A    between atoms: C10_10  and  C11_11 
REMARK    5  A    between atoms: C14_14  and  N15_15 
ROOT
ATOM      1  C7  <0> d   1      19.223   0.491  12.442  0.00  0.00     0.095 A 
ATOM      2  C8  <0> d   1      19.017   1.912  12.126  0.00  0.00     0.041 A 
ATOM      3  C9  <0> d   1      18.954   1.997  10.773  0.00  0.00     0.041 A 
ATOM      4  C10 <0> d   1      19.114   0.687  10.255  0.00  0.00     0.086 A 
ATOM      5  O20 <0> d   1      19.275  -0.178  11.270  0.00  0.00    -0.308 OA
ENDROOT
BRANCH   1   6
ATOM      6  C6  <0> d   1      19.347  -0.059  13.711  0.00  0.00     0.176 C 
BRANCH   6   7
ATOM      7  N5  <0> d   1      18.402   0.149  14.621  0.00  0.00    -0.178 NA
BRANCH   7   8
ATOM      8  N4  <0> d   1      18.726   0.350  15.853  0.00  0.00    -0.211 N 
ATOM      9  C3  <0> d   1      19.041   1.645  16.480  0.00  0.00     0.259 A 
ATOM     10  C2  <0> d   1      19.345   1.280  17.919  0.00  0.00     0.245 A 
ATOM     11  O1  <0> d   1      19.659   2.034  18.816  0.00  0.00    -0.271 OA
ATOM     12  N23 <0> d   1      19.201  -0.057  17.994  0.00  0.00    -0.276 N 
ATOM     13  C21 <0> d   1      18.844  -0.582  16.816  0.00  0.00     0.345 A 
ATOM     14  H33 <0> d   1      19.334  -0.576  18.803  0.00  0.00     0.173 HD
ATOM     15  O22 <0> d   1      18.650  -1.767  16.634  0.00  0.00    -0.245 OA
ENDBRANCH   7   8
ENDBRANCH   6   7
ENDBRANCH   1   6
BRANCH   4  16
ATOM     16  C11 <0> d   1      19.108   0.344   8.880  0.00  0.00    -0.002 A 
ATOM     17  C19 <0> d   1      19.325  -0.989   8.481  0.00  0.00     0.017 A 
ATOM     18  C18 <0> d   1      19.312  -1.310   7.148  0.00  0.00     0.037 A 
ATOM     19  C14 <0> d   1      19.098  -0.327   6.195  0.00  0.00     0.102 A 
ATOM     20  C13 <0> d   1      18.888   0.990   6.576  0.00  0.00     0.037 A 
ATOM     21  C12 <0> d   1      18.891   1.335   7.903  0.00  0.00     0.017 A 
BRANCH  19  22
ATOM     22  N15 <0> d   1      19.092  -0.685   4.758  0.00  0.00    -0.116 N 
ATOM     23  O16 <0> d   1      19.651  -1.808   4.357  0.00  0.00    -0.532 OA
ATOM     24  O17 <0> d   1      18.529   0.119   3.881  0.00  0.00    -0.532 OA
ENDBRANCH  19  22
ENDBRANCH   4  16
TORSDOF 5
ENDMDL
MODEL 9
REMARK VINA RESULT:      -7.7      3.745      7.978
REMARK  5 active torsions:
REMARK  status: ('A' for Active; 'I' for Inactive)
REMARK    1  A    between atoms: N4_4  and  N5_5 
REMARK    2  A    between atoms: N5_5  and  C6_6 
REMARK    3  A    between atoms: C6_6  and  C7_7 
REMARK    4  A    between atoms: C10_10  and  C11_11 
REMARK    5  A    between atoms: C14_14  and  N15_15 
ROOT
ATOM      1  C7  <0> d   1      19.089  -1.711   5.953  0.00  0.00     0.095 A 
ATOM      2  C8  <0> d   1      19.126  -0.533   5.074  0.00  0.00     0.041 A 
ATOM      3  C9  <0> d   1      18.926   0.545   5.873  0.00  0.00     0.041 A 
ATOM      4  C10 <0> d   1      18.769   0.071   7.199  0.00  0.00     0.086 A 
ATOM      5  O20 <0> d   1      18.867  -1.269   7.210  0.00  0.00    -0.308 OA
ENDROOT
BRANCH   1   6
ATOM      6  C6  <0> d   1      19.248  -3.034   5.563  0.00  0.00     0.176 C 
BRANCH   6   7
ATOM      7  N5  <0> d   1      20.056  -3.836   6.247  0.00  0.00    -0.178 NA
BRANCH   7   8
ATOM      8  N4  <0> d   1      19.576  -4.604   7.166  0.00  0.00    -0.211 N 
ATOM      9  C3  <0> d   1      18.182  -4.647   7.638  0.00  0.00     0.259 A 
ATOM     10  C2  <0> d   1      18.201  -5.719   8.709  0.00  0.00     0.245 A 
ATOM     11  O1  <0> d   1      17.266  -6.099   9.381  0.00  0.00    -0.271 OA
ATOM     12  N23 <0> d   1      19.474  -6.157   8.764  0.00  0.00    -0.276 N 
ATOM     13  C21 <0> d   1      20.252  -5.522   7.880  0.00  0.00     0.345 A 
ATOM     14  H33 <0> d   1      19.787  -6.850   9.366  0.00  0.00     0.173 HD
ATOM     15  O22 <0> d   1      21.438  -5.747   7.740  0.00  0.00    -0.245 OA
ENDBRANCH   7   8
ENDBRANCH   6   7
ENDBRANCH   1   6
BRANCH   4  16
ATOM     16  C11 <0> d   1      18.541   0.884   8.337  0.00  0.00    -0.002 A 
ATOM     17  C19 <0> d   1      17.607   0.490   9.315  0.00  0.00     0.017 A 
ATOM     18  C18 <0> d   1      17.399   1.282  10.414  0.00  0.00     0.037 A 
ATOM     19  C14 <0> d   1      18.094   2.472  10.560  0.00  0.00     0.102 A 
ATOM     20  C13 <0> d   1      19.013   2.873   9.602  0.00  0.00     0.037 A 
ATOM     21  C12 <0> d   1      19.242   2.095   8.496  0.00  0.00     0.017 A 
BRANCH  19  22
ATOM     22  N15 <0> d   1      17.856   3.322  11.749  0.00  0.00    -0.116 N 
ATOM     23  O16 <0> d   1      16.770   4.064  11.821  0.00  0.00    -0.532 OA
ATOM     24  O17 <0> d   1      18.729   3.336  12.734  0.00  0.00    -0.532 OA
ENDBRANCH  19  22
ENDBRANCH   4  16
TORSDOF 5
ENDMDL
