MODEL 1
REMARK VINA RESULT:      -8.3      0.000      0.000
REMARK  5 active torsions:
REMARK  status: ('A' for Active; 'I' for Inactive)
REMARK    1  A    between atoms: N4_4  and  N5_5 
REMARK    2  A    between atoms: N5_5  and  C6_6 
REMARK    3  A    between atoms: C6_6  and  C7_7 
REMARK    4  A    between atoms: C10_10  and  C11_11 
REMARK    5  A    between atoms: C14_14  and  N15_15 
ROOT
ATOM      1  C7  ZIN A   1      18.559   2.539  12.140  0.00  0.00     0.095 A 
ATOM      2  C8  ZIN A   1      18.254   3.780  11.411  0.00  0.00     0.041 A 
ATOM      3  C9  ZIN A   1      18.187   3.445  10.098  0.00  0.00     0.041 A 
ATOM      4  C10 ZIN A   1      18.439   2.054   9.999  0.00  0.00     0.086 A 
ATOM      5  O20 ZIN A   1      18.659   1.551  11.225  0.00  0.00    -0.308 OA
ENDROOT
BRANCH   1   6
ATOM      6  C6  ZIN A   1      18.720   2.409  13.512  0.00  0.00     0.176 C 
BRANCH   6   7
ATOM      7  N5  ZIN A   1      18.120   1.417  14.161  0.00  0.00    -0.177 NA
BRANCH   7   8
ATOM      8  N4  ZIN A   1      18.485   1.117  15.361  0.00  0.00    -0.209 N 
ATOM      9  C3  ZIN A   1      19.062   2.033  16.360  0.00  0.00     0.261 A 
ATOM     10  C2  ZIN A   1      19.292   1.145  17.566  0.00  0.00     0.267 A 
ATOM     11  O1  ZIN A   1      19.758   1.471  18.637  0.00  0.00    -0.269 OA
ATOM     12  N23 ZIN A   1      18.876  -0.083  17.200  0.00  0.00    -0.155 NA
ATOM     13  C21 ZIN A   1      18.413  -0.092  15.944  0.00  0.00     0.368 A 
ATOM     14  O22 ZIN A   1      17.979  -1.083  15.392  0.00  0.00    -0.243 OA
ENDBRANCH   7   8
ENDBRANCH   6   7
ENDBRANCH   1   6
BRANCH   4  15
ATOM     15  C11 ZIN A   1      18.458   1.311   8.793  0.00  0.00    -0.002 A 
ATOM     16  C19 ZIN A   1      19.139   1.807   7.664  0.00  0.00     0.017 A 
ATOM     17  C18 ZIN A   1      19.156   1.077   6.504  0.00  0.00     0.037 A 
ATOM     18  C14 ZIN A   1      18.497  -0.141   6.436  0.00  0.00     0.102 A 
ATOM     19  C13 ZIN A   1      17.819  -0.638   7.539  0.00  0.00     0.037 A 
ATOM     20  C12 ZIN A   1      17.792   0.072   8.711  0.00  0.00     0.017 A 
BRANCH  18  21
ATOM     21  N15 ZIN A   1      18.517  -0.917   5.175  0.00  0.00    -0.116 N 
ATOM     22  O16 ZIN A   1      17.389  -1.347   4.648  0.00  0.00    -0.532 OA
ATOM     23  O17 ZIN A   1      19.663  -1.180   4.582  0.00  0.00    -0.532 OA
ENDBRANCH  18  21
ENDBRANCH   4  15
TORSDOF 5
ENDMDL
MODEL 2
REMARK VINA RESULT:      -8.3      1.294      2.009
REMARK  5 active torsions:
REMARK  status: ('A' for Active; 'I' for Inactive)
REMARK    1  A    between atoms: N4_4  and  N5_5 
REMARK    2  A    between atoms: N5_5  and  C6_6 
REMARK    3  A    between atoms: C6_6  and  C7_7 
REMARK    4  A    between atoms: C10_10  and  C11_11 
REMARK    5  A    between atoms: C14_14  and  N15_15 
ROOT
ATOM      1  C7  ZIN A   1      18.013   2.051  12.274  0.00  0.00     0.095 A 
ATOM      2  C8  ZIN A   1      17.744   3.344  11.626  0.00  0.00     0.041 A 
ATOM      3  C9  ZIN A   1      17.814   3.123  10.289  0.00  0.00     0.041 A 
ATOM      4  C10 ZIN A   1      18.115   1.751  10.098  0.00  0.00     0.086 A 
ATOM      5  O20 ZIN A   1      18.230   1.148  11.293  0.00  0.00    -0.308 OA
ENDROOT
BRANCH   1   6
ATOM      6  C6  ZIN A   1      18.044   1.805  13.640  0.00  0.00     0.176 C 
BRANCH   6   7
ATOM      7  N5  ZIN A   1      18.168   2.815  14.494  0.00  0.00    -0.177 NA
BRANCH   7   8
ATOM      8  N4  ZIN A   1      18.681   2.614  15.660  0.00  0.00    -0.209 N 
ATOM      9  C3  ZIN A   1      18.730   1.337  16.392  0.00  0.00     0.261 A 
ATOM     10  C2  ZIN A   1      19.436   1.694  17.685  0.00  0.00     0.267 A 
ATOM     11  O1  ZIN A   1      19.700   0.949  18.605  0.00  0.00    -0.269 OA
ATOM     12  N23 ZIN A   1      19.704   3.012  17.602  0.00  0.00    -0.155 NA
ATOM     13  C21 ZIN A   1      19.276   3.531  16.445  0.00  0.00     0.368 A 
ATOM     14  O22 ZIN A   1      19.407   4.698  16.139  0.00  0.00    -0.243 OA
ENDBRANCH   7   8
ENDBRANCH   6   7
ENDBRANCH   1   6
BRANCH   4  15
ATOM     15  C11 ZIN A   1      18.274   1.116   8.842  0.00  0.00    -0.002 A 
ATOM     16  C19 ZIN A   1      17.653  -0.123   8.590  0.00  0.00     0.017 A 
ATOM     17  C18 ZIN A   1      17.809  -0.726   7.368  0.00  0.00     0.037 A 
ATOM     18  C14 ZIN A   1      18.583  -0.126   6.387  0.00  0.00     0.102 A 
ATOM     19  C13 ZIN A   1      19.203   1.091   6.625  0.00  0.00     0.037 A 
ATOM     20  C12 ZIN A   1      19.058   1.715   7.837  0.00  0.00     0.017 A 
BRANCH  18  21
ATOM     21  N15 ZIN A   1      18.749  -0.790   5.074  0.00  0.00    -0.116 N 
ATOM     22  O16 ZIN A   1      17.690  -1.102   4.355  0.00  0.00    -0.532 OA
ATOM     23  O17 ZIN A   1      19.954  -1.070   4.625  0.00  0.00    -0.532 OA
ENDBRANCH  18  21
ENDBRANCH   4  15
TORSDOF 5
ENDMDL
MODEL 3
REMARK VINA RESULT:      -7.9      2.682      9.401
REMARK  5 active torsions:
REMARK  status: ('A' for Active; 'I' for Inactive)
REMARK    1  A    between atoms: N4_4  and  N5_5 
REMARK    2  A    between atoms: N5_5  and  C6_6 
REMARK    3  A    between atoms: C6_6  and  C7_7 
REMARK    4  A    between atoms: C10_10  and  C11_11 
REMARK    5  A    between atoms: C14_14  and  N15_15 
ROOT
ATOM      1  C7  ZIN A   1      18.365  -1.678  10.805  0.00  0.00     0.095 A 
ATOM      2  C8  ZIN A   1      19.218  -2.767  11.306  0.00  0.00     0.041 A 
ATOM      3  C9  ZIN A   1      19.448  -2.500  12.616  0.00  0.00     0.041 A 
ATOM      4  C10 ZIN A   1      18.771  -1.295  12.932  0.00  0.00     0.086 A 
ATOM      5  O20 ZIN A   1      18.145  -0.833  11.837  0.00  0.00    -0.308 OA
ENDROOT
BRANCH   1   6
ATOM      6  C6  ZIN A   1      17.881  -1.540   9.512  0.00  0.00     0.176 C 
BRANCH   6   7
ATOM      7  N5  ZIN A   1      17.856  -2.588   8.696  0.00  0.00    -0.177 NA
BRANCH   7   8
ATOM      8  N4  ZIN A   1      18.508  -2.556   7.584  0.00  0.00    -0.209 N 
ATOM      9  C3  ZIN A   1      18.437  -1.507   6.552  0.00  0.00     0.261 A 
ATOM     10  C2  ZIN A   1      19.401  -1.990   5.486  0.00  0.00     0.267 A 
ATOM     11  O1  ZIN A   1      19.670  -1.440   4.439  0.00  0.00    -0.269 OA
ATOM     12  N23 ZIN A   1      19.893  -3.158   5.942  0.00  0.00    -0.155 NA
ATOM     13  C21 ZIN A   1      19.385  -3.474   7.139  0.00  0.00     0.368 A 
ATOM     14  O22 ZIN A   1      19.680  -4.479   7.754  0.00  0.00    -0.243 OA
ENDBRANCH   7   8
ENDBRANCH   6   7
ENDBRANCH   1   6
BRANCH   4  15
ATOM     15  C11 ZIN A   1      18.761  -0.672  14.205  0.00  0.00    -0.002 A 
ATOM     16  C19 ZIN A   1      18.998   0.712  14.319  0.00  0.00     0.017 A 
ATOM     17  C18 ZIN A   1      18.980   1.304  15.555  0.00  0.00     0.037 A 
ATOM     18  C14 ZIN A   1      18.741   0.545  16.691  0.00  0.00     0.102 A 
ATOM     19  C13 ZIN A   1      18.511  -0.819  16.591  0.00  0.00     0.037 A 
ATOM     20  C12 ZIN A   1      18.519  -1.433  15.365  0.00  0.00     0.017 A 
BRANCH  18  21
ATOM     21  N15 ZIN A   1      18.730   1.196  18.020  0.00  0.00    -0.116 N 
ATOM     22  O16 ZIN A   1      17.586   1.518  18.587  0.00  0.00    -0.532 OA
ATOM     23  O17 ZIN A   1      19.865   1.454  18.637  0.00  0.00    -0.532 OA
ENDBRANCH  18  21
ENDBRANCH   4  15
TORSDOF 5
ENDMDL
MODEL 4
REMARK VINA RESULT:      -7.7      2.388      9.115
REMARK  5 active torsions:
REMARK  status: ('A' for Active; 'I' for Inactive)
REMARK    1  A    between atoms: N4_4  and  N5_5 
REMARK    2  A    between atoms: N5_5  and  C6_6 
REMARK    3  A    between atoms: C6_6  and  C7_7 
REMARK    4  A    between atoms: C10_10  and  C11_11 
REMARK    5  A    between atoms: C14_14  and  N15_15 
ROOT
ATOM      1  C7  ZIN A   1      19.311  -1.502  10.724  0.00  0.00     0.095 A 
ATOM      2  C8  ZIN A   1      20.310  -0.440  10.541  0.00  0.00     0.041 A 
ATOM      3  C9  ZIN A   1      20.432   0.182  11.741  0.00  0.00     0.041 A 
ATOM      4  C10 ZIN A   1      19.547  -0.458  12.645  0.00  0.00     0.086 A 
ATOM      5  O20 ZIN A   1      18.897  -1.447  12.009  0.00  0.00    -0.308 OA
ENDROOT
BRANCH   1   6
ATOM      6  C6  ZIN A   1      18.870  -2.393   9.756  0.00  0.00     0.176 C 
BRANCH   6   7
ATOM      7  N5  ZIN A   1      17.956  -2.013   8.870  0.00  0.00    -0.177 NA
BRANCH   7   8
ATOM      8  N4  ZIN A   1      18.322  -1.481   7.753  0.00  0.00    -0.209 N 
ATOM      9  C3  ZIN A   1      19.158  -2.105   6.714  0.00  0.00     0.261 A 
ATOM     10  C2  ZIN A   1      19.260  -1.033   5.647  0.00  0.00     0.267 A 
ATOM     11  O1  ZIN A   1      19.858  -1.101   4.595  0.00  0.00    -0.269 OA
ATOM     12  N23 ZIN A   1      18.551   0.014   6.114  0.00  0.00    -0.155 NA
ATOM     13  C21 ZIN A   1      18.016  -0.248   7.312  0.00  0.00     0.368 A 
ATOM     14  O22 ZIN A   1      17.332   0.540   7.933  0.00  0.00    -0.243 OA
ENDBRANCH   7   8
ENDBRANCH   6   7
ENDBRANCH   1   6
BRANCH   4  15
ATOM     15  C11 ZIN A   1      19.373  -0.107  14.006  0.00  0.00    -0.002 A 
ATOM     16  C19 ZIN A   1      19.392   1.246  14.398  0.00  0.00     0.017 A 
ATOM     17  C18 ZIN A   1      19.218   1.575  15.717  0.00  0.00     0.037 A 
ATOM     18  C14 ZIN A   1      19.035   0.581  16.666  0.00  0.00     0.102 A 
ATOM     19  C13 ZIN A   1      19.020  -0.755  16.294  0.00  0.00     0.037 A 
ATOM     20  C12 ZIN A   1      19.187  -1.108  14.979  0.00  0.00     0.017 A 
BRANCH  18  21
ATOM     21  N15 ZIN A   1      18.854   0.948  18.089  0.00  0.00    -0.116 N 
ATOM     22  O16 ZIN A   1      17.904   0.377  18.801  0.00  0.00    -0.532 OA
ATOM     23  O17 ZIN A   1      19.642   1.846  18.643  0.00  0.00    -0.532 OA
ENDBRANCH  18  21
ENDBRANCH   4  15
TORSDOF 5
ENDMDL
MODEL 5
REMARK VINA RESULT:      -7.7      2.385      2.970
REMARK  5 active torsions:
REMARK  status: ('A' for Active; 'I' for Inactive)
REMARK    1  A    between atoms: N4_4  and  N5_5 
REMARK    2  A    between atoms: N5_5  and  C6_6 
REMARK    3  A    between atoms: C6_6  and  C7_7 
REMARK    4  A    between atoms: C10_10  and  C11_11 
REMARK    5  A    between atoms: C14_14  and  N15_15 
ROOT
ATOM      1  C7  ZIN A   1      19.575   3.002  11.562  0.00  0.00     0.095 A 
ATOM      2  C8  ZIN A   1      19.616   1.696  12.235  0.00  0.00     0.041 A 
ATOM      3  C9  ZIN A   1      19.493   0.760  11.261  0.00  0.00     0.041 A 
ATOM      4  C10 ZIN A   1      19.378   1.443  10.024  0.00  0.00     0.086 A 
ATOM      5  O20 ZIN A   1      19.426   2.768  10.239  0.00  0.00    -0.308 OA
ENDROOT
BRANCH   1   6
ATOM      6  C6  ZIN A   1      19.666   4.246  12.172  0.00  0.00     0.176 C 
BRANCH   6   7
ATOM      7  N5  ZIN A   1      18.821   4.573  13.143  0.00  0.00    -0.177 NA
BRANCH   7   8
ATOM      8  N4  ZIN A   1      19.202   4.519  14.374  0.00  0.00    -0.209 N 
ATOM      9  C3  ZIN A   1      19.026   3.388  15.301  0.00  0.00     0.261 A 
ATOM     10  C2  ZIN A   1      19.656   3.881  16.589  0.00  0.00     0.267 A 
ATOM     11  O1  ZIN A   1      19.744   3.279  17.638  0.00  0.00    -0.269 OA
ATOM     12  N23 ZIN A   1      20.093   5.128  16.326  0.00  0.00    -0.155 NA
ATOM     13  C21 ZIN A   1      19.836   5.485  15.063  0.00  0.00     0.368 A 
ATOM     14  O22 ZIN A   1      20.138   6.562  14.591  0.00  0.00    -0.243 OA
ENDBRANCH   7   8
ENDBRANCH   6   7
ENDBRANCH   1   6
BRANCH   4  15
ATOM     15  C11 ZIN A   1      19.231   0.824   8.758  0.00  0.00    -0.002 A 
ATOM     16  C19 ZIN A   1      19.036   1.607   7.604  0.00  0.00     0.017 A 
ATOM     17  C18 ZIN A   1      18.901   0.998   6.383  0.00  0.00     0.037 A 
ATOM     18  C14 ZIN A   1      18.945  -0.384   6.284  0.00  0.00     0.102 A 
ATOM     19  C13 ZIN A   1      19.131  -1.166   7.414  0.00  0.00     0.037 A 
ATOM     20  C12 ZIN A   1      19.274  -0.579   8.645  0.00  0.00     0.017 A 
BRANCH  18  21
ATOM     21  N15 ZIN A   1      18.791  -1.031   4.961  0.00  0.00    -0.116 N 
ATOM     22  O16 ZIN A   1      17.597  -1.143   4.417  0.00  0.00    -0.532 OA
ATOM     23  O17 ZIN A   1      19.848  -1.495   4.328  0.00  0.00    -0.532 OA
ENDBRANCH  18  21
ENDBRANCH   4  15
TORSDOF 5
ENDMDL
MODEL 6
REMARK VINA RESULT:      -7.7      1.805      8.637
REMARK  5 active torsions:
REMARK  status: ('A' for Active; 'I' for Inactive)
REMARK    1  A    between atoms: N4_4  and  N5_5 
REMARK    2  A    between atoms: N5_5  and  C6_6 
REMARK    3  A    between atoms: C6_6  and  C7_7 
REMARK    4  A    between atoms: C10_10  and  C11_11 
REMARK    5  A    between atoms: C14_14  and  N15_15 
ROOT
ATOM      1  C7  ZIN A   1      18.987   1.655   9.141  0.00  0.00     0.095 A 
ATOM      2  C8  ZIN A   1      18.604   2.969   9.680  0.00  0.00     0.041 A 
ATOM      3  C9  ZIN A   1      18.398   2.791  11.009  0.00  0.00     0.041 A 
ATOM      4  C10 ZIN A   1      18.639   1.425  11.300  0.00  0.00     0.086 A 
ATOM      5  O20 ZIN A   1      18.981   0.781  10.172  0.00  0.00    -0.308 OA
ENDROOT
BRANCH   1   6
ATOM      6  C6  ZIN A   1      19.293   1.365   7.819  0.00  0.00     0.176 C 
BRANCH   6   7
ATOM      7  N5  ZIN A   1      18.473   0.608   7.098  0.00  0.00    -0.177 NA
BRANCH   7   8
ATOM      8  N4  ZIN A   1      18.916  -0.461   6.527  0.00  0.00    -0.209 N 
ATOM      9  C3  ZIN A   1      19.109  -1.778   7.157  0.00  0.00     0.261 A 
ATOM     10  C2  ZIN A   1      19.643  -2.637   6.028  0.00  0.00     0.267 A 
ATOM     11  O1  ZIN A   1      19.949  -3.809   6.082  0.00  0.00    -0.269 OA
ATOM     12  N23 ZIN A   1      19.711  -1.827   4.954  0.00  0.00    -0.155 NA
ATOM     13  C21 ZIN A   1      19.291  -0.589   5.242  0.00  0.00     0.368 A 
ATOM     14  O22 ZIN A   1      19.257   0.318   4.435  0.00  0.00    -0.243 OA
ENDBRANCH   7   8
ENDBRANCH   6   7
ENDBRANCH   1   6
BRANCH   4  15
ATOM     15  C11 ZIN A   1      18.531   0.830  12.582  0.00  0.00    -0.002 A 
ATOM     16  C19 ZIN A   1      17.875   1.510  13.626  0.00  0.00     0.017 A 
ATOM     17  C18 ZIN A   1      17.772   0.922  14.861  0.00  0.00     0.037 A 
ATOM     18  C14 ZIN A   1      18.321  -0.331  15.086  0.00  0.00     0.102 A 
ATOM     19  C13 ZIN A   1      18.974  -1.008  14.066  0.00  0.00     0.037 A 
ATOM     20  C12 ZIN A   1      19.085  -0.443  12.822  0.00  0.00     0.017 A 
BRANCH  18  21
ATOM     21  N15 ZIN A   1      18.209  -0.952  16.425  0.00  0.00    -0.116 N 
ATOM     22  O16 ZIN A   1      19.254  -0.984  17.226  0.00  0.00    -0.532 OA
ATOM     23  O17 ZIN A   1      17.065  -1.473  16.816  0.00  0.00    -0.532 OA
ENDBRANCH  18  21
ENDBRANCH   4  15
TORSDOF 5
ENDMDL
MODEL 7
REMARK VINA RESULT:      -7.7      1.943      2.465
REMARK  5 active torsions:
REMARK  status: ('A' for Active; 'I' for Inactive)
REMARK    1  A    between atoms: N4_4  and  N5_5 
REMARK    2  A    between atoms: N5_5  and  C6_6 
REMARK    3  A    between atoms: C6_6  and  C7_7 
REMARK    4  A    between atoms: C10_10  and  C11_11 
REMARK    5  A    between atoms: C14_14  and  N15_15 
ROOT
ATOM      1  C7  ZIN A   1      18.668  -0.559  12.728  0.00  0.00     0.095 A 
ATOM      2  C8  ZIN A   1      17.985  -1.856  12.611  0.00  0.00     0.041 A 
ATOM      3  C9  ZIN A   1      17.958  -2.155  11.288  0.00  0.00     0.041 A 
ATOM      4  C10 ZIN A   1      18.595  -1.094  10.597  0.00  0.00     0.086 A 
ATOM      5  O20 ZIN A   1      18.999  -0.165  11.479  0.00  0.00    -0.308 OA
ENDROOT
BRANCH   1   6
ATOM      6  C6  ZIN A   1      18.921   0.135  13.903  0.00  0.00     0.176 C 
BRANCH   6   7
ATOM      7  N5  ZIN A   1      18.265  -0.179  15.014  0.00  0.00    -0.177 NA
BRANCH   7   8
ATOM      8  N4  ZIN A   1      18.711   0.213  16.160  0.00  0.00    -0.209 N 
ATOM      9  C3  ZIN A   1      18.738   1.595  16.667  0.00  0.00     0.261 A 
ATOM     10  C2  ZIN A   1      19.360   1.458  18.042  0.00  0.00     0.267 A 
ATOM     11  O1  ZIN A   1      19.583   2.346  18.837  0.00  0.00    -0.269 OA
ATOM     12  N23 ZIN A   1      19.617   0.144  18.196  0.00  0.00    -0.155 NA
ATOM     13  C21 ZIN A   1      19.242  -0.561  17.123  0.00  0.00     0.368 A 
ATOM     14  O22 ZIN A   1      19.369  -1.765  17.027  0.00  0.00    -0.243 OA
ENDBRANCH   7   8
ENDBRANCH   6   7
ENDBRANCH   1   6
BRANCH   4  15
ATOM     15  C11 ZIN A   1      18.774  -1.023   9.193  0.00  0.00    -0.002 A 
ATOM     16  C19 ZIN A   1      18.666   0.212   8.525  0.00  0.00     0.017 A 
ATOM     17  C18 ZIN A   1      18.847   0.269   7.168  0.00  0.00     0.037 A 
ATOM     18  C14 ZIN A   1      19.123  -0.884   6.450  0.00  0.00     0.102 A 
ATOM     19  C13 ZIN A   1      19.226  -2.107   7.096  0.00  0.00     0.037 A 
ATOM     20  C12 ZIN A   1      19.055  -2.189   8.454  0.00  0.00     0.017 A 
BRANCH  18  21
ATOM     21  N15 ZIN A   1      19.310  -0.810   4.983  0.00  0.00    -0.116 N 
ATOM     22  O16 ZIN A   1      19.119   0.330   4.352  0.00  0.00    -0.532 OA
ATOM     23  O17 ZIN A   1      19.666  -1.883   4.310  0.00  0.00    -0.532 OA
ENDBRANCH  18  21
ENDBRANCH   4  15
TORSDOF 5
ENDMDL
MODEL 8
REMARK VINA RESULT:      -7.4      1.672      8.889
REMARK  5 active torsions:
REMARK  status: ('A' for Active; 'I' for Inactive)
REMARK    1  A    between atoms: N4_4  and  N5_5 
REMARK    2  A    between atoms: N5_5  and  C6_6 
REMARK    3  A    between atoms: C6_6  and  C7_7 
REMARK    4  A    between atoms: C10_10  and  C11_11 
REMARK    5  A    between atoms: C14_14  and  N15_15 
ROOT
ATOM      1  C7  ZIN A   1      19.063   2.195  10.284  0.00  0.00     0.095 A 
ATOM      2  C8  ZIN A   1      18.307   3.436  10.511  0.00  0.00     0.041 A 
ATOM      3  C9  ZIN A   1      18.135   3.538  11.853  0.00  0.00     0.041 A 
ATOM      4  C10 ZIN A   1      18.754   2.411  12.450  0.00  0.00     0.086 A 
ATOM      5  O20 ZIN A   1      19.289   1.635  11.492  0.00  0.00    -0.308 OA
ENDROOT
BRANCH   1   6
ATOM      6  C6  ZIN A   1      19.465   1.689   9.055  0.00  0.00     0.176 C 
BRANCH   6   7
ATOM      7  N5  ZIN A   1      18.557   1.367   8.140  0.00  0.00    -0.177 NA
BRANCH   7   8
ATOM      8  N4  ZIN A   1      18.781   0.395   7.323  0.00  0.00    -0.209 N 
ATOM      9  C3  ZIN A   1      19.204   0.507   5.916  0.00  0.00     0.261 A 
ATOM     10  C2  ZIN A   1      19.310  -0.934   5.460  0.00  0.00     0.267 A 
ATOM     11  O1  ZIN A   1      19.630  -1.332   4.360  0.00  0.00    -0.269 OA
ATOM     12  N23 ZIN A   1      18.971  -1.681   6.529  0.00  0.00    -0.155 NA
ATOM     13  C21 ZIN A   1      18.675  -0.919   7.589  0.00  0.00     0.368 A 
ATOM     14  O22 ZIN A   1      18.343  -1.365   8.669  0.00  0.00    -0.243 OA
ENDBRANCH   7   8
ENDBRANCH   6   7
ENDBRANCH   1   6
BRANCH   4  15
ATOM     15  C11 ZIN A   1      18.798   2.143  13.840  0.00  0.00    -0.002 A 
ATOM     16  C19 ZIN A   1      18.782   0.814  14.308  0.00  0.00     0.017 A 
ATOM     17  C18 ZIN A   1      18.830   0.567  15.655  0.00  0.00     0.037 A 
ATOM     18  C14 ZIN A   1      18.883   1.618  16.557  0.00  0.00     0.102 A 
ATOM     19  C13 ZIN A   1      18.893   2.931  16.109  0.00  0.00     0.037 A 
ATOM     20  C12 ZIN A   1      18.851   3.203  14.766  0.00  0.00     0.017 A 
BRANCH  18  21
ATOM     21  N15 ZIN A   1      18.928   1.338  18.010  0.00  0.00    -0.116 N 
ATOM     22  O16 ZIN A   1      17.900   1.647  18.773  0.00  0.00    -0.532 OA
ATOM     23  O17 ZIN A   1      19.997   0.780  18.540  0.00  0.00    -0.532 OA
ENDBRANCH  18  21
ENDBRANCH   4  15
TORSDOF 5
ENDMDL
MODEL 9
REMARK VINA RESULT:      -7.3      3.635      8.504
REMARK  5 active torsions:
REMARK  status: ('A' for Active; 'I' for Inactive)
REMARK    1  A    between atoms: N4_4  and  N5_5 
REMARK    2  A    between atoms: N5_5  and  C6_6 
REMARK    3  A    between atoms: C6_6  and  C7_7 
REMARK    4  A    between atoms: C10_10  and  C11_11 
REMARK    5  A    between atoms: C14_14  and  N15_15 
ROOT
ATOM      1  C7  ZIN A   1      18.859   0.404   9.700  0.00  0.00     0.095 A 
ATOM      2  C8  ZIN A   1      19.278   1.427   8.730  0.00  0.00     0.041 A 
ATOM      3  C9  ZIN A   1      18.919   2.624   9.260  0.00  0.00     0.041 A 
ATOM      4  C10 ZIN A   1      18.300   2.370  10.509  0.00  0.00     0.086 A 
ATOM      5  O20 ZIN A   1      18.277   1.046  10.736  0.00  0.00    -0.308 OA
ENDROOT
BRANCH   1   6
ATOM      6  C6  ZIN A   1      19.026  -0.968   9.571  0.00  0.00     0.176 C 
BRANCH   6   7
ATOM      7  N5  ZIN A   1      18.272  -1.652   8.717  0.00  0.00    -0.177 NA
BRANCH   7   8
ATOM      8  N4  ZIN A   1      18.741  -1.976   7.560  0.00  0.00    -0.209 N 
ATOM      9  C3  ZIN A   1      18.741  -1.144   6.345  0.00  0.00     0.261 A 
ATOM     10  C2  ZIN A   1      19.408  -2.026   5.309  0.00  0.00     0.267 A 
ATOM     11  O1  ZIN A   1      19.628  -1.754   4.147  0.00  0.00    -0.269 OA
ATOM     12  N23 ZIN A   1      19.702  -3.177   5.944  0.00  0.00    -0.155 NA
ATOM     13  C21 ZIN A   1      19.324  -3.142   7.228  0.00  0.00     0.368 A 
ATOM     14  O22 ZIN A   1      19.486  -4.061   8.005  0.00  0.00    -0.243 OA
ENDBRANCH   7   8
ENDBRANCH   6   7
ENDBRANCH   1   6
BRANCH   4  15
ATOM     15  C11 ZIN A   1      17.782   3.359  11.381  0.00  0.00    -0.002 A 
ATOM     16  C19 ZIN A   1      17.062   4.454  10.865  0.00  0.00     0.017 A 
ATOM     17  C18 ZIN A   1      16.561   5.402  11.719  0.00  0.00     0.037 A 
ATOM     18  C14 ZIN A   1      16.770   5.293  13.085  0.00  0.00     0.102 A 
ATOM     19  C13 ZIN A   1      17.482   4.222  13.605  0.00  0.00     0.037 A 
ATOM     20  C12 ZIN A   1      17.988   3.258  12.771  0.00  0.00     0.017 A 
BRANCH  18  21
ATOM     21  N15 ZIN A   1      16.229   6.326  13.996  0.00  0.00    -0.116 N 
ATOM     22  O16 ZIN A   1      15.007   6.208  14.475  0.00  0.00    -0.532 OA
ATOM     23  O17 ZIN A   1      16.968   7.364  14.328  0.00  0.00    -0.532 OA
ENDBRANCH  18  21
ENDBRANCH   4  15
TORSDOF 5
ENDMDL
