MODEL 1
REMARK VINA RESULT:      -8.5      0.000      0.000
REMARK  4 active torsions:
REMARK  status: ('A' for Active; 'I' for Inactive)
REMARK    1  A    between atoms: O2_2  and  C3_3 
REMARK    2  A    between atoms: C4_4  and  N5_5 
REMARK    3  A    between atoms: N23_21  and  C24_22 
REMARK    4  A    between atoms: C28_26  and  C29_27 
ROOT
ATOM      1  C3  ZIN A   1      17.995   1.662  12.472  0.00  0.00     0.120 A 
ATOM      2  C4  ZIN A   1      18.480   0.363  12.546  0.00  0.00     0.085 A 
ATOM      3  C18 ZIN A   1      19.185  -0.067  13.671  0.00  0.00     0.141 A 
ATOM      4  F19 ZIN A   1      19.652  -1.334  13.727  0.00  0.00    -0.204 F 
ATOM      5  C20 ZIN A   1      19.406   0.785  14.716  0.00  0.00     0.062 A 
ATOM      6  C21 ZIN A   1      18.925   2.096  14.658  0.00  0.00     0.048 A 
ATOM      7  C22 ZIN A   1      18.218   2.544  13.528  0.00  0.00     0.084 A 
ATOM      8  N23 ZIN A   1      17.741   3.839  13.472  0.00  0.00    -0.348 N 
ATOM      9  C27 ZIN A   1      17.918   4.719  14.463  0.00  0.00     0.114 A 
ATOM     10  C28 ZIN A   1      18.597   4.394  15.624  0.00  0.00     0.107 A 
ATOM     11  C32 ZIN A   1      19.147   3.036  15.769  0.00  0.00     0.203 A 
ATOM     12  O33 ZIN A   1      19.752   2.701  16.773  0.00  0.00    -0.286 OA
ENDROOT
BRANCH   2  13
ATOM     13  N5  ZIN A   1      18.262  -0.519  11.486  0.00  0.00    -0.276 NA
ATOM     14  C17 ZIN A   1      19.515  -1.236  11.121  0.00  0.00     0.129 C 
ATOM     15  C15 ZIN A   1      19.005  -2.470  10.358  0.00  0.00     0.204 C 
ATOM     16  C7  ZIN A   1      17.632  -2.778  10.916  0.00  0.00     0.031 C 
ATOM     17  N12 ZIN A   1      19.978  -3.498  10.213  0.00  0.00    -0.069 N 
ATOM     18  C6  ZIN A   1      17.320  -1.598  11.877  0.00  0.00     0.102 C 
ATOM     19  C9  ZIN A   1      17.532  -4.063  11.717  0.00  0.00     0.009 C 
ATOM     20  C10 ZIN A   1      18.501  -5.129  11.221  0.00  0.00     0.028 C 
ATOM     21  C11 ZIN A   1      19.914  -4.529  11.248  0.00  0.00     0.233 C 
ATOM     22  H13 ZIN A   1      20.895  -3.078  10.235  0.00  0.00     0.277 HD
ATOM     23  H14 ZIN A   1      19.850  -3.939   9.314  0.00  0.00     0.277 HD
ENDBRANCH   2  13
BRANCH   1  24
ATOM     24  O2  ZIN A   1      17.310   2.074  11.372  0.00  0.00    -0.352 OA
ATOM     25  C1  ZIN A   1      18.031   2.125  10.139  0.00  0.00     0.210 C 
ENDBRANCH   1  24
BRANCH   8  26
ATOM     26  C24 ZIN A   1      17.010   4.266  12.277  0.00  0.00     0.090 A 
ATOM     27  C26 ZIN A   1      17.538   5.492  11.527  0.00  0.00     0.028 A 
ATOM     28  C25 ZIN A   1      16.251   5.592  12.350  0.00  0.00     0.028 A 
ENDBRANCH   8  26
BRANCH  10  29
ATOM     29  C29 ZIN A   1      18.770   5.388  16.688  0.00  0.00     0.214 C 
ATOM     30  O30 ZIN A   1      19.617   6.265  16.575  0.00  0.00    -0.644 OA
ATOM     31  O31 ZIN A   1      18.066   5.341  17.689  0.00  0.00    -0.644 OA
ENDBRANCH  10  29
TORSDOF 4
ENDMDL
MODEL 2
REMARK VINA RESULT:      -8.4      2.932      4.440
REMARK  4 active torsions:
REMARK  status: ('A' for Active; 'I' for Inactive)
REMARK    1  A    between atoms: O2_2  and  C3_3 
REMARK    2  A    between atoms: C4_4  and  N5_5 
REMARK    3  A    between atoms: N23_21  and  C24_22 
REMARK    4  A    between atoms: C28_26  and  C29_27 
ROOT
ATOM      1  C3  ZIN A   1      18.653   1.972  12.323  0.00  0.00     0.120 A 
ATOM      2  C4  ZIN A   1      18.529   2.134  10.949  0.00  0.00     0.085 A 
ATOM      3  C18 ZIN A   1      18.018   3.320  10.419  0.00  0.00     0.141 A 
ATOM      4  F19 ZIN A   1      17.903   3.463   9.081  0.00  0.00    -0.204 F 
ATOM      5  C20 ZIN A   1      17.633   4.338  11.247  0.00  0.00     0.062 A 
ATOM      6  C21 ZIN A   1      17.750   4.190  12.631  0.00  0.00     0.048 A 
ATOM      7  C22 ZIN A   1      18.259   2.998  13.178  0.00  0.00     0.084 A 
ATOM      8  N23 ZIN A   1      18.376   2.854  14.547  0.00  0.00    -0.348 N 
ATOM      9  C27 ZIN A   1      18.023   3.813  15.409  0.00  0.00     0.114 A 
ATOM     10  C28 ZIN A   1      17.511   5.028  14.990  0.00  0.00     0.107 A 
ATOM     11  C32 ZIN A   1      17.344   5.269  13.547  0.00  0.00     0.203 A 
ATOM     12  O33 ZIN A   1      16.897   6.324  13.128  0.00  0.00    -0.286 OA
ENDROOT
BRANCH   2  13
ATOM     13  N5  ZIN A   1      18.919   1.104  10.092  0.00  0.00    -0.276 NA
ATOM     14  C17 ZIN A   1      17.740   0.325   9.621  0.00  0.00     0.129 C 
ATOM     15  C15 ZIN A   1      18.261  -0.371   8.354  0.00  0.00     0.204 C 
ATOM     16  C7  ZIN A   1      19.337   0.528   7.785  0.00  0.00     0.031 C 
ATOM     17  N12 ZIN A   1      17.231  -0.890   7.519  0.00  0.00    -0.069 N 
ATOM     18  C6  ZIN A   1      19.523   1.646   8.848  0.00  0.00     0.102 C 
ATOM     19  C9  ZIN A   1      18.993   1.197   6.468  0.00  0.00     0.009 C 
ATOM     20  C10 ZIN A   1      18.067   0.343   5.611  0.00  0.00     0.028 C 
ATOM     21  C11 ZIN A   1      16.822   0.017   6.447  0.00  0.00     0.233 C 
ATOM     22  H13 ZIN A   1      16.426  -1.094   8.092  0.00  0.00     0.277 HD
ATOM     23  H14 ZIN A   1      17.555  -1.751   7.104  0.00  0.00     0.277 HD
ENDBRANCH   2  13
BRANCH   1  24
ATOM     24  O2  ZIN A   1      19.152   0.813  12.831  0.00  0.00    -0.352 OA
ATOM     25  C1  ZIN A   1      20.526   0.526  12.564  0.00  0.00     0.210 C 
ENDBRANCH   1  24
BRANCH   8  26
ATOM     26  C24 ZIN A   1      18.910   1.597  15.076  0.00  0.00     0.090 A 
ATOM     27  C26 ZIN A   1      17.951   0.695  15.857  0.00  0.00     0.028 A 
ATOM     28  C25 ZIN A   1      19.044   1.471  16.595  0.00  0.00     0.028 A 
ENDBRANCH   8  26
BRANCH  10  29
ATOM     29  C29 ZIN A   1      17.136   6.055  15.967  0.00  0.00     0.214 C 
ATOM     30  O30 ZIN A   1      17.969   6.861  16.360  0.00  0.00    -0.644 OA
ATOM     31  O31 ZIN A   1      15.987   6.107  16.388  0.00  0.00    -0.644 OA
ENDBRANCH  10  29
TORSDOF 4
ENDMDL
MODEL 3
REMARK VINA RESULT:      -8.4      3.351      8.398
REMARK  4 active torsions:
REMARK  status: ('A' for Active; 'I' for Inactive)
REMARK    1  A    between atoms: O2_2  and  C3_3 
REMARK    2  A    between atoms: C4_4  and  N5_5 
REMARK    3  A    between atoms: N23_21  and  C24_22 
REMARK    4  A    between atoms: C28_26  and  C29_27 
ROOT
ATOM      1  C3  ZIN A   1      18.279   0.510  10.626  0.00  0.00     0.120 A 
ATOM      2  C4  ZIN A   1      18.378   1.849  10.983  0.00  0.00     0.085 A 
ATOM      3  C18 ZIN A   1      18.640   2.821  10.017  0.00  0.00     0.141 A 
ATOM      4  F19 ZIN A   1      18.736   4.119  10.379  0.00  0.00    -0.204 F 
ATOM      5  C20 ZIN A   1      18.803   2.468   8.706  0.00  0.00     0.062 A 
ATOM      6  C21 ZIN A   1      18.706   1.126   8.330  0.00  0.00     0.048 A 
ATOM      7  C22 ZIN A   1      18.448   0.135   9.295  0.00  0.00     0.084 A 
ATOM      8  N23 ZIN A   1      18.351  -1.191   8.922  0.00  0.00    -0.348 N 
ATOM      9  C27 ZIN A   1      18.493  -1.600   7.657  0.00  0.00     0.114 A 
ATOM     10  C28 ZIN A   1      18.749  -0.719   6.623  0.00  0.00     0.107 A 
ATOM     11  C32 ZIN A   1      18.876   0.716   6.926  0.00  0.00     0.203 A 
ATOM     12  O33 ZIN A   1      19.101   1.533   6.049  0.00  0.00    -0.286 OA
ENDROOT
BRANCH   2  13
ATOM     13  N5  ZIN A   1      18.215   2.224  12.317  0.00  0.00    -0.276 NA
ATOM     14  C17 ZIN A   1      19.486   2.757  12.882  0.00  0.00     0.129 C 
ATOM     15  C15 ZIN A   1      19.017   3.568  14.100  0.00  0.00     0.204 C 
ATOM     16  C7  ZIN A   1      17.618   4.049  13.779  0.00  0.00     0.031 C 
ATOM     17  N12 ZIN A   1      19.998   4.468  14.603  0.00  0.00    -0.069 N 
ATOM     18  C6  ZIN A   1      17.256   3.351  12.439  0.00  0.00     0.102 C 
ATOM     19  C9  ZIN A   1      17.480   5.546  13.571  0.00  0.00     0.009 C 
ATOM     20  C10 ZIN A   1      18.474   6.340  14.409  0.00  0.00     0.028 C 
ATOM     21  C11 ZIN A   1      19.883   5.827  14.076  0.00  0.00     0.233 C 
ATOM     22  H13 ZIN A   1      20.912   4.110  14.371  0.00  0.00     0.277 HD
ATOM     23  H14 ZIN A   1      19.916   4.506  15.609  0.00  0.00     0.277 HD
ENDBRANCH   2  13
BRANCH   1  24
ATOM     24  O2  ZIN A   1      18.024  -0.432  11.573  0.00  0.00    -0.352 OA
ATOM     25  C1  ZIN A   1      16.737  -0.395  12.195  0.00  0.00     0.210 C 
ENDBRANCH   1  24
BRANCH   8  26
ATOM     26  C24 ZIN A   1      18.081  -2.192   9.957  0.00  0.00     0.090 A 
ATOM     27  C26 ZIN A   1      19.096  -3.325  10.126  0.00  0.00     0.028 A 
ATOM     28  C25 ZIN A   1      17.731  -3.608   9.496  0.00  0.00     0.028 A 
ENDBRANCH   8  26
BRANCH  10  29
ATOM     29  C29 ZIN A   1      18.898  -1.207   5.248  0.00  0.00     0.214 C 
ATOM     30  O30 ZIN A   1      20.014  -1.328   4.759  0.00  0.00    -0.644 OA
ATOM     31  O31 ZIN A   1      17.907  -1.495   4.591  0.00  0.00    -0.644 OA
ENDBRANCH  10  29
TORSDOF 4
ENDMDL
MODEL 4
REMARK VINA RESULT:      -8.3      1.561      2.028
REMARK  4 active torsions:
REMARK  status: ('A' for Active; 'I' for Inactive)
REMARK    1  A    between atoms: O2_2  and  C3_3 
REMARK    2  A    between atoms: C4_4  and  N5_5 
REMARK    3  A    between atoms: N23_21  and  C24_22 
REMARK    4  A    between atoms: C28_26  and  C29_27 
ROOT
ATOM      1  C3  ZIN A   1      18.162   0.187  11.866  0.00  0.00     0.120 A 
ATOM      2  C4  ZIN A   1      18.336  -1.186  11.743  0.00  0.00     0.085 A 
ATOM      3  C18 ZIN A   1      18.741  -1.950  12.838  0.00  0.00     0.141 A 
ATOM      4  F19 ZIN A   1      18.908  -3.284  12.703  0.00  0.00    -0.204 F 
ATOM      5  C20 ZIN A   1      18.971  -1.356  14.048  0.00  0.00     0.062 A 
ATOM      6  C21 ZIN A   1      18.800   0.023  14.189  0.00  0.00     0.048 A 
ATOM      7  C22 ZIN A   1      18.398   0.806  13.092  0.00  0.00     0.084 A 
ATOM      8  N23 ZIN A   1      18.228   2.169  13.233  0.00  0.00    -0.348 N 
ATOM      9  C27 ZIN A   1      18.430   2.808  14.390  0.00  0.00     0.114 A 
ATOM     10  C28 ZIN A   1      18.827   2.146  15.537  0.00  0.00     0.107 A 
ATOM     11  C32 ZIN A   1      19.039   0.690  15.480  0.00  0.00     0.203 A 
ATOM     12  O33 ZIN A   1      19.389   0.061  16.465  0.00  0.00    -0.286 OA
ENDROOT
BRANCH   2  13
ATOM     13  N5  ZIN A   1      18.105  -1.806  10.513  0.00  0.00    -0.276 NA
ATOM     14  C17 ZIN A   1      19.375  -2.317   9.926  0.00  0.00     0.129 C 
ATOM     15  C15 ZIN A   1      18.895  -3.370   8.914  0.00  0.00     0.204 C 
ATOM     16  C7  ZIN A   1      17.584  -3.907   9.447  0.00  0.00     0.031 C 
ATOM     17  N12 ZIN A   1      19.920  -4.255   8.477  0.00  0.00    -0.069 N 
ATOM     18  C6  ZIN A   1      17.261  -3.017  10.679  0.00  0.00     0.102 C 
ATOM     19  C9  ZIN A   1      17.620  -5.350   9.919  0.00  0.00     0.009 C 
ATOM     20  C10 ZIN A   1      18.620  -6.189   9.134  0.00  0.00     0.028 C 
ATOM     21  C11 ZIN A   1      19.990  -5.504   9.236  0.00  0.00     0.233 C 
ATOM     22  H13 ZIN A   1      20.808  -3.783   8.556  0.00  0.00     0.277 HD
ATOM     23  H14 ZIN A   1      19.761  -4.479   7.506  0.00  0.00     0.277 HD
ENDBRANCH   2  13
BRANCH   1  24
ATOM     24  O2  ZIN A   1      17.767   0.924  10.793  0.00  0.00    -0.352 OA
ATOM     25  C1  ZIN A   1      18.721   1.107   9.745  0.00  0.00     0.210 C 
ENDBRANCH   1  24
BRANCH   8  26
ATOM     26  C24 ZIN A   1      17.808   2.947  12.065  0.00  0.00     0.090 A 
ATOM     27  C26 ZIN A   1      18.647   4.173  11.694  0.00  0.00     0.028 A 
ATOM     28  C25 ZIN A   1      17.259   4.353  12.314  0.00  0.00     0.028 A 
ENDBRANCH   8  26
BRANCH  10  29
ATOM     29  C29 ZIN A   1      19.038   2.883  16.787  0.00  0.00     0.214 C 
ATOM     30  O30 ZIN A   1      20.074   3.511  16.960  0.00  0.00    -0.644 OA
ATOM     31  O31 ZIN A   1      18.177   2.870  17.657  0.00  0.00    -0.644 OA
ENDBRANCH  10  29
TORSDOF 4
ENDMDL
MODEL 5
REMARK VINA RESULT:      -8.2      2.861      4.567
REMARK  4 active torsions:
REMARK  status: ('A' for Active; 'I' for Inactive)
REMARK    1  A    between atoms: O2_2  and  C3_3 
REMARK    2  A    between atoms: C4_4  and  N5_5 
REMARK    3  A    between atoms: N23_21  and  C24_22 
REMARK    4  A    between atoms: C28_26  and  C29_27 
ROOT
ATOM      1  C3  ZIN A   1      18.599   0.038  12.223  0.00  0.00     0.120 A 
ATOM      2  C4  ZIN A   1      18.638   0.485  10.908  0.00  0.00     0.085 A 
ATOM      3  C18 ZIN A   1      18.782   1.844  10.626  0.00  0.00     0.141 A 
ATOM      4  F19 ZIN A   1      18.817   2.263   9.342  0.00  0.00    -0.204 F 
ATOM      5  C20 ZIN A   1      18.888   2.753  11.641  0.00  0.00     0.062 A 
ATOM      6  C21 ZIN A   1      18.850   2.321  12.969  0.00  0.00     0.048 A 
ATOM      7  C22 ZIN A   1      18.700   0.954  13.267  0.00  0.00     0.084 A 
ATOM      8  N23 ZIN A   1      18.665   0.528  14.580  0.00  0.00    -0.348 N 
ATOM      9  C27 ZIN A   1      18.769   1.366  15.617  0.00  0.00     0.114 A 
ATOM     10  C28 ZIN A   1      18.921   2.730  15.449  0.00  0.00     0.107 A 
ATOM     11  C32 ZIN A   1      18.963   3.277  14.083  0.00  0.00     0.203 A 
ATOM     12  O33 ZIN A   1      19.095   4.473  13.882  0.00  0.00    -0.286 OA
ENDROOT
BRANCH   2  13
ATOM     13  N5  ZIN A   1      18.531  -0.433   9.861  0.00  0.00    -0.276 NA
ATOM     14  C17 ZIN A   1      17.287  -0.205   9.076  0.00  0.00     0.129 C 
ATOM     15  C15 ZIN A   1      17.583  -0.900   7.737  0.00  0.00     0.204 C 
ATOM     16  C7  ZIN A   1      19.083  -0.836   7.547  0.00  0.00     0.031 C 
ATOM     17  N12 ZIN A   1      16.700  -0.524   6.687  0.00  0.00    -0.069 N 
ATOM     18  C6  ZIN A   1      19.628  -0.247   8.877  0.00  0.00     0.102 C 
ATOM     19  C9  ZIN A   1      19.555   0.063   6.419  0.00  0.00     0.009 C 
ATOM     20  C10 ZIN A   1      18.555   0.121   5.271  0.00  0.00     0.028 C 
ATOM     21  C11 ZIN A   1      17.202   0.564   5.849  0.00  0.00     0.233 C 
ATOM     22  H13 ZIN A   1      15.822  -0.237   7.093  0.00  0.00     0.277 HD
ATOM     23  H14 ZIN A   1      16.534  -1.329   6.101  0.00  0.00     0.277 HD
ENDBRANCH   2  13
BRANCH   1  24
ATOM     24  O2  ZIN A   1      18.458  -1.288  12.490  0.00  0.00    -0.352 OA
ATOM     25  C1  ZIN A   1      19.538  -2.145  12.112  0.00  0.00     0.210 C 
ENDBRANCH   1  24
BRANCH   8  26
ATOM     26  C24 ZIN A   1      18.506  -0.904  14.848  0.00  0.00     0.090 A 
ATOM     27  C26 ZIN A   1      17.634  -1.307  16.039  0.00  0.00     0.028 A 
ATOM     28  C25 ZIN A   1      19.155  -1.460  16.117  0.00  0.00     0.028 A 
ENDBRANCH   8  26
BRANCH  10  29
ATOM     29  C29 ZIN A   1      19.032   3.616  16.612  0.00  0.00     0.214 C 
ATOM     30  O30 ZIN A   1      20.051   3.610  17.291  0.00  0.00    -0.644 OA
ATOM     31  O31 ZIN A   1      18.107   4.362  16.903  0.00  0.00    -0.644 OA
ENDBRANCH  10  29
TORSDOF 4
ENDMDL
MODEL 6
REMARK VINA RESULT:      -7.9      3.778      8.959
REMARK  4 active torsions:
REMARK  status: ('A' for Active; 'I' for Inactive)
REMARK    1  A    between atoms: O2_2  and  C3_3 
REMARK    2  A    between atoms: C4_4  and  N5_5 
REMARK    3  A    between atoms: N23_21  and  C24_22 
REMARK    4  A    between atoms: C28_26  and  C29_27 
ROOT
ATOM      1  C3  ZIN A   1      18.023  -1.702  10.426  0.00  0.00     0.120 A 
ATOM      2  C4  ZIN A   1      18.508  -0.401  10.411  0.00  0.00     0.085 A 
ATOM      3  C18 ZIN A   1      19.208   0.082   9.305  0.00  0.00     0.141 A 
ATOM      4  F19 ZIN A   1      19.675   1.350   9.305  0.00  0.00    -0.204 F 
ATOM      5  C20 ZIN A   1      19.425  -0.721   8.220  0.00  0.00     0.062 A 
ATOM      6  C21 ZIN A   1      18.944  -2.033   8.218  0.00  0.00     0.048 A 
ATOM      7  C22 ZIN A   1      18.241  -2.534   9.329  0.00  0.00     0.084 A 
ATOM      8  N23 ZIN A   1      17.765  -3.830   9.326  0.00  0.00    -0.348 N 
ATOM      9  C27 ZIN A   1      17.939  -4.663   8.294  0.00  0.00     0.114 A 
ATOM     10  C28 ZIN A   1      18.612  -4.284   7.148  0.00  0.00     0.107 A 
ATOM     11  C32 ZIN A   1      19.162  -2.920   7.063  0.00  0.00     0.203 A 
ATOM     12  O33 ZIN A   1      19.763  -2.539   6.074  0.00  0.00    -0.286 OA
ENDROOT
BRANCH   2  13
ATOM     13  N5  ZIN A   1      18.294   0.430  11.512  0.00  0.00    -0.276 NA
ATOM     14  C17 ZIN A   1      19.540   1.156  11.884  0.00  0.00     0.129 C 
ATOM     15  C15 ZIN A   1      19.022   2.345  12.709  0.00  0.00     0.204 C 
ATOM     16  C7  ZIN A   1      17.633   2.650  12.191  0.00  0.00     0.031 C 
ATOM     17  N12 ZIN A   1      19.979   3.385  12.881  0.00  0.00    -0.069 N 
ATOM     18  C6  ZIN A   1      17.324   1.507  11.185  0.00  0.00     0.102 C 
ATOM     19  C9  ZIN A   1      17.494   3.967  11.448  0.00  0.00     0.009 C 
ATOM     20  C10 ZIN A   1      18.452   5.029  11.971  0.00  0.00     0.028 C 
ATOM     21  C11 ZIN A   1      19.875   4.457  11.892  0.00  0.00     0.233 C 
ATOM     22  H13 ZIN A   1      20.903   2.984  12.824  0.00  0.00     0.277 HD
ATOM     23  H14 ZIN A   1      19.860   3.784  13.801  0.00  0.00     0.277 HD
ENDBRANCH   2  13
BRANCH   1  24
ATOM     24  O2  ZIN A   1      17.342  -2.165  11.508  0.00  0.00    -0.352 OA
ATOM     25  C1  ZIN A   1      18.068  -2.274  12.734  0.00  0.00     0.210 C 
ENDBRANCH   1  24
BRANCH   8  26
ATOM     26  C24 ZIN A   1      17.039  -4.312  10.503  0.00  0.00     0.090 A 
ATOM     27  C26 ZIN A   1      17.641  -5.493  11.269  0.00  0.00     0.028 A 
ATOM     28  C25 ZIN A   1      16.389  -5.694  10.414  0.00  0.00     0.028 A 
ENDBRANCH   8  26
BRANCH  10  29
ATOM     29  C29 ZIN A   1      18.781  -5.226   6.037  0.00  0.00     0.214 C 
ATOM     30  O30 ZIN A   1      18.182  -5.047   4.985  0.00  0.00    -0.644 OA
ATOM     31  O31 ZIN A   1      19.523  -6.192   6.163  0.00  0.00    -0.644 OA
ENDBRANCH  10  29
TORSDOF 4
ENDMDL
MODEL 7
REMARK VINA RESULT:      -7.9      3.996      8.348
REMARK  4 active torsions:
REMARK  status: ('A' for Active; 'I' for Inactive)
REMARK    1  A    between atoms: O2_2  and  C3_3 
REMARK    2  A    between atoms: C4_4  and  N5_5 
REMARK    3  A    between atoms: N23_21  and  C24_22 
REMARK    4  A    between atoms: C28_26  and  C29_27 
ROOT
ATOM      1  C3  ZIN A   1      18.638  -1.271   9.911  0.00  0.00     0.120 A 
ATOM      2  C4  ZIN A   1      18.505  -1.465  11.280  0.00  0.00     0.085 A 
ATOM      3  C18 ZIN A   1      18.221  -2.731  11.792  0.00  0.00     0.141 A 
ATOM      4  F19 ZIN A   1      18.094  -2.904  13.126  0.00  0.00    -0.204 F 
ATOM      5  C20 ZIN A   1      18.069  -3.799  10.951  0.00  0.00     0.062 A 
ATOM      6  C21 ZIN A   1      18.199  -3.621   9.572  0.00  0.00     0.048 A 
ATOM      7  C22 ZIN A   1      18.480  -2.349   9.042  0.00  0.00     0.084 A 
ATOM      8  N23 ZIN A   1      18.610  -2.175   7.678  0.00  0.00    -0.348 N 
ATOM      9  C27 ZIN A   1      18.480  -3.179   6.804  0.00  0.00     0.114 A 
ATOM     10  C28 ZIN A   1      18.204  -4.473   7.206  0.00  0.00     0.107 A 
ATOM     11  C32 ZIN A   1      18.042  -4.753   8.643  0.00  0.00     0.203 A 
ATOM     12  O33 ZIN A   1      17.798  -5.877   9.046  0.00  0.00    -0.286 OA
ENDROOT
BRANCH   2  13
ATOM     13  N5  ZIN A   1      18.658  -0.384  12.150  0.00  0.00    -0.276 NA
ATOM     14  C17 ZIN A   1      17.407  -0.137  12.919  0.00  0.00     0.129 C 
ATOM     15  C15 ZIN A   1      17.892   0.678  14.129  0.00  0.00     0.204 C 
ATOM     16  C7  ZIN A   1      19.324   0.257  14.380  0.00  0.00     0.031 C 
ATOM     17  N12 ZIN A   1      16.953   0.736  15.197  0.00  0.00    -0.069 N 
ATOM     18  C6  ZIN A   1      19.678  -0.677  13.189  0.00  0.00     0.102 C 
ATOM     19  C9  ZIN A   1      19.554  -0.524  15.661  0.00  0.00     0.009 C 
ATOM     20  C10 ZIN A   1      18.588  -0.118  16.766  0.00  0.00     0.028 C 
ATOM     21  C11 ZIN A   1      17.160  -0.283  16.225  0.00  0.00     0.233 C 
ATOM     22  H13 ZIN A   1      16.026   0.623  14.816  0.00  0.00     0.277 HD
ATOM     23  H14 ZIN A   1      17.013   1.645  15.630  0.00  0.00     0.277 HD
ENDBRANCH   2  13
BRANCH   1  24
ATOM     24  O2  ZIN A   1      18.915  -0.033   9.420  0.00  0.00    -0.352 OA
ATOM     25  C1  ZIN A   1      17.912   0.971   9.588  0.00  0.00     0.210 C 
ENDBRANCH   1  24
BRANCH   8  26
ATOM     26  C24 ZIN A   1      18.903  -0.834   7.168  0.00  0.00     0.090 A 
ATOM     27  C26 ZIN A   1      17.907  -0.221   6.180  0.00  0.00     0.028 A 
ATOM     28  C25 ZIN A   1      19.272  -0.707   5.689  0.00  0.00     0.028 A 
ENDBRANCH   8  26
BRANCH  10  29
ATOM     29  C29 ZIN A   1      18.069  -5.547   6.217  0.00  0.00     0.214 C 
ATOM     30  O30 ZIN A   1      17.064  -5.616   5.521  0.00  0.00    -0.644 OA
ATOM     31  O31 ZIN A   1      18.962  -6.373   6.086  0.00  0.00    -0.644 OA
ENDBRANCH  10  29
TORSDOF 4
ENDMDL
MODEL 8
REMARK VINA RESULT:      -7.8      3.708      7.929
REMARK  4 active torsions:
REMARK  status: ('A' for Active; 'I' for Inactive)
REMARK    1  A    between atoms: O2_2  and  C3_3 
REMARK    2  A    between atoms: C4_4  and  N5_5 
REMARK    3  A    between atoms: N23_21  and  C24_22 
REMARK    4  A    between atoms: C28_26  and  C29_27 
ROOT
ATOM      1  C3  ZIN A   1      18.982  -0.205  10.540  0.00  0.00     0.120 A 
ATOM      2  C4  ZIN A   1      19.229   1.106  10.926  0.00  0.00     0.085 A 
ATOM      3  C18 ZIN A   1      19.362   2.113   9.968  0.00  0.00     0.141 A 
ATOM      4  F19 ZIN A   1      19.603   3.384  10.358  0.00  0.00    -0.204 F 
ATOM      5  C20 ZIN A   1      19.252   1.820   8.637  0.00  0.00     0.062 A 
ATOM      6  C21 ZIN A   1      19.004   0.506   8.233  0.00  0.00     0.048 A 
ATOM      7  C22 ZIN A   1      18.873  -0.519   9.187  0.00  0.00     0.084 A 
ATOM      8  N23 ZIN A   1      18.627  -1.817   8.786  0.00  0.00    -0.348 N 
ATOM      9  C27 ZIN A   1      18.502  -2.167   7.502  0.00  0.00     0.114 A 
ATOM     10  C28 ZIN A   1      18.610  -1.248   6.475  0.00  0.00     0.107 A 
ATOM     11  C32 ZIN A   1      18.879   0.162   6.807  0.00  0.00     0.203 A 
ATOM     12  O33 ZIN A   1      18.984   1.009   5.937  0.00  0.00    -0.286 OA
ENDROOT
BRANCH   2  13
ATOM     13  N5  ZIN A   1      19.344   1.420  12.281  0.00  0.00    -0.276 NA
ATOM     14  C17 ZIN A   1      18.008   1.454  12.938  0.00  0.00     0.129 C 
ATOM     15  C15 ZIN A   1      18.343   1.287  14.429  0.00  0.00     0.204 C 
ATOM     16  C7  ZIN A   1      19.627   0.488  14.490  0.00  0.00     0.031 C 
ATOM     17  N12 ZIN A   1      17.225   0.930  15.233  0.00  0.00    -0.069 N 
ATOM     18  C6  ZIN A   1      20.087   0.361  13.011  0.00  0.00     0.102 C 
ATOM     19  C9  ZIN A   1      19.490  -0.915  15.052  0.00  0.00     0.009 C 
ATOM     20  C10 ZIN A   1      18.384  -1.014  16.094  0.00  0.00     0.028 C 
ATOM     21  C11 ZIN A   1      17.084  -0.510  15.449  0.00  0.00     0.233 C 
ATOM     22  H13 ZIN A   1      16.386   1.270  14.787  0.00  0.00     0.277 HD
ATOM     23  H14 ZIN A   1      17.316   1.381  16.131  0.00  0.00     0.277 HD
ENDBRANCH   2  13
BRANCH   1  24
ATOM     24  O2  ZIN A   1      18.854  -1.181  11.480  0.00  0.00    -0.352 OA
ATOM     25  C1  ZIN A   1      17.529  -1.489  11.918  0.00  0.00     0.210 C 
ENDBRANCH   1  24
BRANCH   8  26
ATOM     26  C24 ZIN A   1      18.497  -2.855   9.812  0.00  0.00     0.090 A 
ATOM     27  C26 ZIN A   1      19.341  -4.121   9.646  0.00  0.00     0.028 A 
ATOM     28  C25 ZIN A   1      17.830  -4.170   9.405  0.00  0.00     0.028 A 
ENDBRANCH   8  26
BRANCH  10  29
ATOM     29  C29 ZIN A   1      18.467  -1.671   5.078  0.00  0.00     0.214 C 
ATOM     30  O30 ZIN A   1      17.355  -1.737   4.569  0.00  0.00    -0.644 OA
ATOM     31  O31 ZIN A   1      19.459  -1.957   4.421  0.00  0.00    -0.644 OA
ENDBRANCH  10  29
TORSDOF 4
ENDMDL
MODEL 9
REMARK VINA RESULT:      -7.7      2.240      4.044
REMARK  4 active torsions:
REMARK  status: ('A' for Active; 'I' for Inactive)
REMARK    1  A    between atoms: O2_2  and  C3_3 
REMARK    2  A    between atoms: C4_4  and  N5_5 
REMARK    3  A    between atoms: N23_21  and  C24_22 
REMARK    4  A    between atoms: C28_26  and  C29_27 
ROOT
ATOM      1  C3  ZIN A   1      18.327  -0.811  13.227  0.00  0.00     0.120 A 
ATOM      2  C4  ZIN A   1      18.225  -1.581  12.075  0.00  0.00     0.085 A 
ATOM      3  C18 ZIN A   1      17.924  -0.985  10.849  0.00  0.00     0.141 A 
ATOM      4  F19 ZIN A   1      17.826  -1.747   9.738  0.00  0.00    -0.204 F 
ATOM      5  C20 ZIN A   1      17.727   0.365  10.766  0.00  0.00     0.062 A 
ATOM      6  C21 ZIN A   1      17.826   1.154  11.915  0.00  0.00     0.048 A 
ATOM      7  C22 ZIN A   1      18.123   0.565  13.158  0.00  0.00     0.084 A 
ATOM      8  N23 ZIN A   1      18.222   1.346  14.293  0.00  0.00    -0.348 N 
ATOM      9  C27 ZIN A   1      18.047   2.672  14.278  0.00  0.00     0.114 A 
ATOM     10  C28 ZIN A   1      17.751   3.362  13.116  0.00  0.00     0.107 A 
ATOM     11  C32 ZIN A   1      17.619   2.610  11.857  0.00  0.00     0.203 A 
ATOM     12  O33 ZIN A   1      17.360   3.173  10.807  0.00  0.00    -0.286 OA
ENDROOT
BRANCH   2  13
ATOM     13  N5  ZIN A   1      18.424  -2.961  12.144  0.00  0.00    -0.276 NA
ATOM     14  C17 ZIN A   1      17.310  -3.695  11.483  0.00  0.00     0.129 C 
ATOM     15  C15 ZIN A   1      17.921  -5.077  11.195  0.00  0.00     0.204 C 
ATOM     16  C7  ZIN A   1      19.408  -4.857  11.020  0.00  0.00     0.031 C 
ATOM     17  N12 ZIN A   1      17.184  -5.845  10.251  0.00  0.00    -0.069 N 
ATOM     18  C6  ZIN A   1      19.634  -3.363  11.383  0.00  0.00     0.102 C 
ATOM     19  C9  ZIN A   1      19.934  -5.073   9.613  0.00  0.00     0.009 C 
ATOM     20  C10 ZIN A   1      19.143  -6.134   8.858  0.00  0.00     0.028 C 
ATOM     21  C11 ZIN A   1      17.665  -5.718   8.876  0.00  0.00     0.233 C 
ATOM     22  H13 ZIN A   1      16.219  -5.552  10.282  0.00  0.00     0.277 HD
ATOM     23  H14 ZIN A   1      17.231  -6.817  10.519  0.00  0.00     0.277 HD
ENDBRANCH   2  13
BRANCH   1  24
ATOM     24  O2  ZIN A   1      18.620  -1.400  14.417  0.00  0.00    -0.352 OA
ATOM     25  C1  ZIN A   1      20.001  -1.635  14.702  0.00  0.00     0.210 C 
ENDBRANCH   1  24
BRANCH   8  26
ATOM     26  C24 ZIN A   1      18.533   0.694  15.567  0.00  0.00     0.090 A 
ATOM     27  C26 ZIN A   1      17.418   0.620  16.613  0.00  0.00     0.028 A 
ATOM     28  C25 ZIN A   1      18.595   1.577  16.815  0.00  0.00     0.028 A 
ENDBRANCH   8  26
BRANCH  10  29
ATOM     29  C29 ZIN A   1      17.566   4.816  13.141  0.00  0.00     0.214 C 
ATOM     30  O30 ZIN A   1      16.458   5.296  12.938  0.00  0.00    -0.644 OA
ATOM     31  O31 ZIN A   1      18.520   5.550  13.365  0.00  0.00    -0.644 OA
ENDBRANCH  10  29
TORSDOF 4
ENDMDL
