MODEL 1
REMARK VINA RESULT:      -9.1      0.000      0.000
REMARK  7 active torsions:
REMARK  status: ('A' for Active; 'I' for Inactive)
REMARK    1  A    between atoms: C2_2  and  C3_3 
REMARK    2  A    between atoms: C5_4  and  O7_5 
REMARK    3  A    between atoms: C14_10  and  C16_11 
REMARK    4  A    between atoms: C16_11  and  C19_13 
REMARK    5  A    between atoms: C19_13  and  C20_14 
REMARK    6  A    between atoms: C20_14  and  C21_15 
REMARK    7  A    between atoms: C34_27  and  O36_28 
ROOT
ATOM      1  C3  ZIN A   1      19.539  -3.554   8.463  0.00  0.00     0.019 C 
ATOM      2  C5  ZIN A   1      18.905  -2.161   8.480  0.00  0.00     0.127 C 
ATOM      3  C8  ZIN A   1      18.917  -1.614   9.909  0.00  0.00     0.024 C 
ATOM      4  C10 ZIN A   1      18.270  -0.243   9.954  0.00  0.00     0.001 C 
ATOM      5  C12 ZIN A   1      18.977   0.857   9.154  0.00  0.00     0.006 C 
ATOM      6  C13 ZIN A   1      18.487   2.159   9.844  0.00  0.00     0.006 C 
ATOM      7  C14 ZIN A   1      18.075   1.762  11.284  0.00  0.00    -0.002 C 
ATOM      8  C24 ZIN A   1      18.400   0.272  11.413  0.00  0.00    -0.036 C 
ATOM      9  C25 ZIN A   1      19.849   0.096  11.871  0.00  0.00     0.016 C 
ATOM     10  C26 ZIN A   1      17.481  -0.548  12.297  0.00  0.00     0.010 C 
ATOM     11  C27 ZIN A   1      17.991  -1.998  12.267  0.00  0.00     0.007 C 
ATOM     12  C28 ZIN A   1      18.105  -2.554  10.815  0.00  0.00     0.001 C 
ATOM     13  C30 ZIN A   1      18.705  -3.961  10.838  0.00  0.00    -0.036 C 
ATOM     14  C31 ZIN A   1      20.129  -3.900  11.395  0.00  0.00     0.016 C 
ATOM     15  C32 ZIN A   1      17.846  -4.865  11.724  0.00  0.00     0.012 C 
ATOM     16  C33 ZIN A   1      16.422  -4.918  11.168  0.00  0.00     0.032 C 
ATOM     17  C34 ZIN A   1      16.450  -5.478   9.744  0.00  0.00     0.118 C 
ATOM     18  C37 ZIN A   1      17.311  -4.575   8.858  0.00  0.00     0.037 C 
ATOM     19  C38 ZIN A   1      18.741  -4.490   9.372  0.00  0.00     0.003 C 
ENDROOT
BRANCH   7  20
ATOM     20  C16 ZIN A   1      18.867   2.580  12.306  0.00  0.00    -0.013 C 
ATOM     21  C18 ZIN A   1      18.053   2.712  13.595  0.00  0.00     0.010 C 
BRANCH  20  22
ATOM     22  C19 ZIN A   1      19.150   3.972  11.736  0.00  0.00     0.015 C 
BRANCH  22  23
ATOM     23  C20 ZIN A   1      18.053   4.939  12.187  0.00  0.00     0.113 C 
BRANCH  23  24
ATOM     24  C21 ZIN A   1      17.082   5.160  11.055  0.00  0.00     0.172 C 
ATOM     25  O22 ZIN A   1      17.462   5.679  10.019  0.00  0.00    -0.648 OA
ATOM     26  O23 ZIN A   1      15.918   4.818  11.175  0.00  0.00    -0.648 OA
ENDBRANCH  23  24
ENDBRANCH  22  23
ENDBRANCH  20  22
ENDBRANCH   7  20
BRANCH   2  27
ATOM     27  O7  ZIN A   1      17.558  -2.245   8.013  0.00  0.00    -0.395 OA
ATOM     28  H45 ZIN A   1      17.466  -2.145   7.056  0.00  0.00     0.210 HD
ENDBRANCH   2  27
BRANCH   1  29
ATOM     29  C2  ZIN A   1      19.531  -4.100   7.034  0.00  0.00     0.003 C 
ATOM     30  C1  ZIN A   1      20.346  -5.394   6.977  0.00  0.00     0.005 C 
ENDBRANCH   1  29
BRANCH  17  31
ATOM     31  O36 ZIN A   1      15.119  -5.526   9.224  0.00  0.00    -0.396 OA
ATOM     32  H71 ZIN A   1      14.780  -6.422   9.096  0.00  0.00     0.210 HD
ENDBRANCH  17  31
TORSDOF 7
ENDMDL
MODEL 2
REMARK VINA RESULT:      -8.5      2.044      8.435
REMARK  7 active torsions:
REMARK  status: ('A' for Active; 'I' for Inactive)
REMARK    1  A    between atoms: C2_2  and  C3_3 
REMARK    2  A    between atoms: C5_4  and  O7_5 
REMARK    3  A    between atoms: C14_10  and  C16_11 
REMARK    4  A    between atoms: C16_11  and  C19_13 
REMARK    5  A    between atoms: C19_13  and  C20_14 
REMARK    6  A    between atoms: C20_14  and  C21_15 
REMARK    7  A    between atoms: C34_27  and  O36_28 
ROOT
ATOM      1  C3  ZIN A   1      19.491   3.723  14.659  0.00  0.00     0.019 C 
ATOM      2  C5  ZIN A   1      18.853   2.332  14.623  0.00  0.00     0.127 C 
ATOM      3  C8  ZIN A   1      18.894   1.790  13.193  0.00  0.00     0.024 C 
ATOM      4  C10 ZIN A   1      18.244   0.421  13.130  0.00  0.00     0.001 C 
ATOM      5  C12 ZIN A   1      18.930  -0.683  13.940  0.00  0.00     0.006 C 
ATOM      6  C13 ZIN A   1      18.451  -1.982  13.235  0.00  0.00     0.006 C 
ATOM      7  C14 ZIN A   1      18.072  -1.579  11.788  0.00  0.00    -0.002 C 
ATOM      8  C24 ZIN A   1      18.404  -0.089  11.672  0.00  0.00    -0.036 C 
ATOM      9  C25 ZIN A   1      19.862   0.084  11.245  0.00  0.00     0.016 C 
ATOM     10  C26 ZIN A   1      17.506   0.736  10.771  0.00  0.00     0.010 C 
ATOM     11  C27 ZIN A   1      18.020   2.185  10.817  0.00  0.00     0.007 C 
ATOM     12  C28 ZIN A   1      18.105   2.735  12.273  0.00  0.00     0.001 C 
ATOM     13  C30 ZIN A   1      18.709   4.141  12.268  0.00  0.00    -0.036 C 
ATOM     14  C31 ZIN A   1      20.144   4.078  11.742  0.00  0.00     0.016 C 
ATOM     15  C32 ZIN A   1      17.871   5.051  11.367  0.00  0.00     0.012 C 
ATOM     16  C33 ZIN A   1      16.436   5.105  11.893  0.00  0.00     0.032 C 
ATOM     17  C34 ZIN A   1      16.435   5.660  13.318  0.00  0.00     0.118 C 
ATOM     18  C37 ZIN A   1      17.275   4.752  14.220  0.00  0.00     0.037 C 
ATOM     19  C38 ZIN A   1      18.715   4.665  13.736  0.00  0.00     0.003 C 
ENDROOT
BRANCH   7  20
ATOM     20  C16 ZIN A   1      18.883  -2.396  10.781  0.00  0.00    -0.013 C 
ATOM     21  C18 ZIN A   1      18.050  -2.619   9.517  0.00  0.00     0.010 C 
BRANCH  20  22
ATOM     22  C19 ZIN A   1      19.248  -3.748  11.396  0.00  0.00     0.015 C 
BRANCH  22  23
ATOM     23  C20 ZIN A   1      18.378  -4.843  10.774  0.00  0.00     0.113 C 
BRANCH  23  24
ATOM     24  C21 ZIN A   1      17.264  -5.200  11.725  0.00  0.00     0.172 C 
ATOM     25  O22 ZIN A   1      16.167  -4.684  11.600  0.00  0.00    -0.648 OA
ATOM     26  O23 ZIN A   1      17.461  -6.005  12.619  0.00  0.00    -0.648 OA
ENDBRANCH  23  24
ENDBRANCH  22  23
ENDBRANCH  20  22
ENDBRANCH   7  20
BRANCH   2  27
ATOM     27  O7  ZIN A   1      17.497   2.418  15.062  0.00  0.00    -0.395 OA
ATOM     28  H45 ZIN A   1      16.927   1.715  14.723  0.00  0.00     0.210 HD
ENDBRANCH   2  27
BRANCH   1  29
ATOM     29  C2  ZIN A   1      19.453   4.264  16.089  0.00  0.00     0.003 C 
ATOM     30  C1  ZIN A   1      20.192   5.603  16.148  0.00  0.00     0.005 C 
ENDBRANCH   1  29
BRANCH  17  31
ATOM     31  O36 ZIN A   1      15.094   5.710  13.810  0.00  0.00    -0.396 OA
ATOM     32  H71 ZIN A   1      15.030   5.772  14.773  0.00  0.00     0.210 HD
ENDBRANCH  17  31
TORSDOF 7
ENDMDL
MODEL 3
REMARK VINA RESULT:      -8.2      2.090      8.484
REMARK  7 active torsions:
REMARK  status: ('A' for Active; 'I' for Inactive)
REMARK    1  A    between atoms: C2_2  and  C3_3 
REMARK    2  A    between atoms: C5_4  and  O7_5 
REMARK    3  A    between atoms: C14_10  and  C16_11 
REMARK    4  A    between atoms: C16_11  and  C19_13 
REMARK    5  A    between atoms: C19_13  and  C20_14 
REMARK    6  A    between atoms: C20_14  and  C21_15 
REMARK    7  A    between atoms: C34_27  and  O36_28 
ROOT
ATOM      1  C3  ZIN A   1      19.477   3.492  14.576  0.00  0.00     0.019 C 
ATOM      2  C5  ZIN A   1      18.769   2.136  14.523  0.00  0.00     0.127 C 
ATOM      3  C8  ZIN A   1      18.775   1.615  13.085  0.00  0.00     0.024 C 
ATOM      4  C10 ZIN A   1      18.055   0.283  13.004  0.00  0.00     0.001 C 
ATOM      5  C12 ZIN A   1      18.688  -0.868  13.793  0.00  0.00     0.006 C 
ATOM      6  C13 ZIN A   1      18.140  -2.129  13.071  0.00  0.00     0.006 C 
ATOM      7  C14 ZIN A   1      17.774  -1.684  11.632  0.00  0.00    -0.002 C 
ATOM      8  C24 ZIN A   1      18.181  -0.212  11.537  0.00  0.00    -0.036 C 
ATOM      9  C25 ZIN A   1      19.645  -0.107  11.104  0.00  0.00     0.016 C 
ATOM     10  C26 ZIN A   1      17.322   0.672  10.654  0.00  0.00     0.010 C 
ATOM     11  C27 ZIN A   1      17.910   2.092  10.720  0.00  0.00     0.007 C 
ATOM     12  C28 ZIN A   1      18.030   2.614  12.184  0.00  0.00     0.001 C 
ATOM     13  C30 ZIN A   1      18.705   3.987  12.197  0.00  0.00    -0.036 C 
ATOM     14  C31 ZIN A   1      20.133   3.859  11.661  0.00  0.00     0.016 C 
ATOM     15  C32 ZIN A   1      17.911   4.953  11.315  0.00  0.00     0.012 C 
ATOM     16  C33 ZIN A   1      16.483   5.073  11.851  0.00  0.00     0.032 C 
ATOM     17  C34 ZIN A   1      16.518   5.604  13.285  0.00  0.00     0.118 C 
ATOM     18  C37 ZIN A   1      17.315   4.640  14.167  0.00  0.00     0.037 C 
ATOM     19  C38 ZIN A   1      18.746   4.487  13.673  0.00  0.00     0.003 C 
ENDROOT
BRANCH   7  20
ATOM     20  C16 ZIN A   1      18.537  -2.526  10.608  0.00  0.00    -0.013 C 
ATOM     21  C18 ZIN A   1      17.769  -2.538   9.284  0.00  0.00     0.010 C 
BRANCH  20  22
ATOM     22  C19 ZIN A   1      18.681  -3.957  11.128  0.00  0.00     0.015 C 
BRANCH  22  23
ATOM     23  C20 ZIN A   1      19.912  -4.609  10.494  0.00  0.00     0.113 C 
BRANCH  23  24
ATOM     24  C21 ZIN A   1      19.473  -5.692   9.543  0.00  0.00     0.172 C 
ATOM     25  O22 ZIN A   1      20.286  -6.221   8.804  0.00  0.00    -0.648 OA
ATOM     26  O23 ZIN A   1      18.304  -6.039   9.512  0.00  0.00    -0.648 OA
ENDBRANCH  23  24
ENDBRANCH  22  23
ENDBRANCH  20  22
ENDBRANCH   7  20
BRANCH   2  27
ATOM     27  O7  ZIN A   1      17.421   2.285  14.971  0.00  0.00    -0.395 OA
ATOM     28  H45 ZIN A   1      17.009   1.460  15.260  0.00  0.00     0.210 HD
ENDBRANCH   2  27
BRANCH   1  29
ATOM     29  C2  ZIN A   1      19.475   4.012  16.015  0.00  0.00     0.003 C 
ATOM     30  C1  ZIN A   1      20.326   5.280  16.101  0.00  0.00     0.005 C 
ENDBRANCH   1  29
BRANCH  17  31
ATOM     31  O36 ZIN A   1      15.183   5.715  13.785  0.00  0.00    -0.396 OA
ATOM     32  H71 ZIN A   1      14.914   6.621  13.988  0.00  0.00     0.210 HD
ENDBRANCH  17  31
TORSDOF 7
ENDMDL
MODEL 4
REMARK VINA RESULT:      -8.0      2.292      8.253
REMARK  7 active torsions:
REMARK  status: ('A' for Active; 'I' for Inactive)
REMARK    1  A    between atoms: C2_2  and  C3_3 
REMARK    2  A    between atoms: C5_4  and  O7_5 
REMARK    3  A    between atoms: C14_10  and  C16_11 
REMARK    4  A    between atoms: C16_11  and  C19_13 
REMARK    5  A    between atoms: C19_13  and  C20_14 
REMARK    6  A    between atoms: C20_14  and  C21_15 
REMARK    7  A    between atoms: C34_27  and  O36_28 
ROOT
ATOM      1  C3  ZIN A   1      19.084  -0.629  13.170  0.00  0.00     0.019 C 
ATOM      2  C5  ZIN A   1      18.010  -1.555  12.594  0.00  0.00     0.127 C 
ATOM      3  C8  ZIN A   1      18.456  -2.058  11.220  0.00  0.00     0.024 C 
ATOM      4  C10 ZIN A   1      17.395  -2.959  10.618  0.00  0.00     0.001 C 
ATOM      5  C12 ZIN A   1      17.103  -4.253  11.385  0.00  0.00     0.006 C 
ATOM      6  C13 ZIN A   1      16.494  -5.175  10.294  0.00  0.00     0.006 C 
ATOM      7  C14 ZIN A   1      17.017  -4.647   8.934  0.00  0.00    -0.002 C 
ATOM      8  C24 ZIN A   1      17.960  -3.490   9.273  0.00  0.00    -0.036 C 
ATOM      9  C25 ZIN A   1      19.373  -4.027   9.509  0.00  0.00     0.016 C 
ATOM     10  C26 ZIN A   1      18.008  -2.343   8.283  0.00  0.00     0.010 C 
ATOM     11  C27 ZIN A   1      19.004  -1.307   8.832  0.00  0.00     0.007 C 
ATOM     12  C28 ZIN A   1      18.649  -0.856  10.281  0.00  0.00     0.001 C 
ATOM     13  C30 ZIN A   1      19.720   0.099  10.811  0.00  0.00    -0.036 C 
ATOM     14  C31 ZIN A   1      21.060  -0.636  10.899  0.00  0.00     0.016 C 
ATOM     15  C32 ZIN A   1      19.852   1.292   9.862  0.00  0.00     0.012 C 
ATOM     16  C33 ZIN A   1      18.509   2.020   9.772  0.00  0.00     0.032 C 
ATOM     17  C34 ZIN A   1      18.102   2.515  11.160  0.00  0.00     0.118 C 
ATOM     18  C37 ZIN A   1      17.973   1.322  12.111  0.00  0.00     0.037 C 
ATOM     19  C38 ZIN A   1      19.287   0.564  12.234  0.00  0.00     0.003 C 
ENDROOT
BRANCH   7  20
ATOM     20  C16 ZIN A   1      17.763  -5.754   8.187  0.00  0.00    -0.013 C 
ATOM     21  C18 ZIN A   1      17.480  -5.637   6.688  0.00  0.00     0.010 C 
BRANCH  20  22
ATOM     22  C19 ZIN A   1      17.289  -7.119   8.691  0.00  0.00     0.015 C 
BRANCH  22  23
ATOM     23  C20 ZIN A   1      16.379  -7.762   7.642  0.00  0.00     0.113 C 
BRANCH  23  24
ATOM     24  C21 ZIN A   1      16.867  -9.156   7.341  0.00  0.00     0.172 C 
ATOM     25  O22 ZIN A   1      18.001  -9.329   6.930  0.00  0.00    -0.648 OA
ATOM     26  O23 ZIN A   1      16.126 -10.110   7.509  0.00  0.00    -0.648 OA
ENDBRANCH  23  24
ENDBRANCH  22  23
ENDBRANCH  20  22
ENDBRANCH   7  20
BRANCH   2  27
ATOM     27  O7  ZIN A   1      16.782  -0.837  12.464  0.00  0.00    -0.395 OA
ATOM     28  H45 ZIN A   1      16.853   0.105  12.668  0.00  0.00     0.210 HD
ENDBRANCH   2  27
BRANCH   1  29
ATOM     29  C2  ZIN A   1      18.640  -0.128  14.546  0.00  0.00     0.003 C 
ATOM     30  C1  ZIN A   1      18.879  -1.222  15.589  0.00  0.00     0.005 C 
ENDBRANCH   1  29
BRANCH  17  31
ATOM     31  O36 ZIN A   1      16.846   3.194  11.076  0.00  0.00    -0.396 OA
ATOM     32  H71 ZIN A   1      16.683   3.809  11.803  0.00  0.00     0.210 HD
ENDBRANCH  17  31
TORSDOF 7
ENDMDL
MODEL 5
REMARK VINA RESULT:      -7.6      2.716      7.368
REMARK  7 active torsions:
REMARK  status: ('A' for Active; 'I' for Inactive)
REMARK    1  A    between atoms: C2_2  and  C3_3 
REMARK    2  A    between atoms: C5_4  and  O7_5 
REMARK    3  A    between atoms: C14_10  and  C16_11 
REMARK    4  A    between atoms: C16_11  and  C19_13 
REMARK    5  A    between atoms: C19_13  and  C20_14 
REMARK    6  A    between atoms: C20_14  and  C21_15 
REMARK    7  A    between atoms: C34_27  and  O36_28 
ROOT
ATOM      1  C3  ZIN A   1      18.451   0.153  13.081  0.00  0.00     0.019 C 
ATOM      2  C5  ZIN A   1      17.624   0.026  11.800  0.00  0.00     0.127 C 
ATOM      3  C8  ZIN A   1      18.489   0.403  10.596  0.00  0.00     0.024 C 
ATOM      4  C10 ZIN A   1      17.681   0.307   9.316  0.00  0.00     0.001 C 
ATOM      5  C12 ZIN A   1      17.169  -1.090   8.951  0.00  0.00     0.006 C 
ATOM      6  C13 ZIN A   1      16.947  -0.991   7.417  0.00  0.00     0.006 C 
ATOM      7  C14 ZIN A   1      17.873   0.145   6.914  0.00  0.00    -0.002 C 
ATOM      8  C24 ZIN A   1      18.650   0.622   8.144  0.00  0.00    -0.036 C 
ATOM      9  C25 ZIN A   1      19.917  -0.219   8.312  0.00  0.00     0.016 C 
ATOM     10  C26 ZIN A   1      19.003   2.095   8.192  0.00  0.00     0.010 C 
ATOM     11  C27 ZIN A   1      19.765   2.340   9.506  0.00  0.00     0.007 C 
ATOM     12  C28 ZIN A   1      18.962   1.857  10.752  0.00  0.00     0.001 C 
ATOM     13  C30 ZIN A   1      19.802   2.036  12.018  0.00  0.00    -0.036 C 
ATOM     14  C31 ZIN A   1      21.048   1.152  11.934  0.00  0.00     0.016 C 
ATOM     15  C32 ZIN A   1      20.221   3.502  12.147  0.00  0.00     0.012 C 
ATOM     16  C33 ZIN A   1      18.973   4.383  12.225  0.00  0.00     0.032 C 
ATOM     17  C34 ZIN A   1      18.140   3.982  13.444  0.00  0.00     0.118 C 
ATOM     18  C37 ZIN A   1      17.723   2.515  13.317  0.00  0.00     0.037 C 
ATOM     19  C38 ZIN A   1      18.934   1.597  13.235  0.00  0.00     0.003 C 
ENDROOT
BRANCH   7  20
ATOM     20  C16 ZIN A   1      18.825  -0.384   5.841  0.00  0.00    -0.013 C 
ATOM     21  C18 ZIN A   1      19.218   0.758   4.900  0.00  0.00     0.010 C 
BRANCH  20  22
ATOM     22  C19 ZIN A   1      18.131  -1.488   5.042  0.00  0.00     0.015 C 
BRANCH  22  23
ATOM     23  C20 ZIN A   1      19.136  -2.600   4.730  0.00  0.00     0.113 C 
BRANCH  23  24
ATOM     24  C21 ZIN A   1      19.266  -3.509   5.925  0.00  0.00     0.172 C 
ATOM     25  O22 ZIN A   1      20.352  -3.666   6.457  0.00  0.00    -0.648 OA
ATOM     26  O23 ZIN A   1      18.284  -4.086   6.361  0.00  0.00    -0.648 OA
ENDBRANCH  23  24
ENDBRANCH  22  23
ENDBRANCH  20  22
ENDBRANCH   7  20
BRANCH   2  27
ATOM     27  O7  ZIN A   1      16.497   0.900  11.871  0.00  0.00    -0.395 OA
ATOM     28  H45 ZIN A   1      16.404   1.486  11.108  0.00  0.00     0.210 HD
ENDBRANCH   2  27
BRANCH   1  29
ATOM     29  C2  ZIN A   1      17.588  -0.228  14.285  0.00  0.00     0.003 C 
ATOM     30  C1  ZIN A   1      18.386  -1.142  15.217  0.00  0.00     0.005 C 
ENDBRANCH   1  29
BRANCH  17  31
ATOM     31  O36 ZIN A   1      16.973   4.804  13.516  0.00  0.00    -0.396 OA
ATOM     32  H71 ZIN A   1      16.523   4.774  14.371  0.00  0.00     0.210 HD
ENDBRANCH  17  31
TORSDOF 7
ENDMDL
MODEL 6
REMARK VINA RESULT:      -7.4      2.098      7.902
REMARK  7 active torsions:
REMARK  status: ('A' for Active; 'I' for Inactive)
REMARK    1  A    between atoms: C2_2  and  C3_3 
REMARK    2  A    between atoms: C5_4  and  O7_5 
REMARK    3  A    between atoms: C14_10  and  C16_11 
REMARK    4  A    between atoms: C16_11  and  C19_13 
REMARK    5  A    between atoms: C19_13  and  C20_14 
REMARK    6  A    between atoms: C20_14  and  C21_15 
REMARK    7  A    between atoms: C34_27  and  O36_28 
ROOT
ATOM      1  C3  ZIN A   1      18.798   1.450  13.560  0.00  0.00     0.019 C 
ATOM      2  C5  ZIN A   1      18.035   0.538  12.597  0.00  0.00     0.127 C 
ATOM      3  C8  ZIN A   1      18.658   0.634  11.204  0.00  0.00     0.024 C 
ATOM      4  C10 ZIN A   1      17.900  -0.245  10.226  0.00  0.00     0.001 C 
ATOM      5  C12 ZIN A   1      17.929  -1.749  10.517  0.00  0.00     0.006 C 
ATOM      6  C13 ZIN A   1      17.635  -2.378   9.128  0.00  0.00     0.006 C 
ATOM      7  C14 ZIN A   1      18.058  -1.325   8.073  0.00  0.00    -0.002 C 
ATOM      8  C24 ZIN A   1      18.644  -0.155   8.866  0.00  0.00    -0.036 C 
ATOM      9  C25 ZIN A   1      20.137  -0.389   9.104  0.00  0.00     0.016 C 
ATOM     10  C26 ZIN A   1      18.429   1.230   8.289  0.00  0.00     0.010 C 
ATOM     11  C27 ZIN A   1      19.090   2.233   9.249  0.00  0.00     0.007 C 
ATOM     12  C28 ZIN A   1      18.565   2.086  10.709  0.00  0.00     0.001 C 
ATOM     13  C30 ZIN A   1      19.321   3.040  11.637  0.00  0.00    -0.036 C 
ATOM     14  C31 ZIN A   1      20.802   2.656  11.665  0.00  0.00     0.016 C 
ATOM     15  C32 ZIN A   1      19.172   4.473  11.123  0.00  0.00     0.012 C 
ATOM     16  C33 ZIN A   1      17.689   4.850  11.090  0.00  0.00     0.032 C 
ATOM     17  C34 ZIN A   1      17.105   4.751  12.500  0.00  0.00     0.118 C 
ATOM     18  C37 ZIN A   1      17.256   3.318  13.016  0.00  0.00     0.037 C 
ATOM     19  C38 ZIN A   1      18.718   2.895  13.067  0.00  0.00     0.003 C 
ENDROOT
BRANCH   7  20
ATOM     20  C16 ZIN A   1      19.102  -1.916   7.124  0.00  0.00    -0.013 C 
ATOM     21  C18 ZIN A   1      18.932  -1.302   5.733  0.00  0.00     0.010 C 
BRANCH  20  22
ATOM     22  C19 ZIN A   1      18.915  -3.432   7.039  0.00  0.00     0.015 C 
BRANCH  22  23
ATOM     23  C20 ZIN A   1      20.249  -4.090   6.679  0.00  0.00     0.113 C 
BRANCH  23  24
ATOM     24  C21 ZIN A   1      20.356  -5.422   7.376  0.00  0.00     0.172 C 
ATOM     25  O22 ZIN A   1      19.356  -6.092   7.567  0.00  0.00    -0.648 OA
ATOM     26  O23 ZIN A   1      21.444  -5.829   7.748  0.00  0.00    -0.648 OA
ENDBRANCH  23  24
ENDBRANCH  22  23
ENDBRANCH  20  22
ENDBRANCH   7  20
BRANCH   2  27
ATOM     27  O7  ZIN A   1      16.667   0.945  12.538  0.00  0.00    -0.395 OA
ATOM     28  H45 ZIN A   1      16.037   0.238  12.728  0.00  0.00     0.210 HD
ENDBRANCH   2  27
BRANCH   1  29
ATOM     29  C2  ZIN A   1      18.178   1.351  14.955  0.00  0.00     0.003 C 
ATOM     30  C1  ZIN A   1      18.202  -0.106  15.423  0.00  0.00     0.005 C 
ENDBRANCH   1  29
BRANCH  17  31
ATOM     31  O36 ZIN A   1      15.720   5.102  12.469  0.00  0.00    -0.396 OA
ATOM     32  H71 ZIN A   1      15.403   5.373  11.597  0.00  0.00     0.210 HD
ENDBRANCH  17  31
TORSDOF 7
ENDMDL
MODEL 7
REMARK VINA RESULT:      -7.4      2.499      3.769
REMARK  7 active torsions:
REMARK  status: ('A' for Active; 'I' for Inactive)
REMARK    1  A    between atoms: C2_2  and  C3_3 
REMARK    2  A    between atoms: C5_4  and  O7_5 
REMARK    3  A    between atoms: C14_10  and  C16_11 
REMARK    4  A    between atoms: C16_11  and  C19_13 
REMARK    5  A    between atoms: C19_13  and  C20_14 
REMARK    6  A    between atoms: C20_14  and  C21_15 
REMARK    7  A    between atoms: C34_27  and  O36_28 
ROOT
ATOM      1  C3  ZIN A   1      19.094  -0.118   8.903  0.00  0.00     0.019 C 
ATOM      2  C5  ZIN A   1      18.108   0.882   9.513  0.00  0.00     0.127 C 
ATOM      3  C8  ZIN A   1      18.624   1.336  10.880  0.00  0.00     0.024 C 
ATOM      4  C10 ZIN A   1      17.650   2.310  11.514  0.00  0.00     0.001 C 
ATOM      5  C12 ZIN A   1      17.441   3.630  10.765  0.00  0.00     0.006 C 
ATOM      6  C13 ZIN A   1      16.931   4.586  11.878  0.00  0.00     0.006 C 
ATOM      7  C14 ZIN A   1      17.444   4.005  13.220  0.00  0.00    -0.002 C 
ATOM      8  C24 ZIN A   1      18.287   2.783  12.849  0.00  0.00    -0.036 C 
ATOM      9  C25 ZIN A   1      19.731   3.212  12.583  0.00  0.00     0.016 C 
ATOM     10  C26 ZIN A   1      18.270   1.626  13.828  0.00  0.00     0.010 C 
ATOM     11  C27 ZIN A   1      19.169   0.522  13.248  0.00  0.00     0.007 C 
ATOM     12  C28 ZIN A   1      18.746   0.114  11.804  0.00  0.00     0.001 C 
ATOM     13  C30 ZIN A   1      19.728  -0.915  11.241  0.00  0.00    -0.036 C 
ATOM     14  C31 ZIN A   1      21.118  -0.285  11.125  0.00  0.00     0.016 C 
ATOM     15  C32 ZIN A   1      19.790  -2.125  12.176  0.00  0.00     0.012 C 
ATOM     16  C33 ZIN A   1      18.397  -2.748  12.294  0.00  0.00     0.032 C 
ATOM     17  C34 ZIN A   1      17.920  -3.197  10.912  0.00  0.00     0.118 C 
ATOM     18  C37 ZIN A   1      17.861  -1.988   9.974  0.00  0.00     0.037 C 
ATOM     19  C38 ZIN A   1      19.226  -1.332   9.825  0.00  0.00     0.003 C 
ENDROOT
BRANCH   7  20
ATOM     20  C16 ZIN A   1      18.290   5.045  13.958  0.00  0.00    -0.013 C 
ATOM     21  C18 ZIN A   1      18.493   4.601  15.408  0.00  0.00     0.010 C 
BRANCH  20  22
ATOM     22  C19 ZIN A   1      17.575   6.396  13.933  0.00  0.00     0.015 C 
BRANCH  22  23
ATOM     23  C20 ZIN A   1      17.273   6.840  15.366  0.00  0.00     0.113 C 
BRANCH  23  24
ATOM     24  C21 ZIN A   1      17.869   8.203  15.606  0.00  0.00     0.172 C 
ATOM     25  O22 ZIN A   1      17.947   8.644  16.740  0.00  0.00    -0.648 OA
ATOM     26  O23 ZIN A   1      18.274   8.865  14.665  0.00  0.00    -0.648 OA
ENDBRANCH  23  24
ENDBRANCH  22  23
ENDBRANCH  20  22
ENDBRANCH   7  20
BRANCH   2  27
ATOM     27  O7  ZIN A   1      16.832   0.259   9.668  0.00  0.00    -0.395 OA
ATOM     28  H45 ZIN A   1      16.860  -0.586  10.135  0.00  0.00     0.210 HD
ENDBRANCH   2  27
BRANCH   1  29
ATOM     29  C2  ZIN A   1      18.580  -0.570   7.535  0.00  0.00     0.003 C 
ATOM     30  C1  ZIN A   1      18.719   0.578   6.533  0.00  0.00     0.005 C 
ENDBRANCH   1  29
BRANCH  17  31
ATOM     31  O36 ZIN A   1      16.619  -3.778  11.022  0.00  0.00    -0.396 OA
ATOM     32  H71 ZIN A   1      16.563  -4.498  11.664  0.00  0.00     0.210 HD
ENDBRANCH  17  31
TORSDOF 7
ENDMDL
MODEL 8
REMARK VINA RESULT:      -7.3      2.625      7.465
REMARK  7 active torsions:
REMARK  status: ('A' for Active; 'I' for Inactive)
REMARK    1  A    between atoms: C2_2  and  C3_3 
REMARK    2  A    between atoms: C5_4  and  O7_5 
REMARK    3  A    between atoms: C14_10  and  C16_11 
REMARK    4  A    between atoms: C16_11  and  C19_13 
REMARK    5  A    between atoms: C19_13  and  C20_14 
REMARK    6  A    between atoms: C20_14  and  C21_15 
REMARK    7  A    between atoms: C34_27  and  O36_28 
ROOT
ATOM      1  C3  ZIN A   1      18.543   0.990   9.614  0.00  0.00     0.019 C 
ATOM      2  C5  ZIN A   1      19.284  -0.133   8.885  0.00  0.00     0.127 C 
ATOM      3  C8  ZIN A   1      18.614  -1.472   9.199  0.00  0.00     0.024 C 
ATOM      4  C10 ZIN A   1      19.347  -2.604   8.506  0.00  0.00     0.001 C 
ATOM      5  C12 ZIN A   1      19.344  -2.564   6.974  0.00  0.00     0.006 C 
ATOM      6  C13 ZIN A   1      19.599  -4.046   6.586  0.00  0.00     0.006 C 
ATOM      7  C14 ZIN A   1      19.129  -4.900   7.791  0.00  0.00    -0.002 C 
ATOM      8  C24 ZIN A   1      18.556  -3.907   8.805  0.00  0.00    -0.036 C 
ATOM      9  C25 ZIN A   1      17.075  -3.664   8.511  0.00  0.00     0.016 C 
ATOM     10  C26 ZIN A   1      18.737  -4.254  10.270  0.00  0.00     0.010 C 
ATOM     11  C27 ZIN A   1      18.098  -3.122  11.091  0.00  0.00     0.007 C 
ATOM     12  C28 ZIN A   1      18.673  -1.723  10.714  0.00  0.00     0.001 C 
ATOM     13  C30 ZIN A   1      17.939  -0.628  11.490  0.00  0.00    -0.036 C 
ATOM     14  C31 ZIN A   1      16.464  -0.616  11.083  0.00  0.00     0.016 C 
ATOM     15  C32 ZIN A   1      18.054  -0.902  12.990  0.00  0.00     0.012 C 
ATOM     16  C33 ZIN A   1      19.531  -0.920  13.392  0.00  0.00     0.032 C 
ATOM     17  C34 ZIN A   1      20.163   0.436  13.072  0.00  0.00     0.118 C 
ATOM     18  C37 ZIN A   1      20.045   0.713  11.571  0.00  0.00     0.037 C 
ATOM     19  C38 ZIN A   1      18.591   0.739  11.122  0.00  0.00     0.003 C 
ENDROOT
BRANCH   7  20
ATOM     20  C16 ZIN A   1      18.060  -5.900   7.347  0.00  0.00    -0.013 C 
ATOM     21  C18 ZIN A   1      18.315  -7.251   8.019  0.00  0.00     0.010 C 
BRANCH  20  22
ATOM     22  C19 ZIN A   1      18.116  -6.066   5.828  0.00  0.00     0.015 C 
BRANCH  22  23
ATOM     23  C20 ZIN A   1      16.718  -5.857   5.240  0.00  0.00     0.113 C 
BRANCH  23  24
ATOM     24  C21 ZIN A   1      16.779  -4.803   4.164  0.00  0.00     0.172 C 
ATOM     25  O22 ZIN A   1      15.792  -4.134   3.910  0.00  0.00    -0.648 OA
ATOM     26  O23 ZIN A   1      17.815  -4.620   3.548  0.00  0.00    -0.648 OA
ENDBRANCH  23  24
ENDBRANCH  22  23
ENDBRANCH  20  22
ENDBRANCH   7  20
BRANCH   2  27
ATOM     27  O7  ZIN A   1      20.644  -0.167   9.320  0.00  0.00    -0.395 OA
ATOM     28  H45 ZIN A   1      20.771  -0.579  10.185  0.00  0.00     0.210 HD
ENDBRANCH   2  27
BRANCH   1  29
ATOM     29  C2  ZIN A   1      19.211   2.330   9.298  0.00  0.00     0.003 C 
ATOM     30  C1  ZIN A   1      18.379   3.468   9.891  0.00  0.00     0.005 C 
ENDBRANCH   1  29
BRANCH  17  31
ATOM     31  O36 ZIN A   1      21.543   0.419  13.446  0.00  0.00    -0.396 OA
ATOM     32  H71 ZIN A   1      22.100  -0.118  12.867  0.00  0.00     0.210 HD
ENDBRANCH  17  31
TORSDOF 7
ENDMDL
MODEL 9
REMARK VINA RESULT:      -7.1      2.619      8.522
REMARK  7 active torsions:
REMARK  status: ('A' for Active; 'I' for Inactive)
REMARK    1  A    between atoms: C2_2  and  C3_3 
REMARK    2  A    between atoms: C5_4  and  O7_5 
REMARK    3  A    between atoms: C14_10  and  C16_11 
REMARK    4  A    between atoms: C16_11  and  C19_13 
REMARK    5  A    between atoms: C19_13  and  C20_14 
REMARK    6  A    between atoms: C20_14  and  C21_15 
REMARK    7  A    between atoms: C34_27  and  O36_28 
ROOT
ATOM      1  C3  ZIN A   1      19.409   3.564  15.662  0.00  0.00     0.019 C 
ATOM      2  C5  ZIN A   1      18.736   2.468  14.832  0.00  0.00     0.127 C 
ATOM      3  C8  ZIN A   1      18.812   2.833  13.349  0.00  0.00     0.024 C 
ATOM      4  C10 ZIN A   1      18.129   1.771  12.509  0.00  0.00     0.001 C 
ATOM      5  C12 ZIN A   1      18.756   0.374  12.556  0.00  0.00     0.006 C 
ATOM      6  C13 ZIN A   1      18.268  -0.273  11.231  0.00  0.00     0.006 C 
ATOM      7  C14 ZIN A   1      17.950   0.896  10.265  0.00  0.00    -0.002 C 
ATOM      8  C24 ZIN A   1      18.325   2.173  11.022  0.00  0.00    -0.036 C 
ATOM      9  C25 ZIN A   1      19.802   2.497  10.789  0.00  0.00     0.016 C 
ATOM     10  C26 ZIN A   1      17.482   3.401  10.739  0.00  0.00     0.010 C 
ATOM     11  C27 ZIN A   1      18.032   4.544  11.608  0.00  0.00     0.007 C 
ATOM     12  C28 ZIN A   1      18.081   4.165  13.119  0.00  0.00     0.001 C 
ATOM     13  C30 ZIN A   1      18.722   5.298  13.923  0.00  0.00    -0.036 C 
ATOM     14  C31 ZIN A   1      20.172   5.486  13.474  0.00  0.00     0.016 C 
ATOM     15  C32 ZIN A   1      17.941   6.593  13.689  0.00  0.00     0.012 C 
ATOM     16  C33 ZIN A   1      16.489   6.399  14.133  0.00  0.00     0.032 C 
ATOM     17  C34 ZIN A   1      16.454   6.045  15.621  0.00  0.00     0.118 C 
ATOM     18  C37 ZIN A   1      17.237   4.751  15.857  0.00  0.00     0.037 C 
ATOM     19  C38 ZIN A   1      18.690   4.894  15.428  0.00  0.00     0.003 C 
ENDROOT
BRANCH   7  20
ATOM     20  C16 ZIN A   1      18.774   0.763   8.983  0.00  0.00    -0.013 C 
ATOM     21  C18 ZIN A   1      17.837   0.768   7.773  0.00  0.00     0.010 C 
BRANCH  20  22
ATOM     22  C19 ZIN A   1      19.560  -0.549   9.016  0.00  0.00     0.015 C 
BRANCH  22  23
ATOM     23  C20 ZIN A   1      19.250  -1.360   7.755  0.00  0.00     0.113 C 
BRANCH  23  24
ATOM     24  C21 ZIN A   1      18.740  -2.722   8.149  0.00  0.00     0.172 C 
ATOM     25  O22 ZIN A   1      19.309  -3.725   7.751  0.00  0.00    -0.648 OA
ATOM     26  O23 ZIN A   1      17.758  -2.822   8.865  0.00  0.00    -0.648 OA
ENDBRANCH  23  24
ENDBRANCH  22  23
ENDBRANCH  20  22
ENDBRANCH   7  20
BRANCH   2  27
ATOM     27  O7  ZIN A   1      17.368   2.346  15.224  0.00  0.00    -0.395 OA
ATOM     28  H45 ZIN A   1      17.085   1.437  15.392  0.00  0.00     0.210 HD
ENDBRANCH   2  27
BRANCH   1  29
ATOM     29  C2  ZIN A   1      19.336   3.198  17.145  0.00  0.00     0.003 C 
ATOM     30  C1  ZIN A   1      19.268   1.676  17.292  0.00  0.00     0.005 C 
ENDBRANCH   1  29
BRANCH  17  31
ATOM     31  O36 ZIN A   1      15.098   5.863  16.036  0.00  0.00    -0.396 OA
ATOM     32  H71 ZIN A   1      14.885   6.283  16.880  0.00  0.00     0.210 HD
ENDBRANCH  17  31
TORSDOF 7
ENDMDL
