MODEL 1
REMARK VINA RESULT:      -7.6      0.000      0.000
REMARK  6 active torsions:
REMARK  status: ('A' for Active; 'I' for Inactive)
REMARK    1  A    between atoms: C2_2  and  C4_3 
REMARK    2  A    between atoms: C2_2  and  C11_10 
REMARK    3  A    between atoms: C11_10  and  O12_11 
REMARK    4  A    between atoms: C11_10  and  C13_12 
REMARK    5  A    between atoms: C11_10  and  C19_18 
REMARK    6  A    between atoms: C13_12  and  N14_13 
ROOT
ATOM      1  C11 ZIN A   1      18.801   1.093  10.358  0.00  0.00     0.115 C 
ENDROOT
BRANCH   1   2
ATOM      2  C2  ZIN A   1      19.237  -0.220  11.012  0.00  0.00     0.078 C 
ATOM      3  C1  ZIN A   1      20.711  -0.482  10.696  0.00  0.00     0.020 C 
BRANCH   2   4
ATOM      4  C4  ZIN A   1      19.053  -0.123  12.505  0.00  0.00     0.083 A 
ATOM      5  C9  ZIN A   1      18.158  -0.959  13.159  0.00  0.00     0.159 A 
ATOM      6  C8  ZIN A   1      18.026  -0.836  14.535  0.00  0.00     0.162 A 
ATOM      7  F10 ZIN A   1      17.440  -1.877  12.475  0.00  0.00    -0.202 F 
ATOM      8  N7  ZIN A   1      18.746   0.076  15.171  0.00  0.00    -0.251 NA
ATOM      9  C6  ZIN A   1      19.582   0.855  14.515  0.00  0.00     0.232 A 
ATOM     10  N5  ZIN A   1      19.738   0.763  13.209  0.00  0.00    -0.243 NA
ENDBRANCH   2   4
ENDBRANCH   1   2
BRANCH   1  11
ATOM     11  O12 ZIN A   1      19.818   2.079  10.546  0.00  0.00    -0.382 OA
ATOM     12  H32 ZIN A   1      20.238   2.372   9.725  0.00  0.00     0.211 HD
ENDBRANCH   1  11
BRANCH   1  13
ATOM     13  C13 ZIN A   1      17.499   1.574  10.999  0.00  0.00     0.196 C 
BRANCH  13  14
ATOM     14  N14 ZIN A   1      17.563   3.023  11.208  0.00  0.00    -0.259 N 
ATOM     15  N18 ZIN A   1      17.601   4.015  10.215  0.00  0.00    -0.165 NA
ATOM     16  C17 ZIN A   1      17.651   5.166  10.832  0.00  0.00     0.256 A 
ATOM     17  N16 ZIN A   1      17.655   4.951  12.147  0.00  0.00    -0.234 NA
ATOM     18  C15 ZIN A   1      17.602   3.667  12.387  0.00  0.00     0.230 A 
ENDBRANCH  13  14
ENDBRANCH   1  13
BRANCH   1  19
ATOM     19  C19 ZIN A   1      18.583   0.870   8.884  0.00  0.00     0.017 A 
ATOM     20  C25 ZIN A   1      17.696  -0.104   8.455  0.00  0.00     0.128 A 
ATOM     21  C24 ZIN A   1      17.492  -0.303   7.100  0.00  0.00     0.085 A 
ATOM     22  F26 ZIN A   1      17.024  -0.851   9.357  0.00  0.00    -0.205 F 
ATOM     23  C22 ZIN A   1      18.181   0.462   6.176  0.00  0.00     0.119 A 
ATOM     24  C21 ZIN A   1      19.071   1.432   6.608  0.00  0.00     0.043 A 
ATOM     25  F23 ZIN A   1      17.987   0.264   4.855  0.00  0.00    -0.206 F 
ATOM     26  C20 ZIN A   1      19.270   1.635   7.960  0.00  0.00     0.016 A 
ENDBRANCH   1  19
TORSDOF 6
ENDMDL
MODEL 2
REMARK VINA RESULT:      -7.5      2.220      4.210
REMARK  6 active torsions:
REMARK  status: ('A' for Active; 'I' for Inactive)
REMARK    1  A    between atoms: C2_2  and  C4_3 
REMARK    2  A    between atoms: C2_2  and  C11_10 
REMARK    3  A    between atoms: C11_10  and  O12_11 
REMARK    4  A    between atoms: C11_10  and  C13_12 
REMARK    5  A    between atoms: C11_10  and  C19_18 
REMARK    6  A    between atoms: C13_12  and  N14_13 
ROOT
ATOM      1  C11 ZIN A   1      18.248   2.191  11.261  0.00  0.00     0.115 C 
ENDROOT
BRANCH   1   2
ATOM      2  C2  ZIN A   1      18.389   3.712  11.177  0.00  0.00     0.078 C 
ATOM      3  C1  ZIN A   1      17.184   4.296  10.436  0.00  0.00     0.020 C 
BRANCH   2   4
ATOM      4  C4  ZIN A   1      18.451   4.289  12.568  0.00  0.00     0.083 A 
ATOM      5  C9  ZIN A   1      19.637   4.818  13.059  0.00  0.00     0.159 A 
ATOM      6  C8  ZIN A   1      19.644   5.342  14.344  0.00  0.00     0.162 A 
ATOM      7  F10 ZIN A   1      20.755   4.832  12.299  0.00  0.00    -0.202 F 
ATOM      8  N7  ZIN A   1      18.529   5.309  15.057  0.00  0.00    -0.251 NA
ATOM      9  C6  ZIN A   1      17.422   4.793  14.559  0.00  0.00     0.232 A 
ATOM     10  N5  ZIN A   1      17.377   4.292  13.341  0.00  0.00    -0.243 NA
ENDBRANCH   2   4
ENDBRANCH   1   2
BRANCH   1  11
ATOM     11  O12 ZIN A   1      17.002   1.862  11.879  0.00  0.00    -0.382 OA
ATOM     12  H32 ZIN A   1      16.461   2.631  12.108  0.00  0.00     0.211 HD
ENDBRANCH   1  11
BRANCH   1  13
ATOM     13  C13 ZIN A   1      19.396   1.617  12.091  0.00  0.00     0.196 C 
BRANCH  13  14
ATOM     14  N14 ZIN A   1      18.867   0.649  13.055  0.00  0.00    -0.259 N 
ATOM     15  N18 ZIN A   1      18.185   0.937  14.249  0.00  0.00    -0.165 NA
ATOM     16  C17 ZIN A   1      17.890  -0.211  14.800  0.00  0.00     0.256 A 
ATOM     17  N16 ZIN A   1      18.352  -1.194  14.030  0.00  0.00    -0.234 NA
ATOM     18  C15 ZIN A   1      18.942  -0.691  12.976  0.00  0.00     0.230 A 
ENDBRANCH  13  14
ENDBRANCH   1  13
BRANCH   1  19
ATOM     19  C19 ZIN A   1      18.289   1.606   9.873  0.00  0.00     0.017 A 
ATOM     20  C25 ZIN A   1      17.467   0.540   9.547  0.00  0.00     0.128 A 
ATOM     21  C24 ZIN A   1      17.502   0.006   8.270  0.00  0.00     0.085 A 
ATOM     22  F26 ZIN A   1      16.624   0.029  10.470  0.00  0.00    -0.205 F 
ATOM     23  C22 ZIN A   1      18.365   0.531   7.324  0.00  0.00     0.119 A 
ATOM     24  C21 ZIN A   1      19.191   1.593   7.654  0.00  0.00     0.043 A 
ATOM     25  F23 ZIN A   1      18.404   0.007   6.080  0.00  0.00    -0.206 F 
ATOM     26  C20 ZIN A   1      19.151   2.129   8.928  0.00  0.00     0.016 A 
ENDBRANCH   1  19
TORSDOF 6
ENDMDL
MODEL 3
REMARK VINA RESULT:      -7.4      3.222      6.946
REMARK  6 active torsions:
REMARK  status: ('A' for Active; 'I' for Inactive)
REMARK    1  A    between atoms: C2_2  and  C4_3 
REMARK    2  A    between atoms: C2_2  and  C11_10 
REMARK    3  A    between atoms: C11_10  and  O12_11 
REMARK    4  A    between atoms: C11_10  and  C13_12 
REMARK    5  A    between atoms: C11_10  and  C19_18 
REMARK    6  A    between atoms: C13_12  and  N14_13 
ROOT
ATOM      1  C11 ZIN A   1      18.802  -1.065  12.578  0.00  0.00     0.115 C 
ENDROOT
BRANCH   1   2
ATOM      2  C2  ZIN A   1      19.210   0.272  11.955  0.00  0.00     0.078 C 
ATOM      3  C1  ZIN A   1      20.668   0.574  12.306  0.00  0.00     0.020 C 
BRANCH   2   4
ATOM      4  C4  ZIN A   1      19.058   0.195  10.458  0.00  0.00     0.083 A 
ATOM      5  C9  ZIN A   1      18.092   0.951   9.809  0.00  0.00     0.159 A 
ATOM      6  C8  ZIN A   1      17.993   0.851   8.428  0.00  0.00     0.162 A 
ATOM      7  F10 ZIN A   1      17.274   1.773  10.503  0.00  0.00    -0.202 F 
ATOM      8  N7  ZIN A   1      18.811   0.034   7.783  0.00  0.00    -0.251 NA
ATOM      9  C6  ZIN A   1      19.713  -0.673   8.435  0.00  0.00     0.232 A 
ATOM     10  N5  ZIN A   1      19.840  -0.599   9.744  0.00  0.00    -0.243 NA
ENDBRANCH   2   4
ENDBRANCH   1   2
BRANCH   1  11
ATOM     11  O12 ZIN A   1      19.831  -2.030  12.351  0.00  0.00    -0.382 OA
ATOM     12  H32 ZIN A   1      20.547  -2.001  13.000  0.00  0.00     0.211 HD
ENDBRANCH   1  11
BRANCH   1  13
ATOM     13  C13 ZIN A   1      17.499  -1.549  11.941  0.00  0.00     0.196 C 
BRANCH  13  14
ATOM     14  N14 ZIN A   1      17.676  -2.914  11.440  0.00  0.00    -0.259 N 
ATOM     15  N18 ZIN A   1      17.910  -4.067  12.207  0.00  0.00    -0.165 NA
ATOM     16  C17 ZIN A   1      18.003  -5.065  11.368  0.00  0.00     0.256 A 
ATOM     17  N16 ZIN A   1      17.851  -4.604  10.128  0.00  0.00    -0.234 NA
ATOM     18  C15 ZIN A   1      17.653  -3.311  10.156  0.00  0.00     0.230 A 
ENDBRANCH  13  14
ENDBRANCH   1  13
BRANCH   1  19
ATOM     19  C19 ZIN A   1      18.600  -0.886  14.062  0.00  0.00     0.017 A 
ATOM     20  C25 ZIN A   1      17.695   0.054  14.528  0.00  0.00     0.128 A 
ATOM     21  C24 ZIN A   1      17.506   0.213  15.890  0.00  0.00     0.085 A 
ATOM     22  F26 ZIN A   1      16.991   0.806  13.655  0.00  0.00    -0.205 F 
ATOM     23  C22 ZIN A   1      18.228  -0.558  16.784  0.00  0.00     0.119 A 
ATOM     24  C21 ZIN A   1      19.135  -1.493  16.315  0.00  0.00     0.043 A 
ATOM     25  F23 ZIN A   1      18.048  -0.399  18.113  0.00  0.00    -0.206 F 
ATOM     26  C20 ZIN A   1      19.320  -1.656  14.955  0.00  0.00     0.016 A 
ENDBRANCH   1  19
TORSDOF 6
ENDMDL
MODEL 4
REMARK VINA RESULT:      -7.2      3.766      5.403
REMARK  6 active torsions:
REMARK  status: ('A' for Active; 'I' for Inactive)
REMARK    1  A    between atoms: C2_2  and  C4_3 
REMARK    2  A    between atoms: C2_2  and  C11_10 
REMARK    3  A    between atoms: C11_10  and  O12_11 
REMARK    4  A    between atoms: C11_10  and  C13_12 
REMARK    5  A    between atoms: C11_10  and  C19_18 
REMARK    6  A    between atoms: C13_12  and  N14_13 
ROOT
ATOM      1  C11 ZIN A   1      18.551  -0.250   9.926  0.00  0.00     0.115 C 
ENDROOT
BRANCH   1   2
ATOM      2  C2  ZIN A   1      18.515  -1.260  11.074  0.00  0.00     0.078 C 
ATOM      3  C1  ZIN A   1      17.237  -1.057  11.891  0.00  0.00     0.020 C 
BRANCH   2   4
ATOM      4  C4  ZIN A   1      18.535  -2.659  10.513  0.00  0.00     0.083 A 
ATOM      5  C9  ZIN A   1      19.550  -3.541  10.858  0.00  0.00     0.159 A 
ATOM      6  C8  ZIN A   1      19.525  -4.820  10.320  0.00  0.00     0.162 A 
ATOM      7  F10 ZIN A   1      20.534  -3.167  11.706  0.00  0.00    -0.202 F 
ATOM      8  N7  ZIN A   1      18.545  -5.149   9.492  0.00  0.00    -0.251 NA
ATOM      9  C6  ZIN A   1      17.601  -4.282   9.183  0.00  0.00     0.232 A 
ATOM     10  N5  ZIN A   1      17.590  -3.061   9.679  0.00  0.00    -0.243 NA
ENDBRANCH   2   4
ENDBRANCH   1   2
BRANCH   1  11
ATOM     11  O12 ZIN A   1      17.326  -0.316   9.194  0.00  0.00    -0.382 OA
ATOM     12  H32 ZIN A   1      17.433  -0.216   8.238  0.00  0.00     0.211 HD
ENDBRANCH   1  11
BRANCH   1  13
ATOM     13  C13 ZIN A   1      19.719  -0.577   8.995  0.00  0.00     0.196 C 
BRANCH  13  14
ATOM     14  N14 ZIN A   1      19.272  -0.499   7.602  0.00  0.00    -0.259 N 
ATOM     15  N18 ZIN A   1      18.860   0.653   6.914  0.00  0.00    -0.165 NA
ATOM     16  C17 ZIN A   1      18.549   0.278   5.701  0.00  0.00     0.256 A 
ATOM     17  N16 ZIN A   1      18.734  -1.037   5.594  0.00  0.00    -0.234 NA
ATOM     18  C15 ZIN A   1      19.169  -1.518   6.730  0.00  0.00     0.230 A 
ENDBRANCH  13  14
ENDBRANCH   1  13
BRANCH   1  19
ATOM     19  C19 ZIN A   1      18.729   1.139  10.485  0.00  0.00     0.017 A 
ATOM     20  C25 ZIN A   1      19.792   1.414  11.329  0.00  0.00     0.128 A 
ATOM     21  C24 ZIN A   1      19.957   2.691  11.838  0.00  0.00     0.085 A 
ATOM     22  F26 ZIN A   1      20.673   0.441  11.646  0.00  0.00    -0.205 F 
ATOM     23  C22 ZIN A   1      19.055   3.688  11.511  0.00  0.00     0.119 A 
ATOM     24  C21 ZIN A   1      17.989   3.409  10.672  0.00  0.00     0.043 A 
ATOM     25  F23 ZIN A   1      19.212   4.932  12.012  0.00  0.00    -0.206 F 
ATOM     26  C20 ZIN A   1      17.828   2.135  10.159  0.00  0.00     0.016 A 
ENDBRANCH   1  19
TORSDOF 6
ENDMDL
MODEL 5
REMARK VINA RESULT:      -7.1      2.638      5.313
REMARK  6 active torsions:
REMARK  status: ('A' for Active; 'I' for Inactive)
REMARK    1  A    between atoms: C2_2  and  C4_3 
REMARK    2  A    between atoms: C2_2  and  C11_10 
REMARK    3  A    between atoms: C11_10  and  O12_11 
REMARK    4  A    between atoms: C11_10  and  C13_12 
REMARK    5  A    between atoms: C11_10  and  C19_18 
REMARK    6  A    between atoms: C13_12  and  N14_13 
ROOT
ATOM      1  C11 ZIN A   1      18.262   0.126  12.276  0.00  0.00     0.115 C 
ENDROOT
BRANCH   1   2
ATOM      2  C2  ZIN A   1      18.596   1.059  11.110  0.00  0.00     0.078 C 
ATOM      3  C1  ZIN A   1      17.636   0.788   9.949  0.00  0.00     0.020 C 
BRANCH   2   4
ATOM      4  C4  ZIN A   1      18.453   2.491  11.556  0.00  0.00     0.083 A 
ATOM      5  C9  ZIN A   1      19.578   3.266  11.804  0.00  0.00     0.159 A 
ATOM      6  C8  ZIN A   1      19.397   4.581  12.208  0.00  0.00     0.162 A 
ATOM      7  F10 ZIN A   1      20.820   2.756  11.646  0.00  0.00    -0.202 F 
ATOM      8  N7  ZIN A   1      18.166   5.045  12.352  0.00  0.00    -0.251 NA
ATOM      9  C6  ZIN A   1      17.121   4.278  12.112  0.00  0.00     0.232 A 
ATOM     10  N5  ZIN A   1      17.255   3.026  11.722  0.00  0.00    -0.243 NA
ENDBRANCH   2   4
ENDBRANCH   1   2
BRANCH   1  11
ATOM     11  O12 ZIN A   1      16.890   0.291  12.641  0.00  0.00    -0.382 OA
ATOM     12  H32 ZIN A   1      16.266  -0.029  11.976  0.00  0.00     0.211 HD
ENDBRANCH   1  11
BRANCH   1  13
ATOM     13  C13 ZIN A   1      19.153   0.466  13.472  0.00  0.00     0.196 C 
BRANCH  13  14
ATOM     14  N14 ZIN A   1      18.587  -0.125  14.687  0.00  0.00    -0.259 N 
ATOM     15  N18 ZIN A   1      17.477   0.340  15.411  0.00  0.00    -0.165 NA
ATOM     16  C17 ZIN A   1      17.313  -0.478  16.417  0.00  0.00     0.256 A 
ATOM     17  N16 ZIN A   1      18.256  -1.417  16.370  0.00  0.00    -0.234 NA
ATOM     18  C15 ZIN A   1      19.030  -1.217  15.334  0.00  0.00     0.230 A 
ENDBRANCH  13  14
ENDBRANCH   1  13
BRANCH   1  19
ATOM     19  C19 ZIN A   1      18.503  -1.303  11.861  0.00  0.00     0.017 A 
ATOM     20  C25 ZIN A   1      19.758  -1.694  11.423  0.00  0.00     0.128 A 
ATOM     21  C24 ZIN A   1      19.979  -3.008  11.046  0.00  0.00     0.085 A 
ATOM     22  F26 ZIN A   1      20.767  -0.797  11.373  0.00  0.00    -0.205 F 
ATOM     23  C22 ZIN A   1      18.946  -3.926  11.098  0.00  0.00     0.119 A 
ATOM     24  C21 ZIN A   1      17.691  -3.531  11.532  0.00  0.00     0.043 A 
ATOM     25  F23 ZIN A   1      19.160  -5.206  10.726  0.00  0.00    -0.206 F 
ATOM     26  C20 ZIN A   1      17.471  -2.221  11.912  0.00  0.00     0.016 A 
ENDBRANCH   1  19
TORSDOF 6
ENDMDL
MODEL 6
REMARK VINA RESULT:      -6.9      3.014      4.831
REMARK  6 active torsions:
REMARK  status: ('A' for Active; 'I' for Inactive)
REMARK    1  A    between atoms: C2_2  and  C4_3 
REMARK    2  A    between atoms: C2_2  and  C11_10 
REMARK    3  A    between atoms: C11_10  and  O12_11 
REMARK    4  A    between atoms: C11_10  and  C13_12 
REMARK    5  A    between atoms: C11_10  and  C19_18 
REMARK    6  A    between atoms: C13_12  and  N14_13 
ROOT
ATOM      1  C11 ZIN A   1      19.082  -0.126  11.678  0.00  0.00     0.115 C 
ENDROOT
BRANCH   1   2
ATOM      2  C2  ZIN A   1      19.212  -0.790  10.305  0.00  0.00     0.078 C 
ATOM      3  C1  ZIN A   1      20.530  -0.366   9.656  0.00  0.00     0.020 C 
BRANCH   2   4
ATOM      4  C4  ZIN A   1      19.191  -2.288  10.469  0.00  0.00     0.083 A 
ATOM      5  C9  ZIN A   1      18.307  -3.064   9.731  0.00  0.00     0.159 A 
ATOM      6  C8  ZIN A   1      18.328  -4.440   9.912  0.00  0.00     0.162 A 
ATOM      7  F10 ZIN A   1      17.454  -2.495   8.851  0.00  0.00    -0.202 F 
ATOM      8  N7  ZIN A   1      19.177  -4.960  10.784  0.00  0.00    -0.251 NA
ATOM      9  C6  ZIN A   1      19.999  -4.191  11.470  0.00  0.00     0.232 A 
ATOM     10  N5  ZIN A   1      20.011  -2.881  11.321  0.00  0.00    -0.243 NA
ENDBRANCH   2   4
ENDBRANCH   1   2
BRANCH   1  11
ATOM     11  O12 ZIN A   1      20.289  -0.322  12.417  0.00  0.00    -0.382 OA
ATOM     12  H32 ZIN A   1      20.578  -1.243  12.460  0.00  0.00     0.211 HD
ENDBRANCH   1  11
BRANCH   1  13
ATOM     13  C13 ZIN A   1      17.911  -0.749  12.438  0.00  0.00     0.196 C 
BRANCH  13  14
ATOM     14  N14 ZIN A   1      18.156  -0.653  13.879  0.00  0.00    -0.259 N 
ATOM     15  N18 ZIN A   1      18.981  -1.489  14.650  0.00  0.00    -0.165 NA
ATOM     16  C17 ZIN A   1      18.917  -1.052  15.880  0.00  0.00     0.256 A 
ATOM     17  N16 ZIN A   1      18.098  -0.003  15.924  0.00  0.00    -0.234 NA
ATOM     18  C15 ZIN A   1      17.633   0.249  14.727  0.00  0.00     0.230 A 
ENDBRANCH  13  14
ENDBRANCH   1  13
BRANCH   1  19
ATOM     19  C19 ZIN A   1      18.836   1.351  11.499  0.00  0.00     0.017 A 
ATOM     20  C25 ZIN A   1      17.776   1.786  10.722  0.00  0.00     0.128 A 
ATOM     21  C24 ZIN A   1      17.547   3.143  10.563  0.00  0.00     0.085 A 
ATOM     22  F26 ZIN A   1      16.959   0.889  10.128  0.00  0.00    -0.205 F 
ATOM     23  C22 ZIN A   1      18.384   4.061  11.172  0.00  0.00     0.119 A 
ATOM     24  C21 ZIN A   1      19.447   3.623  11.945  0.00  0.00     0.043 A 
ATOM     25  F23 ZIN A   1      18.165   5.384  11.013  0.00  0.00    -0.206 F 
ATOM     26  C20 ZIN A   1      19.671   2.269  12.108  0.00  0.00     0.016 A 
ENDBRANCH   1  19
TORSDOF 6
ENDMDL
MODEL 7
REMARK VINA RESULT:      -6.8      3.411      5.459
REMARK  6 active torsions:
REMARK  status: ('A' for Active; 'I' for Inactive)
REMARK    1  A    between atoms: C2_2  and  C4_3 
REMARK    2  A    between atoms: C2_2  and  C11_10 
REMARK    3  A    between atoms: C11_10  and  O12_11 
REMARK    4  A    between atoms: C11_10  and  C13_12 
REMARK    5  A    between atoms: C11_10  and  C19_18 
REMARK    6  A    between atoms: C13_12  and  N14_13 
ROOT
ATOM      1  C11 ZIN A   1      18.747  -1.417   9.557  0.00  0.00     0.115 C 
ENDROOT
BRANCH   1   2
ATOM      2  C2  ZIN A   1      19.056  -0.555  10.782  0.00  0.00     0.078 C 
ATOM      3  C1  ZIN A   1      20.539  -0.687  11.138  0.00  0.00     0.020 C 
BRANCH   2   4
ATOM      4  C4  ZIN A   1      18.740   0.886  10.475  0.00  0.00     0.083 A 
ATOM      5  C9  ZIN A   1      17.779   1.568  11.209  0.00  0.00     0.159 A 
ATOM      6  C8  ZIN A   1      17.526   2.896  10.892  0.00  0.00     0.162 A 
ATOM      7  F10 ZIN A   1      17.114   0.958  12.215  0.00  0.00    -0.202 F 
ATOM      8  N7  ZIN A   1      18.197   3.459   9.900  0.00  0.00    -0.251 NA
ATOM      9  C6  ZIN A   1      19.099   2.777   9.221  0.00  0.00     0.232 A 
ATOM     10  N5  ZIN A   1      19.370   1.517   9.497  0.00  0.00    -0.243 NA
ENDBRANCH   2   4
ENDBRANCH   1   2
BRANCH   1  11
ATOM     11  O12 ZIN A   1      19.900  -1.479   8.714  0.00  0.00    -0.382 OA
ATOM     12  H32 ZIN A   1      20.169  -2.378   8.482  0.00  0.00     0.211 HD
ENDBRANCH   1  11
BRANCH   1  13
ATOM     13  C13 ZIN A   1      17.581  -0.803   8.782  0.00  0.00     0.196 C 
BRANCH  13  14
ATOM     14  N14 ZIN A   1      17.891  -0.802   7.350  0.00  0.00    -0.259 N 
ATOM     15  N18 ZIN A   1      18.182  -1.920   6.551  0.00  0.00    -0.165 NA
ATOM     16  C17 ZIN A   1      18.394  -1.475   5.341  0.00  0.00     0.256 A 
ATOM     17  N16 ZIN A   1      18.262  -0.149   5.339  0.00  0.00    -0.234 NA
ATOM     18  C15 ZIN A   1      17.960   0.269   6.541  0.00  0.00     0.230 A 
ENDBRANCH  13  14
ENDBRANCH   1  13
BRANCH   1  19
ATOM     19  C19 ZIN A   1      18.376  -2.808  10.003  0.00  0.00     0.017 A 
ATOM     20  C25 ZIN A   1      17.470  -2.985  11.036  0.00  0.00     0.128 A 
ATOM     21  C24 ZIN A   1      17.126  -4.263  11.442  0.00  0.00     0.085 A 
ATOM     22  F26 ZIN A   1      16.915  -1.912  11.640  0.00  0.00    -0.205 F 
ATOM     23  C22 ZIN A   1      17.695  -5.362  10.823  0.00  0.00     0.119 A 
ATOM     24  C21 ZIN A   1      18.604  -5.183   9.794  0.00  0.00     0.043 A 
ATOM     25  F23 ZIN A   1      17.364  -6.609  11.222  0.00  0.00    -0.206 F 
ATOM     26  C20 ZIN A   1      18.944  -3.907   9.385  0.00  0.00     0.016 A 
ENDBRANCH   1  19
TORSDOF 6
ENDMDL
MODEL 8
REMARK VINA RESULT:      -6.7      2.485      4.569
REMARK  6 active torsions:
REMARK  status: ('A' for Active; 'I' for Inactive)
REMARK    1  A    between atoms: C2_2  and  C4_3 
REMARK    2  A    between atoms: C2_2  and  C11_10 
REMARK    3  A    between atoms: C11_10  and  O12_11 
REMARK    4  A    between atoms: C11_10  and  C13_12 
REMARK    5  A    between atoms: C11_10  and  C19_18 
REMARK    6  A    between atoms: C13_12  and  N14_13 
ROOT
ATOM      1  C11 ZIN A   1      19.012   0.089  11.241  0.00  0.00     0.115 C 
ENDROOT
BRANCH   1   2
ATOM      2  C2  ZIN A   1      19.063   0.589  12.685  0.00  0.00     0.078 C 
ATOM      3  C1  ZIN A   1      20.378   0.147  13.332  0.00  0.00     0.020 C 
BRANCH   2   4
ATOM      4  C4  ZIN A   1      18.977   2.094  12.699  0.00  0.00     0.083 A 
ATOM      5  C9  ZIN A   1      18.132   2.743  13.589  0.00  0.00     0.159 A 
ATOM      6  C8  ZIN A   1      18.090   4.129  13.568  0.00  0.00     0.162 A 
ATOM      7  F10 ZIN A   1      17.376   2.041  14.462  0.00  0.00    -0.202 F 
ATOM      8  N7  ZIN A   1      18.845   4.782  12.697  0.00  0.00    -0.251 NA
ATOM      9  C6  ZIN A   1      19.632   4.131  11.864  0.00  0.00     0.232 A 
ATOM     10  N5  ZIN A   1      19.702   2.815  11.859  0.00  0.00    -0.243 NA
ENDBRANCH   2   4
ENDBRANCH   1   2
BRANCH   1  11
ATOM     11  O12 ZIN A   1      20.254   0.375  10.593  0.00  0.00    -0.382 OA
ATOM     12  H32 ZIN A   1      20.412   1.317  10.445  0.00  0.00     0.211 HD
ENDBRANCH   1  11
BRANCH   1  13
ATOM     13  C13 ZIN A   1      17.876   0.791  10.497  0.00  0.00     0.196 C 
BRANCH  13  14
ATOM     14  N14 ZIN A   1      18.088   0.671   9.052  0.00  0.00    -0.259 N 
ATOM     15  N18 ZIN A   1      19.020   1.381   8.277  0.00  0.00    -0.165 NA
ATOM     16  C17 ZIN A   1      18.878   0.968   7.045  0.00  0.00     0.256 A 
ATOM     17  N16 ZIN A   1      17.911   0.054   7.004  0.00  0.00    -0.234 NA
ATOM     18  C15 ZIN A   1      17.427  -0.135   8.204  0.00  0.00     0.230 A 
ENDBRANCH  13  14
ENDBRANCH   1  13
BRANCH   1  19
ATOM     19  C19 ZIN A   1      18.773  -1.399  11.233  0.00  0.00     0.017 A 
ATOM     20  C25 ZIN A   1      17.646  -1.922  11.845  0.00  0.00     0.128 A 
ATOM     21  C24 ZIN A   1      17.424  -3.289  11.833  0.00  0.00     0.085 A 
ATOM     22  F26 ZIN A   1      16.758  -1.098  12.443  0.00  0.00    -0.205 F 
ATOM     23  C22 ZIN A   1      18.333  -4.132  11.219  0.00  0.00     0.119 A 
ATOM     24  C21 ZIN A   1      19.463  -3.607  10.613  0.00  0.00     0.043 A 
ATOM     25  F23 ZIN A   1      18.121  -5.465  11.212  0.00  0.00    -0.206 F 
ATOM     26  C20 ZIN A   1      19.681  -2.242  10.620  0.00  0.00     0.016 A 
ENDBRANCH   1  19
TORSDOF 6
ENDMDL
MODEL 9
REMARK VINA RESULT:      -6.7      3.586      6.743
REMARK  6 active torsions:
REMARK  status: ('A' for Active; 'I' for Inactive)
REMARK    1  A    between atoms: C2_2  and  C4_3 
REMARK    2  A    between atoms: C2_2  and  C11_10 
REMARK    3  A    between atoms: C11_10  and  O12_11 
REMARK    4  A    between atoms: C11_10  and  C13_12 
REMARK    5  A    between atoms: C11_10  and  C19_18 
REMARK    6  A    between atoms: C13_12  and  N14_13 
ROOT
ATOM      1  C11 ZIN A   1      18.744  -0.793   9.247  0.00  0.00     0.115 C 
ENDROOT
BRANCH   1   2
ATOM      2  C2  ZIN A   1      18.377   0.146   8.096  0.00  0.00     0.078 C 
ATOM      3  C1  ZIN A   1      19.393   1.288   8.025  0.00  0.00     0.020 C 
BRANCH   2   4
ATOM      4  C4  ZIN A   1      18.390  -0.621   6.799  0.00  0.00     0.083 A 
ATOM      5  C9  ZIN A   1      17.319  -0.536   5.920  0.00  0.00     0.159 A 
ATOM      6  C8  ZIN A   1      17.378  -1.256   4.735  0.00  0.00     0.162 A 
ATOM      7  F10 ZIN A   1      16.248   0.238   6.206  0.00  0.00    -0.202 F 
ATOM      8  N7  ZIN A   1      18.443  -2.004   4.491  0.00  0.00    -0.251 NA
ATOM      9  C6  ZIN A   1      19.439  -2.064   5.353  0.00  0.00     0.232 A 
ATOM     10  N5  ZIN A   1      19.420  -1.390   6.485  0.00  0.00    -0.243 NA
ENDBRANCH   2   4
ENDBRANCH   1   2
BRANCH   1  11
ATOM     11  O12 ZIN A   1      20.075  -1.280   9.058  0.00  0.00    -0.382 OA
ATOM     12  H32 ZIN A   1      20.474  -1.015   8.218  0.00  0.00     0.211 HD
ENDBRANCH   1  11
BRANCH   1  13
ATOM     13  C13 ZIN A   1      17.770  -1.971   9.277  0.00  0.00     0.196 C 
BRANCH  13  14
ATOM     14  N14 ZIN A   1      18.439  -3.146   9.839  0.00  0.00    -0.259 N 
ATOM     15  N18 ZIN A   1      19.222  -4.081   9.142  0.00  0.00    -0.165 NA
ATOM     16  C17 ZIN A   1      19.627  -4.962  10.018  0.00  0.00     0.256 A 
ATOM     17  N16 ZIN A   1      19.139  -4.638  11.215  0.00  0.00    -0.234 NA
ATOM     18  C15 ZIN A   1      18.423  -3.548  11.121  0.00  0.00     0.230 A 
ENDBRANCH  13  14
ENDBRANCH   1  13
BRANCH   1  19
ATOM     19  C19 ZIN A   1      18.665  -0.042  10.552  0.00  0.00     0.017 A 
ATOM     20  C25 ZIN A   1      17.444   0.429  11.006  0.00  0.00     0.128 A 
ATOM     21  C24 ZIN A   1      17.372   1.114  12.207  0.00  0.00     0.085 A 
ATOM     22  F26 ZIN A   1      16.324   0.212  10.283  0.00  0.00    -0.205 F 
ATOM     23  C22 ZIN A   1      18.519   1.335  12.948  0.00  0.00     0.119 A 
ATOM     24  C21 ZIN A   1      19.739   0.868  12.489  0.00  0.00     0.043 A 
ATOM     25  F23 ZIN A   1      18.450   2.008  14.117  0.00  0.00    -0.206 F 
ATOM     26  C20 ZIN A   1      19.811   0.179  11.292  0.00  0.00     0.016 A 
ENDBRANCH   1  19
TORSDOF 6
ENDMDL
