MODEL 1
REMARK VINA RESULT:      -7.9      0.000      0.000
REMARK  2 active torsions:
REMARK  status: ('A' for Active; 'I' for Inactive)
REMARK    1  A    between atoms: C4_4  and  C5_5 
REMARK       I    between atoms: C5_5  and  N7_7 
REMARK    2  A    between atoms: N7_7  and  C8_8 
ROOT
ATOM      1  C5  ZIN A   1      18.761   0.464  12.967  0.00  0.00     0.273 C 
ATOM      2  O6  ZIN A   1      18.404   1.117  12.005  0.00  0.00    -0.266 OA
ATOM      3  N7  ZIN A   1      19.019  -0.851  12.830  0.00  0.00    -0.351 N 
ATOM      4  H30 ZIN A   1      19.303  -1.372  13.598  0.00  0.00     0.163 HD
ENDROOT
BRANCH   3   5
ATOM      5  C8  ZIN A   1      18.869  -1.501  11.512  0.00  0.00     0.088 C 
ATOM      6  C17 ZIN A   1      17.464  -2.076  11.412  0.00  0.00     0.058 C 
ATOM      7  C15 ZIN A   1      17.307  -3.102  10.303  0.00  0.00     0.190 C 
ATOM      8  C14 ZIN A   1      16.990  -4.471  10.923  0.00  0.00     0.033 C 
ATOM      9  N18 ZIN A   1      18.492  -3.235   9.464  0.00  0.00    -0.066 N 
ATOM     10  C13 ZIN A   1      18.187  -4.942  11.751  0.00  0.00     0.004 C 
ATOM     11  C12 ZIN A   1      19.444  -4.963  10.880  0.00  0.00     0.033 C 
ATOM     12  C10 ZIN A   1      19.661  -3.571  10.266  0.00  0.00     0.190 C 
ATOM     13  C9  ZIN A   1      19.940  -2.573  11.378  0.00  0.00     0.058 C 
ATOM     14  H19 ZIN A   1      18.323  -4.038   8.843  0.00  0.00     0.280 HD
ATOM     15  C20 ZIN A   1      18.709  -2.078   8.604  0.00  0.00     0.270 C 
ENDBRANCH   3   5
BRANCH   1  16
ATOM     16  C4  ZIN A   1      18.911   1.111  14.283  0.00  0.00     0.157 A 
ATOM     17  N3  ZIN A   1      19.002   2.401  14.521  0.00  0.00    -0.166 NA
ATOM     18  N2  ZIN A   1      19.126   2.650  15.775  0.00  0.00    -0.273 N 
ATOM     19  C1  ZIN A   1      19.251   3.996  16.342  0.00  0.00     0.180 C 
ATOM     20  C26 ZIN A   1      19.131   1.496  16.513  0.00  0.00     0.065 A 
ATOM     21  C21 ZIN A   1      18.987   0.442  15.589  0.00  0.00     0.028 A 
ATOM     22  C25 ZIN A   1      19.227   1.201  17.869  0.00  0.00     0.032 A 
ATOM     23  C22 ZIN A   1      18.953  -0.876  16.032  0.00  0.00     0.016 A 
ATOM     24  C23 ZIN A   1      19.054  -1.143  17.369  0.00  0.00     0.001 A 
ATOM     25  C24 ZIN A   1      19.191  -0.110  18.287  0.00  0.00     0.002 A 
ENDBRANCH   1  16
TORSDOF 2
ENDMDL
MODEL 2
REMARK VINA RESULT:      -7.8      2.453      4.039
REMARK  2 active torsions:
REMARK  status: ('A' for Active; 'I' for Inactive)
REMARK    1  A    between atoms: C4_4  and  C5_5 
REMARK       I    between atoms: C5_5  and  N7_7 
REMARK    2  A    between atoms: N7_7  and  C8_8 
ROOT
ATOM      1  C5  ZIN A   1      19.513  -0.286  11.428  0.00  0.00     0.273 C 
ATOM      2  O6  ZIN A   1      20.652  -0.528  11.076  0.00  0.00    -0.266 OA
ATOM      3  N7  ZIN A   1      18.549  -1.214  11.275  0.00  0.00    -0.351 N 
ATOM      4  H30 ZIN A   1      17.640  -1.020  11.556  0.00  0.00     0.163 HD
ENDROOT
BRANCH   3   5
ATOM      5  C8  ZIN A   1      18.873  -2.526  10.680  0.00  0.00     0.088 C 
ATOM      6  C17 ZIN A   1      17.792  -2.880   9.670  0.00  0.00     0.058 C 
ATOM      7  C15 ZIN A   1      17.778  -4.350   9.288  0.00  0.00     0.190 C 
ATOM      8  C14 ZIN A   1      16.460  -4.981   9.761  0.00  0.00     0.033 C 
ATOM      9  N18 ZIN A   1      18.886  -5.107   9.857  0.00  0.00    -0.066 N 
ATOM     10  C13 ZIN A   1      16.404  -4.953  11.290  0.00  0.00     0.004 C 
ATOM     11  C12 ZIN A   1      17.635  -5.653  11.867  0.00  0.00     0.033 C 
ATOM     12  C10 ZIN A   1      18.904  -4.989  11.310  0.00  0.00     0.190 C 
ATOM     13  C9  ZIN A   1      18.972  -3.552  11.799  0.00  0.00     0.058 C 
ATOM     14  H19 ZIN A   1      18.702  -6.098   9.647  0.00  0.00     0.280 HD
ATOM     15  C20 ZIN A   1      20.168  -4.781   9.246  0.00  0.00     0.270 C 
ENDBRANCH   3   5
BRANCH   1  16
ATOM     16  C4  ZIN A   1      19.189   1.023  12.022  0.00  0.00     0.157 A 
ATOM     17  N3  ZIN A   1      19.237   1.345  13.296  0.00  0.00    -0.166 NA
ATOM     18  N2  ZIN A   1      18.893   2.566  13.498  0.00  0.00    -0.273 N 
ATOM     19  C1  ZIN A   1      18.849   3.207  14.815  0.00  0.00     0.180 C 
ATOM     20  C26 ZIN A   1      18.568   3.190  12.322  0.00  0.00     0.065 A 
ATOM     21  C21 ZIN A   1      18.747   2.229  11.307  0.00  0.00     0.028 A 
ATOM     22  C25 ZIN A   1      18.151   4.471  11.977  0.00  0.00     0.032 A 
ATOM     23  C22 ZIN A   1      18.497   2.560   9.980  0.00  0.00     0.016 A 
ATOM     24  C23 ZIN A   1      18.082   3.824   9.664  0.00  0.00     0.001 A 
ATOM     25  C24 ZIN A   1      17.909   4.779  10.657  0.00  0.00     0.002 A 
ENDBRANCH   1  16
TORSDOF 2
ENDMDL
MODEL 3
REMARK VINA RESULT:      -7.8      2.099      7.535
REMARK  2 active torsions:
REMARK  status: ('A' for Active; 'I' for Inactive)
REMARK    1  A    between atoms: C4_4  and  C5_5 
REMARK       I    between atoms: C5_5  and  N7_7 
REMARK    2  A    between atoms: N7_7  and  C8_8 
ROOT
ATOM      1  C5  ZIN A   1      19.196  -0.069  11.227  0.00  0.00     0.273 C 
ATOM      2  O6  ZIN A   1      19.950   0.881  11.317  0.00  0.00    -0.266 OA
ATOM      3  N7  ZIN A   1      18.515  -0.493  12.309  0.00  0.00    -0.351 N 
ATOM      4  H30 ZIN A   1      17.914  -1.252  12.236  0.00  0.00     0.163 HD
ENDROOT
BRANCH   3   5
ATOM      5  C8  ZIN A   1      18.682   0.194  13.605  0.00  0.00     0.088 C 
ATOM      6  C17 ZIN A   1      19.656  -0.607  14.456  0.00  0.00     0.058 C 
ATOM      7  C15 ZIN A   1      19.609  -0.247  15.931  0.00  0.00     0.190 C 
ATOM      8  C14 ZIN A   1      19.112  -1.460  16.731  0.00  0.00     0.033 C 
ATOM      9  N18 ZIN A   1      18.742   0.888  16.223  0.00  0.00    -0.066 N 
ATOM     10  C13 ZIN A   1      17.667  -1.770  16.338  0.00  0.00     0.004 C 
ATOM     11  C12 ZIN A   1      16.796  -0.529  16.543  0.00  0.00     0.033 C 
ATOM     12  C10 ZIN A   1      17.387   0.644  15.746  0.00  0.00     0.190 C 
ATOM     13  C9  ZIN A   1      17.317   0.325  14.262  0.00  0.00     0.058 C 
ATOM     14  H19 ZIN A   1      18.683   0.956  17.249  0.00  0.00     0.280 HD
ATOM     15  C20 ZIN A   1      19.288   2.155  15.751  0.00  0.00     0.270 C 
ENDBRANCH   3   5
BRANCH   1  16
ATOM     16  C4  ZIN A   1      19.028  -0.756   9.933  0.00  0.00     0.157 A 
ATOM     17  N3  ZIN A   1      18.894  -2.049   9.740  0.00  0.00    -0.166 NA
ATOM     18  N2  ZIN A   1      18.767  -2.339   8.495  0.00  0.00    -0.273 N 
ATOM     19  C1  ZIN A   1      18.602  -3.698   7.974  0.00  0.00     0.180 C 
ATOM     20  C26 ZIN A   1      18.812  -1.212   7.716  0.00  0.00     0.065 A 
ATOM     21  C21 ZIN A   1      18.977  -0.130   8.605  0.00  0.00     0.028 A 
ATOM     22  C25 ZIN A   1      18.718  -0.961   6.352  0.00  0.00     0.032 A 
ATOM     23  C22 ZIN A   1      19.056   1.170   8.116  0.00  0.00     0.016 A 
ATOM     24  C23 ZIN A   1      18.967   1.393   6.770  0.00  0.00     0.001 A 
ATOM     25  C24 ZIN A   1      18.798   0.333   5.888  0.00  0.00     0.002 A 
ENDBRANCH   1  16
TORSDOF 2
ENDMDL
MODEL 4
REMARK VINA RESULT:      -7.7      5.330      8.442
REMARK  2 active torsions:
REMARK  status: ('A' for Active; 'I' for Inactive)
REMARK    1  A    between atoms: C4_4  and  C5_5 
REMARK       I    between atoms: C5_5  and  N7_7 
REMARK    2  A    between atoms: N7_7  and  C8_8 
ROOT
ATOM      1  C5  ZIN A   1      18.850  -2.728   5.762  0.00  0.00     0.273 C 
ATOM      2  O6  ZIN A   1      19.694  -2.523   4.910  0.00  0.00    -0.266 OA
ATOM      3  N7  ZIN A   1      17.820  -3.556   5.503  0.00  0.00    -0.351 N 
ATOM      4  H30 ZIN A   1      17.146  -3.720   6.184  0.00  0.00     0.163 HD
ENDROOT
BRANCH   3   5
ATOM      5  C8  ZIN A   1      17.713  -4.216   4.186  0.00  0.00     0.088 C 
ATOM      6  C17 ZIN A   1      16.533  -3.615   3.438  0.00  0.00     0.058 C 
ATOM      7  C15 ZIN A   1      16.066  -4.460   2.265  0.00  0.00     0.190 C 
ATOM      8  C14 ZIN A   1      14.642  -4.964   2.542  0.00  0.00     0.033 C 
ATOM      9  N18 ZIN A   1      16.923  -5.609   2.002  0.00  0.00    -0.066 N 
ATOM     10  C13 ZIN A   1      14.663  -5.908   3.746  0.00  0.00     0.004 C 
ATOM     11  C12 ZIN A   1      15.656  -7.045   3.495  0.00  0.00     0.033 C 
ATOM     12  C10 ZIN A   1      17.039  -6.453   3.184  0.00  0.00     0.190 C 
ATOM     13  C9  ZIN A   1      17.551  -5.712   4.408  0.00  0.00     0.058 C 
ATOM     14  H19 ZIN A   1      16.444  -6.173   1.285  0.00  0.00     0.280 HD
ATOM     15  C20 ZIN A   1      18.216  -5.235   1.444  0.00  0.00     0.270 C 
ENDBRANCH   3   5
BRANCH   1  16
ATOM     16  C4  ZIN A   1      18.956  -2.071   7.077  0.00  0.00     0.157 A 
ATOM     17  N3  ZIN A   1      19.042  -2.660   8.249  0.00  0.00    -0.166 NA
ATOM     18  N2  ZIN A   1      19.121  -1.812   9.210  0.00  0.00    -0.273 N 
ATOM     19  C1  ZIN A   1      19.226  -2.174  10.626  0.00  0.00     0.180 C 
ATOM     20  C26 ZIN A   1      19.088  -0.525   8.740  0.00  0.00     0.065 A 
ATOM     21  C21 ZIN A   1      18.985  -0.625   7.338  0.00  0.00     0.028 A 
ATOM     22  C25 ZIN A   1      19.147   0.733   9.328  0.00  0.00     0.032 A 
ATOM     23  C22 ZIN A   1      18.933   0.526   6.558  0.00  0.00     0.016 A 
ATOM     24  C23 ZIN A   1      18.986   1.753   7.158  0.00  0.00     0.001 A 
ATOM     25  C24 ZIN A   1      19.093   1.860   8.539  0.00  0.00     0.002 A 
ENDBRANCH   1  16
TORSDOF 2
ENDMDL
MODEL 5
REMARK VINA RESULT:      -7.5      1.712      2.324
REMARK  2 active torsions:
REMARK  status: ('A' for Active; 'I' for Inactive)
REMARK    1  A    between atoms: C4_4  and  C5_5 
REMARK       I    between atoms: C5_5  and  N7_7 
REMARK    2  A    between atoms: N7_7  and  C8_8 
ROOT
ATOM      1  C5  ZIN A   1      19.545  -1.224  11.609  0.00  0.00     0.273 C 
ATOM      2  O6  ZIN A   1      20.620  -1.276  11.041  0.00  0.00    -0.266 OA
ATOM      3  N7  ZIN A   1      18.587  -2.126  11.320  0.00  0.00    -0.351 N 
ATOM      4  H30 ZIN A   1      17.730  -2.084  11.774  0.00  0.00     0.163 HD
ENDROOT
BRANCH   3   5
ATOM      5  C8  ZIN A   1      18.840  -3.179  10.316  0.00  0.00     0.088 C 
ATOM      6  C17 ZIN A   1      17.766  -3.091   9.242  0.00  0.00     0.058 C 
ATOM      7  C15 ZIN A   1      17.666  -4.340   8.383  0.00  0.00     0.190 C 
ATOM      8  C14 ZIN A   1      16.296  -4.999   8.609  0.00  0.00     0.033 C 
ATOM      9  N18 ZIN A   1      18.705  -5.322   8.665  0.00  0.00    -0.066 N 
ATOM     10  C13 ZIN A   1      16.201  -5.486  10.056  0.00  0.00     0.004 C 
ATOM     11  C12 ZIN A   1      17.368  -6.426  10.365  0.00  0.00     0.033 C 
ATOM     12  C10 ZIN A   1      18.692  -5.705  10.071  0.00  0.00     0.190 C 
ATOM     13  C9  ZIN A   1      18.841  -4.527  11.019  0.00  0.00     0.058 C 
ATOM     14  H19 ZIN A   1      18.463  -6.168   8.129  0.00  0.00     0.280 HD
ATOM     15  C20 ZIN A   1      20.023  -4.900   8.205  0.00  0.00     0.270 C 
ENDBRANCH   3   5
BRANCH   1  16
ATOM     16  C4  ZIN A   1      19.292  -0.174  12.612  0.00  0.00     0.157 A 
ATOM     17  N3  ZIN A   1      19.176   1.116  12.390  0.00  0.00    -0.166 NA
ATOM     18  N2  ZIN A   1      18.956   1.773  13.472  0.00  0.00    -0.273 N 
ATOM     19  C1  ZIN A   1      18.785   3.226  13.538  0.00  0.00     0.180 C 
ATOM     20  C26 ZIN A   1      18.909   0.938  14.558  0.00  0.00     0.065 A 
ATOM     21  C21 ZIN A   1      19.117  -0.363  14.059  0.00  0.00     0.028 A 
ATOM     22  C25 ZIN A   1      18.699   1.116  15.921  0.00  0.00     0.032 A 
ATOM     23  C22 ZIN A   1      19.123  -1.451  14.925  0.00  0.00     0.016 A 
ATOM     24  C23 ZIN A   1      18.920  -1.252  16.262  0.00  0.00     0.001 A 
ATOM     25  C24 ZIN A   1      18.708   0.026  16.762  0.00  0.00     0.002 A 
ENDBRANCH   1  16
TORSDOF 2
ENDMDL
MODEL 6
REMARK VINA RESULT:      -7.5      2.011      2.524
REMARK  2 active torsions:
REMARK  status: ('A' for Active; 'I' for Inactive)
REMARK    1  A    between atoms: C4_4  and  C5_5 
REMARK       I    between atoms: C5_5  and  N7_7 
REMARK    2  A    between atoms: N7_7  and  C8_8 
ROOT
ATOM      1  C5  ZIN A   1      18.924   1.981  13.253  0.00  0.00     0.273 C 
ATOM      2  O6  ZIN A   1      18.568   3.012  12.715  0.00  0.00    -0.266 OA
ATOM      3  N7  ZIN A   1      19.272   0.916  12.506  0.00  0.00    -0.351 N 
ATOM      4  H30 ZIN A   1      19.556   0.093  12.936  0.00  0.00     0.163 HD
ENDROOT
BRANCH   3   5
ATOM      5  C8  ZIN A   1      19.223   0.998  11.032  0.00  0.00     0.088 C 
ATOM      6  C17 ZIN A   1      17.778   0.829  10.586  0.00  0.00     0.058 C 
ATOM      7  C15 ZIN A   1      17.635   0.492   9.112  0.00  0.00     0.190 C 
ATOM      8  C14 ZIN A   1      17.033  -0.914   8.972  0.00  0.00     0.033 C 
ATOM      9  N18 ZIN A   1      18.897   0.531   8.384  0.00  0.00    -0.066 N 
ATOM     10  C13 ZIN A   1      18.014  -1.944   9.536  0.00  0.00     0.004 C 
ATOM     11  C12 ZIN A   1      19.367  -1.808   8.837  0.00  0.00     0.033 C 
ATOM     12  C10 ZIN A   1      19.874  -0.366   8.988  0.00  0.00     0.190 C 
ATOM     13  C9  ZIN A   1      20.131  -0.078  10.457  0.00  0.00     0.058 C 
ATOM     14  H19 ZIN A   1      18.704   0.161   7.442  0.00  0.00     0.280 HD
ATOM     15  C20 ZIN A   1      19.406   1.885   8.204  0.00  0.00     0.270 C 
ENDBRANCH   3   5
BRANCH   1  16
ATOM     16  C4  ZIN A   1      18.974   1.897  14.724  0.00  0.00     0.157 A 
ATOM     17  N3  ZIN A   1      18.989   2.902  15.571  0.00  0.00    -0.166 NA
ATOM     18  N2  ZIN A   1      19.036   2.503  16.791  0.00  0.00    -0.273 N 
ATOM     19  C1  ZIN A   1      19.065   3.395  17.953  0.00  0.00     0.180 C 
ATOM     20  C26 ZIN A   1      19.061   1.135  16.865  0.00  0.00     0.065 A 
ATOM     21  C21 ZIN A   1      19.017   0.672  15.535  0.00  0.00     0.028 A 
ATOM     22  C25 ZIN A   1      19.102   0.212  17.904  0.00  0.00     0.032 A 
ATOM     23  C22 ZIN A   1      19.026  -0.694  15.270  0.00  0.00     0.016 A 
ATOM     24  C23 ZIN A   1      19.072  -1.584  16.306  0.00  0.00     0.001 A 
ATOM     25  C24 ZIN A   1      19.110  -1.135  17.620  0.00  0.00     0.002 A 
ENDBRANCH   1  16
TORSDOF 2
ENDMDL
MODEL 7
REMARK VINA RESULT:      -7.4      2.738      8.539
REMARK  2 active torsions:
REMARK  status: ('A' for Active; 'I' for Inactive)
REMARK    1  A    between atoms: C4_4  and  C5_5 
REMARK       I    between atoms: C5_5  and  N7_7 
REMARK    2  A    between atoms: N7_7  and  C8_8 
ROOT
ATOM      1  C5  ZIN A   1      18.857  -1.992   9.724  0.00  0.00     0.273 C 
ATOM      2  O6  ZIN A   1      19.371  -2.576  10.658  0.00  0.00    -0.266 OA
ATOM      3  N7  ZIN A   1      18.466  -0.710   9.863  0.00  0.00    -0.351 N 
ATOM      4  H30 ZIN A   1      18.055  -0.245   9.116  0.00  0.00     0.163 HD
ENDROOT
BRANCH   3   5
ATOM      5  C8  ZIN A   1      18.663  -0.012  11.149  0.00  0.00     0.088 C 
ATOM      6  C17 ZIN A   1      17.434   0.837  11.432  0.00  0.00     0.058 C 
ATOM      7  C15 ZIN A   1      17.663   1.900  12.493  0.00  0.00     0.190 C 
ATOM      8  C14 ZIN A   1      17.525   3.290  11.853  0.00  0.00     0.033 C 
ATOM      9  N18 ZIN A   1      18.972   1.810  13.129  0.00  0.00    -0.066 N 
ATOM     10  C13 ZIN A   1      18.640   3.488  10.825  0.00  0.00     0.004 C 
ATOM     11  C12 ZIN A   1      20.001   3.275  11.489  0.00  0.00     0.033 C 
ATOM     12  C10 ZIN A   1      20.038   1.884  12.139  0.00  0.00     0.190 C 
ATOM     13  C9  ZIN A   1      19.930   0.824  11.055  0.00  0.00     0.058 C 
ATOM     14  H19 ZIN A   1      19.067   2.646  13.724  0.00  0.00     0.280 HD
ATOM     15  C20 ZIN A   1      19.095   0.655  14.010  0.00  0.00     0.270 C 
ENDBRANCH   3   5
BRANCH   1  16
ATOM     16  C4  ZIN A   1      18.659  -2.688   8.439  0.00  0.00     0.157 A 
ATOM     17  N3  ZIN A   1      18.294  -3.939   8.268  0.00  0.00    -0.166 NA
ATOM     18  N2  ZIN A   1      18.210  -4.250   7.025  0.00  0.00    -0.273 N 
ATOM     19  C1  ZIN A   1      17.827  -5.574   6.527  0.00  0.00     0.180 C 
ATOM     20  C26 ZIN A   1      18.530  -3.185   6.224  0.00  0.00     0.065 A 
ATOM     21  C21 ZIN A   1      18.831  -2.119   7.095  0.00  0.00     0.028 A 
ATOM     22  C25 ZIN A   1      18.591  -2.977   4.851  0.00  0.00     0.032 A 
ATOM     23  C22 ZIN A   1      19.196  -0.879   6.581  0.00  0.00     0.016 A 
ATOM     24  C23 ZIN A   1      19.255  -0.698   5.228  0.00  0.00     0.001 A 
ATOM     25  C24 ZIN A   1      18.954  -1.742   4.363  0.00  0.00     0.002 A 
ENDBRANCH   1  16
TORSDOF 2
ENDMDL
MODEL 8
REMARK VINA RESULT:      -7.4      1.090      2.333
REMARK  2 active torsions:
REMARK  status: ('A' for Active; 'I' for Inactive)
REMARK    1  A    between atoms: C4_4  and  C5_5 
REMARK       I    between atoms: C5_5  and  N7_7 
REMARK    2  A    between atoms: N7_7  and  C8_8 
ROOT
ATOM      1  C5  ZIN A   1      19.133   0.262  13.540  0.00  0.00     0.273 C 
ATOM      2  O6  ZIN A   1      19.514   0.963  12.622  0.00  0.00    -0.266 OA
ATOM      3  N7  ZIN A   1      18.751  -1.008  13.304  0.00  0.00    -0.351 N 
ATOM      4  H30 ZIN A   1      18.448  -1.567  14.038  0.00  0.00     0.163 HD
ENDROOT
BRANCH   3   5
ATOM      5  C8  ZIN A   1      18.795  -1.551  11.932  0.00  0.00     0.088 C 
ATOM      6  C17 ZIN A   1      17.411  -2.068  11.571  0.00  0.00     0.058 C 
ATOM      7  C15 ZIN A   1      17.406  -3.002  10.373  0.00  0.00     0.190 C 
ATOM      8  C14 ZIN A   1      16.967  -4.402  10.825  0.00  0.00     0.033 C 
ATOM      9  N18 ZIN A   1      18.705  -3.111   9.719  0.00  0.00    -0.066 N 
ATOM     10  C13 ZIN A   1      18.009  -4.975  11.788  0.00  0.00     0.004 C 
ATOM     11  C12 ZIN A   1      19.386  -4.973  11.122  0.00  0.00     0.033 C 
ATOM     12  C10 ZIN A   1      19.727  -3.547  10.662  0.00  0.00     0.190 C 
ATOM     13  C9  ZIN A   1      19.850  -2.646  11.879  0.00  0.00     0.058 C 
ATOM     14  H19 ZIN A   1      18.617  -3.859   9.016  0.00  0.00     0.280 HD
ATOM     15  C20 ZIN A   1      19.079  -1.901   8.997  0.00  0.00     0.270 C 
ENDBRANCH   3   5
BRANCH   1  16
ATOM     16  C4  ZIN A   1      19.089   0.803  14.911  0.00  0.00     0.157 A 
ATOM     17  N3  ZIN A   1      19.147   0.117  16.031  0.00  0.00    -0.166 NA
ATOM     18  N2  ZIN A   1      19.084   0.877  17.064  0.00  0.00    -0.273 N 
ATOM     19  C1  ZIN A   1      19.123   0.397  18.448  0.00  0.00     0.180 C 
ATOM     20  C26 ZIN A   1      18.969   2.195  16.705  0.00  0.00     0.065 A 
ATOM     21  C21 ZIN A   1      18.973   2.216  15.296  0.00  0.00     0.028 A 
ATOM     22  C25 ZIN A   1      18.876   3.394  17.402  0.00  0.00     0.032 A 
ATOM     23  C22 ZIN A   1      18.872   3.425  14.616  0.00  0.00     0.016 A 
ATOM     24  C23 ZIN A   1      18.776   4.593  15.321  0.00  0.00     0.001 A 
ATOM     25  C24 ZIN A   1      18.778   4.580  16.710  0.00  0.00     0.002 A 
ENDBRANCH   1  16
TORSDOF 2
ENDMDL
MODEL 9
REMARK VINA RESULT:      -7.3      2.992      8.494
REMARK  2 active torsions:
REMARK  status: ('A' for Active; 'I' for Inactive)
REMARK    1  A    between atoms: C4_4  and  C5_5 
REMARK       I    between atoms: C5_5  and  N7_7 
REMARK    2  A    between atoms: N7_7  and  C8_8 
ROOT
ATOM      1  C5  ZIN A   1      19.190  -1.023   8.720  0.00  0.00     0.273 C 
ATOM      2  O6  ZIN A   1      19.722   0.008   8.356  0.00  0.00    -0.266 OA
ATOM      3  N7  ZIN A   1      18.752  -1.145   9.988  0.00  0.00    -0.351 N 
ATOM      4  H30 ZIN A   1      18.327  -1.969  10.277  0.00  0.00     0.163 HD
ENDROOT
BRANCH   3   5
ATOM      5  C8  ZIN A   1      18.917  -0.027  10.938  0.00  0.00     0.088 C 
ATOM      6  C17 ZIN A   1      20.036  -0.376  11.908  0.00  0.00     0.058 C 
ATOM      7  C15 ZIN A   1      20.041   0.482  13.161  0.00  0.00     0.190 C 
ATOM      8  C14 ZIN A   1      19.752  -0.405  14.382  0.00  0.00     0.033 C 
ATOM      9  N18 ZIN A   1      19.061   1.561  13.129  0.00  0.00    -0.066 N 
ATOM     10  C13 ZIN A   1      18.333  -0.968  14.275  0.00  0.00     0.004 C 
ATOM     11  C12 ZIN A   1      17.331   0.178  14.125  0.00  0.00     0.033 C 
ATOM     12  C10 ZIN A   1      17.718   1.037  12.912  0.00  0.00     0.190 C 
ATOM     13  C9  ZIN A   1      17.592   0.203  11.648  0.00  0.00     0.058 C 
ATOM     14  H19 ZIN A   1      19.061   1.986  14.067  0.00  0.00     0.280 HD
ATOM     15  C20 ZIN A   1      19.415   2.619  12.191  0.00  0.00     0.270 C 
ENDBRANCH   3   5
BRANCH   1  16
ATOM     16  C4  ZIN A   1      19.025  -2.140   7.772  0.00  0.00     0.157 A 
ATOM     17  N3  ZIN A   1      19.390  -3.390   7.955  0.00  0.00    -0.166 NA
ATOM     18  N2  ZIN A   1      19.109  -4.127   6.941  0.00  0.00    -0.273 N 
ATOM     19  C1  ZIN A   1      19.400  -5.560   6.854  0.00  0.00     0.180 C 
ATOM     20  C26 ZIN A   1      18.508  -3.397   5.949  0.00  0.00     0.065 A 
ATOM     21  C21 ZIN A   1      18.417  -2.078   6.436  0.00  0.00     0.028 A 
ATOM     22  C25 ZIN A   1      18.008  -3.691   4.685  0.00  0.00     0.032 A 
ATOM     23  C22 ZIN A   1      17.842  -1.083   5.652  0.00  0.00     0.016 A 
ATOM     24  C23 ZIN A   1      17.362  -1.392   4.410  0.00  0.00     0.001 A 
ATOM     25  C24 ZIN A   1      17.443  -2.691   3.926  0.00  0.00     0.002 A 
ENDBRANCH   1  16
TORSDOF 2
ENDMDL
