MODEL 1
REMARK VINA RESULT:       1.1      0.000      0.000
REMARK  12 active torsions:
REMARK  status: ('A' for Active; 'I' for Inactive)
REMARK    1  A    between atoms: C2_2  and  C3_3 
REMARK    2  A    between atoms: C15_15  and  O16_16 
REMARK    3  A    between atoms: C18_18  and  C19_19 
REMARK    4  A    between atoms: C19_19  and  C20_20 
REMARK    5  A    between atoms: C20_20  and  O22_22 
REMARK    6  A    between atoms: C31_30  and  O32_31 
REMARK    7  A    between atoms: C31_30  and  C33_32 
REMARK    8  A    between atoms: C52_50  and  O53_51 
REMARK    9  A    between atoms: C52_50  and  C54_52 
REMARK   10  A    between atoms: C54_52  and  O56_54 
REMARK   11  A    between atoms: C58_56  and  O60_57 
REMARK   12  A    between atoms: O60_57  and  C61_58 
ROOT
ATOM      1  C3  ZIN A   1      19.946   0.292   9.371  0.00  0.00     0.037 C 
ATOM      2  C4  ZIN A   1      20.354   1.631   8.838  0.00  0.00    -0.015 C 
ATOM      3  C5  ZIN A   1      19.889   2.110   7.723  0.00  0.00    -0.003 C 
ATOM      4  C6  ZIN A   1      18.889   1.353   6.901  0.00  0.00     0.262 C 
ATOM      5  N7  ZIN A   1      19.076  -0.094   7.048  0.00  0.00    -0.061 N 
ATOM      6  H8  ZIN A   1      19.918  -0.388   6.576  0.00  0.00     0.280 HD
ATOM      7  C9  ZIN A   1      17.885  -0.759   6.449  0.00  0.00     0.237 C 
ATOM      8  C10 ZIN A   1      16.850  -0.787   7.600  0.00  0.00     0.046 C 
ATOM      9  C11 ZIN A   1      17.738  -0.992   8.859  0.00  0.00     0.040 C 
ATOM     10  C12 ZIN A   1      17.731  -2.456   9.203  0.00  0.00    -0.024 A 
ATOM     11  C13 ZIN A   1      17.326  -2.589  10.535  0.00  0.00     0.020 A 
ATOM     12  C14 ZIN A   1      17.211  -3.855  11.115  0.00  0.00     0.061 A 
ATOM     13  C15 ZIN A   1      17.524  -4.950  10.319  0.00  0.00     0.077 A 
ATOM     14  C18 ZIN A   1      17.933  -4.803   9.004  0.00  0.00     0.000 A 
ATOM     15  C47 ZIN A   1      18.045  -3.549   8.418  0.00  0.00     0.021 A 
ATOM     16  N48 ZIN A   1      17.111  -1.352  11.120  0.00  0.00    -0.278 NA
ATOM     17  C49 ZIN A   1      15.869  -1.349  11.906  0.00  0.00     0.117 C 
ATOM     18  C50 ZIN A   1      17.069  -0.319  10.052  0.00  0.00     0.125 C 
ATOM     19  C52 ZIN A   1      17.843   0.894  10.557  0.00  0.00     0.190 C 
ATOM     20  C58 ZIN A   1      19.313   0.470  10.752  0.00  0.00     0.192 C 
ATOM     21  C64 ZIN A   1      19.088  -0.488   8.447  0.00  0.00     0.218 C 
ENDROOT
BRANCH  14  22
ATOM     22  C19 ZIN A   1      18.266  -6.030   8.193  0.00  0.00     0.121 C 
ATOM     23  C39 ZIN A   1      17.704  -5.947   6.789  0.00  0.00     0.040 A 
ATOM     24  C38 ZIN A   1      16.567  -5.417   6.296  0.00  0.00    -0.020 A 
ATOM     25  N40 ZIN A   1      18.418  -6.506   5.734  0.00  0.00    -0.357 N 
ATOM     26  C37 ZIN A   1      15.388  -4.747   6.977  0.00  0.00     0.069 C 
ATOM     27  C46 ZIN A   1      16.614  -5.565   4.840  0.00  0.00    -0.001 A 
ATOM     28  C36 ZIN A   1      14.143  -5.706   6.879  0.00  0.00     0.239 C 
ATOM     29  N28 ZIN A   1      14.743  -7.034   7.032  0.00  0.00    -0.068 N 
ATOM     30  C27 ZIN A   1      15.422  -6.946   8.368  0.00  0.00     0.239 C 
ATOM     31  H29 ZIN A   1      15.418  -7.191   6.292  0.00  0.00     0.280 HD
ATOM     32  C30 ZIN A   1      13.944  -8.238   7.168  0.00  0.00     0.272 C 
ATOM     33  C25 ZIN A   1      16.647  -7.837   7.984  0.00  0.00     0.016 C 
ATOM     34  C24 ZIN A   1      17.752  -7.331   8.904  0.00  0.00     0.037 C 
ATOM     35  C35 ZIN A   1      16.091  -9.238   8.214  0.00  0.00     0.045 C 
ATOM     36  C31 ZIN A   1      14.879  -9.454   7.292  0.00  0.00     0.082 C 
ATOM     37  C41 ZIN A   1      17.810  -6.255   4.547  0.00  0.00     0.043 A 
ATOM     38  C45 ZIN A   1      15.734  -5.161   3.834  0.00  0.00     0.014 A 
ATOM     39  C42 ZIN A   1      18.157  -6.542   3.227  0.00  0.00     0.030 A 
ATOM     40  C43 ZIN A   1      17.273  -6.127   2.246  0.00  0.00     0.002 A 
ATOM     41  C44 ZIN A   1      16.097  -5.460   2.543  0.00  0.00     0.001 A 
ATOM     42 4H10 ZIN A   1      19.229  -7.030   5.818  0.00  0.00     0.166 HD
BRANCH  36  43
ATOM     43  O32 ZIN A   1      15.353  -9.795   5.986  0.00  0.00    -0.388 OA
ATOM     44  H92 ZIN A   1      16.292 -10.023   5.955  0.00  0.00     0.210 HD
ENDBRANCH  36  43
BRANCH  36  45
ATOM     45  C33 ZIN A   1      14.063 -10.635   7.829  0.00  0.00     0.035 C 
ATOM     46  C34 ZIN A   1      12.611 -10.200   8.036  0.00  0.00     0.008 C 
ENDBRANCH  36  45
BRANCH  22  47
ATOM     47  C20 ZIN A   1      19.785  -6.107   8.114  0.00  0.00     0.278 C 
ATOM     48  O21 ZIN A   1      20.418  -6.546   9.045  0.00  0.00    -0.264 OA
BRANCH  47  49
ATOM     49  O22 ZIN A   1      20.422  -5.688   7.008  0.00  0.00    -0.325 OA
ATOM     50  C23 ZIN A   1      21.032  -4.372   7.059  0.00  0.00     0.213 C 
ENDBRANCH  47  49
ENDBRANCH  22  47
ENDBRANCH  14  22
BRANCH  13  51
ATOM     51  O16 ZIN A   1      17.424  -6.200  10.845  0.00  0.00    -0.355 OA
ATOM     52  C17 ZIN A   1      17.497  -6.312  12.268  0.00  0.00     0.210 C 
ENDBRANCH  13  51
BRANCH  19  53
ATOM     53  O53 ZIN A   1      17.773   1.945   9.591  0.00  0.00    -0.376 OA
ATOM     54 3H11 ZIN A   1      18.547   2.002   9.015  0.00  0.00     0.211 HD
ENDBRANCH  19  53
BRANCH  19  55
ATOM     55  C54 ZIN A   1      17.253   1.365  11.862  0.00  0.00     0.297 C 
ATOM     56  O55 ZIN A   1      16.996   0.567  12.731  0.00  0.00    -0.262 OA
BRANCH  55  57
ATOM     57  O56 ZIN A   1      17.013   2.670  12.056  0.00  0.00    -0.324 OA
ATOM     58  C57 ZIN A   1      17.609   3.282  13.230  0.00  0.00     0.213 C 
ENDBRANCH  55  57
ENDBRANCH  19  55
BRANCH   1  59
ATOM     59  C2  ZIN A   1      21.231  -0.513   9.575  0.00  0.00     0.014 C 
ATOM     60  C1  ZIN A   1      20.951  -1.695  10.505  0.00  0.00     0.006 C 
ENDBRANCH   1  59
BRANCH  20  61
ATOM     61  O60 ZIN A   1      20.024   1.494  11.495  0.00  0.00    -0.311 OA
BRANCH  61  62
ATOM     62  C61 ZIN A   1      20.729   1.094  12.564  0.00  0.00     0.255 C 
ATOM     63  C62 ZIN A   1      20.018   0.714  13.838  0.00  0.00     0.126 C 
ATOM     64  O63 ZIN A   1      21.935   1.039  12.507  0.00  0.00    -0.266 OA
ENDBRANCH  61  62
ENDBRANCH  20  61
TORSDOF 12
ENDMDL
MODEL 2
REMARK VINA RESULT:       2.0      2.456      9.330
REMARK  12 active torsions:
REMARK  status: ('A' for Active; 'I' for Inactive)
REMARK    1  A    between atoms: C2_2  and  C3_3 
REMARK    2  A    between atoms: C15_15  and  O16_16 
REMARK    3  A    between atoms: C18_18  and  C19_19 
REMARK    4  A    between atoms: C19_19  and  C20_20 
REMARK    5  A    between atoms: C20_20  and  O22_22 
REMARK    6  A    between atoms: C31_30  and  O32_31 
REMARK    7  A    between atoms: C31_30  and  C33_32 
REMARK    8  A    between atoms: C52_50  and  O53_51 
REMARK    9  A    between atoms: C52_50  and  C54_52 
REMARK   10  A    between atoms: C54_52  and  O56_54 
REMARK   11  A    between atoms: C58_56  and  O60_57 
REMARK   12  A    between atoms: O60_57  and  C61_58 
ROOT
ATOM      1  C3  ZIN A   1      15.064  -6.176   3.392  0.00  0.00     0.037 C 
ATOM      2  C4  ZIN A   1      14.621  -6.181   1.960  0.00  0.00    -0.015 C 
ATOM      3  C5  ZIN A   1      15.422  -6.483   0.983  0.00  0.00    -0.003 C 
ATOM      4  C6  ZIN A   1      16.850  -6.869   1.229  0.00  0.00     0.262 C 
ATOM      5  N7  ZIN A   1      17.378  -6.193   2.419  0.00  0.00    -0.061 N 
ATOM      6  H8  ZIN A   1      17.514  -5.211   2.233  0.00  0.00     0.280 HD
ATOM      7  C9  ZIN A   1      18.676  -6.842   2.759  0.00  0.00     0.237 C 
ATOM      8  C10 ZIN A   1      18.275  -8.051   3.637  0.00  0.00     0.046 C 
ATOM      9  C11 ZIN A   1      17.045  -7.516   4.423  0.00  0.00     0.040 C 
ATOM     10  C12 ZIN A   1      17.519  -7.059   5.775  0.00  0.00    -0.024 A 
ATOM     11  C13 ZIN A   1      16.760  -7.718   6.748  0.00  0.00     0.020 A 
ATOM     12  C14 ZIN A   1      17.004  -7.493   8.105  0.00  0.00     0.061 A 
ATOM     13  C15 ZIN A   1      18.012  -6.591   8.430  0.00  0.00     0.077 A 
ATOM     14  C18 ZIN A   1      18.748  -5.938   7.455  0.00  0.00     0.000 A 
ATOM     15  C47 ZIN A   1      18.516  -6.160   6.104  0.00  0.00     0.021 A 
ATOM     16  N48 ZIN A   1      15.799  -8.530   6.170  0.00  0.00    -0.278 NA
ATOM     17  C49 ZIN A   1      15.747  -9.839   6.835  0.00  0.00     0.117 C 
ATOM     18  C50 ZIN A   1      16.106  -8.678   4.723  0.00  0.00     0.125 C 
ATOM     19  C52 ZIN A   1      14.786  -8.582   3.964  0.00  0.00     0.190 C 
ATOM     20  C58 ZIN A   1      14.213  -7.168   4.186  0.00  0.00     0.192 C 
ATOM     21  C64 ZIN A   1      16.519  -6.400   3.573  0.00  0.00     0.218 C 
ENDROOT
BRANCH  14  22
ATOM     22  C19 ZIN A   1      19.823  -4.966   7.871  0.00  0.00     0.121 C 
ATOM     23  C39 ZIN A   1      19.440  -4.205   9.124  0.00  0.00     0.040 A 
ATOM     24  C38 ZIN A   1      18.260  -3.743   9.580  0.00  0.00    -0.020 A 
ATOM     25  N40 ZIN A   1      20.428  -3.860  10.040  0.00  0.00    -0.357 N 
ATOM     26  C37 ZIN A   1      16.867  -3.763   8.977  0.00  0.00     0.069 C 
ATOM     27  C46 ZIN A   1      18.503  -3.159  10.900  0.00  0.00    -0.001 A 
ATOM     28  C36 ZIN A   1      16.477  -2.293   8.570  0.00  0.00     0.239 C 
ATOM     29  N28 ZIN A   1      17.748  -1.739   8.094  0.00  0.00    -0.068 N 
ATOM     30  C27 ZIN A   1      18.123  -2.670   6.978  0.00  0.00     0.239 C 
ATOM     31  H29 ZIN A   1      18.435  -1.771   8.839  0.00  0.00     0.280 HD
ATOM     32  C30 ZIN A   1      17.840  -0.438   7.459  0.00  0.00     0.272 C 
ATOM     33  C25 ZIN A   1      19.663  -2.619   7.239  0.00  0.00     0.016 C 
ATOM     34  C24 ZIN A   1      20.154  -3.963   6.711  0.00  0.00     0.037 C 
ATOM     35  C35 ZIN A   1      20.060  -1.352   6.490  0.00  0.00     0.045 C 
ATOM     36  C31 ZIN A   1      19.309  -0.155   7.097  0.00  0.00     0.082 C 
ATOM     37  C41 ZIN A   1      19.889  -3.269  11.137  0.00  0.00     0.043 A 
ATOM     38  C45 ZIN A   1      17.642  -2.580  11.836  0.00  0.00     0.014 A 
ATOM     39  C42 ZIN A   1      20.443  -2.810  12.332  0.00  0.00     0.030 A 
ATOM     40  C43 ZIN A   1      19.571  -2.245  13.247  0.00  0.00     0.002 A 
ATOM     41  C44 ZIN A   1      18.213  -2.132  13.003  0.00  0.00     0.001 A 
ATOM     42 4H10 ZIN A   1      21.381  -3.991   9.918  0.00  0.00     0.166 HD
BRANCH  36  43
ATOM     43  O32 ZIN A   1      19.995   0.263   8.281  0.00  0.00    -0.388 OA
ATOM     44  H92 ZIN A   1      19.433   0.723   8.919  0.00  0.00     0.210 HD
ENDBRANCH  36  43
BRANCH  36  45
ATOM     45  C33 ZIN A   1      19.342   1.001   6.091  0.00  0.00     0.035 C 
ATOM     46  C34 ZIN A   1      18.163   0.870   5.124  0.00  0.00     0.008 C 
ENDBRANCH  36  45
BRANCH  22  47
ATOM     47  C20 ZIN A   1      21.075  -5.786   8.153  0.00  0.00     0.278 C 
ATOM     48  O21 ZIN A   1      21.141  -6.464   9.151  0.00  0.00    -0.264 OA
BRANCH  47  49
ATOM     49  O22 ZIN A   1      22.105  -5.757   7.292  0.00  0.00    -0.325 OA
ATOM     50  C23 ZIN A   1      23.436  -5.902   7.853  0.00  0.00     0.213 C 
ENDBRANCH  47  49
ENDBRANCH  22  47
ENDBRANCH  14  22
BRANCH  13  51
ATOM     51  O16 ZIN A   1      18.281  -6.345   9.739  0.00  0.00    -0.355 OA
ATOM     52  C17 ZIN A   1      17.213  -6.535  10.669  0.00  0.00     0.210 C 
ENDBRANCH  13  51
BRANCH  19  53
ATOM     53  O53 ZIN A   1      15.020  -8.789   2.569  0.00  0.00    -0.376 OA
ATOM     54 3H11 ZIN A   1      14.217  -8.957   2.057  0.00  0.00     0.211 HD
ENDBRANCH  19  53
BRANCH  19  55
ATOM     55  C54 ZIN A   1      13.829  -9.626   4.477  0.00  0.00     0.297 C 
ATOM     56  O55 ZIN A   1      13.638 -10.635   3.841  0.00  0.00    -0.262 OA
BRANCH  55  57
ATOM     57  O56 ZIN A   1      13.189  -9.435   5.641  0.00  0.00    -0.324 OA
ATOM     58  C57 ZIN A   1      11.796  -9.840   5.701  0.00  0.00     0.213 C 
ENDBRANCH  55  57
ENDBRANCH  19  55
BRANCH   1  59
ATOM     59  C2  ZIN A   1      14.754  -4.785   3.946  0.00  0.00     0.014 C 
ATOM     60  C1  ZIN A   1      15.836  -3.803   3.496  0.00  0.00     0.006 C 
ENDBRANCH   1  59
BRANCH  20  61
ATOM     61  O60 ZIN A   1      12.837  -7.119   3.728  0.00  0.00    -0.311 OA
BRANCH  61  62
ATOM     62  C61 ZIN A   1      12.627  -7.259   2.410  0.00  0.00     0.255 C 
ATOM     63  C62 ZIN A   1      12.306  -6.052   1.565  0.00  0.00     0.126 C 
ATOM     64  O63 ZIN A   1      12.693  -8.352   1.900  0.00  0.00    -0.266 OA
ENDBRANCH  61  62
ENDBRANCH  20  61
TORSDOF 12
ENDMDL
MODEL 3
REMARK VINA RESULT:       2.6      2.482      9.815
REMARK  12 active torsions:
REMARK  status: ('A' for Active; 'I' for Inactive)
REMARK    1  A    between atoms: C2_2  and  C3_3 
REMARK    2  A    between atoms: C15_15  and  O16_16 
REMARK    3  A    between atoms: C18_18  and  C19_19 
REMARK    4  A    between atoms: C19_19  and  C20_20 
REMARK    5  A    between atoms: C20_20  and  O22_22 
REMARK    6  A    between atoms: C31_30  and  O32_31 
REMARK    7  A    between atoms: C31_30  and  C33_32 
REMARK    8  A    between atoms: C52_50  and  O53_51 
REMARK    9  A    between atoms: C52_50  and  C54_52 
REMARK   10  A    between atoms: C54_52  and  O56_54 
REMARK   11  A    between atoms: C58_56  and  O60_57 
REMARK   12  A    between atoms: O60_57  and  C61_58 
ROOT
ATOM      1  C3  ZIN A   1      16.198  -9.038   4.877  0.00  0.00     0.037 C 
ATOM      2  C4  ZIN A   1      15.578 -10.374   5.154  0.00  0.00    -0.015 C 
ATOM      3  C5  ZIN A   1      14.943 -10.634   6.257  0.00  0.00    -0.003 C 
ATOM      4  C6  ZIN A   1      14.771  -9.597   7.326  0.00  0.00     0.262 C 
ATOM      5  N7  ZIN A   1      15.905  -8.667   7.343  0.00  0.00    -0.061 N 
ATOM      6  H8  ZIN A   1      16.728  -9.125   7.704  0.00  0.00     0.280 HD
ATOM      7  C9  ZIN A   1      15.526  -7.519   8.214  0.00  0.00     0.237 C 
ATOM      8  C10 ZIN A   1      14.767  -6.560   7.265  0.00  0.00     0.046 C 
ATOM      9  C11 ZIN A   1      15.513  -6.749   5.913  0.00  0.00     0.040 C 
ATOM     10  C12 ZIN A   1      16.512  -5.634   5.773  0.00  0.00    -0.024 A 
ATOM     11  C13 ZIN A   1      16.275  -4.987   4.556  0.00  0.00     0.020 A 
ATOM     12  C14 ZIN A   1      17.053  -3.891   4.175  0.00  0.00     0.061 A 
ATOM     13  C15 ZIN A   1      18.061  -3.493   5.046  0.00  0.00     0.077 A 
ATOM     14  C18 ZIN A   1      18.291  -4.150   6.244  0.00  0.00     0.000 A 
ATOM     15  C47 ZIN A   1      17.519  -5.237   6.632  0.00  0.00     0.021 A 
ATOM     16  N48 ZIN A   1      15.246  -5.596   3.856  0.00  0.00    -0.278 NA
ATOM     17  C49 ZIN A   1      14.328  -4.596   3.294  0.00  0.00     0.117 C 
ATOM     18  C50 ZIN A   1      14.530  -6.523   4.770  0.00  0.00     0.125 C 
ATOM     19  C52 ZIN A   1      14.233  -7.799   3.988  0.00  0.00     0.190 C 
ATOM     20  C58 ZIN A   1      15.579  -8.448   3.610  0.00  0.00     0.192 C 
ATOM     21  C64 ZIN A   1      16.147  -8.101   6.026  0.00  0.00     0.218 C 
ENDROOT
BRANCH  14  22
ATOM     22  C19 ZIN A   1      19.404  -3.675   7.143  0.00  0.00     0.121 C 
ATOM     23  C39 ZIN A   1      18.999  -3.700   8.603  0.00  0.00     0.040 A 
ATOM     24  C38 ZIN A   1      17.828  -3.457   9.224  0.00  0.00    -0.020 A 
ATOM     25  N40 ZIN A   1      19.950  -4.013   9.569  0.00  0.00    -0.357 N 
ATOM     26  C37 ZIN A   1      16.479  -3.009   8.694  0.00  0.00     0.069 C 
ATOM     27  C46 ZIN A   1      18.029  -3.725  10.649  0.00  0.00    -0.001 A 
ATOM     28  C36 ZIN A   1      16.221  -1.530   9.168  0.00  0.00     0.239 C 
ATOM     29  N28 ZIN A   1      17.556  -0.929   9.095  0.00  0.00    -0.068 N 
ATOM     30  C27 ZIN A   1      17.933  -1.119   7.655  0.00  0.00     0.239 C 
ATOM     31  H29 ZIN A   1      18.190  -1.431   9.706  0.00  0.00     0.280 HD
ATOM     32  C30 ZIN A   1      17.781   0.492   9.290  0.00  0.00     0.272 C 
ATOM     33  C25 ZIN A   1      19.454  -1.367   7.919  0.00  0.00     0.016 C 
ATOM     34  C24 ZIN A   1      19.879  -2.235   6.740  0.00  0.00     0.037 C 
ATOM     35  C35 ZIN A   1      19.986   0.059   8.005  0.00  0.00     0.045 C 
ATOM     36  C31 ZIN A   1      19.286   0.786   9.165  0.00  0.00     0.082 C 
ATOM     37  C41 ZIN A   1      19.386  -4.078  10.803  0.00  0.00     0.043 A 
ATOM     38  C45 ZIN A   1      17.154  -3.680  11.738  0.00  0.00     0.014 A 
ATOM     39  C42 ZIN A   1      19.895  -4.410  12.058  0.00  0.00     0.030 A 
ATOM     40  C43 ZIN A   1      19.010  -4.364  13.121  0.00  0.00     0.002 A 
ATOM     41  C44 ZIN A   1      17.682  -4.007  12.964  0.00  0.00     0.001 A 
ATOM     42 4H10 ZIN A   1      20.896  -4.145   9.406  0.00  0.00     0.166 HD
BRANCH  36  43
ATOM     43  O32 ZIN A   1      19.924   0.414  10.390  0.00  0.00    -0.388 OA
ATOM     44  H92 ZIN A   1      19.592   0.887  11.166  0.00  0.00     0.210 HD
ENDBRANCH  36  43
BRANCH  36  45
ATOM     45  C33 ZIN A   1      19.466   2.296   8.971  0.00  0.00     0.035 C 
ATOM     46  C34 ZIN A   1      19.455   2.991  10.334  0.00  0.00     0.008 C 
ENDBRANCH  36  45
BRANCH  22  47
ATOM     47  C20 ZIN A   1      20.574  -4.629   6.938  0.00  0.00     0.278 C 
ATOM     48  O21 ZIN A   1      21.206  -4.598   5.909  0.00  0.00    -0.264 OA
BRANCH  47  49
ATOM     49  O22 ZIN A   1      20.902  -5.505   7.901  0.00  0.00    -0.325 OA
ATOM     50  C23 ZIN A   1      22.302  -5.873   8.007  0.00  0.00     0.213 C 
ENDBRANCH  47  49
ENDBRANCH  22  47
ENDBRANCH  14  22
BRANCH  13  51
ATOM     51  O16 ZIN A   1      18.840  -2.430   4.714  0.00  0.00    -0.355 OA
ATOM     52  C17 ZIN A   1      18.244  -1.417   3.902  0.00  0.00     0.210 C 
ENDBRANCH  13  51
BRANCH  19  53
ATOM     53  O53 ZIN A   1      13.481  -8.699   4.805  0.00  0.00    -0.376 OA
ATOM     54 3H11 ZIN A   1      12.640  -8.337   5.117  0.00  0.00     0.211 HD
ENDBRANCH  19  53
BRANCH  19  55
ATOM     55  C54 ZIN A   1      13.444  -7.460   2.749  0.00  0.00     0.297 C 
ATOM     56  O55 ZIN A   1      13.951  -6.804   1.870  0.00  0.00    -0.262 OA
BRANCH  55  57
ATOM     57  O56 ZIN A   1      12.179  -7.888   2.622  0.00  0.00    -0.324 OA
ATOM     58  C57 ZIN A   1      11.917  -8.876   1.590  0.00  0.00     0.213 C 
ENDBRANCH  55  57
ENDBRANCH  19  55
BRANCH   1  59
ATOM     59  C2  ZIN A   1      17.675  -9.290   4.571  0.00  0.00     0.014 C 
ATOM     60  C1  ZIN A   1      18.249  -8.098   3.804  0.00  0.00     0.006 C 
ENDBRANCH   1  59
BRANCH  20  61
ATOM     61  O60 ZIN A   1      15.360  -9.496   2.630  0.00  0.00    -0.311 OA
BRANCH  61  62
ATOM     62  C61 ZIN A   1      16.191  -9.531   1.577  0.00  0.00     0.255 C 
ATOM     63  C62 ZIN A   1      16.711  -8.246   0.984  0.00  0.00     0.126 C 
ATOM     64  O63 ZIN A   1      16.521 -10.592   1.102  0.00  0.00    -0.266 OA
ENDBRANCH  61  62
ENDBRANCH  20  61
TORSDOF 12
ENDMDL
MODEL 4
REMARK VINA RESULT:       3.3      3.999     11.298
REMARK  12 active torsions:
REMARK  status: ('A' for Active; 'I' for Inactive)
REMARK    1  A    between atoms: C2_2  and  C3_3 
REMARK    2  A    between atoms: C15_15  and  O16_16 
REMARK    3  A    between atoms: C18_18  and  C19_19 
REMARK    4  A    between atoms: C19_19  and  C20_20 
REMARK    5  A    between atoms: C20_20  and  O22_22 
REMARK    6  A    between atoms: C31_30  and  O32_31 
REMARK    7  A    between atoms: C31_30  and  C33_32 
REMARK    8  A    between atoms: C52_50  and  O53_51 
REMARK    9  A    between atoms: C52_50  and  C54_52 
REMARK   10  A    between atoms: C54_52  and  O56_54 
REMARK   11  A    between atoms: C58_56  and  O60_57 
REMARK   12  A    between atoms: O60_57  and  C61_58 
ROOT
ATOM      1  C3  ZIN A   1      17.646  -0.234  10.411  0.00  0.00     0.037 C 
ATOM      2  C4  ZIN A   1      17.525  -0.206   8.919  0.00  0.00    -0.015 C 
ATOM      3  C5  ZIN A   1      18.344   0.464   8.164  0.00  0.00    -0.003 C 
ATOM      4  C6  ZIN A   1      19.485   1.244   8.744  0.00  0.00     0.262 C 
ATOM      5  N7  ZIN A   1      19.151   1.748  10.079  0.00  0.00    -0.061 N 
ATOM      6  H8  ZIN A   1      18.473   2.493  10.014  0.00  0.00     0.280 HD
ATOM      7  C9  ZIN A   1      20.413   2.247  10.695  0.00  0.00     0.237 C 
ATOM      8  C10 ZIN A   1      21.042   0.989  11.339  0.00  0.00     0.046 C 
ATOM      9  C11 ZIN A   1      19.799   0.186  11.817  0.00  0.00     0.040 C 
ATOM     10  C12 ZIN A   1      19.589   0.476  13.277  0.00  0.00    -0.024 A 
ATOM     11  C13 ZIN A   1      19.557  -0.743  13.962  0.00  0.00     0.020 A 
ATOM     12  C14 ZIN A   1      19.392  -0.768  15.350  0.00  0.00     0.061 A 
ATOM     13  C15 ZIN A   1      19.253   0.454  15.997  0.00  0.00     0.077 A 
ATOM     14  C18 ZIN A   1      19.277   1.653  15.303  0.00  0.00     0.000 A 
ATOM     15  C47 ZIN A   1      19.446   1.688  13.925  0.00  0.00     0.021 A 
ATOM     16  N48 ZIN A   1      19.678  -1.813  13.091  0.00  0.00    -0.278 NA
ATOM     17  C49 ZIN A   1      20.617  -2.814  13.614  0.00  0.00     0.117 C 
ATOM     18  C50 ZIN A   1      20.123  -1.303  11.768  0.00  0.00     0.125 C 
ATOM     19  C52 ZIN A   1      19.327  -2.045  10.700  0.00  0.00     0.190 C 
ATOM     20  C58 ZIN A   1      17.840  -1.678  10.875  0.00  0.00     0.192 C 
ATOM     21  C64 ZIN A   1      18.683   0.681  10.949  0.00  0.00     0.218 C 
ENDROOT
BRANCH  14  22
ATOM     22  C19 ZIN A   1      19.113   2.947  16.060  0.00  0.00     0.121 C 
ATOM     23  C39 ZIN A   1      18.012   3.807  15.475  0.00  0.00     0.040 A 
ATOM     24  C38 ZIN A   1      17.592   4.008  14.210  0.00  0.00    -0.020 A 
ATOM     25  N40 ZIN A   1      17.232   4.587  16.323  0.00  0.00    -0.357 N 
ATOM     26  C37 ZIN A   1      18.106   3.485  12.882  0.00  0.00     0.069 C 
ATOM     27  C46 ZIN A   1      16.423   4.887  14.275  0.00  0.00    -0.001 A 
ATOM     28  C36 ZIN A   1      18.767   4.679  12.097  0.00  0.00     0.239 C 
ATOM     29  N28 ZIN A   1      19.407   5.454  13.163  0.00  0.00    -0.068 N 
ATOM     30  C27 ZIN A   1      20.341   4.460  13.788  0.00  0.00     0.239 C 
ATOM     31  H29 ZIN A   1      18.707   5.762  13.828  0.00  0.00     0.280 HD
ATOM     32  C30 ZIN A   1      20.285   6.576  12.888  0.00  0.00     0.272 C 
ATOM     33  C25 ZIN A   1      20.176   4.983  15.252  0.00  0.00     0.016 C 
ATOM     34  C24 ZIN A   1      20.461   3.750  16.101  0.00  0.00     0.037 C 
ATOM     35  C35 ZIN A   1      21.175   6.135  15.279  0.00  0.00     0.045 C 
ATOM     36  C31 ZIN A   1      20.772   7.174  14.221  0.00  0.00     0.082 C 
ATOM     37  C41 ZIN A   1      16.243   5.213  15.636  0.00  0.00     0.043 A 
ATOM     38  C45 ZIN A   1      15.573   5.382  13.283  0.00  0.00     0.014 A 
ATOM     39  C42 ZIN A   1      15.190   6.035  16.035  0.00  0.00     0.030 A 
ATOM     40  C43 ZIN A   1      14.357   6.510  15.035  0.00  0.00     0.002 A 
ATOM     41  C44 ZIN A   1      14.546   6.193  13.701  0.00  0.00     0.001 A 
ATOM     42 4H10 ZIN A   1      17.377   4.701  17.275  0.00  0.00     0.166 HD
BRANCH  36  43
ATOM     43  O32 ZIN A   1      19.728   7.993  14.758  0.00  0.00    -0.388 OA
ATOM     44  H92 ZIN A   1      19.691   8.000  15.724  0.00  0.00     0.210 HD
ENDBRANCH  36  43
BRANCH  36  45
ATOM     45  C33 ZIN A   1      21.982   8.070  13.933  0.00  0.00     0.035 C 
ATOM     46  C34 ZIN A   1      21.503   9.488  13.614  0.00  0.00     0.008 C 
ENDBRANCH  36  45
BRANCH  22  47
ATOM     47  C20 ZIN A   1      18.744   2.576  17.491  0.00  0.00     0.278 C 
ATOM     48  O21 ZIN A   1      19.569   2.661  18.370  0.00  0.00    -0.264 OA
BRANCH  47  49
ATOM     49  O22 ZIN A   1      17.501   2.156  17.776  0.00  0.00    -0.325 OA
ATOM     50  C23 ZIN A   1      17.045   2.330  19.143  0.00  0.00     0.213 C 
ENDBRANCH  47  49
ENDBRANCH  22  47
ENDBRANCH  14  22
BRANCH  13  51
ATOM     51  O16 ZIN A   1      19.091   0.473  17.346  0.00  0.00    -0.355 OA
ATOM     52  C17 ZIN A   1      19.128  -0.785  18.022  0.00  0.00     0.210 C 
ENDBRANCH  13  51
BRANCH  19  53
ATOM     53  O53 ZIN A   1      19.770  -1.640   9.402  0.00  0.00    -0.376 OA
ATOM     54 3H11 ZIN A   1      19.182  -1.911   8.684  0.00  0.00     0.211 HD
ENDBRANCH  19  53
BRANCH  19  55
ATOM     55  C54 ZIN A   1      19.526  -3.531  10.861  0.00  0.00     0.297 C 
ATOM     56  O55 ZIN A   1      19.137  -4.087  11.860  0.00  0.00    -0.262 OA
BRANCH  55  57
ATOM     57  O56 ZIN A   1      20.135  -4.234   9.894  0.00  0.00    -0.324 OA
ATOM     58  C57 ZIN A   1      19.665  -5.590   9.670  0.00  0.00     0.213 C 
ENDBRANCH  55  57
ENDBRANCH  19  55
BRANCH   1  59
ATOM     59  C2  ZIN A   1      16.303   0.234  10.974  0.00  0.00     0.014 C 
ATOM     60  C1  ZIN A   1      16.334   0.158  12.501  0.00  0.00     0.006 C 
ENDBRANCH   1  59
BRANCH  20  61
ATOM     61  O60 ZIN A   1      17.017  -2.569  10.078  0.00  0.00    -0.311 OA
BRANCH  61  62
ATOM     62  C61 ZIN A   1      16.631  -3.720  10.652  0.00  0.00     0.255 C 
ATOM     63  C62 ZIN A   1      16.395  -4.943   9.804  0.00  0.00     0.126 C 
ATOM     64  O63 ZIN A   1      16.470  -3.774  11.848  0.00  0.00    -0.266 OA
ENDBRANCH  61  62
ENDBRANCH  20  61
TORSDOF 12
ENDMDL
MODEL 5
REMARK VINA RESULT:       3.4      2.105      4.929
REMARK  12 active torsions:
REMARK  status: ('A' for Active; 'I' for Inactive)
REMARK    1  A    between atoms: C2_2  and  C3_3 
REMARK    2  A    between atoms: C15_15  and  O16_16 
REMARK    3  A    between atoms: C18_18  and  C19_19 
REMARK    4  A    between atoms: C19_19  and  C20_20 
REMARK    5  A    between atoms: C20_20  and  O22_22 
REMARK    6  A    between atoms: C31_30  and  O32_31 
REMARK    7  A    between atoms: C31_30  and  C33_32 
REMARK    8  A    between atoms: C52_50  and  O53_51 
REMARK    9  A    between atoms: C52_50  and  C54_52 
REMARK   10  A    between atoms: C54_52  and  O56_54 
REMARK   11  A    between atoms: C58_56  and  O60_57 
REMARK   12  A    between atoms: O60_57  and  C61_58 
ROOT
ATOM      1  C3  ZIN A   1      18.260   0.148  12.205  0.00  0.00     0.037 C 
ATOM      2  C4  ZIN A   1      18.694   0.347  13.624  0.00  0.00    -0.015 C 
ATOM      3  C5  ZIN A   1      19.929   0.213  14.002  0.00  0.00    -0.003 C 
ATOM      4  C6  ZIN A   1      21.015  -0.133  13.028  0.00  0.00     0.262 C 
ATOM      5  N7  ZIN A   1      20.495  -0.964  11.937  0.00  0.00    -0.061 N 
ATOM      6  H8  ZIN A   1      20.286  -1.893  12.272  0.00  0.00     0.280 HD
ATOM      7  C9  ZIN A   1      21.543  -1.017  10.879  0.00  0.00     0.237 C 
ATOM      8  C10 ZIN A   1      21.282   0.248  10.026  0.00  0.00     0.046 C 
ATOM      9  C11 ZIN A   1      19.734   0.381  10.069  0.00  0.00     0.040 C 
ATOM     10  C12 ZIN A   1      19.178  -0.230   8.813  0.00  0.00    -0.024 A 
ATOM     11  C13 ZIN A   1      18.373   0.725   8.183  0.00  0.00     0.020 A 
ATOM     12  C14 ZIN A   1      17.741   0.428   6.973  0.00  0.00     0.061 A 
ATOM     13  C15 ZIN A   1      17.940  -0.843   6.445  0.00  0.00     0.077 A 
ATOM     14  C18 ZIN A   1      18.732  -1.782   7.086  0.00  0.00     0.000 A 
ATOM     15  C47 ZIN A   1      19.368  -1.494   8.286  0.00  0.00     0.021 A 
ATOM     16  N48 ZIN A   1      18.305   1.893   8.925  0.00  0.00    -0.278 NA
ATOM     17  C49 ZIN A   1      18.457   3.074   8.064  0.00  0.00     0.117 C 
ATOM     18  C50 ZIN A   1      19.361   1.856   9.971  0.00  0.00     0.125 C 
ATOM     19  C52 ZIN A   1      18.748   2.397  11.258  0.00  0.00     0.190 C 
ATOM     20  C58 ZIN A   1      17.620   1.437  11.687  0.00  0.00     0.192 C 
ATOM     21  C64 ZIN A   1      19.333  -0.354  11.312  0.00  0.00     0.218 C 
ENDROOT
BRANCH  14  22
ATOM     22  C19 ZIN A   1      18.903  -3.146   6.468  0.00  0.00     0.121 C 
ATOM     23  C39 ZIN A   1      17.817  -4.106   6.910  0.00  0.00     0.040 A 
ATOM     24  C38 ZIN A   1      17.158  -4.256   8.076  0.00  0.00    -0.020 A 
ATOM     25  N40 ZIN A   1      17.348  -5.064   6.017  0.00  0.00    -0.357 N 
ATOM     26  C37 ZIN A   1      17.297  -3.549   9.412  0.00  0.00     0.069 C 
ATOM     27  C46 ZIN A   1      16.153  -5.301   7.876  0.00  0.00    -0.001 A 
ATOM     28  C36 ZIN A   1      17.914  -4.559  10.450  0.00  0.00     0.239 C 
ATOM     29  N28 ZIN A   1      18.866  -5.320   9.637  0.00  0.00    -0.068 N 
ATOM     30  C27 ZIN A   1      19.782  -4.257   9.105  0.00  0.00     0.239 C 
ATOM     31  H29 ZIN A   1      18.374  -5.786   8.882  0.00  0.00     0.280 HD
ATOM     32  C30 ZIN A   1      19.797  -6.272  10.215  0.00  0.00     0.272 C 
ATOM     33  C25 ZIN A   1      20.010  -4.925   7.711  0.00  0.00     0.016 C 
ATOM     34  C24 ZIN A   1      20.317  -3.741   6.800  0.00  0.00     0.037 C 
ATOM     35  C35 ZIN A   1      21.127  -5.914   8.024  0.00  0.00     0.045 C 
ATOM     36  C31 ZIN A   1      20.635  -6.905   9.091  0.00  0.00     0.082 C 
ATOM     37  C41 ZIN A   1      16.319  -5.767   6.555  0.00  0.00     0.043 A 
ATOM     38  C45 ZIN A   1      15.175  -5.827   8.723  0.00  0.00     0.014 A 
ATOM     39  C42 ZIN A   1      15.491  -6.768   6.047  0.00  0.00     0.030 A 
ATOM     40  C43 ZIN A   1      14.525  -7.271   6.902  0.00  0.00     0.002 A 
ATOM     41  C44 ZIN A   1      14.375  -6.815   8.200  0.00  0.00     0.001 A 
ATOM     42 4H10 ZIN A   1      17.712  -5.238   5.136  0.00  0.00     0.166 HD
BRANCH  36  43
ATOM     43  O32 ZIN A   1      19.847  -7.913   8.450  0.00  0.00    -0.388 OA
ATOM     44  H92 ZIN A   1      18.952  -7.626   8.222  0.00  0.00     0.210 HD
ENDBRANCH  36  43
BRANCH  36  45
ATOM     45  C33 ZIN A   1      21.855  -7.583   9.725  0.00  0.00     0.035 C 
ATOM     46  C34 ZIN A   1      21.829  -9.080   9.409  0.00  0.00     0.008 C 
ENDBRANCH  36  45
BRANCH  22  47
ATOM     47  C20 ZIN A   1      18.814  -2.961   4.959  0.00  0.00     0.278 C 
ATOM     48  O21 ZIN A   1      19.681  -2.358   4.371  0.00  0.00    -0.264 OA
BRANCH  47  49
ATOM     49  O22 ZIN A   1      17.772  -3.468   4.280  0.00  0.00    -0.325 OA
ATOM     50  C23 ZIN A   1      18.067  -4.144   3.030  0.00  0.00     0.213 C 
ENDBRANCH  47  49
ENDBRANCH  22  47
ENDBRANCH  14  22
BRANCH  13  51
ATOM     51  O16 ZIN A   1      17.343  -1.171   5.269  0.00  0.00    -0.355 OA
ATOM     52  C17 ZIN A   1      17.358  -0.184   4.236  0.00  0.00     0.210 C 
ENDBRANCH  13  51
BRANCH  19  53
ATOM     53  O53 ZIN A   1      19.746   2.448  12.281  0.00  0.00    -0.376 OA
ATOM     54 3H11 ZIN A   1      20.606   2.768  11.975  0.00  0.00     0.211 HD
ENDBRANCH  19  53
BRANCH  19  55
ATOM     55  C54 ZIN A   1      18.200   3.780  11.017  0.00  0.00     0.297 C 
ATOM     56  O55 ZIN A   1      18.937   4.736  11.054  0.00  0.00    -0.262 OA
BRANCH  55  57
ATOM     57  O56 ZIN A   1      16.895   3.949  10.760  0.00  0.00    -0.324 OA
ATOM     58  C57 ZIN A   1      16.267   5.145  11.292  0.00  0.00     0.213 C 
ENDBRANCH  55  57
ENDBRANCH  19  55
BRANCH   1  59
ATOM     59  C2  ZIN A   1      17.160  -0.915  12.222  0.00  0.00     0.014 C 
ATOM     60  C1  ZIN A   1      17.689  -2.187  12.885  0.00  0.00     0.006 C 
ENDBRANCH   1  59
BRANCH  20  61
ATOM     61  O60 ZIN A   1      16.825   2.051  12.734  0.00  0.00    -0.311 OA
BRANCH  61  62
ATOM     62  C61 ZIN A   1      17.472   2.438  13.845  0.00  0.00     0.255 C 
ATOM     63  C62 ZIN A   1      17.444   1.569  15.076  0.00  0.00     0.126 C 
ATOM     64  O63 ZIN A   1      18.076   3.485  13.858  0.00  0.00    -0.266 OA
ENDBRANCH  61  62
ENDBRANCH  20  61
TORSDOF 12
ENDMDL
MODEL 6
REMARK VINA RESULT:       3.6      4.368     11.705
REMARK  12 active torsions:
REMARK  status: ('A' for Active; 'I' for Inactive)
REMARK    1  A    between atoms: C2_2  and  C3_3 
REMARK    2  A    between atoms: C15_15  and  O16_16 
REMARK    3  A    between atoms: C18_18  and  C19_19 
REMARK    4  A    between atoms: C19_19  and  C20_20 
REMARK    5  A    between atoms: C20_20  and  O22_22 
REMARK    6  A    between atoms: C31_30  and  O32_31 
REMARK    7  A    between atoms: C31_30  and  C33_32 
REMARK    8  A    between atoms: C52_50  and  O53_51 
REMARK    9  A    between atoms: C52_50  and  C54_52 
REMARK   10  A    between atoms: C54_52  and  O56_54 
REMARK   11  A    between atoms: C58_56  and  O60_57 
REMARK   12  A    between atoms: O60_57  and  C61_58 
ROOT
ATOM      1  C3  ZIN A   1      18.191   0.254  10.775  0.00  0.00     0.037 C 
ATOM      2  C4  ZIN A   1      18.641   0.106   9.354  0.00  0.00    -0.015 C 
ATOM      3  C5  ZIN A   1      19.886   0.213   9.001  0.00  0.00    -0.003 C 
ATOM      4  C6  ZIN A   1      20.967   0.476  10.007  0.00  0.00     0.262 C 
ATOM      5  N7  ZIN A   1      20.459   1.273  11.128  0.00  0.00    -0.061 N 
ATOM      6  H8  ZIN A   1      20.288   2.223  10.833  0.00  0.00     0.280 HD
ATOM      7  C9  ZIN A   1      21.490   1.239  12.202  0.00  0.00     0.237 C 
ATOM      8  C10 ZIN A   1      21.172  -0.054  12.991  0.00  0.00     0.046 C 
ATOM      9  C11 ZIN A   1      19.621  -0.130  12.919  0.00  0.00     0.040 C 
ATOM     10  C12 ZIN A   1      19.066   0.442  14.194  0.00  0.00    -0.024 A 
ATOM     11  C13 ZIN A   1      18.219  -0.513  14.767  0.00  0.00     0.020 A 
ATOM     12  C14 ZIN A   1      17.577  -0.250  15.980  0.00  0.00     0.061 A 
ATOM     13  C15 ZIN A   1      17.812   0.987  16.569  0.00  0.00     0.077 A 
ATOM     14  C18 ZIN A   1      18.646   1.927  15.985  0.00  0.00     0.000 A 
ATOM     15  C47 ZIN A   1      19.292   1.671  14.783  0.00  0.00     0.021 A 
ATOM     16  N48 ZIN A   1      18.122  -1.642  13.970  0.00  0.00    -0.278 NA
ATOM     17  C49 ZIN A   1      18.218  -2.866  14.776  0.00  0.00     0.117 C 
ATOM     18  C50 ZIN A   1      19.195  -1.594  12.943  0.00  0.00     0.125 C 
ATOM     19  C52 ZIN A   1      18.585  -2.052  11.622  0.00  0.00     0.190 C 
ATOM     20  C58 ZIN A   1      17.499  -1.034  11.223  0.00  0.00     0.192 C 
ATOM     21  C64 ZIN A   1      19.266   0.676  11.706  0.00  0.00     0.218 C 
ENDROOT
BRANCH  14  22
ATOM     22  C19 ZIN A   1      18.855   3.254  16.669  0.00  0.00     0.121 C 
ATOM     23  C39 ZIN A   1      17.787   4.258  16.288  0.00  0.00     0.040 A 
ATOM     24  C38 ZIN A   1      17.120   4.482  15.138  0.00  0.00    -0.020 A 
ATOM     25  N40 ZIN A   1      17.349   5.180  17.233  0.00  0.00    -0.357 N 
ATOM     26  C37 ZIN A   1      17.229   3.840  13.767  0.00  0.00     0.069 C 
ATOM     27  C46 ZIN A   1      16.141   5.537  15.402  0.00  0.00    -0.001 A 
ATOM     28  C36 ZIN A   1      17.859   4.887  12.774  0.00  0.00     0.239 C 
ATOM     29  N28 ZIN A   1      18.835   5.585  13.614  0.00  0.00    -0.068 N 
ATOM     30  C27 ZIN A   1      19.732   4.476  14.082  0.00  0.00     0.239 C 
ATOM     31  H29 ZIN A   1      18.362   6.023  14.397  0.00  0.00     0.280 HD
ATOM     32  C30 ZIN A   1      19.782   6.544  13.074  0.00  0.00     0.272 C 
ATOM     33  C25 ZIN A   1      19.990   5.067  15.506  0.00  0.00     0.016 C 
ATOM     34  C24 ZIN A   1      20.278   3.833  16.352  0.00  0.00     0.037 C 
ATOM     35  C35 ZIN A   1      21.126   6.046  15.230  0.00  0.00     0.045 C 
ATOM     36  C31 ZIN A   1      20.646   7.101  14.220  0.00  0.00     0.082 C 
ATOM     37  C41 ZIN A   1      16.330   5.933  16.743  0.00  0.00     0.043 A 
ATOM     38  C45 ZIN A   1      15.166   6.127  14.594  0.00  0.00     0.014 A 
ATOM     39  C42 ZIN A   1      15.531   6.924  17.310  0.00  0.00     0.030 A 
ATOM     40  C43 ZIN A   1      14.568   7.492  16.492  0.00  0.00     0.002 A 
ATOM     41  C44 ZIN A   1      14.395   7.105  15.174  0.00  0.00     0.001 A 
ATOM     42 4H10 ZIN A   1      17.725   5.301  18.118  0.00  0.00     0.166 HD
BRANCH  36  43
ATOM     43  O32 ZIN A   1      19.887   8.092  14.919  0.00  0.00    -0.388 OA
ATOM     44  H92 ZIN A   1      19.969   8.044  15.881  0.00  0.00     0.210 HD
ENDBRANCH  36  43
BRANCH  36  45
ATOM     45  C33 ZIN A   1      21.875   7.782  13.607  0.00  0.00     0.035 C 
ATOM     46  C34 ZIN A   1      21.719   9.301  13.708  0.00  0.00     0.008 C 
ENDBRANCH  36  45
BRANCH  22  47
ATOM     47  C20 ZIN A   1      18.777   2.994  18.168  0.00  0.00     0.278 C 
ATOM     48  O21 ZIN A   1      19.666   2.395  18.725  0.00  0.00    -0.264 OA
BRANCH  47  49
ATOM     49  O22 ZIN A   1      17.719   3.432  18.871  0.00  0.00    -0.325 OA
ATOM     50  C23 ZIN A   1      17.998   4.140  20.107  0.00  0.00     0.213 C 
ENDBRANCH  47  49
ENDBRANCH  22  47
ENDBRANCH  14  22
BRANCH  13  51
ATOM     51  O16 ZIN A   1      17.208   1.281  17.751  0.00  0.00    -0.355 OA
ATOM     52  C17 ZIN A   1      17.203   0.260  18.750  0.00  0.00     0.210 C 
ENDBRANCH  13  51
BRANCH  19  53
ATOM     53  O53 ZIN A   1      19.598  -2.091  10.613  0.00  0.00    -0.376 OA
ATOM     54 3H11 ZIN A   1      20.499  -2.114  10.962  0.00  0.00     0.211 HD
ENDBRANCH  19  53
BRANCH  19  55
ATOM     55  C54 ZIN A   1      17.986  -3.425  11.790  0.00  0.00     0.297 C 
ATOM     56  O55 ZIN A   1      16.793  -3.550  11.929  0.00  0.00    -0.262 OA
BRANCH  55  57
ATOM     57  O56 ZIN A   1      18.778  -4.507  11.787  0.00  0.00    -0.324 OA
ATOM     58  C57 ZIN A   1      18.729  -5.356  10.610  0.00  0.00     0.213 C 
ENDBRANCH  55  57
ENDBRANCH  19  55
BRANCH   1  59
ATOM     59  C2  ZIN A   1      17.129   1.355  10.792  0.00  0.00     0.014 C 
ATOM     60  C1  ZIN A   1      17.712   2.636  10.194  0.00  0.00     0.006 C 
ENDBRANCH   1  59
BRANCH  20  61
ATOM     61  O60 ZIN A   1      16.700  -1.570  10.136  0.00  0.00    -0.311 OA
BRANCH  61  62
ATOM     62  C61 ZIN A   1      17.302  -1.705   8.944  0.00  0.00     0.255 C 
ATOM     63  C62 ZIN A   1      17.048  -0.696   7.853  0.00  0.00     0.126 C 
ATOM     64  O63 ZIN A   1      18.046  -2.635   8.745  0.00  0.00    -0.266 OA
ENDBRANCH  61  62
ENDBRANCH  20  61
TORSDOF 12
ENDMDL
