MODEL 1
REMARK VINA RESULT:      -5.6      0.000      0.000
REMARK  0 active torsions:
REMARK  status: ('A' for Active; 'I' for Inactive)
ROOT
ATOM      1  C1  <0> d   1      17.401   0.209   8.681  0.00  0.00     0.163 C 
ATOM      2  N2  <0> d   1      18.144  -0.843   7.983  0.00  0.00    -0.287 N 
ATOM      3  C3  <0> d   1      18.635  -0.605   6.720  0.00  0.00     0.147 A 
ATOM      4  C4  <0> d   1      19.339  -1.609   6.066  0.00  0.00     0.170 A 
ATOM      5  N5  <0> d   1      19.706  -1.123   4.856  0.00  0.00    -0.234 NA
ATOM      6  C6  <0> d   1      19.275   0.099   4.739  0.00  0.00     0.209 A 
ATOM      7  N7  <0> d   1      18.606   0.457   5.872  0.00  0.00    -0.335 N 
ATOM      8  C8  <0> d   1      19.527  -2.886   6.755  0.00  0.00     0.283 A 
ATOM      9  O9  <0> d   1      20.136  -3.797   6.224  0.00  0.00    -0.265 OA
ATOM     10  N10 <0> d   1      19.009  -3.033   7.994  0.00  0.00    -0.269 N 
ATOM     11  C11 <0> d   1      19.185  -4.302   8.705  0.00  0.00     0.164 C 
ATOM     12  C12 <0> d   1      18.342  -2.029   8.586  0.00  0.00     0.332 A 
ATOM     13  O13 <0> d   1      17.891  -2.202   9.702  0.00  0.00    -0.246 OA
ATOM     14  H18 <0> d   1      18.185   1.315   6.043  0.00  0.00     0.168 HD
ENDROOT
TORSDOF 0
ENDMDL
MODEL 2
REMARK VINA RESULT:      -5.3      8.156     10.312
REMARK  0 active torsions:
REMARK  status: ('A' for Active; 'I' for Inactive)
ROOT
ATOM      1  C1  <0> d   1      17.707  -0.205  14.174  0.00  0.00     0.163 C 
ATOM      2  N2  <0> d   1      18.312   0.859  14.980  0.00  0.00    -0.287 N 
ATOM      3  C3  <0> d   1      18.742   0.583  16.257  0.00  0.00     0.147 A 
ATOM      4  C4  <0> d   1      19.315   1.598  17.013  0.00  0.00     0.170 A 
ATOM      5  N5  <0> d   1      19.646   1.069  18.216  0.00  0.00    -0.234 NA
ATOM      6  C6  <0> d   1      19.314  -0.189  18.234  0.00  0.00     0.209 A 
ATOM      7  N7  <0> d   1      18.750  -0.529  17.039  0.00  0.00    -0.335 N 
ATOM      8  C8  <0> d   1      19.437   2.927  16.412  0.00  0.00     0.283 A 
ATOM      9  O9  <0> d   1      19.932   3.849  17.034  0.00  0.00    -0.265 OA
ATOM     10  N10 <0> d   1      18.988   3.108  15.151  0.00  0.00    -0.269 N 
ATOM     11  C11 <0> d   1      19.099   4.429  14.528  0.00  0.00     0.164 C 
ATOM     12  C12 <0> d   1      18.446   2.091  14.459  0.00  0.00     0.332 A 
ATOM     13  O13 <0> d   1      18.054   2.297  13.327  0.00  0.00    -0.246 OA
ATOM     14  H18 <0> d   1      18.415  -1.405  16.792  0.00  0.00     0.168 HD
ENDROOT
TORSDOF 0
ENDMDL
MODEL 3
REMARK VINA RESULT:      -5.3      1.665      3.382
REMARK  0 active torsions:
REMARK  status: ('A' for Active; 'I' for Inactive)
ROOT
ATOM      1  C1  <0> d   1      17.854  -2.128   9.860  0.00  0.00     0.163 C 
ATOM      2  N2  <0> d   1      18.366  -1.962   8.498  0.00  0.00    -0.287 N 
ATOM      3  C3  <0> d   1      19.095  -2.974   7.917  0.00  0.00     0.147 A 
ATOM      4  C4  <0> d   1      19.576  -2.808   6.625  0.00  0.00     0.170 A 
ATOM      5  N5  <0> d   1      20.252  -3.935   6.295  0.00  0.00    -0.234 NA
ATOM      6  C6  <0> d   1      20.209  -4.764   7.297  0.00  0.00     0.209 A 
ATOM      7  N7  <0> d   1      19.502  -4.207   8.322  0.00  0.00    -0.335 N 
ATOM      8  C8  <0> d   1      19.284  -1.552   5.932  0.00  0.00     0.283 A 
ATOM      9  O9  <0> d   1      19.684  -1.358   4.798  0.00  0.00    -0.265 OA
ATOM     10  N10 <0> d   1      18.561  -0.612   6.578  0.00  0.00    -0.269 N 
ATOM     11  C11 <0> d   1      18.255   0.654   5.906  0.00  0.00     0.164 C 
ATOM     12  C12 <0> d   1      18.113  -0.824   7.827  0.00  0.00     0.332 A 
ATOM     13  O13 <0> d   1      17.466   0.048   8.374  0.00  0.00    -0.246 OA
ATOM     14  H18 <0> d   1      19.322  -4.614   9.184  0.00  0.00     0.168 HD
ENDROOT
TORSDOF 0
ENDMDL
MODEL 4
REMARK VINA RESULT:      -5.2      8.058      9.783
REMARK  0 active torsions:
REMARK  status: ('A' for Active; 'I' for Inactive)
ROOT
ATOM      1  C1  <0> d   1      17.893   1.914  13.247  0.00  0.00     0.163 C 
ATOM      2  N2  <0> d   1      18.392   1.762  14.616  0.00  0.00    -0.287 N 
ATOM      3  C3  <0> d   1      19.008   2.824  15.237  0.00  0.00     0.147 A 
ATOM      4  C4  <0> d   1      19.478   2.671  16.535  0.00  0.00     0.170 A 
ATOM      5  N5  <0> d   1      20.035   3.849  16.907  0.00  0.00    -0.234 NA
ATOM      6  C6  <0> d   1      19.930   4.696  15.925  0.00  0.00     0.209 A 
ATOM      7  N7  <0> d   1      19.301   4.101  14.872  0.00  0.00    -0.335 N 
ATOM      8  C8  <0> d   1      19.296   1.374  17.190  0.00  0.00     0.283 A 
ATOM      9  O9  <0> d   1      19.690   1.190  18.327  0.00  0.00    -0.265 OA
ATOM     10  N10 <0> d   1      18.680   0.386  16.505  0.00  0.00    -0.269 N 
ATOM     11  C11 <0> d   1      18.485  -0.920  17.139  0.00  0.00     0.164 C 
ATOM     12  C12 <0> d   1      18.238   0.588  15.252  0.00  0.00     0.332 A 
ATOM     13  O13 <0> d   1      17.689  -0.328  14.670  0.00  0.00    -0.246 OA
ATOM     14  H18 <0> d   1      19.099   4.512  14.016  0.00  0.00     0.168 HD
ENDROOT
TORSDOF 0
ENDMDL
MODEL 5
REMARK VINA RESULT:      -5.1      1.866      4.285
REMARK  0 active torsions:
REMARK  status: ('A' for Active; 'I' for Inactive)
ROOT
ATOM      1  C1  <0> d   1      19.733  -4.045   7.042  0.00  0.00     0.163 C 
ATOM      2  N2  <0> d   1      19.477  -2.603   7.036  0.00  0.00    -0.287 N 
ATOM      3  C3  <0> d   1      19.370  -1.926   8.229  0.00  0.00     0.147 A 
ATOM      4  C4  <0> d   1      19.127  -0.558   8.214  0.00  0.00     0.170 A 
ATOM      5  N5  <0> d   1      19.067  -0.143   9.502  0.00  0.00    -0.234 NA
ATOM      6  C6  <0> d   1      19.257  -1.163  10.287  0.00  0.00     0.209 A 
ATOM      7  N7  <0> d   1      19.448  -2.287   9.538  0.00  0.00    -0.335 N 
ATOM      8  C8  <0> d   1      18.995   0.108   6.917  0.00  0.00     0.283 A 
ATOM      9  O9  <0> d   1      18.782   1.305   6.851  0.00  0.00    -0.265 OA
ATOM     10  N10 <0> d   1      19.114  -0.635   5.795  0.00  0.00    -0.269 N 
ATOM     11  C11 <0> d   1      18.985   0.009   4.485  0.00  0.00     0.164 C 
ATOM     12  C12 <0> d   1      19.355  -1.955   5.864  0.00  0.00     0.332 A 
ATOM     13  O13 <0> d   1      19.455  -2.587   4.830  0.00  0.00    -0.246 OA
ATOM     14  H18 <0> d   1      19.610  -3.181   9.876  0.00  0.00     0.168 HD
ENDROOT
TORSDOF 0
ENDMDL
MODEL 6
REMARK VINA RESULT:      -5.0      1.450      3.178
REMARK  0 active torsions:
REMARK  status: ('A' for Active; 'I' for Inactive)
ROOT
ATOM      1  C1  <0> d   1      19.243   0.192   4.745  0.00  0.00     0.163 C 
ATOM      2  N2  <0> d   1      19.225  -0.482   6.045  0.00  0.00    -0.287 N 
ATOM      3  C3  <0> d   1      19.098   0.262   7.195  0.00  0.00     0.147 A 
ATOM      4  C4  <0> d   1      19.081  -0.387   8.424  0.00  0.00     0.170 A 
ATOM      5  N5  <0> d   1      18.949   0.562   9.381  0.00  0.00    -0.234 NA
ATOM      6  C6  <0> d   1      18.884   1.732   8.815  0.00  0.00     0.209 A 
ATOM      7  N7  <0> d   1      18.974   1.589   7.461  0.00  0.00    -0.335 N 
ATOM      8  C8  <0> d   1      19.200  -1.846   8.440  0.00  0.00     0.283 A 
ATOM      9  O9  <0> d   1      19.191  -2.460   9.491  0.00  0.00    -0.265 OA
ATOM     10  N10 <0> d   1      19.321  -2.496   7.262  0.00  0.00    -0.269 N 
ATOM     11  C11 <0> d   1      19.442  -3.956   7.252  0.00  0.00     0.164 C 
ATOM     12  C12 <0> d   1      19.326  -1.822   6.100  0.00  0.00     0.332 A 
ATOM     13  O13 <0> d   1      19.437  -2.445   5.061  0.00  0.00    -0.246 OA
ATOM     14  H18 <0> d   1      18.953   2.305   6.806  0.00  0.00     0.168 HD
ENDROOT
TORSDOF 0
ENDMDL
MODEL 7
REMARK VINA RESULT:      -4.9      7.618      9.146
REMARK  0 active torsions:
REMARK  status: ('A' for Active; 'I' for Inactive)
ROOT
ATOM      1  C1  <0> d   1      19.234   4.140  15.842  0.00  0.00     0.163 C 
ATOM      2  N2  <0> d   1      18.973   2.698  15.832  0.00  0.00    -0.287 N 
ATOM      3  C3  <0> d   1      18.497   2.102  14.687  0.00  0.00     0.147 A 
ATOM      4  C4  <0> d   1      18.253   0.734  14.686  0.00  0.00     0.170 A 
ATOM      5  N5  <0> d   1      17.795   0.405  13.455  0.00  0.00    -0.234 NA
ATOM      6  C6  <0> d   1      17.749   1.476  12.718  0.00  0.00     0.209 A 
ATOM      7  N7  <0> d   1      18.174   2.549  13.444  0.00  0.00    -0.335 N 
ATOM      8  C8  <0> d   1      18.515  -0.018  15.914  0.00  0.00     0.283 A 
ATOM      9  O9  <0> d   1      18.317  -1.218  15.964  0.00  0.00    -0.265 OA
ATOM     10  N10 <0> d   1      18.982   0.649  16.992  0.00  0.00    -0.269 N 
ATOM     11  C11 <0> d   1      19.253  -0.081  18.233  0.00  0.00     0.164 C 
ATOM     12  C12 <0> d   1      19.208   1.973  16.939  0.00  0.00     0.332 A 
ATOM     13  O13 <0> d   1      19.628   2.536  17.932  0.00  0.00    -0.246 OA
ATOM     14  H18 <0> d   1      18.237   3.466  13.132  0.00  0.00     0.168 HD
ENDROOT
TORSDOF 0
ENDMDL
MODEL 8
REMARK VINA RESULT:      -4.9      4.278      5.812
REMARK  0 active torsions:
REMARK  status: ('A' for Active; 'I' for Inactive)
ROOT
ATOM      1  C1  <0> d   1      18.042   1.297  13.600  0.00  0.00     0.163 C 
ATOM      2  N2  <0> d   1      18.346   1.567  12.192  0.00  0.00    -0.287 N 
ATOM      3  C3  <0> d   1      17.966   2.765  11.633  0.00  0.00     0.147 A 
ATOM      4  C4  <0> d   1      18.259   3.013  10.297  0.00  0.00     0.170 A 
ATOM      5  N5  <0> d   1      17.781   4.245   9.999  0.00  0.00    -0.234 NA
ATOM      6  C6  <0> d   1      17.225   4.753  11.060  0.00  0.00     0.209 A 
ATOM      7  N7  <0> d   1      17.317   3.868  12.093  0.00  0.00    -0.335 N 
ATOM      8  C8  <0> d   1      18.965   1.979   9.539  0.00  0.00     0.283 A 
ATOM      9  O9  <0> d   1      19.245   2.149   8.366  0.00  0.00    -0.265 OA
ATOM     10  N10 <0> d   1      19.301   0.832  10.169  0.00  0.00    -0.269 N 
ATOM     11  C11 <0> d   1      20.009  -0.217   9.431  0.00  0.00     0.164 C 
ATOM     12  C12 <0> d   1      18.999   0.644  11.465  0.00  0.00     0.332 A 
ATOM     13  O13 <0> d   1      19.319  -0.403  11.995  0.00  0.00    -0.246 OA
ATOM     14  H18 <0> d   1      16.982   3.999  12.994  0.00  0.00     0.168 HD
ENDROOT
TORSDOF 0
ENDMDL
MODEL 9
REMARK VINA RESULT:      -4.8      2.719      4.715
REMARK  0 active torsions:
REMARK  status: ('A' for Active; 'I' for Inactive)
ROOT
ATOM      1  C1  <0> d   1      19.247   1.305   7.491  0.00  0.00     0.163 C 
ATOM      2  N2  <0> d   1      18.637   0.710   8.683  0.00  0.00    -0.287 N 
ATOM      3  C3  <0> d   1      18.243   1.522   9.722  0.00  0.00     0.147 A 
ATOM      4  C4  <0> d   1      17.665   0.949  10.848  0.00  0.00     0.170 A 
ATOM      5  N5  <0> d   1      17.373   1.953  11.709  0.00  0.00    -0.234 NA
ATOM      6  C6  <0> d   1      17.734   3.086  11.179  0.00  0.00     0.209 A 
ATOM      7  N7  <0> d   1      18.278   2.862   9.949  0.00  0.00    -0.335 N 
ATOM      8  C8  <0> d   1      17.499  -0.505  10.879  0.00  0.00     0.283 A 
ATOM      9  O9  <0> d   1      16.999  -1.055  11.844  0.00  0.00    -0.265 OA
ATOM     10  N10 <0> d   1      17.916  -1.225   9.814  0.00  0.00    -0.269 N 
ATOM     11  C11 <0> d   1      17.761  -2.682   9.822  0.00  0.00     0.164 C 
ATOM     12  C12 <0> d   1      18.464  -0.622   8.746  0.00  0.00     0.332 A 
ATOM     13  O13 <0> d   1      18.825  -1.306   7.808  0.00  0.00    -0.246 OA
ATOM     14  H18 <0> d   1      18.626   3.536   9.344  0.00  0.00     0.168 HD
ENDROOT
TORSDOF 0
ENDMDL
