MODEL 1
REMARK VINA RESULT:      -8.3      0.000      0.000
REMARK  10 active torsions:
REMARK  status: ('A' for Active; 'I' for Inactive)
REMARK    1  A    between atoms: C2_2  and  C3_3 
REMARK    2  A    between atoms: C3_3  and  C4_4 
REMARK    3  A    between atoms: C4_4  and  C5_5 
REMARK       I    between atoms: C5_5  and  N7_7 
REMARK    4  A    between atoms: N7_7  and  C8_8 
REMARK    5  A    between atoms: N7_7  and  C26_26 
REMARK    6  A    between atoms: C8_8  and  C9_9 
REMARK    7  A    between atoms: C12_12  and  C13_13 
REMARK    8  A    between atoms: C18_18  and  C19_19 
REMARK    9  A    between atoms: C26_26  and  C28_27 
REMARK   10  A    between atoms: C26_26  and  C31_30 
ROOT
ATOM      1  C9  ZIN A   1      18.975  -2.119  11.059  0.00  0.00    -0.040 A 
ATOM      2  C10 ZIN A   1      18.280  -3.087  11.762  0.00  0.00     0.010 A 
ATOM      3  C11 ZIN A   1      17.633  -4.101  11.088  0.00  0.00     0.013 A 
ATOM      4  C12 ZIN A   1      17.681  -4.150   9.694  0.00  0.00    -0.025 A 
ATOM      5  C24 ZIN A   1      18.388  -3.176   8.992  0.00  0.00     0.013 A 
ATOM      6  C25 ZIN A   1      19.027  -2.162   9.677  0.00  0.00     0.010 A 
ENDROOT
BRANCH   1   7
ATOM      7  C8  ZIN A   1      19.680  -1.013  11.803  0.00  0.00     0.165 C 
BRANCH   7   8
ATOM      8  N7  ZIN A   1      18.690  -0.158  12.461  0.00  0.00    -0.333 N 
ATOM      9  C5  ZIN A   1      18.398  -0.344  13.763  0.00  0.00     0.220 C 
ATOM     10  O6  ZIN A   1      17.516   0.303  14.285  0.00  0.00    -0.273 OA
BRANCH   9  11
ATOM     11  C4  ZIN A   1      19.168  -1.357  14.570  0.00  0.00     0.103 C 
BRANCH  11  12
ATOM     12  C3  ZIN A   1      18.416  -1.652  15.869  0.00  0.00     0.009 C 
BRANCH  12  13
ATOM     13  C2  ZIN A   1      19.201  -1.083  17.054  0.00  0.00    -0.004 C 
ATOM     14  C1  ZIN A   1      18.325  -0.083  17.813  0.00  0.00     0.005 C 
ENDBRANCH  12  13
ENDBRANCH  11  12
ENDBRANCH   9  11
BRANCH   8  15
ATOM     15  C26 ZIN A   1      18.018   0.900  11.704  0.00  0.00     0.191 C 
BRANCH  15  16
ATOM     16  C28 ZIN A   1      16.898   0.304  10.890  0.00  0.00     0.197 C 
ATOM     17  O29 ZIN A   1      15.858  -0.028  11.434  0.00  0.00    -0.646 OA
ATOM     18  O30 ZIN A   1      17.033   0.151   9.688  0.00  0.00    -0.646 OA
ENDBRANCH  15  16
BRANCH  15  19
ATOM     19  C31 ZIN A   1      19.023   1.575  10.769  0.00  0.00     0.011 C 
ATOM     20  C32 ZIN A   1      18.308   2.640   9.933  0.00  0.00     0.012 C 
ATOM     21  C33 ZIN A   1      20.129   2.233  11.597  0.00  0.00     0.012 C 
ENDBRANCH  15  19
ENDBRANCH   8  15
ENDBRANCH   7   8
ENDBRANCH   1   7
BRANCH   4  22
ATOM     22  C13 ZIN A   1      16.989  -5.238   8.964  0.00  0.00    -0.012 A 
ATOM     23  C18 ZIN A   1      17.728  -6.155   8.196  0.00  0.00     0.026 A 
ATOM     24  C17 ZIN A   1      17.065  -7.171   7.510  0.00  0.00     0.016 A 
ATOM     25  C16 ZIN A   1      15.690  -7.271   7.588  0.00  0.00     0.001 A 
ATOM     26  C15 ZIN A   1      14.964  -6.368   8.344  0.00  0.00     0.001 A 
ATOM     27  C14 ZIN A   1      15.604  -5.356   9.030  0.00  0.00     0.013 A 
BRANCH  23  28
ATOM     28  C19 ZIN A   1      19.200  -6.041   8.115  0.00  0.00     0.207 A 
ATOM     29  N23 ZIN A   1      20.079  -6.359   9.067  0.00  0.00    -0.106 NA
ATOM     30  N22 ZIN A   1      21.257  -6.115   8.604  0.00  0.00    -0.021 NA
ATOM     31  N21 ZIN A   1      21.155  -5.657   7.406  0.00  0.00    -0.021 NA
ATOM     32  N20 ZIN A   1      19.911  -5.604   7.074  0.00  0.00    -0.106 NA
ENDBRANCH  23  28
ENDBRANCH   4  22
TORSDOF 10
ENDMDL
MODEL 2
REMARK VINA RESULT:      -8.1      3.127      8.198
REMARK  10 active torsions:
REMARK  status: ('A' for Active; 'I' for Inactive)
REMARK    1  A    between atoms: C2_2  and  C3_3 
REMARK    2  A    between atoms: C3_3  and  C4_4 
REMARK    3  A    between atoms: C4_4  and  C5_5 
REMARK       I    between atoms: C5_5  and  N7_7 
REMARK    4  A    between atoms: N7_7  and  C8_8 
REMARK    5  A    between atoms: N7_7  and  C26_26 
REMARK    6  A    between atoms: C8_8  and  C9_9 
REMARK    7  A    between atoms: C12_12  and  C13_13 
REMARK    8  A    between atoms: C18_18  and  C19_19 
REMARK    9  A    between atoms: C26_26  and  C28_27 
REMARK   10  A    between atoms: C26_26  and  C31_30 
ROOT
ATOM      1  C9  ZIN A   1      17.716  -0.809  11.402  0.00  0.00    -0.040 A 
ATOM      2  C10 ZIN A   1      16.734   0.032  11.895  0.00  0.00     0.010 A 
ATOM      3  C11 ZIN A   1      17.051   0.990  12.835  0.00  0.00     0.013 A 
ATOM      4  C12 ZIN A   1      18.365   1.109  13.289  0.00  0.00    -0.025 A 
ATOM      5  C24 ZIN A   1      19.350   0.263  12.784  0.00  0.00     0.013 A 
ATOM      6  C25 ZIN A   1      19.020  -0.696  11.848  0.00  0.00     0.010 A 
ENDROOT
BRANCH   1   7
ATOM      7  C8  ZIN A   1      17.362  -1.854  10.374  0.00  0.00     0.165 C 
BRANCH   7   8
ATOM      8  N7  ZIN A   1      18.453  -1.974   9.404  0.00  0.00    -0.333 N 
ATOM      9  C5  ZIN A   1      18.688  -0.979   8.527  0.00  0.00     0.220 C 
ATOM     10  O6  ZIN A   1      19.532  -1.116   7.667  0.00  0.00    -0.273 OA
BRANCH   9  11
ATOM     11  C4  ZIN A   1      17.902   0.303   8.614  0.00  0.00     0.103 C 
BRANCH  11  12
ATOM     12  C3  ZIN A   1      18.819   1.486   8.299  0.00  0.00     0.009 C 
BRANCH  12  13
ATOM     13  C2  ZIN A   1      19.242   2.165   9.604  0.00  0.00    -0.004 C 
ATOM     14  C1  ZIN A   1      18.135   3.116  10.066  0.00  0.00     0.005 C 
ENDBRANCH  12  13
ENDBRANCH  11  12
ENDBRANCH   9  11
BRANCH   8  15
ATOM     15  C26 ZIN A   1      19.289  -3.177   9.389  0.00  0.00     0.191 C 
BRANCH  15  16
ATOM     16  C28 ZIN A   1      18.970  -3.996   8.165  0.00  0.00     0.197 C 
ATOM     17  O29 ZIN A   1      17.813  -4.131   7.805  0.00  0.00    -0.646 OA
ATOM     18  O30 ZIN A   1      19.869  -4.527   7.536  0.00  0.00    -0.646 OA
ENDBRANCH  15  16
BRANCH  15  19
ATOM     19  C31 ZIN A   1      19.012  -4.006  10.644  0.00  0.00     0.011 C 
ATOM     20  C32 ZIN A   1      18.596  -5.422  10.239  0.00  0.00     0.012 C 
ATOM     21  C33 ZIN A   1      20.276  -4.071  11.503  0.00  0.00     0.012 C 
ENDBRANCH  15  19
ENDBRANCH   8  15
ENDBRANCH   7   8
ENDBRANCH   1   7
BRANCH   4  22
ATOM     22  C13 ZIN A   1      18.712   2.137  14.298  0.00  0.00    -0.012 A 
ATOM     23  C18 ZIN A   1      18.719   1.811  15.665  0.00  0.00     0.026 A 
ATOM     24  C17 ZIN A   1      19.043   2.788  16.605  0.00  0.00     0.016 A 
ATOM     25  C16 ZIN A   1      19.353   4.067  16.190  0.00  0.00     0.001 A 
ATOM     26  C15 ZIN A   1      19.345   4.388  14.844  0.00  0.00     0.001 A 
ATOM     27  C14 ZIN A   1      19.027   3.433  13.900  0.00  0.00     0.013 A 
BRANCH  23  28
ATOM     28  C19 ZIN A   1      18.385   0.438  16.104  0.00  0.00     0.207 A 
ATOM     29  N23 ZIN A   1      19.228  -0.587  16.231  0.00  0.00    -0.106 NA
ATOM     30  N22 ZIN A   1      18.545  -1.603  16.637  0.00  0.00    -0.021 NA
ATOM     31  N21 ZIN A   1      17.312  -1.259  16.768  0.00  0.00    -0.021 NA
ATOM     32  N20 ZIN A   1      17.180  -0.016  16.455  0.00  0.00    -0.106 NA
ENDBRANCH  23  28
ENDBRANCH   4  22
TORSDOF 10
ENDMDL
MODEL 3
REMARK VINA RESULT:      -8.1      2.707      5.181
REMARK  10 active torsions:
REMARK  status: ('A' for Active; 'I' for Inactive)
REMARK    1  A    between atoms: C2_2  and  C3_3 
REMARK    2  A    between atoms: C3_3  and  C4_4 
REMARK    3  A    between atoms: C4_4  and  C5_5 
REMARK       I    between atoms: C5_5  and  N7_7 
REMARK    4  A    between atoms: N7_7  and  C8_8 
REMARK    5  A    between atoms: N7_7  and  C26_26 
REMARK    6  A    between atoms: C8_8  and  C9_9 
REMARK    7  A    between atoms: C12_12  and  C13_13 
REMARK    8  A    between atoms: C18_18  and  C19_19 
REMARK    9  A    between atoms: C26_26  and  C28_27 
REMARK   10  A    between atoms: C26_26  and  C31_30 
ROOT
ATOM      1  C9  ZIN A   1      19.248   0.010  13.442  0.00  0.00    -0.040 A 
ATOM      2  C10 ZIN A   1      17.954   0.090  12.960  0.00  0.00     0.010 A 
ATOM      3  C11 ZIN A   1      17.423  -0.949  12.224  0.00  0.00     0.013 A 
ATOM      4  C12 ZIN A   1      18.195  -2.082  11.966  0.00  0.00    -0.025 A 
ATOM      5  C24 ZIN A   1      19.496  -2.160  12.460  0.00  0.00     0.013 A 
ATOM      6  C25 ZIN A   1      20.018  -1.111  13.191  0.00  0.00     0.010 A 
ENDROOT
BRANCH   1   7
ATOM      7  C8  ZIN A   1      19.821   1.149  14.246  0.00  0.00     0.165 C 
BRANCH   7   8
ATOM      8  N7  ZIN A   1      18.729   1.943  14.815  0.00  0.00    -0.333 N 
ATOM      9  C5  ZIN A   1      18.240   2.999  14.136  0.00  0.00     0.220 C 
ATOM     10  O6  ZIN A   1      17.399   3.710  14.643  0.00  0.00    -0.273 OA
BRANCH   9  11
ATOM     11  C4  ZIN A   1      18.738   3.297  12.745  0.00  0.00     0.103 C 
BRANCH  11  12
ATOM     12  C3  ZIN A   1      17.547   3.560  11.822  0.00  0.00     0.009 C 
BRANCH  12  13
ATOM     13  C2  ZIN A   1      17.867   3.044  10.417  0.00  0.00    -0.004 C 
ATOM     14  C1  ZIN A   1      19.278   2.451  10.400  0.00  0.00     0.005 C 
ENDBRANCH  12  13
ENDBRANCH  11  12
ENDBRANCH   9  11
BRANCH   8  15
ATOM     15  C26 ZIN A   1      18.170   1.589  16.121  0.00  0.00     0.191 C 
BRANCH  15  16
ATOM     16  C28 ZIN A   1      18.691   2.541  17.167  0.00  0.00     0.197 C 
ATOM     17  O29 ZIN A   1      17.961   2.917  18.068  0.00  0.00    -0.646 OA
ATOM     18  O30 ZIN A   1      19.843   2.937  17.110  0.00  0.00    -0.646 OA
ENDBRANCH  15  16
BRANCH  15  19
ATOM     19  C31 ZIN A   1      18.581   0.161  16.481  0.00  0.00     0.011 C 
ATOM     20  C32 ZIN A   1      19.260   0.156  17.853  0.00  0.00     0.012 C 
ATOM     21  C33 ZIN A   1      17.340  -0.733  16.523  0.00  0.00     0.012 C 
ENDBRANCH  15  19
ENDBRANCH   8  15
ENDBRANCH   7   8
ENDBRANCH   1   7
BRANCH   4  22
ATOM     22  C13 ZIN A   1      17.630  -3.202  11.177  0.00  0.00    -0.012 A 
ATOM     23  C18 ZIN A   1      17.610  -3.137   9.773  0.00  0.00     0.026 A 
ATOM     24  C17 ZIN A   1      17.072  -4.195   9.043  0.00  0.00     0.016 A 
ATOM     25  C16 ZIN A   1      16.562  -5.297   9.699  0.00  0.00     0.001 A 
ATOM     26  C15 ZIN A   1      16.582  -5.360  11.082  0.00  0.00     0.001 A 
ATOM     27  C14 ZIN A   1      17.112  -4.322  11.821  0.00  0.00     0.013 A 
BRANCH  23  28
ATOM     28  C19 ZIN A   1      18.156  -1.953   9.075  0.00  0.00     0.207 A 
ATOM     29  N23 ZIN A   1      19.437  -1.713   8.792  0.00  0.00    -0.106 NA
ATOM     30  N22 ZIN A   1      19.493  -0.580   8.180  0.00  0.00    -0.021 NA
ATOM     31  N21 ZIN A   1      18.304  -0.099   8.069  0.00  0.00    -0.021 NA
ATOM     32  N20 ZIN A   1      17.462  -0.916   8.601  0.00  0.00    -0.106 NA
ENDBRANCH  23  28
ENDBRANCH   4  22
TORSDOF 10
ENDMDL
MODEL 4
REMARK VINA RESULT:      -8.0      2.702      8.117
REMARK  10 active torsions:
REMARK  status: ('A' for Active; 'I' for Inactive)
REMARK    1  A    between atoms: C2_2  and  C3_3 
REMARK    2  A    between atoms: C3_3  and  C4_4 
REMARK    3  A    between atoms: C4_4  and  C5_5 
REMARK       I    between atoms: C5_5  and  N7_7 
REMARK    4  A    between atoms: N7_7  and  C8_8 
REMARK    5  A    between atoms: N7_7  and  C26_26 
REMARK    6  A    between atoms: C8_8  and  C9_9 
REMARK    7  A    between atoms: C12_12  and  C13_13 
REMARK    8  A    between atoms: C18_18  and  C19_19 
REMARK    9  A    between atoms: C26_26  and  C28_27 
REMARK   10  A    between atoms: C26_26  and  C31_30 
ROOT
ATOM      1  C9  ZIN A   1      19.030  -1.707  10.684  0.00  0.00    -0.040 A 
ATOM      2  C10 ZIN A   1      20.006  -0.731  10.780  0.00  0.00     0.010 A 
ATOM      3  C11 ZIN A   1      19.653   0.576  11.044  0.00  0.00     0.013 A 
ATOM      4  C12 ZIN A   1      18.310   0.913  11.215  0.00  0.00    -0.025 A 
ATOM      5  C24 ZIN A   1      17.333  -0.077  11.123  0.00  0.00     0.013 A 
ATOM      6  C25 ZIN A   1      17.697  -1.380  10.853  0.00  0.00     0.010 A 
ENDROOT
BRANCH   1   7
ATOM      7  C8  ZIN A   1      19.423  -3.134  10.396  0.00  0.00     0.165 C 
BRANCH   7   8
ATOM      8  N7  ZIN A   1      18.553  -3.679   9.351  0.00  0.00    -0.333 N 
ATOM      9  C5  ZIN A   1      18.523  -3.104   8.132  0.00  0.00     0.220 C 
ATOM     10  O6  ZIN A   1      17.739  -3.498   7.296  0.00  0.00    -0.273 OA
BRANCH   9  11
ATOM     11  C4  ZIN A   1      19.463  -1.972   7.809  0.00  0.00     0.103 C 
BRANCH  11  12
ATOM     12  C3  ZIN A   1      18.814  -1.048   6.777  0.00  0.00     0.009 C 
BRANCH  12  13
ATOM     13  C2  ZIN A   1      18.131   0.118   7.496  0.00  0.00    -0.004 C 
ATOM     14  C1  ZIN A   1      19.046   1.345   7.460  0.00  0.00     0.005 C 
ENDBRANCH  12  13
ENDBRANCH  11  12
ENDBRANCH   9  11
BRANCH   8  15
ATOM     15  C26 ZIN A   1      17.716  -4.848   9.630  0.00  0.00     0.191 C 
BRANCH  15  16
ATOM     16  C28 ZIN A   1      17.319  -4.846  11.084  0.00  0.00     0.197 C 
ATOM     17  O29 ZIN A   1      18.059  -5.335  11.920  0.00  0.00    -0.646 OA
ATOM     18  O30 ZIN A   1      16.255  -4.357  11.424  0.00  0.00    -0.646 OA
ENDBRANCH  15  16
BRANCH  15  19
ATOM     19  C31 ZIN A   1      18.502  -6.123   9.318  0.00  0.00     0.011 C 
ATOM     20  C32 ZIN A   1      17.833  -6.863   8.158  0.00  0.00     0.012 C 
ATOM     21  C33 ZIN A   1      19.936  -5.757   8.931  0.00  0.00     0.012 C 
ENDBRANCH  15  19
ENDBRANCH   8  15
ENDBRANCH   7   8
ENDBRANCH   1   7
BRANCH   4  22
ATOM     22  C13 ZIN A   1      17.925   2.315  11.500  0.00  0.00    -0.012 A 
ATOM     23  C18 ZIN A   1      17.848   2.770  12.827  0.00  0.00     0.026 A 
ATOM     24  C17 ZIN A   1      17.480   4.090  13.083  0.00  0.00     0.016 A 
ATOM     25  C16 ZIN A   1      17.194   4.941  12.034  0.00  0.00     0.001 A 
ATOM     26  C15 ZIN A   1      17.271   4.492  10.727  0.00  0.00     0.001 A 
ATOM     27  C14 ZIN A   1      17.633   3.188  10.456  0.00  0.00     0.013 A 
BRANCH  23  28
ATOM     28  C19 ZIN A   1      18.153   1.854  13.947  0.00  0.00     0.207 A 
ATOM     29  N23 ZIN A   1      17.312   1.001  14.534  0.00  0.00    -0.106 NA
ATOM     30  N22 ZIN A   1      17.965   0.390  15.463  0.00  0.00    -0.021 NA
ATOM     31  N21 ZIN A   1      19.176   0.822  15.485  0.00  0.00    -0.021 NA
ATOM     32  N20 ZIN A   1      19.327   1.715  14.568  0.00  0.00    -0.106 NA
ENDBRANCH  23  28
ENDBRANCH   4  22
TORSDOF 10
ENDMDL
MODEL 5
REMARK VINA RESULT:      -8.0      3.389      7.673
REMARK  10 active torsions:
REMARK  status: ('A' for Active; 'I' for Inactive)
REMARK    1  A    between atoms: C2_2  and  C3_3 
REMARK    2  A    between atoms: C3_3  and  C4_4 
REMARK    3  A    between atoms: C4_4  and  C5_5 
REMARK       I    between atoms: C5_5  and  N7_7 
REMARK    4  A    between atoms: N7_7  and  C8_8 
REMARK    5  A    between atoms: N7_7  and  C26_26 
REMARK    6  A    between atoms: C8_8  and  C9_9 
REMARK    7  A    between atoms: C12_12  and  C13_13 
REMARK    8  A    between atoms: C18_18  and  C19_19 
REMARK    9  A    between atoms: C26_26  and  C28_27 
REMARK   10  A    between atoms: C26_26  and  C31_30 
ROOT
ATOM      1  C9  ZIN A   1      19.204  -0.284   9.058  0.00  0.00    -0.040 A 
ATOM      2  C10 ZIN A   1      19.957   0.876   9.106  0.00  0.00     0.010 A 
ATOM      3  C11 ZIN A   1      19.475   1.987   9.766  0.00  0.00     0.013 A 
ATOM      4  C12 ZIN A   1      18.226   1.940  10.385  0.00  0.00    -0.025 A 
ATOM      5  C24 ZIN A   1      17.475   0.767  10.338  0.00  0.00     0.013 A 
ATOM      6  C25 ZIN A   1      17.965  -0.337   9.670  0.00  0.00     0.010 A 
ENDROOT
BRANCH   1   7
ATOM      7  C8  ZIN A   1      19.737  -1.495   8.335  0.00  0.00     0.165 C 
BRANCH   7   8
ATOM      8  N7  ZIN A   1      18.619  -2.332   7.892  0.00  0.00    -0.333 N 
ATOM      9  C5  ZIN A   1      18.186  -3.343   8.670  0.00  0.00     0.220 C 
ATOM     10  O6  ZIN A   1      17.321  -4.091   8.266  0.00  0.00    -0.273 OA
BRANCH   9  11
ATOM     11  C4  ZIN A   1      18.776  -3.546  10.041  0.00  0.00     0.103 C 
BRANCH  11  12
ATOM     12  C3  ZIN A   1      17.654  -3.577  11.080  0.00  0.00     0.009 C 
BRANCH  12  13
ATOM     13  C2  ZIN A   1      18.096  -2.816  12.332  0.00  0.00    -0.004 C 
ATOM     14  C1  ZIN A   1      19.576  -2.443  12.206  0.00  0.00     0.005 C 
ENDBRANCH  12  13
ENDBRANCH  11  12
ENDBRANCH   9  11
BRANCH   8  15
ATOM     15  C26 ZIN A   1      17.972  -2.068   6.605  0.00  0.00     0.191 C 
BRANCH  15  16
ATOM     16  C28 ZIN A   1      18.520  -3.010   5.564  0.00  0.00     0.197 C 
ATOM     17  O29 ZIN A   1      19.704  -3.298   5.564  0.00  0.00    -0.646 OA
ATOM     18  O30 ZIN A   1      17.778  -3.484   4.721  0.00  0.00    -0.646 OA
ENDBRANCH  15  16
BRANCH  15  19
ATOM     19  C31 ZIN A   1      18.249  -0.624   6.182  0.00  0.00     0.011 C 
ATOM     20  C32 ZIN A   1      18.875  -0.613   4.785  0.00  0.00     0.012 C 
ATOM     21  C33 ZIN A   1      16.938   0.163   6.161  0.00  0.00     0.012 C 
ENDBRANCH  15  19
ENDBRANCH   8  15
ENDBRANCH   7   8
ENDBRANCH   1   7
BRANCH   4  22
ATOM     22  C13 ZIN A   1      17.704   3.130  11.097  0.00  0.00    -0.012 A 
ATOM     23  C18 ZIN A   1      17.701   3.168  12.501  0.00  0.00     0.026 A 
ATOM     24  C17 ZIN A   1      17.202   4.291  13.159  0.00  0.00     0.016 A 
ATOM     25  C16 ZIN A   1      16.715   5.357  12.430  0.00  0.00     0.001 A 
ATOM     26  C15 ZIN A   1      16.718   5.319  11.046  0.00  0.00     0.001 A 
ATOM     27  C14 ZIN A   1      17.208   4.214  10.378  0.00  0.00     0.013 A 
BRANCH  23  28
ATOM     28  C19 ZIN A   1      18.223   2.023  13.278  0.00  0.00     0.207 A 
ATOM     29  N23 ZIN A   1      19.504   1.710  13.476  0.00  0.00    -0.106 NA
ATOM     30  N22 ZIN A   1      19.535   0.646  14.204  0.00  0.00    -0.021 NA
ATOM     31  N21 ZIN A   1      18.331   0.278  14.469  0.00  0.00    -0.021 NA
ATOM     32  N20 ZIN A   1      17.504   1.101  13.922  0.00  0.00    -0.106 NA
ENDBRANCH  23  28
ENDBRANCH   4  22
TORSDOF 10
ENDMDL
MODEL 6
REMARK VINA RESULT:      -7.9      3.236      7.373
REMARK  10 active torsions:
REMARK  status: ('A' for Active; 'I' for Inactive)
REMARK    1  A    between atoms: C2_2  and  C3_3 
REMARK    2  A    between atoms: C3_3  and  C4_4 
REMARK    3  A    between atoms: C4_4  and  C5_5 
REMARK       I    between atoms: C5_5  and  N7_7 
REMARK    4  A    between atoms: N7_7  and  C8_8 
REMARK    5  A    between atoms: N7_7  and  C26_26 
REMARK    6  A    between atoms: C8_8  and  C9_9 
REMARK    7  A    between atoms: C12_12  and  C13_13 
REMARK    8  A    between atoms: C18_18  and  C19_19 
REMARK    9  A    between atoms: C26_26  and  C28_27 
REMARK   10  A    between atoms: C26_26  and  C31_30 
ROOT
ATOM      1  C9  ZIN A   1      19.401  -1.354   9.030  0.00  0.00    -0.040 A 
ATOM      2  C10 ZIN A   1      18.070  -1.306   9.406  0.00  0.00     0.010 A 
ATOM      3  C11 ZIN A   1      17.727  -0.981  10.701  0.00  0.00     0.013 A 
ATOM      4  C12 ZIN A   1      18.726  -0.700  11.634  0.00  0.00    -0.025 A 
ATOM      5  C24 ZIN A   1      20.064  -0.744  11.249  0.00  0.00     0.013 A 
ATOM      6  C25 ZIN A   1      20.396  -1.076   9.950  0.00  0.00     0.010 A 
ENDROOT
BRANCH   1   7
ATOM      7  C8  ZIN A   1      19.768  -1.709   7.612  0.00  0.00     0.165 C 
BRANCH   7   8
ATOM      8  N7  ZIN A   1      18.738  -2.582   7.045  0.00  0.00    -0.333 N 
ATOM      9  C5  ZIN A   1      18.601  -3.844   7.496  0.00  0.00     0.220 C 
ATOM     10  O6  ZIN A   1      17.809  -4.595   6.967  0.00  0.00    -0.273 OA
BRANCH   9  11
ATOM     11  C4  ZIN A   1      19.431  -4.323   8.659  0.00  0.00     0.103 C 
BRANCH  11  12
ATOM     12  C3  ZIN A   1      18.538  -5.074   9.648  0.00  0.00     0.009 C 
BRANCH  12  13
ATOM     13  C2  ZIN A   1      18.901  -4.664  11.077  0.00  0.00    -0.004 C 
ATOM     14  C1  ZIN A   1      17.621  -4.429  11.881  0.00  0.00     0.005 C 
ENDBRANCH  12  13
ENDBRANCH  11  12
ENDBRANCH   9  11
BRANCH   8  15
ATOM     15  C26 ZIN A   1      17.857  -2.083   5.987  0.00  0.00     0.191 C 
BRANCH  15  16
ATOM     16  C28 ZIN A   1      18.211  -2.747   4.681  0.00  0.00     0.197 C 
ATOM     17  O29 ZIN A   1      17.328  -3.128   3.931  0.00  0.00    -0.646 OA
ATOM     18  O30 ZIN A   1      19.380  -2.906   4.376  0.00  0.00    -0.646 OA
ENDBRANCH  15  16
BRANCH  15  19
ATOM     19  C31 ZIN A   1      18.030  -0.569   5.852  0.00  0.00     0.011 C 
ATOM     20  C32 ZIN A   1      18.354  -0.220   4.397  0.00  0.00     0.012 C 
ATOM     21  C33 ZIN A   1      16.736   0.132   6.269  0.00  0.00     0.012 C 
ENDBRANCH  15  19
ENDBRANCH   8  15
ENDBRANCH   7   8
ENDBRANCH   1   7
BRANCH   4  22
ATOM     22  C13 ZIN A   1      18.364  -0.350  13.028  0.00  0.00    -0.012 A 
ATOM     23  C18 ZIN A   1      18.040   0.977  13.361  0.00  0.00     0.026 A 
ATOM     24  C17 ZIN A   1      17.706   1.295  14.676  0.00  0.00     0.016 A 
ATOM     25  C16 ZIN A   1      17.695   0.309  15.642  0.00  0.00     0.001 A 
ATOM     26  C15 ZIN A   1      18.015  -0.997  15.313  0.00  0.00     0.001 A 
ATOM     27  C14 ZIN A   1      18.348  -1.330  14.016  0.00  0.00     0.013 A 
BRANCH  23  28
ATOM     28  C19 ZIN A   1      18.054   2.030  12.322  0.00  0.00     0.207 A 
ATOM     29  N23 ZIN A   1      19.073   2.834  12.014  0.00  0.00    -0.106 NA
ATOM     30  N22 ZIN A   1      18.682   3.606  11.059  0.00  0.00    -0.021 NA
ATOM     31  N21 ZIN A   1      17.464   3.323  10.756  0.00  0.00    -0.021 NA
ATOM     32  N20 ZIN A   1      17.051   2.360  11.506  0.00  0.00    -0.106 NA
ENDBRANCH  23  28
ENDBRANCH   4  22
TORSDOF 10
ENDMDL
MODEL 7
REMARK VINA RESULT:      -7.8      2.808      7.458
REMARK  10 active torsions:
REMARK  status: ('A' for Active; 'I' for Inactive)
REMARK    1  A    between atoms: C2_2  and  C3_3 
REMARK    2  A    between atoms: C3_3  and  C4_4 
REMARK    3  A    between atoms: C4_4  and  C5_5 
REMARK       I    between atoms: C5_5  and  N7_7 
REMARK    4  A    between atoms: N7_7  and  C8_8 
REMARK    5  A    between atoms: N7_7  and  C26_26 
REMARK    6  A    between atoms: C8_8  and  C9_9 
REMARK    7  A    between atoms: C12_12  and  C13_13 
REMARK    8  A    between atoms: C18_18  and  C19_19 
REMARK    9  A    between atoms: C26_26  and  C28_27 
REMARK   10  A    between atoms: C26_26  and  C31_30 
ROOT
ATOM      1  C9  ZIN A   1      17.339  -1.094  10.699  0.00  0.00    -0.040 A 
ATOM      2  C10 ZIN A   1      18.290  -1.864  11.346  0.00  0.00     0.010 A 
ATOM      3  C11 ZIN A   1      18.610  -1.606  12.663  0.00  0.00     0.013 A 
ATOM      4  C12 ZIN A   1      17.973  -0.567  13.342  0.00  0.00    -0.025 A 
ATOM      5  C24 ZIN A   1      17.012   0.201  12.686  0.00  0.00     0.013 A 
ATOM      6  C25 ZIN A   1      16.704  -0.063  11.367  0.00  0.00     0.010 A 
ENDROOT
BRANCH   1   7
ATOM      7  C8  ZIN A   1      16.994  -1.382   9.260  0.00  0.00     0.165 C 
BRANCH   7   8
ATOM      8  N7  ZIN A   1      18.220  -1.665   8.510  0.00  0.00    -0.333 N 
ATOM      9  C5  ZIN A   1      18.574  -2.940   8.255  0.00  0.00     0.220 C 
ATOM     10  O6  ZIN A   1      19.632  -3.178   7.713  0.00  0.00    -0.273 OA
BRANCH   9  11
ATOM     11  C4  ZIN A   1      17.654  -4.069   8.641  0.00  0.00     0.103 C 
BRANCH  11  12
ATOM     12  C3  ZIN A   1      18.259  -4.840   9.816  0.00  0.00     0.009 C 
BRANCH  12  13
ATOM     13  C2  ZIN A   1      17.136  -5.442  10.664  0.00  0.00    -0.004 C 
ATOM     14  C1  ZIN A   1      17.561  -5.462  12.134  0.00  0.00     0.005 C 
ENDBRANCH  12  13
ENDBRANCH  11  12
ENDBRANCH   9  11
BRANCH   8  15
ATOM     15  C26 ZIN A   1      19.061  -0.563   8.039  0.00  0.00     0.191 C 
BRANCH  15  16
ATOM     16  C28 ZIN A   1      19.786   0.054   9.208  0.00  0.00     0.197 C 
ATOM     17  O29 ZIN A   1      19.437   1.140   9.638  0.00  0.00    -0.646 OA
ATOM     18  O30 ZIN A   1      20.722  -0.533   9.723  0.00  0.00    -0.646 OA
ENDBRANCH  15  16
BRANCH  15  19
ATOM     19  C31 ZIN A   1      18.185   0.495   7.367  0.00  0.00     0.011 C 
ATOM     20  C32 ZIN A   1      19.070   1.477   6.595  0.00  0.00     0.012 C 
ATOM     21  C33 ZIN A   1      17.213  -0.185   6.400  0.00  0.00     0.012 C 
ENDBRANCH  15  19
ENDBRANCH   8  15
ENDBRANCH   7   8
ENDBRANCH   1   7
BRANCH   4  22
ATOM     22  C13 ZIN A   1      18.312  -0.286  14.757  0.00  0.00    -0.012 A 
ATOM     23  C18 ZIN A   1      18.696   1.008  15.148  0.00  0.00     0.026 A 
ATOM     24  C17 ZIN A   1      19.017   1.258  16.481  0.00  0.00     0.016 A 
ATOM     25  C16 ZIN A   1      18.956   0.237  17.407  0.00  0.00     0.001 A 
ATOM     26  C15 ZIN A   1      18.578  -1.038  17.021  0.00  0.00     0.001 A 
ATOM     27  C14 ZIN A   1      18.257  -1.303  15.706  0.00  0.00     0.013 A 
BRANCH  23  28
ATOM     28  C19 ZIN A   1      18.760   2.098  14.150  0.00  0.00     0.207 A 
ATOM     29  N23 ZIN A   1      19.606   2.191  13.123  0.00  0.00    -0.106 NA
ATOM     30  N22 ZIN A   1      19.336   3.286  12.497  0.00  0.00    -0.021 NA
ATOM     31  N21 ZIN A   1      18.361   3.882  13.088  0.00  0.00    -0.021 NA
ATOM     32  N20 ZIN A   1      17.982   3.181  14.100  0.00  0.00    -0.106 NA
ENDBRANCH  23  28
ENDBRANCH   4  22
TORSDOF 10
ENDMDL
MODEL 8
REMARK VINA RESULT:      -7.7      3.072      5.422
REMARK  10 active torsions:
REMARK  status: ('A' for Active; 'I' for Inactive)
REMARK    1  A    between atoms: C2_2  and  C3_3 
REMARK    2  A    between atoms: C3_3  and  C4_4 
REMARK    3  A    between atoms: C4_4  and  C5_5 
REMARK       I    between atoms: C5_5  and  N7_7 
REMARK    4  A    between atoms: N7_7  and  C8_8 
REMARK    5  A    between atoms: N7_7  and  C26_26 
REMARK    6  A    between atoms: C8_8  and  C9_9 
REMARK    7  A    between atoms: C12_12  and  C13_13 
REMARK    8  A    between atoms: C18_18  and  C19_19 
REMARK    9  A    between atoms: C26_26  and  C28_27 
REMARK   10  A    between atoms: C26_26  and  C31_30 
ROOT
ATOM      1  C9  ZIN A   1      17.531   0.248  12.579  0.00  0.00    -0.040 A 
ATOM      2  C10 ZIN A   1      18.862   0.162  12.211  0.00  0.00     0.010 A 
ATOM      3  C11 ZIN A   1      19.205   0.019  10.882  0.00  0.00     0.013 A 
ATOM      4  C12 ZIN A   1      18.207  -0.039   9.910  0.00  0.00    -0.025 A 
ATOM      5  C24 ZIN A   1      16.869   0.054  10.286  0.00  0.00     0.013 A 
ATOM      6  C25 ZIN A   1      16.537   0.191  11.619  0.00  0.00     0.010 A 
ENDROOT
BRANCH   1   7
ATOM      7  C8  ZIN A   1      17.164   0.405  14.032  0.00  0.00     0.165 C 
BRANCH   7   8
ATOM      8  N7  ZIN A   1      18.223   1.140  14.728  0.00  0.00    -0.333 N 
ATOM      9  C5  ZIN A   1      18.412   2.449  14.474  0.00  0.00     0.220 C 
ATOM     10  O6  ZIN A   1      19.343   3.037  14.981  0.00  0.00    -0.273 OA
BRANCH   9  11
ATOM     11  C4  ZIN A   1      17.466   3.185  13.560  0.00  0.00     0.103 C 
BRANCH  11  12
ATOM     12  C3  ZIN A   1      18.261   3.868  12.446  0.00  0.00     0.009 C 
BRANCH  12  13
ATOM     13  C2  ZIN A   1      17.401   3.950  11.182  0.00  0.00    -0.004 C 
ATOM     14  C1  ZIN A   1      18.262   3.630   9.958  0.00  0.00     0.005 C 
ENDBRANCH  12  13
ENDBRANCH  11  12
ENDBRANCH   9  11
BRANCH   8  15
ATOM     15  C26 ZIN A   1      19.076   0.451  15.699  0.00  0.00     0.191 C 
BRANCH  15  16
ATOM     16  C28 ZIN A   1      18.991  -1.037  15.477  0.00  0.00     0.197 C 
ATOM     17  O29 ZIN A   1      19.840  -1.604  14.810  0.00  0.00    -0.646 OA
ATOM     18  O30 ZIN A   1      18.073  -1.674  15.963  0.00  0.00    -0.646 OA
ENDBRANCH  15  16
BRANCH  15  19
ATOM     19  C31 ZIN A   1      18.604   0.783  17.116  0.00  0.00     0.011 C 
ATOM     20  C32 ZIN A   1      17.158   0.317  17.294  0.00  0.00     0.012 C 
ATOM     21  C33 ZIN A   1      19.500   0.070  18.132  0.00  0.00     0.012 C 
ENDBRANCH  15  19
ENDBRANCH   8  15
ENDBRANCH   7   8
ENDBRANCH   1   7
BRANCH   4  22
ATOM     22  C13 ZIN A   1      18.570  -0.192   8.481  0.00  0.00    -0.012 A 
ATOM     23  C18 ZIN A   1      18.739  -1.473   7.928  0.00  0.00     0.026 A 
ATOM     24  C17 ZIN A   1      19.084  -1.603   6.584  0.00  0.00     0.016 A 
ATOM     25  C16 ZIN A   1      19.259  -0.477   5.805  0.00  0.00     0.001 A 
ATOM     26  C15 ZIN A   1      19.093   0.784   6.351  0.00  0.00     0.001 A 
ATOM     27  C14 ZIN A   1      18.750   0.932   7.680  0.00  0.00     0.013 A 
BRANCH  23  28
ATOM     28  C19 ZIN A   1      18.551  -2.676   8.767  0.00  0.00     0.207 A 
ATOM     29  N23 ZIN A   1      19.480  -3.290   9.502  0.00  0.00    -0.106 NA
ATOM     30  N22 ZIN A   1      18.916  -4.295  10.080  0.00  0.00    -0.021 NA
ATOM     31  N21 ZIN A   1      17.676  -4.338   9.740  0.00  0.00    -0.021 NA
ATOM     32  N20 ZIN A   1      17.418  -3.360   8.942  0.00  0.00    -0.106 NA
ENDBRANCH  23  28
ENDBRANCH   4  22
TORSDOF 10
ENDMDL
MODEL 9
REMARK VINA RESULT:      -7.7      2.973      7.742
REMARK  10 active torsions:
REMARK  status: ('A' for Active; 'I' for Inactive)
REMARK    1  A    between atoms: C2_2  and  C3_3 
REMARK    2  A    between atoms: C3_3  and  C4_4 
REMARK    3  A    between atoms: C4_4  and  C5_5 
REMARK       I    between atoms: C5_5  and  N7_7 
REMARK    4  A    between atoms: N7_7  and  C8_8 
REMARK    5  A    between atoms: N7_7  and  C26_26 
REMARK    6  A    between atoms: C8_8  and  C9_9 
REMARK    7  A    between atoms: C12_12  and  C13_13 
REMARK    8  A    between atoms: C18_18  and  C19_19 
REMARK    9  A    between atoms: C26_26  and  C28_27 
REMARK   10  A    between atoms: C26_26  and  C31_30 
ROOT
ATOM      1  C9  ZIN A   1      19.821  -0.718  11.681  0.00  0.00    -0.040 A 
ATOM      2  C10 ZIN A   1      18.724  -1.308  12.284  0.00  0.00     0.010 A 
ATOM      3  C11 ZIN A   1      18.422  -1.027  13.600  0.00  0.00     0.013 A 
ATOM      4  C12 ZIN A   1      19.225  -0.145  14.323  0.00  0.00    -0.025 A 
ATOM      5  C24 ZIN A   1      20.326   0.450  13.709  0.00  0.00     0.013 A 
ATOM      6  C25 ZIN A   1      20.621   0.157  12.393  0.00  0.00     0.010 A 
ENDROOT
BRANCH   1   7
ATOM      7  C8  ZIN A   1      20.145  -1.030  10.242  0.00  0.00     0.165 C 
BRANCH   7   8
ATOM      8  N7  ZIN A   1      18.906  -1.309   9.512  0.00  0.00    -0.333 N 
ATOM      9  C5  ZIN A   1      18.503  -2.581   9.330  0.00  0.00     0.220 C 
ATOM     10  O6  ZIN A   1      17.527  -2.817   8.650  0.00  0.00    -0.273 OA
BRANCH   9  11
ATOM     11  C4  ZIN A   1      19.266  -3.713   9.971  0.00  0.00     0.103 C 
BRANCH  11  12
ATOM     12  C3  ZIN A   1      18.463  -5.008   9.839  0.00  0.00     0.009 C 
BRANCH  12  13
ATOM     13  C2  ZIN A   1      17.974  -5.448  11.221  0.00  0.00    -0.004 C 
ATOM     14  C1  ZIN A   1      16.647  -4.754  11.537  0.00  0.00     0.005 C 
ENDBRANCH  12  13
ENDBRANCH  11  12
ENDBRANCH   9  11
BRANCH   8  15
ATOM     15  C26 ZIN A   1      18.106  -0.204   8.980  0.00  0.00     0.191 C 
BRANCH  15  16
ATOM     16  C28 ZIN A   1      18.120  -0.251   7.474  0.00  0.00     0.197 C 
ATOM     17  O29 ZIN A   1      17.100  -0.025   6.846  0.00  0.00    -0.646 OA
ATOM     18  O30 ZIN A   1      19.153  -0.517   6.883  0.00  0.00    -0.646 OA
ENDBRANCH  15  16
BRANCH  15  19
ATOM     19  C31 ZIN A   1      18.694   1.126   9.455  0.00  0.00     0.011 C 
ATOM     20  C32 ZIN A   1      19.063   1.983   8.241  0.00  0.00     0.012 C 
ATOM     21  C33 ZIN A   1      17.662   1.866  10.308  0.00  0.00     0.012 C 
ENDBRANCH  15  19
ENDBRANCH   8  15
ENDBRANCH   7   8
ENDBRANCH   1   7
BRANCH   4  22
ATOM     22  C13 ZIN A   1      18.905   0.162  15.737  0.00  0.00    -0.012 A 
ATOM     23  C18 ZIN A   1      18.531   1.464  16.110  0.00  0.00     0.026 A 
ATOM     24  C17 ZIN A   1      18.237   1.741  17.444  0.00  0.00     0.016 A 
ATOM     25  C16 ZIN A   1      18.315   0.739  18.389  0.00  0.00     0.001 A 
ATOM     26  C15 ZIN A   1      18.685  -0.543  18.022  0.00  0.00     0.001 A 
ATOM     27  C14 ZIN A   1      18.979  -0.836  16.705  0.00  0.00     0.013 A 
BRANCH  23  28
ATOM     28  C19 ZIN A   1      18.450   2.535  15.093  0.00  0.00     0.207 A 
ATOM     29  N23 ZIN A   1      19.221   3.620  15.012  0.00  0.00    -0.106 NA
ATOM     30  N22 ZIN A   1      18.829   4.299  13.988  0.00  0.00    -0.021 NA
ATOM     31  N21 ZIN A   1      17.847   3.688  13.425  0.00  0.00    -0.021 NA
ATOM     32  N20 ZIN A   1      17.592   2.603  14.072  0.00  0.00    -0.106 NA
ENDBRANCH  23  28
ENDBRANCH   4  22
TORSDOF 10
ENDMDL
