MODEL 1
REMARK VINA RESULT:      -8.8      0.000      0.000
REMARK  11 active torsions:
REMARK  status: ('A' for Active; 'I' for Inactive)
REMARK    1  A    between atoms: C2_2  and  C3_3 
REMARK    2  A    between atoms: C3_3  and  N6_5 
REMARK    3  A    between atoms: N9_8  and  C10_9 
REMARK    4  A    between atoms: C13_12  and  N14_13 
REMARK    5  A    between atoms: N17_16  and  C18_17 
REMARK    6  A    between atoms: C21_20  and  O22_21 
REMARK    7  A    between atoms: O22_21  and  C23_22 
REMARK    8  A    between atoms: C23_22  and  C24_23 
REMARK    9  A    between atoms: C28_26  and  C29_27 
REMARK   10  A    between atoms: C28_26  and  C35_33 
REMARK   11  A    between atoms: C29_27  and  N30_28 
ROOT
ATOM      1  C18 ZIN A   1      18.664  -0.871   7.457  0.00  0.00     0.010 A 
ATOM      2  C19 ZIN A   1      19.362  -2.068   7.557  0.00  0.00     0.026 A 
ATOM      3  C20 ZIN A   1      19.323  -2.978   6.521  0.00  0.00     0.038 A 
ATOM      4  C21 ZIN A   1      18.588  -2.698   5.378  0.00  0.00     0.069 A 
ATOM      5  C44 ZIN A   1      17.891  -1.504   5.277  0.00  0.00     0.038 A 
ATOM      6  C45 ZIN A   1      17.924  -0.594   6.315  0.00  0.00     0.026 A 
ENDROOT
BRANCH   1   7
ATOM      7  N17 ZIN A   1      18.702   0.052   8.508  0.00  0.00    -0.281 NA
ATOM      8  C16 ZIN A   1      17.458   0.010   9.290  0.00  0.00     0.110 C 
ATOM      9  C15 ZIN A   1      17.570   0.973  10.473  0.00  0.00     0.110 C 
ATOM     10  N14 ZIN A   1      17.830   2.331   9.974  0.00  0.00    -0.281 NA
ATOM     11  C47 ZIN A   1      19.073   2.373   9.192  0.00  0.00     0.110 C 
ATOM     12  C46 ZIN A   1      18.961   1.409   8.008  0.00  0.00     0.110 C 
BRANCH  10  13
ATOM     13  C13 ZIN A   1      17.867   3.254  11.025  0.00  0.00     0.010 A 
ATOM     14  C12 ZIN A   1      18.615   2.980  12.163  0.00  0.00     0.026 A 
ATOM     15  C11 ZIN A   1      18.652   3.890  13.199  0.00  0.00     0.032 A 
ATOM     16  C10 ZIN A   1      17.941   5.079  13.105  0.00  0.00     0.045 A 
ATOM     17  C49 ZIN A   1      17.191   5.351  11.969  0.00  0.00     0.032 A 
ATOM     18  C48 ZIN A   1      17.157   4.443  10.929  0.00  0.00     0.026 A 
BRANCH  16  19
ATOM     19  N9  ZIN A   1      17.979   6.005  14.159  0.00  0.00    -0.256 N 
ATOM     20  C8  ZIN A   1      19.113   6.480  14.774  0.00  0.00     0.242 A 
ATOM     21  N7  ZIN A   1      18.768   7.316  15.699  0.00  0.00    -0.163 NA
ATOM     22  N6  ZIN A   1      17.369   7.407  15.705  0.00  0.00    -0.214 N 
ATOM     23  C50 ZIN A   1      16.909   6.579  14.745  0.00  0.00     0.351 A 
ATOM     24  O51 ZIN A   1      15.740   6.390  14.454  0.00  0.00    -0.244 OA
BRANCH  22  25
ATOM     25  C3  ZIN A   1      16.557   8.241  16.595  0.00  0.00     0.111 C 
ATOM     26  C5  ZIN A   1      15.610   7.352  17.404  0.00  0.00     0.034 C 
BRANCH  25  27
ATOM     27  C2  ZIN A   1      15.741   9.231  15.763  0.00  0.00     0.022 C 
ATOM     28  C1  ZIN A   1      14.258   9.095  16.117  0.00  0.00     0.007 C 
ENDBRANCH  25  27
ENDBRANCH  22  25
ENDBRANCH  16  19
ENDBRANCH  10  13
ENDBRANCH   1   7
BRANCH   4  29
ATOM     29  O22 ZIN A   1      18.552  -3.596   4.356  0.00  0.00    -0.349 OA
BRANCH  29  30
ATOM     30  C23 ZIN A   1      17.315  -3.727   3.653  0.00  0.00     0.209 C 
BRANCH  30  31
ATOM     31  C24 ZIN A   1      16.661  -5.062   4.017  0.00  0.00     0.173 C 
ATOM     32  O43 ZIN A   1      16.475  -5.167   5.443  0.00  0.00    -0.340 OA
ATOM     33  C28 ZIN A   1      16.795  -6.517   5.814  0.00  0.00     0.213 C 
ATOM     34  O27 ZIN A   1      17.154  -7.250   4.630  0.00  0.00    -0.347 OA
ATOM     35  C26 ZIN A   1      17.611  -6.242   3.695  0.00  0.00     0.206 C 
BRANCH  33  36
ATOM     36  C29 ZIN A   1      17.968  -6.519   6.795  0.00  0.00     0.226 C 
BRANCH  36  37
ATOM     37  N30 ZIN A   1      17.516  -6.025   8.099  0.00  0.00    -0.257 N 
ATOM     38  N34 ZIN A   1      17.139  -4.710   8.416  0.00  0.00    -0.165 NA
ATOM     39  C33 ZIN A   1      16.803  -4.708   9.679  0.00  0.00     0.256 A 
ATOM     40  N32 ZIN A   1      16.956  -5.937  10.169  0.00  0.00    -0.234 NA
ATOM     41  C31 ZIN A   1      17.383  -6.740   9.229  0.00  0.00     0.230 A 
ENDBRANCH  36  37
ENDBRANCH  33  36
BRANCH  33  42
ATOM     42  C35 ZIN A   1      15.593  -7.156   6.459  0.00  0.00     0.027 A 
ATOM     43  C41 ZIN A   1      15.612  -8.503   6.777  0.00  0.00     0.047 A 
ATOM     44  C40 ZIN A   1      14.510  -9.087   7.375  0.00  0.00     0.048 A 
ATOM     45 Cl42 ZIN A   1      17.024  -9.454   6.440  0.00  0.00    -0.084 Cl
ATOM     46  C38 ZIN A   1      13.385  -8.328   7.643  0.00  0.00     0.035 A 
ATOM     47  C37 ZIN A   1      13.364  -6.983   7.318  0.00  0.00     0.024 A 
ATOM     48 Cl39 ZIN A   1      11.999  -9.062   8.385  0.00  0.00    -0.084 Cl
ATOM     49  C36 ZIN A   1      14.468  -6.398   6.726  0.00  0.00     0.016 A 
ENDBRANCH  33  42
ENDBRANCH  30  31
ENDBRANCH  29  30
ENDBRANCH   4  29
TORSDOF 11
ENDMDL
MODEL 2
REMARK VINA RESULT:      -8.7      4.558     13.995
REMARK  11 active torsions:
REMARK  status: ('A' for Active; 'I' for Inactive)
REMARK    1  A    between atoms: C2_2  and  C3_3 
REMARK    2  A    between atoms: C3_3  and  N6_5 
REMARK    3  A    between atoms: N9_8  and  C10_9 
REMARK    4  A    between atoms: C13_12  and  N14_13 
REMARK    5  A    between atoms: N17_16  and  C18_17 
REMARK    6  A    between atoms: C21_20  and  O22_21 
REMARK    7  A    between atoms: O22_21  and  C23_22 
REMARK    8  A    between atoms: C23_22  and  C24_23 
REMARK    9  A    between atoms: C28_26  and  C29_27 
REMARK   10  A    between atoms: C28_26  and  C35_33 
REMARK   11  A    between atoms: C29_27  and  N30_28 
ROOT
ATOM      1  C18 ZIN A   1      16.282   5.945  13.702  0.00  0.00     0.010 A 
ATOM      2  C19 ZIN A   1      17.267   6.885  13.972  0.00  0.00     0.026 A 
ATOM      3  C20 ZIN A   1      17.040   7.873  14.909  0.00  0.00     0.038 A 
ATOM      4  C21 ZIN A   1      15.828   7.926  15.582  0.00  0.00     0.069 A 
ATOM      5  C44 ZIN A   1      14.843   6.988  15.313  0.00  0.00     0.038 A 
ATOM      6  C45 ZIN A   1      15.066   6.002  14.372  0.00  0.00     0.026 A 
ENDROOT
BRANCH   1   7
ATOM      7  N17 ZIN A   1      16.510   4.943  12.751  0.00  0.00    -0.281 NA
ATOM      8  C16 ZIN A   1      17.511   3.981  13.232  0.00  0.00     0.110 C 
ATOM      9  C15 ZIN A   1      17.674   2.861  12.200  0.00  0.00     0.110 C 
ATOM     10  N14 ZIN A   1      18.079   3.441  10.911  0.00  0.00    -0.281 NA
ATOM     11  C47 ZIN A   1      17.078   4.404  10.432  0.00  0.00     0.110 C 
ATOM     12  C46 ZIN A   1      16.916   5.523  11.464  0.00  0.00     0.110 C 
BRANCH  10  13
ATOM     13  C13 ZIN A   1      18.308   2.440   9.961  0.00  0.00     0.010 A 
ATOM     14  C12 ZIN A   1      17.544   1.280   9.977  0.00  0.00     0.026 A 
ATOM     15  C11 ZIN A   1      17.770   0.293   9.039  0.00  0.00     0.032 A 
ATOM     16  C10 ZIN A   1      18.760   0.459   8.081  0.00  0.00     0.045 A 
ATOM     17  C49 ZIN A   1      19.526   1.617   8.067  0.00  0.00     0.032 A 
ATOM     18  C48 ZIN A   1      19.298   2.607   9.002  0.00  0.00     0.026 A 
BRANCH  16  19
ATOM     19  N9  ZIN A   1      18.989  -0.545   7.127  0.00  0.00    -0.256 N 
ATOM     20  C8  ZIN A   1      19.238  -0.343   5.790  0.00  0.00     0.242 A 
ATOM     21  N7  ZIN A   1      19.401  -1.492   5.218  0.00  0.00    -0.163 NA
ATOM     22  N6  ZIN A   1      19.261  -2.489   6.193  0.00  0.00    -0.214 N 
ATOM     23  C50 ZIN A   1      19.001  -1.871   7.364  0.00  0.00     0.351 A 
ATOM     24  O51 ZIN A   1      18.817  -2.413   8.440  0.00  0.00    -0.244 OA
BRANCH  22  25
ATOM     25  C3  ZIN A   1      19.370  -3.935   5.979  0.00  0.00     0.111 C 
ATOM     26  C5  ZIN A   1      17.986  -4.575   6.106  0.00  0.00     0.034 C 
BRANCH  25  27
ATOM     27  C2  ZIN A   1      20.309  -4.536   7.026  0.00  0.00     0.022 C 
ATOM     28  C1  ZIN A   1      19.585  -5.655   7.778  0.00  0.00     0.007 C 
ENDBRANCH  25  27
ENDBRANCH  22  25
ENDBRANCH  16  19
ENDBRANCH  10  13
ENDBRANCH   1   7
BRANCH   4  29
ATOM     29  O22 ZIN A   1      15.606   8.899  16.506  0.00  0.00    -0.349 OA
BRANCH  29  30
ATOM     30  C23 ZIN A   1      15.514   8.488  17.872  0.00  0.00     0.209 C 
BRANCH  30  31
ATOM     31  C24 ZIN A   1      16.563   7.409  18.151  0.00  0.00     0.173 C 
ATOM     32  O43 ZIN A   1      15.936   6.124  18.338  0.00  0.00    -0.340 OA
ATOM     33  C28 ZIN A   1      16.624   5.470  19.416  0.00  0.00     0.213 C 
ATOM     34  O27 ZIN A   1      17.680   6.328  19.879  0.00  0.00    -0.347 OA
ATOM     35  C26 ZIN A   1      17.262   7.664  19.510  0.00  0.00     0.206 C 
BRANCH  33  36
ATOM     36  C29 ZIN A   1      15.647   5.193  20.559  0.00  0.00     0.226 C 
BRANCH  36  37
ATOM     37  N30 ZIN A   1      14.414   5.955  20.345  0.00  0.00    -0.257 N 
ATOM     38  N34 ZIN A   1      13.373   5.639  19.456  0.00  0.00    -0.165 NA
ATOM     39  C33 ZIN A   1      12.471   6.575  19.584  0.00  0.00     0.256 A 
ATOM     40  N32 ZIN A   1      12.888   7.459  20.489  0.00  0.00    -0.234 NA
ATOM     41  C31 ZIN A   1      14.055   7.097  20.955  0.00  0.00     0.230 A 
ENDBRANCH  36  37
ENDBRANCH  33  36
BRANCH  33  42
ATOM     42  C35 ZIN A   1      17.207   4.172  18.921  0.00  0.00     0.027 A 
ATOM     43  C41 ZIN A   1      18.146   4.177  17.904  0.00  0.00     0.047 A 
ATOM     44  C40 ZIN A   1      18.685   2.985  17.455  0.00  0.00     0.048 A 
ATOM     45 Cl42 ZIN A   1      18.657   5.680  17.203  0.00  0.00    -0.084 Cl
ATOM     46  C38 ZIN A   1      18.276   1.788  18.014  0.00  0.00     0.035 A 
ATOM     47  C37 ZIN A   1      17.333   1.783  19.026  0.00  0.00     0.024 A 
ATOM     48 Cl39 ZIN A   1      18.946   0.291  17.446  0.00  0.00    -0.084 Cl
ATOM     49  C36 ZIN A   1      16.799   2.974  19.479  0.00  0.00     0.016 A 
ENDBRANCH  33  42
ENDBRANCH  30  31
ENDBRANCH  29  30
ENDBRANCH   4  29
TORSDOF 11
ENDMDL
MODEL 3
REMARK VINA RESULT:      -8.7      4.273     13.830
REMARK  11 active torsions:
REMARK  status: ('A' for Active; 'I' for Inactive)
REMARK    1  A    between atoms: C2_2  and  C3_3 
REMARK    2  A    between atoms: C3_3  and  N6_5 
REMARK    3  A    between atoms: N9_8  and  C10_9 
REMARK    4  A    between atoms: C13_12  and  N14_13 
REMARK    5  A    between atoms: N17_16  and  C18_17 
REMARK    6  A    between atoms: C21_20  and  O22_21 
REMARK    7  A    between atoms: O22_21  and  C23_22 
REMARK    8  A    between atoms: C23_22  and  C24_23 
REMARK    9  A    between atoms: C28_26  and  C29_27 
REMARK   10  A    between atoms: C28_26  and  C35_33 
REMARK   11  A    between atoms: C29_27  and  N30_28 
ROOT
ATOM      1  C18 ZIN A   1      17.824   5.203  13.245  0.00  0.00     0.010 A 
ATOM      2  C19 ZIN A   1      19.006   5.479  13.918  0.00  0.00     0.026 A 
ATOM      3  C20 ZIN A   1      19.114   6.622  14.684  0.00  0.00     0.038 A 
ATOM      4  C21 ZIN A   1      18.042   7.497  14.780  0.00  0.00     0.069 A 
ATOM      5  C44 ZIN A   1      16.861   7.224  14.107  0.00  0.00     0.038 A 
ATOM      6  C45 ZIN A   1      16.752   6.082  13.337  0.00  0.00     0.026 A 
ENDROOT
BRANCH   1   7
ATOM      7  N17 ZIN A   1      17.713   4.044  12.468  0.00  0.00    -0.281 NA
ATOM      8  C16 ZIN A   1      18.105   2.856  13.238  0.00  0.00     0.110 C 
ATOM      9  C15 ZIN A   1      17.894   1.605  12.381  0.00  0.00     0.110 C 
ATOM     10  N14 ZIN A   1      18.689   1.717  11.150  0.00  0.00    -0.281 NA
ATOM     11  C47 ZIN A   1      18.298   2.907  10.381  0.00  0.00     0.110 C 
ATOM     12  C46 ZIN A   1      18.509   4.158  11.238  0.00  0.00     0.110 C 
BRANCH  10  13
ATOM     13  C13 ZIN A   1      18.579   0.559  10.374  0.00  0.00     0.010 A 
ATOM     14  C12 ZIN A   1      17.631   0.490   9.360  0.00  0.00     0.026 A 
ATOM     15  C11 ZIN A   1      17.523  -0.653   8.595  0.00  0.00     0.032 A 
ATOM     16  C10 ZIN A   1      18.360  -1.733   8.837  0.00  0.00     0.045 A 
ATOM     17  C49 ZIN A   1      19.305  -1.666   9.852  0.00  0.00     0.032 A 
ATOM     18  C48 ZIN A   1      19.418  -0.521  10.616  0.00  0.00     0.026 A 
BRANCH  16  19
ATOM     19  N9  ZIN A   1      18.250  -2.895   8.058  0.00  0.00    -0.256 N 
ATOM     20  C8  ZIN A   1      18.798  -3.084   6.811  0.00  0.00     0.242 A 
ATOM     21  N7  ZIN A   1      18.494  -4.271   6.397  0.00  0.00    -0.163 NA
ATOM     22  N6  ZIN A   1      17.725  -4.896   7.388  0.00  0.00    -0.214 N 
ATOM     23  C50 ZIN A   1      17.586  -4.017   8.402  0.00  0.00     0.351 A 
ATOM     24  O51 ZIN A   1      16.978  -4.204   9.441  0.00  0.00    -0.244 OA
BRANCH  22  25
ATOM     25  C3  ZIN A   1      17.168  -6.251   7.331  0.00  0.00     0.111 C 
ATOM     26  C5  ZIN A   1      17.977  -7.092   6.341  0.00  0.00     0.034 C 
BRANCH  25  27
ATOM     27  C2  ZIN A   1      15.710  -6.185   6.873  0.00  0.00     0.022 C 
ATOM     28  C1  ZIN A   1      14.795  -6.620   8.020  0.00  0.00     0.007 C 
ENDBRANCH  25  27
ENDBRANCH  22  25
ENDBRANCH  16  19
ENDBRANCH  10  13
ENDBRANCH   1   7
BRANCH   4  29
ATOM     29  O22 ZIN A   1      18.149   8.624  15.535  0.00  0.00    -0.349 OA
BRANCH  29  30
ATOM     30  C23 ZIN A   1      17.419   8.653  16.763  0.00  0.00     0.209 C 
BRANCH  30  31
ATOM     31  C24 ZIN A   1      17.818   7.452  17.623  0.00  0.00     0.173 C 
ATOM     32  O43 ZIN A   1      17.012   6.302  17.298  0.00  0.00    -0.340 OA
ATOM     33  C28 ZIN A   1      16.696   5.643  18.534  0.00  0.00     0.213 C 
ATOM     34  O27 ZIN A   1      17.315   6.362  19.614  0.00  0.00    -0.347 OA
ATOM     35  C26 ZIN A   1      17.483   7.711  19.113  0.00  0.00     0.206 C 
BRANCH  33  36
ATOM     36  C29 ZIN A   1      15.180   5.621  18.734  0.00  0.00     0.226 C 
BRANCH  36  37
ATOM     37  N30 ZIN A   1      14.546   6.532  17.777  0.00  0.00    -0.257 N 
ATOM     38  N34 ZIN A   1      14.328   6.297  16.410  0.00  0.00    -0.165 NA
ATOM     39  C33 ZIN A   1      13.737   7.361  15.934  0.00  0.00     0.256 A 
ATOM     40  N32 ZIN A   1      13.581   8.246  16.917  0.00  0.00    -0.234 NA
ATOM     41  C31 ZIN A   1      14.063   7.760  18.032  0.00  0.00     0.230 A 
ENDBRANCH  36  37
ENDBRANCH  33  36
BRANCH  33  42
ATOM     42  C35 ZIN A   1      17.223   4.232  18.498  0.00  0.00     0.027 A 
ATOM     43  C41 ZIN A   1      16.853   3.329  19.479  0.00  0.00     0.047 A 
ATOM     44  C40 ZIN A   1      17.333   2.033  19.442  0.00  0.00     0.048 A 
ATOM     45 Cl42 ZIN A   1      15.776   3.820  20.748  0.00  0.00    -0.084 Cl
ATOM     46  C38 ZIN A   1      18.193   1.643  18.431  0.00  0.00     0.035 A 
ATOM     47  C37 ZIN A   1      18.567   2.548  17.454  0.00  0.00     0.024 A 
ATOM     48 Cl39 ZIN A   1      18.802   0.018  18.387  0.00  0.00    -0.084 Cl
ATOM     49  C36 ZIN A   1      18.083   3.842  17.488  0.00  0.00     0.016 A 
ENDBRANCH  33  42
ENDBRANCH  30  31
ENDBRANCH  29  30
ENDBRANCH   4  29
TORSDOF 11
ENDMDL
MODEL 4
REMARK VINA RESULT:      -8.7      4.066     13.154
REMARK  11 active torsions:
REMARK  status: ('A' for Active; 'I' for Inactive)
REMARK    1  A    between atoms: C2_2  and  C3_3 
REMARK    2  A    between atoms: C3_3  and  N6_5 
REMARK    3  A    between atoms: N9_8  and  C10_9 
REMARK    4  A    between atoms: C13_12  and  N14_13 
REMARK    5  A    between atoms: N17_16  and  C18_17 
REMARK    6  A    between atoms: C21_20  and  O22_21 
REMARK    7  A    between atoms: O22_21  and  C23_22 
REMARK    8  A    between atoms: C23_22  and  C24_23 
REMARK    9  A    between atoms: C28_26  and  C29_27 
REMARK   10  A    between atoms: C28_26  and  C35_33 
REMARK   11  A    between atoms: C29_27  and  N30_28 
ROOT
ATOM      1  C18 ZIN A   1      18.176   3.554  11.081  0.00  0.00     0.010 A 
ATOM      2  C19 ZIN A   1      17.071   4.247  11.557  0.00  0.00     0.026 A 
ATOM      3  C20 ZIN A   1      17.229   5.214  12.529  0.00  0.00     0.038 A 
ATOM      4  C21 ZIN A   1      18.492   5.494  13.031  0.00  0.00     0.069 A 
ATOM      5  C44 ZIN A   1      19.596   4.802  12.557  0.00  0.00     0.038 A 
ATOM      6  C45 ZIN A   1      19.439   3.830  11.588  0.00  0.00     0.026 A 
ENDROOT
BRANCH   1   7
ATOM      7  N17 ZIN A   1      18.017   2.573  10.096  0.00  0.00    -0.281 NA
ATOM      8  C16 ZIN A   1      17.704   1.269  10.697  0.00  0.00     0.110 C 
ATOM      9  C15 ZIN A   1      17.459   0.244   9.588  0.00  0.00     0.110 C 
ATOM     10  N14 ZIN A   1      18.652   0.155   8.734  0.00  0.00    -0.281 NA
ATOM     11  C47 ZIN A   1      18.965   1.459   8.133  0.00  0.00     0.110 C 
ATOM     12  C46 ZIN A   1      19.210   2.484   9.243  0.00  0.00     0.110 C 
BRANCH  10  13
ATOM     13  C13 ZIN A   1      18.493  -0.825   7.750  0.00  0.00     0.010 A 
ATOM     14  C12 ZIN A   1      18.977  -2.110   7.964  0.00  0.00     0.026 A 
ATOM     15  C11 ZIN A   1      18.819  -3.077   6.992  0.00  0.00     0.032 A 
ATOM     16  C10 ZIN A   1      18.178  -2.767   5.801  0.00  0.00     0.045 A 
ATOM     17  C49 ZIN A   1      17.698  -1.483   5.585  0.00  0.00     0.032 A 
ATOM     18  C48 ZIN A   1      17.851  -0.515   6.558  0.00  0.00     0.026 A 
BRANCH  16  19
ATOM     19  N9  ZIN A   1      18.018  -3.751   4.813  0.00  0.00    -0.256 N 
ATOM     20  C8  ZIN A   1      18.382  -3.634   3.492  0.00  0.00     0.242 A 
ATOM     21  N7  ZIN A   1      18.086  -4.733   2.878  0.00  0.00    -0.163 NA
ATOM     22  N6  ZIN A   1      17.511  -5.611   3.808  0.00  0.00    -0.214 N 
ATOM     23  C50 ZIN A   1      17.477  -4.972   4.995  0.00  0.00     0.351 A 
ATOM     24  O51 ZIN A   1      17.044  -5.420   6.043  0.00  0.00    -0.244 OA
BRANCH  22  25
ATOM     25  C3  ZIN A   1      17.030  -6.969   3.537  0.00  0.00     0.111 C 
ATOM     26  C5  ZIN A   1      17.747  -7.528   2.307  0.00  0.00     0.034 C 
BRANCH  25  27
ATOM     27  C2  ZIN A   1      15.523  -6.934   3.278  0.00  0.00     0.022 C 
ATOM     28  C1  ZIN A   1      15.265  -6.564   1.816  0.00  0.00     0.007 C 
ENDBRANCH  25  27
ENDBRANCH  22  25
ENDBRANCH  16  19
ENDBRANCH  10  13
ENDBRANCH   1   7
BRANCH   4  29
ATOM     29  O22 ZIN A   1      18.646   6.447  13.989  0.00  0.00    -0.349 OA
BRANCH  29  30
ATOM     30  C23 ZIN A   1      18.397   6.054  15.341  0.00  0.00     0.209 C 
BRANCH  30  31
ATOM     31  C24 ZIN A   1      18.870   4.614  15.548  0.00  0.00     0.173 C 
ATOM     32  O43 ZIN A   1      18.018   3.928  16.488  0.00  0.00    -0.340 OA
ATOM     33  C28 ZIN A   1      18.869   3.128  17.325  0.00  0.00     0.213 C 
ATOM     34  O27 ZIN A   1      20.231   3.297  16.897  0.00  0.00    -0.347 OA
ATOM     35  C26 ZIN A   1      20.256   4.588  16.241  0.00  0.00     0.206 C 
BRANCH  33  36
ATOM     36  C29 ZIN A   1      18.728   3.575  18.781  0.00  0.00     0.226 C 
BRANCH  36  37
ATOM     37  N30 ZIN A   1      17.431   4.231  18.968  0.00  0.00    -0.257 N 
ATOM     38  N34 ZIN A   1      17.115   5.568  18.677  0.00  0.00    -0.165 NA
ATOM     39  C33 ZIN A   1      15.857   5.735  18.989  0.00  0.00     0.256 A 
ATOM     40  N32 ZIN A   1      15.373   4.589  19.464  0.00  0.00    -0.234 NA
ATOM     41  C31 ZIN A   1      16.309   3.675  19.456  0.00  0.00     0.230 A 
ENDBRANCH  36  37
ENDBRANCH  33  36
BRANCH  33  42
ATOM     42  C35 ZIN A   1      18.475   1.680  17.198  0.00  0.00     0.027 A 
ATOM     43  C41 ZIN A   1      18.148   1.157  15.960  0.00  0.00     0.047 A 
ATOM     44  C40 ZIN A   1      17.792  -0.175  15.844  0.00  0.00     0.048 A 
ATOM     45 Cl42 ZIN A   1      18.198   2.169  14.550  0.00  0.00    -0.084 Cl
ATOM     46  C38 ZIN A   1      17.752  -0.980  16.968  0.00  0.00     0.035 A 
ATOM     47  C37 ZIN A   1      18.073  -0.455  18.206  0.00  0.00     0.024 A 
ATOM     48 Cl39 ZIN A   1      17.298  -2.649  16.824  0.00  0.00    -0.084 Cl
ATOM     49  C36 ZIN A   1      18.434   0.874  18.322  0.00  0.00     0.016 A 
ENDBRANCH  33  42
ENDBRANCH  30  31
ENDBRANCH  29  30
ENDBRANCH   4  29
TORSDOF 11
ENDMDL
MODEL 5
REMARK VINA RESULT:      -8.6      4.370     13.805
REMARK  11 active torsions:
REMARK  status: ('A' for Active; 'I' for Inactive)
REMARK    1  A    between atoms: C2_2  and  C3_3 
REMARK    2  A    between atoms: C3_3  and  N6_5 
REMARK    3  A    between atoms: N9_8  and  C10_9 
REMARK    4  A    between atoms: C13_12  and  N14_13 
REMARK    5  A    between atoms: N17_16  and  C18_17 
REMARK    6  A    between atoms: C21_20  and  O22_21 
REMARK    7  A    between atoms: O22_21  and  C23_22 
REMARK    8  A    between atoms: C23_22  and  C24_23 
REMARK    9  A    between atoms: C28_26  and  C29_27 
REMARK   10  A    between atoms: C28_26  and  C35_33 
REMARK   11  A    between atoms: C29_27  and  N30_28 
ROOT
ATOM      1  C18 ZIN A   1      18.190  -0.271  15.260  0.00  0.00     0.010 A 
ATOM      2  C19 ZIN A   1      19.244   0.614  15.443  0.00  0.00     0.026 A 
ATOM      3  C20 ZIN A   1      19.361   1.312  16.627  0.00  0.00     0.038 A 
ATOM      4  C21 ZIN A   1      18.426   1.131  17.636  0.00  0.00     0.069 A 
ATOM      5  C44 ZIN A   1      17.372   0.248  17.454  0.00  0.00     0.038 A 
ATOM      6  C45 ZIN A   1      17.251  -0.448  16.267  0.00  0.00     0.026 A 
ENDROOT
BRANCH   1   7
ATOM      7  N17 ZIN A   1      18.071  -0.979  14.058  0.00  0.00    -0.281 NA
ATOM      8  C16 ZIN A   1      19.362  -1.553  13.655  0.00  0.00     0.110 C 
ATOM      9  C15 ZIN A   1      19.173  -2.384  12.384  0.00  0.00     0.110 C 
ATOM     10  N14 ZIN A   1      18.623  -1.530  11.321  0.00  0.00    -0.281 NA
ATOM     11  C47 ZIN A   1      17.332  -0.956  11.725  0.00  0.00     0.110 C 
ATOM     12  C46 ZIN A   1      17.522  -0.125  12.996  0.00  0.00     0.110 C 
BRANCH  10  13
ATOM     13  C13 ZIN A   1      18.504  -2.238  10.120  0.00  0.00     0.010 A 
ATOM     14  C12 ZIN A   1      17.690  -3.362  10.055  0.00  0.00     0.026 A 
ATOM     15  C11 ZIN A   1      17.572  -4.059   8.870  0.00  0.00     0.032 A 
ATOM     16  C10 ZIN A   1      18.267  -3.639   7.744  0.00  0.00     0.045 A 
ATOM     17  C49 ZIN A   1      19.083  -2.518   7.810  0.00  0.00     0.032 A 
ATOM     18  C48 ZIN A   1      19.198  -1.816   8.994  0.00  0.00     0.026 A 
BRANCH  16  19
ATOM     19  N9  ZIN A   1      18.147  -4.349   6.539  0.00  0.00    -0.256 N 
ATOM     20  C8  ZIN A   1      18.207  -5.715   6.400  0.00  0.00     0.242 A 
ATOM     21  N7  ZIN A   1      18.056  -6.014   5.150  0.00  0.00    -0.163 NA
ATOM     22  N6  ZIN A   1      17.889  -4.822   4.433  0.00  0.00    -0.214 N 
ATOM     23  C50 ZIN A   1      17.955  -3.808   5.320  0.00  0.00     0.351 A 
ATOM     24  O51 ZIN A   1      17.853  -2.620   5.066  0.00  0.00    -0.244 OA
BRANCH  22  25
ATOM     25  C3  ZIN A   1      17.686  -4.699   2.987  0.00  0.00     0.111 C 
ATOM     26  C5  ZIN A   1      16.383  -3.945   2.717  0.00  0.00     0.034 C 
BRANCH  25  27
ATOM     27  C2  ZIN A   1      17.606  -6.094   2.363  0.00  0.00     0.022 C 
ATOM     28  C1  ZIN A   1      16.139  -6.485   2.171  0.00  0.00     0.007 C 
ENDBRANCH  25  27
ENDBRANCH  22  25
ENDBRANCH  16  19
ENDBRANCH  10  13
ENDBRANCH   1   7
BRANCH   4  29
ATOM     29  O22 ZIN A   1      18.542   1.819  18.803  0.00  0.00    -0.349 OA
BRANCH  29  30
ATOM     30  C23 ZIN A   1      18.604   3.244  18.712  0.00  0.00     0.209 C 
BRANCH  30  31
ATOM     31  C24 ZIN A   1      17.826   3.710  17.479  0.00  0.00     0.173 C 
ATOM     32  O43 ZIN A   1      18.716   4.287  16.502  0.00  0.00    -0.340 OA
ATOM     33  C28 ZIN A   1      18.053   5.437  15.953  0.00  0.00     0.213 C 
ATOM     34  O27 ZIN A   1      16.758   5.562  16.565  0.00  0.00    -0.347 OA
ATOM     35  C26 ZIN A   1      16.883   4.885  17.839  0.00  0.00     0.206 C 
BRANCH  33  36
ATOM     36  C29 ZIN A   1      18.878   6.693  16.237  0.00  0.00     0.226 C 
BRANCH  36  37
ATOM     37  N30 ZIN A   1      18.049   7.883  16.022  0.00  0.00    -0.257 N 
ATOM     38  N34 ZIN A   1      17.978   8.658  14.853  0.00  0.00    -0.165 NA
ATOM     39  C33 ZIN A   1      17.120   9.615  15.087  0.00  0.00     0.256 A 
ATOM     40  N32 ZIN A   1      16.659   9.489  16.331  0.00  0.00    -0.234 NA
ATOM     41  C31 ZIN A   1      17.210   8.450  16.904  0.00  0.00     0.230 A 
ENDBRANCH  36  37
ENDBRANCH  33  36
BRANCH  33  42
ATOM     42  C35 ZIN A   1      17.895   5.260  14.465  0.00  0.00     0.027 A 
ATOM     43  C41 ZIN A   1      16.674   5.511  13.864  0.00  0.00     0.047 A 
ATOM     44  C40 ZIN A   1      16.532   5.354  12.497  0.00  0.00     0.048 A 
ATOM     45 Cl42 ZIN A   1      15.327   6.037  14.823  0.00  0.00    -0.084 Cl
ATOM     46  C38 ZIN A   1      17.607   4.933  11.734  0.00  0.00     0.035 A 
ATOM     47  C37 ZIN A   1      18.825   4.676  12.337  0.00  0.00     0.024 A 
ATOM     48 Cl39 ZIN A   1      17.427   4.728  10.020  0.00  0.00    -0.084 Cl
ATOM     49  C36 ZIN A   1      18.969   4.839  13.702  0.00  0.00     0.016 A 
ENDBRANCH  33  42
ENDBRANCH  30  31
ENDBRANCH  29  30
ENDBRANCH   4  29
TORSDOF 11
ENDMDL
MODEL 6
REMARK VINA RESULT:      -8.4      4.430     14.057
REMARK  11 active torsions:
REMARK  status: ('A' for Active; 'I' for Inactive)
REMARK    1  A    between atoms: C2_2  and  C3_3 
REMARK    2  A    between atoms: C3_3  and  N6_5 
REMARK    3  A    between atoms: N9_8  and  C10_9 
REMARK    4  A    between atoms: C13_12  and  N14_13 
REMARK    5  A    between atoms: N17_16  and  C18_17 
REMARK    6  A    between atoms: C21_20  and  O22_21 
REMARK    7  A    between atoms: O22_21  and  C23_22 
REMARK    8  A    between atoms: C23_22  and  C24_23 
REMARK    9  A    between atoms: C28_26  and  C29_27 
REMARK   10  A    between atoms: C28_26  and  C35_33 
REMARK   11  A    between atoms: C29_27  and  N30_28 
ROOT
ATOM      1  C18 ZIN A   1      18.212   0.351  15.969  0.00  0.00     0.010 A 
ATOM      2  C19 ZIN A   1      19.203   1.323  15.984  0.00  0.00     0.026 A 
ATOM      3  C20 ZIN A   1      19.283   2.210  17.038  0.00  0.00     0.038 A 
ATOM      4  C21 ZIN A   1      18.374   2.131  18.082  0.00  0.00     0.069 A 
ATOM      5  C44 ZIN A   1      17.383   1.161  18.068  0.00  0.00     0.038 A 
ATOM      6  C45 ZIN A   1      17.298   0.276  17.012  0.00  0.00     0.026 A 
ENDROOT
BRANCH   1   7
ATOM      7  N17 ZIN A   1      18.129  -0.549  14.900  0.00  0.00    -0.281 NA
ATOM      8  C16 ZIN A   1      19.398  -1.267  14.718  0.00  0.00     0.110 C 
ATOM      9  C15 ZIN A   1      19.243  -2.296  13.595  0.00  0.00     0.110 C 
ATOM     10  N14 ZIN A   1      18.846  -1.610  12.357  0.00  0.00    -0.281 NA
ATOM     11  C47 ZIN A   1      17.577  -0.891  12.540  0.00  0.00     0.110 C 
ATOM     12  C46 ZIN A   1      17.734   0.137  13.663  0.00  0.00     0.110 C 
BRANCH  10  13
ATOM     13  C13 ZIN A   1      18.763  -2.509  11.289  0.00  0.00     0.010 A 
ATOM     14  C12 ZIN A   1      19.218  -3.813  11.442  0.00  0.00     0.026 A 
ATOM     15  C11 ZIN A   1      19.136  -4.699  10.388  0.00  0.00     0.032 A 
ATOM     16  C10 ZIN A   1      18.601  -4.289   9.174  0.00  0.00     0.045 A 
ATOM     17  C49 ZIN A   1      18.150  -2.985   9.020  0.00  0.00     0.032 A 
ATOM     18  C48 ZIN A   1      18.227  -2.098  10.076  0.00  0.00     0.026 A 
BRANCH  16  19
ATOM     19  N9  ZIN A   1      18.517  -5.192   8.103  0.00  0.00    -0.256 N 
ATOM     20  C8  ZIN A   1      19.471  -5.377   7.130  0.00  0.00     0.242 A 
ATOM     21  N7  ZIN A   1      19.057  -6.286   6.308  0.00  0.00    -0.163 NA
ATOM     22  N6  ZIN A   1      17.797  -6.723   6.738  0.00  0.00    -0.214 N 
ATOM     23  C50 ZIN A   1      17.487  -6.023   7.849  0.00  0.00     0.351 A 
ATOM     24  O51 ZIN A   1      16.466  -6.127   8.506  0.00  0.00    -0.244 OA
BRANCH  22  25
ATOM     25  C3  ZIN A   1      16.967  -7.746   6.096  0.00  0.00     0.111 C 
ATOM     26  C5  ZIN A   1      17.267  -9.111   6.720  0.00  0.00     0.034 C 
BRANCH  25  27
ATOM     27  C2  ZIN A   1      17.278  -7.790   4.599  0.00  0.00     0.022 C 
ATOM     28  C1  ZIN A   1      16.391  -8.838   3.924  0.00  0.00     0.007 C 
ENDBRANCH  25  27
ENDBRANCH  22  25
ENDBRANCH  16  19
ENDBRANCH  10  13
ENDBRANCH   1   7
BRANCH   4  29
ATOM     29  O22 ZIN A   1      18.454   3.007  19.121  0.00  0.00    -0.349 OA
BRANCH  29  30
ATOM     30  C23 ZIN A   1      18.172   4.378  18.836  0.00  0.00     0.209 C 
BRANCH  30  31
ATOM     31  C24 ZIN A   1      17.475   4.483  17.478  0.00  0.00     0.173 C 
ATOM     32  O43 ZIN A   1      18.346   5.093  16.504  0.00  0.00    -0.340 OA
ATOM     33  C28 ZIN A   1      17.541   5.983  15.714  0.00  0.00     0.213 C 
ATOM     34  O27 ZIN A   1      16.181   5.911  16.176  0.00  0.00    -0.347 OA
ATOM     35  C26 ZIN A   1      16.280   5.467  17.551  0.00  0.00     0.206 C 
BRANCH  33  36
ATOM     36  C29 ZIN A   1      18.058   7.415  15.859  0.00  0.00     0.226 C 
BRANCH  36  37
ATOM     37  N30 ZIN A   1      16.933   8.317  16.122  0.00  0.00    -0.257 N 
ATOM     38  N34 ZIN A   1      16.569   8.868  17.361  0.00  0.00    -0.165 NA
ATOM     39  C33 ZIN A   1      15.518   9.614  17.148  0.00  0.00     0.256 A 
ATOM     40  N32 ZIN A   1      15.199   9.553  15.857  0.00  0.00    -0.234 NA
ATOM     41  C31 ZIN A   1      16.043   8.777  15.227  0.00  0.00     0.230 A 
ENDBRANCH  36  37
ENDBRANCH  33  36
BRANCH  33  42
ATOM     42  C35 ZIN A   1      17.606   5.564  14.268  0.00  0.00     0.027 A 
ATOM     43  C41 ZIN A   1      18.822   5.233  13.697  0.00  0.00     0.047 A 
ATOM     44  C40 ZIN A   1      18.880   4.843  12.371  0.00  0.00     0.048 A 
ATOM     45 Cl42 ZIN A   1      20.272   5.292  14.649  0.00  0.00    -0.084 Cl
ATOM     46  C38 ZIN A   1      17.724   4.797  11.613  0.00  0.00     0.035 A 
ATOM     47  C37 ZIN A   1      16.510   5.134  12.183  0.00  0.00     0.024 A 
ATOM     48 Cl39 ZIN A   1      17.797   4.315   9.947  0.00  0.00    -0.084 Cl
ATOM     49  C36 ZIN A   1      16.451   5.518  13.509  0.00  0.00     0.016 A 
ENDBRANCH  33  42
ENDBRANCH  30  31
ENDBRANCH  29  30
ENDBRANCH   4  29
TORSDOF 11
ENDMDL
MODEL 7
REMARK VINA RESULT:      -8.4      4.757     14.207
REMARK  11 active torsions:
REMARK  status: ('A' for Active; 'I' for Inactive)
REMARK    1  A    between atoms: C2_2  and  C3_3 
REMARK    2  A    between atoms: C3_3  and  N6_5 
REMARK    3  A    between atoms: N9_8  and  C10_9 
REMARK    4  A    between atoms: C13_12  and  N14_13 
REMARK    5  A    between atoms: N17_16  and  C18_17 
REMARK    6  A    between atoms: C21_20  and  O22_21 
REMARK    7  A    between atoms: O22_21  and  C23_22 
REMARK    8  A    between atoms: C23_22  and  C24_23 
REMARK    9  A    between atoms: C28_26  and  C29_27 
REMARK   10  A    between atoms: C28_26  and  C35_33 
REMARK   11  A    between atoms: C29_27  and  N30_28 
ROOT
ATOM      1  C18 ZIN A   1      17.817  -1.206  12.641  0.00  0.00     0.010 A 
ATOM      2  C19 ZIN A   1      18.803  -1.669  13.502  0.00  0.00     0.026 A 
ATOM      3  C20 ZIN A   1      19.178  -0.911  14.593  0.00  0.00     0.038 A 
ATOM      4  C21 ZIN A   1      18.570   0.313  14.830  0.00  0.00     0.069 A 
ATOM      5  C44 ZIN A   1      17.586   0.777  13.970  0.00  0.00     0.038 A 
ATOM      6  C45 ZIN A   1      17.213   0.022  12.875  0.00  0.00     0.026 A 
ENDROOT
BRANCH   1   7
ATOM      7  N17 ZIN A   1      17.437  -1.974  11.534  0.00  0.00    -0.281 NA
ATOM      8  C16 ZIN A   1      17.597  -3.408  11.809  0.00  0.00     0.110 C 
ATOM      9  C15 ZIN A   1      17.097  -4.214  10.607  0.00  0.00     0.110 C 
ATOM     10  N14 ZIN A   1      17.852  -3.821   9.409  0.00  0.00    -0.281 NA
ATOM     11  C47 ZIN A   1      17.692  -2.386   9.135  0.00  0.00     0.110 C 
ATOM     12  C46 ZIN A   1      18.193  -1.582  10.337  0.00  0.00     0.110 C 
BRANCH  10  13
ATOM     13  C13 ZIN A   1      17.472  -4.588   8.303  0.00  0.00     0.010 A 
ATOM     14  C12 ZIN A   1      18.100  -4.400   7.078  0.00  0.00     0.026 A 
ATOM     15  C11 ZIN A   1      17.725  -5.157   5.987  0.00  0.00     0.032 A 
ATOM     16  C10 ZIN A   1      16.720  -6.106   6.112  0.00  0.00     0.045 A 
ATOM     17  C49 ZIN A   1      16.089  -6.292   7.335  0.00  0.00     0.032 A 
ATOM     18  C48 ZIN A   1      16.467  -5.538   8.429  0.00  0.00     0.026 A 
BRANCH  16  19
ATOM     19  N9  ZIN A   1      16.339  -6.876   5.003  0.00  0.00    -0.256 N 
ATOM     20  C8  ZIN A   1      16.907  -8.066   4.615  0.00  0.00     0.242 A 
ATOM     21  N7  ZIN A   1      16.303  -8.491   3.553  0.00  0.00    -0.163 NA
ATOM     22  N6  ZIN A   1      15.304  -7.565   3.219  0.00  0.00    -0.214 N 
ATOM     23  C50 ZIN A   1      15.355  -6.574   4.132  0.00  0.00     0.351 A 
ATOM     24  O51 ZIN A   1      14.638  -5.588   4.168  0.00  0.00    -0.244 OA
BRANCH  22  25
ATOM     25  C3  ZIN A   1      14.381  -7.655   2.085  0.00  0.00     0.111 C 
ATOM     26  C5  ZIN A   1      12.977  -7.987   2.595  0.00  0.00     0.034 C 
BRANCH  25  27
ATOM     27  C2  ZIN A   1      14.850  -8.755   1.130  0.00  0.00     0.022 C 
ATOM     28  C1  ZIN A   1      13.771  -9.834   1.025  0.00  0.00     0.007 C 
ENDBRANCH  25  27
ENDBRANCH  22  25
ENDBRANCH  16  19
ENDBRANCH  10  13
ENDBRANCH   1   7
BRANCH   4  29
ATOM     29  O22 ZIN A   1      18.940   1.059  15.906  0.00  0.00    -0.349 OA
BRANCH  29  30
ATOM     30  C23 ZIN A   1      19.590   2.304  15.639  0.00  0.00     0.209 C 
BRANCH  30  31
ATOM     31  C24 ZIN A   1      18.769   3.446  16.241  0.00  0.00     0.173 C 
ATOM     32  O43 ZIN A   1      17.784   3.918  15.300  0.00  0.00    -0.340 OA
ATOM     33  C28 ZIN A   1      17.749   5.350  15.405  0.00  0.00     0.213 C 
ATOM     34  O27 ZIN A   1      18.686   5.764  16.414  0.00  0.00    -0.347 OA
ATOM     35  C26 ZIN A   1      19.659   4.693  16.478  0.00  0.00     0.206 C 
BRANCH  33  36
ATOM     36  C29 ZIN A   1      18.131   5.976  14.062  0.00  0.00     0.226 C 
BRANCH  36  37
ATOM     37  N30 ZIN A   1      18.411   4.915  13.090  0.00  0.00    -0.257 N 
ATOM     38  N34 ZIN A   1      19.670   4.387  12.761  0.00  0.00    -0.165 NA
ATOM     39  C33 ZIN A   1      19.468   3.464  11.859  0.00  0.00     0.256 A 
ATOM     40  N32 ZIN A   1      18.164   3.391  11.600  0.00  0.00    -0.234 NA
ATOM     41  C31 ZIN A   1      17.516   4.257  12.334  0.00  0.00     0.230 A 
ENDBRANCH  36  37
ENDBRANCH  33  36
BRANCH  33  42
ATOM     42  C35 ZIN A   1      16.361   5.789  15.792  0.00  0.00     0.027 A 
ATOM     43  C41 ZIN A   1      16.019   5.903  17.128  0.00  0.00     0.047 A 
ATOM     44  C40 ZIN A   1      14.746   6.312  17.483  0.00  0.00     0.048 A 
ATOM     45 Cl42 ZIN A   1      17.190   5.546  18.358  0.00  0.00    -0.084 Cl
ATOM     46  C38 ZIN A   1      13.813   6.595  16.502  0.00  0.00     0.035 A 
ATOM     47  C37 ZIN A   1      14.154   6.476  15.167  0.00  0.00     0.024 A 
ATOM     48 Cl39 ZIN A   1      12.213   7.101  16.946  0.00  0.00    -0.084 Cl
ATOM     49  C36 ZIN A   1      15.427   6.073  14.812  0.00  0.00     0.016 A 
ENDBRANCH  33  42
ENDBRANCH  30  31
ENDBRANCH  29  30
ENDBRANCH   4  29
TORSDOF 11
ENDMDL
MODEL 8
REMARK VINA RESULT:      -8.2      4.774     14.228
REMARK  11 active torsions:
REMARK  status: ('A' for Active; 'I' for Inactive)
REMARK    1  A    between atoms: C2_2  and  C3_3 
REMARK    2  A    between atoms: C3_3  and  N6_5 
REMARK    3  A    between atoms: N9_8  and  C10_9 
REMARK    4  A    between atoms: C13_12  and  N14_13 
REMARK    5  A    between atoms: N17_16  and  C18_17 
REMARK    6  A    between atoms: C21_20  and  O22_21 
REMARK    7  A    between atoms: O22_21  and  C23_22 
REMARK    8  A    between atoms: C23_22  and  C24_23 
REMARK    9  A    between atoms: C28_26  and  C29_27 
REMARK   10  A    between atoms: C28_26  and  C35_33 
REMARK   11  A    between atoms: C29_27  and  N30_28 
ROOT
ATOM      1  C18 ZIN A   1      18.242  -0.142  14.400  0.00  0.00     0.010 A 
ATOM      2  C19 ZIN A   1      18.906   1.074  14.484  0.00  0.00     0.026 A 
ATOM      3  C20 ZIN A   1      19.087   1.679  15.711  0.00  0.00     0.038 A 
ATOM      4  C21 ZIN A   1      18.606   1.071  16.862  0.00  0.00     0.069 A 
ATOM      5  C44 ZIN A   1      17.942  -0.144  16.779  0.00  0.00     0.038 A 
ATOM      6  C45 ZIN A   1      17.755  -0.747  15.551  0.00  0.00     0.026 A 
ENDROOT
BRANCH   1   7
ATOM      7  N17 ZIN A   1      18.057  -0.755  13.155  0.00  0.00    -0.281 NA
ATOM      8  C16 ZIN A   1      18.987  -1.879  12.979  0.00  0.00     0.110 C 
ATOM      9  C15 ZIN A   1      18.700  -2.570  11.644  0.00  0.00     0.110 C 
ATOM     10  N14 ZIN A   1      18.840  -1.597  10.551  0.00  0.00    -0.281 NA
ATOM     11  C47 ZIN A   1      17.910  -0.473  10.728  0.00  0.00     0.110 C 
ATOM     12  C46 ZIN A   1      18.198   0.218  12.063  0.00  0.00     0.110 C 
BRANCH  10  13
ATOM     13  C13 ZIN A   1      18.655  -2.210   9.307  0.00  0.00     0.010 A 
ATOM     14  C12 ZIN A   1      17.935  -3.395   9.217  0.00  0.00     0.026 A 
ATOM     15  C11 ZIN A   1      17.754  -3.999   7.989  0.00  0.00     0.032 A 
ATOM     16  C10 ZIN A   1      18.289  -3.423   6.845  0.00  0.00     0.045 A 
ATOM     17  C49 ZIN A   1      19.011  -2.241   6.936  0.00  0.00     0.032 A 
ATOM     18  C48 ZIN A   1      19.190  -1.633   8.163  0.00  0.00     0.026 A 
BRANCH  16  19
ATOM     19  N9  ZIN A   1      18.103  -4.037   5.597  0.00  0.00    -0.256 N 
ATOM     20  C8  ZIN A   1      18.493  -3.526   4.382  0.00  0.00     0.242 A 
ATOM     21  N7  ZIN A   1      18.161  -4.362   3.452  0.00  0.00    -0.163 NA
ATOM     22  N6  ZIN A   1      17.536  -5.461   4.055  0.00  0.00    -0.214 N 
ATOM     23  C50 ZIN A   1      17.510  -5.229   5.384  0.00  0.00     0.351 A 
ATOM     24  O51 ZIN A   1      17.041  -5.964   6.236  0.00  0.00    -0.244 OA
BRANCH  22  25
ATOM     25  C3  ZIN A   1      17.002  -6.641   3.369  0.00  0.00     0.111 C 
ATOM     26  C5  ZIN A   1      18.097  -7.264   2.500  0.00  0.00     0.034 C 
BRANCH  25  27
ATOM     27  C2  ZIN A   1      15.823  -6.229   2.487  0.00  0.00     0.022 C 
ATOM     28  C1  ZIN A   1      14.546  -6.905   2.993  0.00  0.00     0.007 C 
ENDBRANCH  25  27
ENDBRANCH  22  25
ENDBRANCH  16  19
ENDBRANCH  10  13
ENDBRANCH   1   7
BRANCH   4  29
ATOM     29  O22 ZIN A   1      18.785   1.667  18.072  0.00  0.00    -0.349 OA
BRANCH  29  30
ATOM     30  C23 ZIN A   1      19.074   3.066  18.068  0.00  0.00     0.209 C 
BRANCH  30  31
ATOM     31  C24 ZIN A   1      17.764   3.857  18.102  0.00  0.00     0.173 C 
ATOM     32  O43 ZIN A   1      17.652   4.708  16.943  0.00  0.00    -0.340 OA
ATOM     33  C28 ZIN A   1      17.099   5.957  17.387  0.00  0.00     0.213 C 
ATOM     34  O27 ZIN A   1      16.849   5.877  18.801  0.00  0.00    -0.347 OA
ATOM     35  C26 ZIN A   1      17.763   4.862  19.281  0.00  0.00     0.206 C 
BRANCH  33  36
ATOM     36  C29 ZIN A   1      18.086   7.090  17.103  0.00  0.00     0.226 C 
BRANCH  36  37
ATOM     37  N30 ZIN A   1      19.066   6.647  16.107  0.00  0.00    -0.257 N 
ATOM     38  N34 ZIN A   1      20.353   6.145  16.358  0.00  0.00    -0.165 NA
ATOM     39  C33 ZIN A   1      20.883   5.869  15.196  0.00  0.00     0.256 A 
ATOM     40  N32 ZIN A   1      20.011   6.176  14.238  0.00  0.00    -0.234 NA
ATOM     41  C31 ZIN A   1      18.912   6.644  14.772  0.00  0.00     0.230 A 
ENDBRANCH  36  37
ENDBRANCH  33  36
BRANCH  33  42
ATOM     42  C35 ZIN A   1      15.806   6.217  16.659  0.00  0.00     0.027 A 
ATOM     43  C41 ZIN A   1      14.737   6.787  17.328  0.00  0.00     0.047 A 
ATOM     44  C40 ZIN A   1      13.552   7.031  16.657  0.00  0.00     0.048 A 
ATOM     45 Cl42 ZIN A   1      14.888   7.209  19.004  0.00  0.00    -0.084 Cl
ATOM     46  C38 ZIN A   1      13.433   6.694  15.321  0.00  0.00     0.035 A 
ATOM     47  C37 ZIN A   1      14.499   6.118  14.654  0.00  0.00     0.024 A 
ATOM     48 Cl39 ZIN A   1      11.944   6.992  14.480  0.00  0.00    -0.084 Cl
ATOM     49  C36 ZIN A   1      15.685   5.880  15.323  0.00  0.00     0.016 A 
ENDBRANCH  33  42
ENDBRANCH  30  31
ENDBRANCH  29  30
ENDBRANCH   4  29
TORSDOF 11
ENDMDL
MODEL 9
REMARK VINA RESULT:      -8.1      4.624     14.342
REMARK  11 active torsions:
REMARK  status: ('A' for Active; 'I' for Inactive)
REMARK    1  A    between atoms: C2_2  and  C3_3 
REMARK    2  A    between atoms: C3_3  and  N6_5 
REMARK    3  A    between atoms: N9_8  and  C10_9 
REMARK    4  A    between atoms: C13_12  and  N14_13 
REMARK    5  A    between atoms: N17_16  and  C18_17 
REMARK    6  A    between atoms: C21_20  and  O22_21 
REMARK    7  A    between atoms: O22_21  and  C23_22 
REMARK    8  A    between atoms: C23_22  and  C24_23 
REMARK    9  A    between atoms: C28_26  and  C29_27 
REMARK   10  A    between atoms: C28_26  and  C35_33 
REMARK   11  A    between atoms: C29_27  and  N30_28 
ROOT
ATOM      1  C18 ZIN A   1      18.239  -0.571  13.525  0.00  0.00     0.010 A 
ATOM      2  C19 ZIN A   1      18.694   0.694  13.178  0.00  0.00     0.026 A 
ATOM      3  C20 ZIN A   1      19.117   1.568  14.158  0.00  0.00     0.038 A 
ATOM      4  C21 ZIN A   1      19.088   1.183  15.491  0.00  0.00     0.069 A 
ATOM      5  C44 ZIN A   1      18.634  -0.080  15.839  0.00  0.00     0.038 A 
ATOM      6  C45 ZIN A   1      18.205  -0.954  14.859  0.00  0.00     0.026 A 
ENDROOT
BRANCH   1   7
ATOM      7  N17 ZIN A   1      17.808  -1.458  12.531  0.00  0.00    -0.281 NA
ATOM      8  C16 ZIN A   1      18.428  -2.779  12.701  0.00  0.00     0.110 C 
ATOM      9  C15 ZIN A   1      17.873  -3.740  11.647  0.00  0.00     0.110 C 
ATOM     10  N14 ZIN A   1      18.144  -3.202  10.306  0.00  0.00    -0.281 NA
ATOM     11  C47 ZIN A   1      17.525  -1.880  10.137  0.00  0.00     0.110 C 
ATOM     12  C46 ZIN A   1      18.081  -0.920  11.191  0.00  0.00     0.110 C 
BRANCH  10  13
ATOM     13  C13 ZIN A   1      17.714  -4.088   9.313  0.00  0.00     0.010 A 
ATOM     14  C12 ZIN A   1      16.718  -5.015   9.594  0.00  0.00     0.026 A 
ATOM     15  C11 ZIN A   1      16.294  -5.889   8.613  0.00  0.00     0.032 A 
ATOM     16  C10 ZIN A   1      16.862  -5.843   7.348  0.00  0.00     0.045 A 
ATOM     17  C49 ZIN A   1      17.860  -4.919   7.068  0.00  0.00     0.032 A 
ATOM     18  C48 ZIN A   1      18.282  -4.040   8.047  0.00  0.00     0.026 A 
BRANCH  16  19
ATOM     19  N9  ZIN A   1      16.431  -6.732   6.351  0.00  0.00    -0.256 N 
ATOM     20  C8  ZIN A   1      15.354  -6.545   5.517  0.00  0.00     0.242 A 
ATOM     21  N7  ZIN A   1      15.256  -7.565   4.727  0.00  0.00    -0.163 NA
ATOM     22  N6  ZIN A   1      16.292  -8.457   5.036  0.00  0.00    -0.214 N 
ATOM     23  C50 ZIN A   1      16.999  -7.916   6.049  0.00  0.00     0.351 A 
ATOM     24  O51 ZIN A   1      17.977  -8.405   6.588  0.00  0.00    -0.244 OA
BRANCH  22  25
ATOM     25  C3  ZIN A   1      16.554  -9.743   4.383  0.00  0.00     0.111 C 
ATOM     26  C5  ZIN A   1      17.364  -9.511   3.107  0.00  0.00     0.034 C 
BRANCH  25  27
ATOM     27  C2  ZIN A   1      15.227 -10.416   4.030  0.00  0.00     0.022 C 
ATOM     28  C1  ZIN A   1      15.069 -10.466   2.509  0.00  0.00     0.007 C 
ENDBRANCH  25  27
ENDBRANCH  22  25
ENDBRANCH  16  19
ENDBRANCH  10  13
ENDBRANCH   1   7
BRANCH   4  29
ATOM     29  O22 ZIN A   1      19.506   2.045  16.457  0.00  0.00    -0.349 OA
BRANCH  29  30
ATOM     30  C23 ZIN A   1      19.876   3.360  16.036  0.00  0.00     0.209 C 
BRANCH  30  31
ATOM     31  C24 ZIN A   1      18.861   4.371  16.572  0.00  0.00     0.173 C 
ATOM     32  O43 ZIN A   1      17.815   4.605  15.607  0.00  0.00    -0.340 OA
ATOM     33  C28 ZIN A   1      17.526   6.012  15.628  0.00  0.00     0.213 C 
ATOM     34  O27 ZIN A   1      18.366   6.643  16.610  0.00  0.00    -0.347 OA
ATOM     35  C26 ZIN A   1      19.513   5.768  16.734  0.00  0.00     0.206 C 
BRANCH  33  36
ATOM     36  C29 ZIN A   1      17.801   6.616  14.251  0.00  0.00     0.226 C 
BRANCH  36  37
ATOM     37  N30 ZIN A   1      17.993   5.541  13.274  0.00  0.00    -0.257 N 
ATOM     38  N34 ZIN A   1      16.988   4.824  12.604  0.00  0.00    -0.165 NA
ATOM     39  C33 ZIN A   1      17.591   3.965  11.826  0.00  0.00     0.256 A 
ATOM     40  N32 ZIN A   1      18.908   4.096  11.976  0.00  0.00    -0.234 NA
ATOM     41  C31 ZIN A   1      19.164   5.041  12.844  0.00  0.00     0.230 A 
ENDBRANCH  36  37
ENDBRANCH  33  36
BRANCH  33  42
ATOM     42  C35 ZIN A   1      16.079   6.219  15.993  0.00  0.00     0.027 A 
ATOM     43  C41 ZIN A   1      15.669   6.079  17.307  0.00  0.00     0.047 A 
ATOM     44  C40 ZIN A   1      14.341   6.275  17.641  0.00  0.00     0.048 A 
ATOM     45 Cl42 ZIN A   1      16.823   5.671  18.537  0.00  0.00    -0.084 Cl
ATOM     46  C38 ZIN A   1      13.422   6.599  16.659  0.00  0.00     0.035 A 
ATOM     47  C37 ZIN A   1      13.831   6.733  15.345  0.00  0.00     0.024 A 
ATOM     48 Cl39 ZIN A   1      11.754   6.838  17.077  0.00  0.00    -0.084 Cl
ATOM     49  C36 ZIN A   1      15.159   6.543  15.012  0.00  0.00     0.016 A 
ENDBRANCH  33  42
ENDBRANCH  30  31
ENDBRANCH  29  30
ENDBRANCH   4  29
TORSDOF 11
ENDMDL
