MODEL 1
REMARK VINA RESULT:      -9.9      0.000      0.000
REMARK  16 active torsions:
REMARK  status: ('A' for Active; 'I' for Inactive)
REMARK    1  A    between atoms: N2_2  and  C5_5 
REMARK    2  A    between atoms: C5_5  and  C6_6 
REMARK    3  A    between atoms: C6_6  and  O8_8 
REMARK    4  A    between atoms: O8_8  and  C9_9 
REMARK    5  A    between atoms: C9_9  and  C10_10 
REMARK    6  A    between atoms: C15_15  and  N16_16 
REMARK       I    between atoms: N16_16  and  C18_18 
REMARK    7  A    between atoms: C18_18  and  O20_20 
REMARK    8  A    between atoms: O20_20  and  C21_21 
REMARK    9  A    between atoms: C21_21  and  N24_23 
REMARK   10  A    between atoms: N26_25  and  C27_26 
REMARK   11  A    between atoms: C27_26  and  C28_27 
REMARK   12  A    between atoms: C28_27  and  O29_28 
REMARK   13  A    between atoms: C28_27  and  C30_29 
REMARK   14  A    between atoms: C28_27  and  C38_37 
REMARK   15  A    between atoms: C38_37  and  C41_39 
REMARK   16  A    between atoms: C43_41  and  C44_42 
ROOT
ATOM      1  C44 ZIN A   1      17.239  -5.112   9.229  0.00  0.00    -0.007 A 
ATOM      2  C45 ZIN A   1      15.939  -5.561   8.990  0.00  0.00     0.015 A 
ATOM      3  C46 ZIN A   1      15.731  -6.791   8.421  0.00  0.00     0.023 A 
ATOM      4  C47 ZIN A   1      16.822  -7.596   8.081  0.00  0.00     0.044 A 
ATOM      5  C48 ZIN A   1      16.607  -8.881   7.486  0.00  0.00     0.099 C 
ATOM      6  N49 ZIN A   1      16.435  -9.900   7.015  0.00  0.00    -0.191 NA
ATOM      7  C50 ZIN A   1      18.124  -7.146   8.322  0.00  0.00     0.023 A 
ATOM      8  C51 ZIN A   1      18.329  -5.913   8.885  0.00  0.00     0.015 A 
ENDROOT
BRANCH   1   9
ATOM      9  C43 ZIN A   1      17.461  -3.783   9.843  0.00  0.00     0.074 A 
ATOM     10  N42 ZIN A   1      17.561  -2.668   9.135  0.00  0.00    -0.244 NA
ATOM     11  C41 ZIN A   1      17.754  -1.573   9.786  0.00  0.00     0.082 A 
ATOM     12  S53 ZIN A   1      17.839  -1.881  11.465  0.00  0.00    -0.084 SA
ATOM     13  C52 ZIN A   1      17.580  -3.600  11.176  0.00  0.00     0.084 A 
BRANCH  11  14
ATOM     14  C38 ZIN A   1      17.893  -0.211   9.154  0.00  0.00     0.082 C 
ATOM     15  C40 ZIN A   1      16.822  -0.039   8.075  0.00  0.00     0.020 C 
BRANCH  14  16
ATOM     16  C28 ZIN A   1      19.280  -0.081   8.522  0.00  0.00     0.115 C 
BRANCH  16  17
ATOM     17  C27 ZIN A   1      19.755   1.369   8.629  0.00  0.00     0.196 C 
BRANCH  17  18
ATOM     18  N26 ZIN A   1      19.313   1.935   9.907  0.00  0.00    -0.261 N 
ATOM     19  C25 ZIN A   1      18.503   2.993  10.081  0.00  0.00     0.208 A 
ATOM     20  N24 ZIN A   1      18.351   3.180  11.366  0.00  0.00    -0.307 N 
ATOM     21  C55 ZIN A   1      19.048   2.268  12.042  0.00  0.00     0.235 A 
ATOM     22  N54 ZIN A   1      19.651   1.479  11.191  0.00  0.00    -0.166 NA
BRANCH  20  23
ATOM     23  C21 ZIN A   1      17.539   4.238  11.973  0.00  0.00     0.237 C 
ATOM     24  C23 ZIN A   1      16.964   5.134  10.874  0.00  0.00     0.064 C 
BRANCH  23  25
ATOM     25  O20 ZIN A   1      18.368   5.034  12.861  0.00  0.00    -0.278 OA
BRANCH  25  26
ATOM     26  C18 ZIN A   1      17.913   5.225  14.114  0.00  0.00     0.370 C 
ATOM     27  N16 ZIN A   1      18.754   5.645  15.080  0.00  0.00    -0.282 N 
ATOM     28  C17 ZIN A   1      20.163   5.895  14.767  0.00  0.00     0.163 C 
ATOM     29  O19 ZIN A   1      16.744   5.018  14.374  0.00  0.00    -0.238 OA
BRANCH  27  30
ATOM     30  C15 ZIN A   1      18.282   5.842  16.377  0.00  0.00     0.141 A 
ATOM     31  C10 ZIN A   1      18.277   4.783  17.276  0.00  0.00     0.012 A 
ATOM     32  C11 ZIN A   1      17.806   4.991  18.560  0.00  0.00     0.014 A 
ATOM     33  C12 ZIN A   1      17.350   6.258  18.901  0.00  0.00     0.020 A 
ATOM     34  C13 ZIN A   1      17.379   7.263  17.954  0.00  0.00     0.119 A 
ATOM     35  N14 ZIN A   1      17.833   7.034  16.737  0.00  0.00    -0.242 NA
BRANCH  31  36
ATOM     36  C9  ZIN A   1      18.785   3.425  16.860  0.00  0.00     0.221 C 
BRANCH  36  37
ATOM     37  O8  ZIN A   1      19.436   2.785  17.990  0.00  0.00    -0.315 OA
BRANCH  37  38
ATOM     38  C6  ZIN A   1      19.103   1.511  18.243  0.00  0.00     0.284 C 
ATOM     39  O7  ZIN A   1      19.966   0.682  18.418  0.00  0.00    -0.263 OA
BRANCH  38  40
ATOM     40  C5  ZIN A   1      17.651   1.111  18.309  0.00  0.00     0.342 C 
BRANCH  40  41
ATOM     41  N2  ZIN A   1      17.216   0.625  16.993  0.00  0.00    -0.070 N 
ATOM     42  C1  ZIN A   1      17.377  -0.834  16.931  0.00  0.00     0.267 C 
ATOM     43  H3  ZIN A   1      17.778   1.056  16.273  0.00  0.00     0.277 HD
ATOM     44  H4  ZIN A   1      16.246   0.863  16.850  0.00  0.00     0.277 HD
ENDBRANCH  40  41
ENDBRANCH  38  40
ENDBRANCH  37  38
ENDBRANCH  36  37
ENDBRANCH  31  36
ENDBRANCH  27  30
ENDBRANCH  25  26
ENDBRANCH  23  25
ENDBRANCH  20  23
ENDBRANCH  17  18
ENDBRANCH  16  17
BRANCH  16  45
ATOM     45  O29 ZIN A   1      20.198  -0.935   9.208  0.00  0.00    -0.382 OA
ATOM     46  H75 ZIN A   1      19.960  -1.110  10.129  0.00  0.00     0.211 HD
ENDBRANCH  16  45
BRANCH  16  47
ATOM     47  C30 ZIN A   1      19.210  -0.480   7.071  0.00  0.00     0.020 A 
ATOM     48  C36 ZIN A   1      18.996   0.481   6.098  0.00  0.00     0.126 A 
ATOM     49  C35 ZIN A   1      18.937   0.115   4.764  0.00  0.00     0.046 A 
ATOM     50  F37 ZIN A   1      18.854   1.779   6.450  0.00  0.00    -0.205 F 
ATOM     51  C34 ZIN A   1      19.080  -1.211   4.404  0.00  0.00     0.045 A 
ATOM     52  C32 ZIN A   1      19.290  -2.173   5.377  0.00  0.00     0.117 A 
ATOM     53  C31 ZIN A   1      19.354  -1.807   6.711  0.00  0.00     0.055 A 
ATOM     54  F33 ZIN A   1      19.431  -3.470   5.026  0.00  0.00    -0.206 F 
ENDBRANCH  16  47
ENDBRANCH  14  16
ENDBRANCH  11  14
ENDBRANCH   1   9
TORSDOF 16
ENDMDL
MODEL 2
REMARK VINA RESULT:      -9.5      3.830     11.433
REMARK  16 active torsions:
REMARK  status: ('A' for Active; 'I' for Inactive)
REMARK    1  A    between atoms: N2_2  and  C5_5 
REMARK    2  A    between atoms: C5_5  and  C6_6 
REMARK    3  A    between atoms: C6_6  and  O8_8 
REMARK    4  A    between atoms: O8_8  and  C9_9 
REMARK    5  A    between atoms: C9_9  and  C10_10 
REMARK    6  A    between atoms: C15_15  and  N16_16 
REMARK       I    between atoms: N16_16  and  C18_18 
REMARK    7  A    between atoms: C18_18  and  O20_20 
REMARK    8  A    between atoms: O20_20  and  C21_21 
REMARK    9  A    between atoms: C21_21  and  N24_23 
REMARK   10  A    between atoms: N26_25  and  C27_26 
REMARK   11  A    between atoms: C27_26  and  C28_27 
REMARK   12  A    between atoms: C28_27  and  O29_28 
REMARK   13  A    between atoms: C28_27  and  C30_29 
REMARK   14  A    between atoms: C28_27  and  C38_37 
REMARK   15  A    between atoms: C38_37  and  C41_39 
REMARK   16  A    between atoms: C43_41  and  C44_42 
ROOT
ATOM      1  C44 ZIN A   1      18.341   1.804   9.232  0.00  0.00    -0.007 A 
ATOM      2  C45 ZIN A   1      17.903   0.488   9.072  0.00  0.00     0.015 A 
ATOM      3  C46 ZIN A   1      18.198  -0.199   7.924  0.00  0.00     0.023 A 
ATOM      4  C47 ZIN A   1      18.940   0.418   6.912  0.00  0.00     0.044 A 
ATOM      5  C48 ZIN A   1      19.250  -0.298   5.712  0.00  0.00     0.099 C 
ATOM      6  N49 ZIN A   1      19.495  -0.867   4.759  0.00  0.00    -0.191 NA
ATOM      7  C50 ZIN A   1      19.380   1.736   7.074  0.00  0.00     0.023 A 
ATOM      8  C51 ZIN A   1      19.077   2.422   8.221  0.00  0.00     0.015 A 
ENDROOT
BRANCH   1   9
ATOM      9  C43 ZIN A   1      18.020   2.544  10.474  0.00  0.00     0.074 A 
ATOM     10  N42 ZIN A   1      18.237   2.052  11.685  0.00  0.00    -0.244 NA
ATOM     11  C41 ZIN A   1      17.914   2.794  12.688  0.00  0.00     0.082 A 
ATOM     12  S53 ZIN A   1      17.259   4.277  12.149  0.00  0.00    -0.084 SA
ATOM     13  C52 ZIN A   1      17.480   3.782  10.472  0.00  0.00     0.084 A 
BRANCH  11  14
ATOM     14  C38 ZIN A   1      18.086   2.406  14.134  0.00  0.00     0.082 C 
ATOM     15  C40 ZIN A   1      19.154   3.294  14.777  0.00  0.00     0.020 C 
BRANCH  14  16
ATOM     16  C28 ZIN A   1      18.523   0.941  14.220  0.00  0.00     0.115 C 
BRANCH  16  17
ATOM     17  C27 ZIN A   1      17.535   0.069  13.443  0.00  0.00     0.196 C 
BRANCH  17  18
ATOM     18  N26 ZIN A   1      18.274  -0.867  12.591  0.00  0.00    -0.261 N 
ATOM     19  C25 ZIN A   1      17.864  -2.079  12.182  0.00  0.00     0.208 A 
ATOM     20  N24 ZIN A   1      18.808  -2.597  11.439  0.00  0.00    -0.307 N 
ATOM     21  C55 ZIN A   1      19.833  -1.750  11.356  0.00  0.00     0.235 A 
ATOM     22  N54 ZIN A   1      19.552  -0.673  12.041  0.00  0.00    -0.166 NA
BRANCH  20  23
ATOM     23  C21 ZIN A   1      18.749  -3.914  10.800  0.00  0.00     0.237 C 
ATOM     24  C23 ZIN A   1      20.044  -4.679  11.086  0.00  0.00     0.064 C 
BRANCH  23  25
ATOM     25  O20 ZIN A   1      18.592  -3.749   9.366  0.00  0.00    -0.278 OA
BRANCH  25  26
ATOM     26  C18 ZIN A   1      18.007  -4.759   8.695  0.00  0.00     0.370 C 
ATOM     27  N16 ZIN A   1      18.704  -5.445   7.766  0.00  0.00    -0.282 N 
ATOM     28  C17 ZIN A   1      20.097  -5.089   7.487  0.00  0.00     0.163 C 
ATOM     29  O19 ZIN A   1      16.852  -5.054   8.927  0.00  0.00    -0.238 OA
BRANCH  27  30
ATOM     30  C15 ZIN A   1      18.098  -6.491   7.072  0.00  0.00     0.141 A 
ATOM     31  C10 ZIN A   1      17.597  -6.270   5.795  0.00  0.00     0.012 A 
ATOM     32  C11 ZIN A   1      16.997  -7.316   5.116  0.00  0.00     0.014 A 
ATOM     33  C12 ZIN A   1      16.916  -8.552   5.745  0.00  0.00     0.020 A 
ATOM     34  C13 ZIN A   1      17.431  -8.698   7.017  0.00  0.00     0.119 A 
ATOM     35  N14 ZIN A   1      17.996  -7.682   7.639  0.00  0.00    -0.242 NA
BRANCH  31  36
ATOM     36  C9  ZIN A   1      17.710  -4.910   5.154  0.00  0.00     0.221 C 
BRANCH  36  37
ATOM     37  O8  ZIN A   1      16.457  -4.578   4.499  0.00  0.00    -0.315 OA
BRANCH  37  38
ATOM     38  C6  ZIN A   1      16.509  -3.679   3.505  0.00  0.00     0.284 C 
ATOM     39  O7  ZIN A   1      16.765  -2.523   3.747  0.00  0.00    -0.263 OA
BRANCH  38  40
ATOM     40  C5  ZIN A   1      16.249  -4.111   2.084  0.00  0.00     0.342 C 
BRANCH  40  41
ATOM     41  N2  ZIN A   1      17.524  -4.425   1.427  0.00  0.00    -0.070 N 
ATOM     42  C1  ZIN A   1      17.719  -5.882   1.406  0.00  0.00     0.267 C 
ATOM     43  H3  ZIN A   1      18.281  -3.993   1.936  0.00  0.00     0.277 HD
ATOM     44  H4  ZIN A   1      17.512  -4.074   0.481  0.00  0.00     0.277 HD
ENDBRANCH  40  41
ENDBRANCH  38  40
ENDBRANCH  37  38
ENDBRANCH  36  37
ENDBRANCH  31  36
ENDBRANCH  27  30
ENDBRANCH  25  26
ENDBRANCH  23  25
ENDBRANCH  20  23
ENDBRANCH  17  18
ENDBRANCH  16  17
BRANCH  16  45
ATOM     45  O29 ZIN A   1      19.829   0.800  13.656  0.00  0.00    -0.382 OA
ATOM     46  H75 ZIN A   1      20.032   1.447  12.967  0.00  0.00     0.211 HD
ENDBRANCH  16  45
BRANCH  16  47
ATOM     47  C30 ZIN A   1      18.549   0.509  15.663  0.00  0.00     0.020 A 
ATOM     48  C36 ZIN A   1      19.163  -0.680  16.018  0.00  0.00     0.126 A 
ATOM     49  C35 ZIN A   1      19.192  -1.075  17.345  0.00  0.00     0.046 A 
ATOM     50  F37 ZIN A   1      19.745  -1.450  15.071  0.00  0.00    -0.205 F 
ATOM     51  C34 ZIN A   1      18.597  -0.289  18.313  0.00  0.00     0.045 A 
ATOM     52  C32 ZIN A   1      17.978   0.897  17.957  0.00  0.00     0.117 A 
ATOM     53  C31 ZIN A   1      17.954   1.295  16.631  0.00  0.00     0.055 A 
ATOM     54  F33 ZIN A   1      17.396   1.666  18.903  0.00  0.00    -0.206 F 
ENDBRANCH  16  47
ENDBRANCH  14  16
ENDBRANCH  11  14
ENDBRANCH   1   9
TORSDOF 16
ENDMDL
MODEL 3
REMARK VINA RESULT:      -9.4      3.743     11.085
REMARK  16 active torsions:
REMARK  status: ('A' for Active; 'I' for Inactive)
REMARK    1  A    between atoms: N2_2  and  C5_5 
REMARK    2  A    between atoms: C5_5  and  C6_6 
REMARK    3  A    between atoms: C6_6  and  O8_8 
REMARK    4  A    between atoms: O8_8  and  C9_9 
REMARK    5  A    between atoms: C9_9  and  C10_10 
REMARK    6  A    between atoms: C15_15  and  N16_16 
REMARK       I    between atoms: N16_16  and  C18_18 
REMARK    7  A    between atoms: C18_18  and  O20_20 
REMARK    8  A    between atoms: O20_20  and  C21_21 
REMARK    9  A    between atoms: C21_21  and  N24_23 
REMARK   10  A    between atoms: N26_25  and  C27_26 
REMARK   11  A    between atoms: C27_26  and  C28_27 
REMARK   12  A    between atoms: C28_27  and  O29_28 
REMARK   13  A    between atoms: C28_27  and  C30_29 
REMARK   14  A    between atoms: C28_27  and  C38_37 
REMARK   15  A    between atoms: C38_37  and  C41_39 
REMARK   16  A    between atoms: C43_41  and  C44_42 
ROOT
ATOM      1  C44 ZIN A   1      18.304   1.847   9.257  0.00  0.00    -0.007 A 
ATOM      2  C45 ZIN A   1      19.009   2.467   8.224  0.00  0.00     0.015 A 
ATOM      3  C46 ZIN A   1      19.275   1.782   7.067  0.00  0.00     0.023 A 
ATOM      4  C47 ZIN A   1      18.838   0.462   6.921  0.00  0.00     0.044 A 
ATOM      5  C48 ZIN A   1      19.116  -0.256   5.713  0.00  0.00     0.099 C 
ATOM      6  N49 ZIN A   1      19.336  -0.824   4.754  0.00  0.00    -0.191 NA
ATOM      7  C50 ZIN A   1      18.131  -0.158   7.956  0.00  0.00     0.023 A 
ATOM      8  C51 ZIN A   1      17.873   0.528   9.114  0.00  0.00     0.015 A 
ENDROOT
BRANCH   1   9
ATOM      9  C43 ZIN A   1      18.018   2.589  10.507  0.00  0.00     0.074 A 
ATOM     10  N42 ZIN A   1      18.215   2.076  11.713  0.00  0.00    -0.244 NA
ATOM     11  C41 ZIN A   1      17.928   2.822  12.723  0.00  0.00     0.082 A 
ATOM     12  S53 ZIN A   1      17.338   4.338  12.200  0.00  0.00    -0.084 SA
ATOM     13  C52 ZIN A   1      17.534   3.850  10.518  0.00  0.00     0.084 A 
BRANCH  11  14
ATOM     14  C38 ZIN A   1      18.085   2.412  14.165  0.00  0.00     0.082 C 
ATOM     15  C40 ZIN A   1      19.123   3.312  14.840  0.00  0.00     0.020 C 
BRANCH  14  16
ATOM     16  C28 ZIN A   1      18.552   0.956  14.233  0.00  0.00     0.115 C 
BRANCH  16  17
ATOM     17  C27 ZIN A   1      17.599   0.077  13.422  0.00  0.00     0.196 C 
BRANCH  17  18
ATOM     18  N26 ZIN A   1      18.374  -0.807  12.547  0.00  0.00    -0.261 N 
ATOM     19  C25 ZIN A   1      18.019  -2.031  12.119  0.00  0.00     0.208 A 
ATOM     20  N24 ZIN A   1      18.980  -2.490  11.361  0.00  0.00    -0.307 N 
ATOM     21  C55 ZIN A   1      19.963  -1.595  11.284  0.00  0.00     0.235 A 
ATOM     22  N54 ZIN A   1      19.637  -0.544  11.991  0.00  0.00    -0.166 NA
BRANCH  20  23
ATOM     23  C21 ZIN A   1      18.978  -3.797  10.699  0.00  0.00     0.237 C 
ATOM     24  C23 ZIN A   1      19.929  -4.744  11.434  0.00  0.00     0.064 C 
BRANCH  23  25
ATOM     25  O20 ZIN A   1      19.417  -3.643   9.323  0.00  0.00    -0.278 OA
BRANCH  25  26
ATOM     26  C18 ZIN A   1      18.512  -3.902   8.360  0.00  0.00     0.370 C 
ATOM     27  N16 ZIN A   1      18.890  -4.533   7.231  0.00  0.00    -0.282 N 
ATOM     28  C17 ZIN A   1      20.287  -4.938   7.051  0.00  0.00     0.163 C 
ATOM     29  O19 ZIN A   1      17.354  -3.566   8.509  0.00  0.00    -0.238 OA
BRANCH  27  30
ATOM     30  C15 ZIN A   1      17.953  -4.800   6.234  0.00  0.00     0.141 A 
ATOM     31  C10 ZIN A   1      17.212  -5.975   6.283  0.00  0.00     0.012 A 
ATOM     32  C11 ZIN A   1      16.286  -6.229   5.288  0.00  0.00     0.014 A 
ATOM     33  C12 ZIN A   1      16.135  -5.296   4.269  0.00  0.00     0.020 A 
ATOM     34  C13 ZIN A   1      16.910  -4.153   4.281  0.00  0.00     0.119 A 
ATOM     35  N14 ZIN A   1      17.786  -3.939   5.244  0.00  0.00    -0.242 NA
BRANCH  31  36
ATOM     36  C9  ZIN A   1      17.410  -6.957   7.410  0.00  0.00     0.221 C 
BRANCH  36  37
ATOM     37  O8  ZIN A   1      18.167  -8.099   6.929  0.00  0.00    -0.315 OA
BRANCH  37  38
ATOM     38  C6  ZIN A   1      17.562  -9.295   6.983  0.00  0.00     0.284 C 
ATOM     39  O7  ZIN A   1      18.091 -10.264   6.488  0.00  0.00    -0.263 OA
BRANCH  38  40
ATOM     40  C5  ZIN A   1      16.222  -9.433   7.660  0.00  0.00     0.342 C 
BRANCH  40  41
ATOM     41  N2  ZIN A   1      15.367 -10.333   6.875  0.00  0.00    -0.070 N 
ATOM     42  C1  ZIN A   1      14.898  -9.634   5.669  0.00  0.00     0.267 C 
ATOM     43  H3  ZIN A   1      14.572 -10.611   7.431  0.00  0.00     0.277 HD
ATOM     44  H4  ZIN A   1      15.893 -11.150   6.607  0.00  0.00     0.277 HD
ENDBRANCH  40  41
ENDBRANCH  38  40
ENDBRANCH  37  38
ENDBRANCH  36  37
ENDBRANCH  31  36
ENDBRANCH  27  30
ENDBRANCH  25  26
ENDBRANCH  23  25
ENDBRANCH  20  23
ENDBRANCH  17  18
ENDBRANCH  16  17
BRANCH  16  45
ATOM     45  O29 ZIN A   1      19.871   0.853  13.692  0.00  0.00    -0.382 OA
ATOM     46  H75 ZIN A   1      19.954   0.207  12.978  0.00  0.00     0.211 HD
ENDBRANCH  16  45
BRANCH  16  47
ATOM     47  C30 ZIN A   1      18.560   0.498  15.668  0.00  0.00     0.020 A 
ATOM     48  C36 ZIN A   1      19.192  -0.685  16.013  0.00  0.00     0.126 A 
ATOM     49  C35 ZIN A   1      19.203  -1.104  17.333  0.00  0.00     0.046 A 
ATOM     50  F37 ZIN A   1      19.806  -1.425  15.064  0.00  0.00    -0.205 F 
ATOM     51  C34 ZIN A   1      18.575  -0.348  18.304  0.00  0.00     0.045 A 
ATOM     52  C32 ZIN A   1      17.939   0.832  17.957  0.00  0.00     0.117 A 
ATOM     53  C31 ZIN A   1      17.931   1.254  16.639  0.00  0.00     0.055 A 
ATOM     54  F33 ZIN A   1      17.324   1.572  18.906  0.00  0.00    -0.206 F 
ENDBRANCH  16  47
ENDBRANCH  14  16
ENDBRANCH  11  14
ENDBRANCH   1   9
TORSDOF 16
ENDMDL
MODEL 4
REMARK VINA RESULT:      -9.2      3.983     11.655
REMARK  16 active torsions:
REMARK  status: ('A' for Active; 'I' for Inactive)
REMARK    1  A    between atoms: N2_2  and  C5_5 
REMARK    2  A    between atoms: C5_5  and  C6_6 
REMARK    3  A    between atoms: C6_6  and  O8_8 
REMARK    4  A    between atoms: O8_8  and  C9_9 
REMARK    5  A    between atoms: C9_9  and  C10_10 
REMARK    6  A    between atoms: C15_15  and  N16_16 
REMARK       I    between atoms: N16_16  and  C18_18 
REMARK    7  A    between atoms: C18_18  and  O20_20 
REMARK    8  A    between atoms: O20_20  and  C21_21 
REMARK    9  A    between atoms: C21_21  and  N24_23 
REMARK   10  A    between atoms: N26_25  and  C27_26 
REMARK   11  A    between atoms: C27_26  and  C28_27 
REMARK   12  A    between atoms: C28_27  and  O29_28 
REMARK   13  A    between atoms: C28_27  and  C30_29 
REMARK   14  A    between atoms: C28_27  and  C38_37 
REMARK   15  A    between atoms: C38_37  and  C41_39 
REMARK   16  A    between atoms: C43_41  and  C44_42 
ROOT
ATOM      1  C44 ZIN A   1      18.533   1.102   8.475  0.00  0.00    -0.007 A 
ATOM      2  C45 ZIN A   1      19.089   1.710   7.348  0.00  0.00     0.015 A 
ATOM      3  C46 ZIN A   1      19.319   0.974   6.215  0.00  0.00     0.023 A 
ATOM      4  C47 ZIN A   1      18.996  -0.386   6.187  0.00  0.00     0.044 A 
ATOM      5  C48 ZIN A   1      19.236  -1.156   5.004  0.00  0.00     0.099 C 
ATOM      6  N49 ZIN A   1      19.426  -1.766   4.065  0.00  0.00    -0.191 NA
ATOM      7  C50 ZIN A   1      18.438  -0.993   7.316  0.00  0.00     0.023 A 
ATOM      8  C51 ZIN A   1      18.216  -0.256   8.451  0.00  0.00     0.015 A 
ENDROOT
BRANCH   1   9
ATOM      9  C43 ZIN A   1      18.287   1.899   9.699  0.00  0.00     0.074 A 
ATOM     10  N42 ZIN A   1      18.214   1.361  10.908  0.00  0.00    -0.244 NA
ATOM     11  C41 ZIN A   1      17.995   2.161  11.894  0.00  0.00     0.082 A 
ATOM     12  S53 ZIN A   1      17.845   3.770  11.339  0.00  0.00    -0.084 SA
ATOM     13  C52 ZIN A   1      18.116   3.238   9.681  0.00  0.00     0.084 A 
BRANCH  11  14
ATOM     14  C38 ZIN A   1      17.880   1.735  13.336  0.00  0.00     0.082 C 
ATOM     15  C40 ZIN A   1      18.801   2.602  14.198  0.00  0.00     0.020 C 
BRANCH  14  16
ATOM     16  C28 ZIN A   1      18.292   0.267  13.468  0.00  0.00     0.115 C 
BRANCH  16  17
ATOM     17  C27 ZIN A   1      17.319  -0.608  12.676  0.00  0.00     0.196 C 
BRANCH  17  18
ATOM     18  N26 ZIN A   1      18.070  -1.628  11.938  0.00  0.00    -0.261 N 
ATOM     19  C25 ZIN A   1      17.617  -2.829  11.537  0.00  0.00     0.208 A 
ATOM     20  N24 ZIN A   1      18.589  -3.440  10.912  0.00  0.00    -0.307 N 
ATOM     21  C55 ZIN A   1      19.674  -2.668  10.897  0.00  0.00     0.235 A 
ATOM     22  N54 ZIN A   1      19.404  -1.545  11.509  0.00  0.00    -0.166 NA
BRANCH  20  23
ATOM     23  C21 ZIN A   1      18.499  -4.779  10.322  0.00  0.00     0.237 C 
ATOM     24  C23 ZIN A   1      19.905  -5.364  10.168  0.00  0.00     0.064 C 
BRANCH  23  25
ATOM     25  O20 ZIN A   1      17.867  -4.690   9.017  0.00  0.00    -0.278 OA
BRANCH  25  26
ATOM     26  C18 ZIN A   1      17.394  -5.835   8.489  0.00  0.00     0.370 C 
ATOM     27  N16 ZIN A   1      17.847  -6.264   7.294  0.00  0.00    -0.282 N 
ATOM     28  C17 ZIN A   1      18.853  -5.483   6.570  0.00  0.00     0.163 C 
ATOM     29  O19 ZIN A   1      16.560  -6.482   9.089  0.00  0.00    -0.238 OA
BRANCH  27  30
ATOM     30  C15 ZIN A   1      17.358  -7.449   6.747  0.00  0.00     0.141 A 
ATOM     31  C10 ZIN A   1      16.304  -7.406   5.841  0.00  0.00     0.012 A 
ATOM     32  C11 ZIN A   1      15.827  -8.589   5.306  0.00  0.00     0.014 A 
ATOM     33  C12 ZIN A   1      16.421  -9.781   5.702  0.00  0.00     0.020 A 
ATOM     34  C13 ZIN A   1      17.460  -9.749   6.610  0.00  0.00     0.119 A 
ATOM     35  N14 ZIN A   1      17.893  -8.605   7.104  0.00  0.00    -0.242 NA
BRANCH  31  36
ATOM     36  C9  ZIN A   1      15.694  -6.086   5.442  0.00  0.00     0.221 C 
BRANCH  36  37
ATOM     37  O8  ZIN A   1      14.635  -6.316   4.474  0.00  0.00    -0.315 OA
BRANCH  37  38
ATOM     38  C6  ZIN A   1      14.793  -5.771   3.258  0.00  0.00     0.284 C 
ATOM     39  O7  ZIN A   1      14.049  -4.893   2.888  0.00  0.00    -0.263 OA
BRANCH  38  40
ATOM     40  C5  ZIN A   1      15.899  -6.252   2.354  0.00  0.00     0.342 C 
BRANCH  40  41
ATOM     41  N2  ZIN A   1      16.624  -5.097   1.809  0.00  0.00    -0.070 N 
ATOM     42  C1  ZIN A   1      17.687  -4.701   2.743  0.00  0.00     0.267 C 
ATOM     43  H3  ZIN A   1      15.983  -4.327   1.683  0.00  0.00     0.277 HD
ATOM     44  H4  ZIN A   1      17.031  -5.344   0.920  0.00  0.00     0.277 HD
ENDBRANCH  40  41
ENDBRANCH  38  40
ENDBRANCH  37  38
ENDBRANCH  36  37
ENDBRANCH  31  36
ENDBRANCH  27  30
ENDBRANCH  25  26
ENDBRANCH  23  25
ENDBRANCH  20  23
ENDBRANCH  17  18
ENDBRANCH  16  17
BRANCH  16  45
ATOM     45  O29 ZIN A   1      19.615   0.096  12.953  0.00  0.00    -0.382 OA
ATOM     46  H75 ZIN A   1      20.249   0.753  13.271  0.00  0.00     0.211 HD
ENDBRANCH  16  45
BRANCH  16  47
ATOM     47  C30 ZIN A   1      18.262  -0.135  14.919  0.00  0.00     0.020 A 
ATOM     48  C36 ZIN A   1      19.124  -1.112  15.386  0.00  0.00     0.126 A 
ATOM     49  C35 ZIN A   1      19.100  -1.478  16.721  0.00  0.00     0.046 A 
ATOM     50  F37 ZIN A   1      19.998  -1.702  14.539  0.00  0.00    -0.205 F 
ATOM     51  C34 ZIN A   1      18.207  -0.876  17.586  0.00  0.00     0.045 A 
ATOM     52  C32 ZIN A   1      17.341   0.098  17.119  0.00  0.00     0.117 A 
ATOM     53  C31 ZIN A   1      17.368   0.468  15.785  0.00  0.00     0.055 A 
ATOM     54  F33 ZIN A   1      16.467   0.687  17.965  0.00  0.00    -0.206 F 
ENDBRANCH  16  47
ENDBRANCH  14  16
ENDBRANCH  11  14
ENDBRANCH   1   9
TORSDOF 16
ENDMDL
MODEL 5
REMARK VINA RESULT:      -9.2      3.124      4.414
REMARK  16 active torsions:
REMARK  status: ('A' for Active; 'I' for Inactive)
REMARK    1  A    between atoms: N2_2  and  C5_5 
REMARK    2  A    between atoms: C5_5  and  C6_6 
REMARK    3  A    between atoms: C6_6  and  O8_8 
REMARK    4  A    between atoms: O8_8  and  C9_9 
REMARK    5  A    between atoms: C9_9  and  C10_10 
REMARK    6  A    between atoms: C15_15  and  N16_16 
REMARK       I    between atoms: N16_16  and  C18_18 
REMARK    7  A    between atoms: C18_18  and  O20_20 
REMARK    8  A    between atoms: O20_20  and  C21_21 
REMARK    9  A    between atoms: C21_21  and  N24_23 
REMARK   10  A    between atoms: N26_25  and  C27_26 
REMARK   11  A    between atoms: C27_26  and  C28_27 
REMARK   12  A    between atoms: C28_27  and  O29_28 
REMARK   13  A    between atoms: C28_27  and  C30_29 
REMARK   14  A    between atoms: C28_27  and  C38_37 
REMARK   15  A    between atoms: C38_37  and  C41_39 
REMARK   16  A    between atoms: C43_41  and  C44_42 
ROOT
ATOM      1  C44 ZIN A   1      16.163  -4.374   3.813  0.00  0.00    -0.007 A 
ATOM      2  C45 ZIN A   1      15.789  -4.183   2.481  0.00  0.00     0.015 A 
ATOM      3  C46 ZIN A   1      14.811  -4.965   1.924  0.00  0.00     0.023 A 
ATOM      4  C47 ZIN A   1      14.188  -5.955   2.690  0.00  0.00     0.044 A 
ATOM      5  C48 ZIN A   1      13.167  -6.774   2.110  0.00  0.00     0.099 C 
ATOM      6  N49 ZIN A   1      12.356  -7.423   1.649  0.00  0.00    -0.191 NA
ATOM      7  C50 ZIN A   1      14.563  -6.145   4.024  0.00  0.00     0.023 A 
ATOM      8  C51 ZIN A   1      15.546  -5.365   4.576  0.00  0.00     0.015 A 
ENDROOT
BRANCH   1   9
ATOM      9  C43 ZIN A   1      17.221  -3.528   4.412  0.00  0.00     0.074 A 
ATOM     10  N42 ZIN A   1      17.820  -3.823   5.557  0.00  0.00    -0.244 NA
ATOM     11  C41 ZIN A   1      18.725  -3.006   5.974  0.00  0.00     0.082 A 
ATOM     12  S53 ZIN A   1      18.904  -1.702   4.884  0.00  0.00    -0.084 SA
ATOM     13  C52 ZIN A   1      17.660  -2.386   3.840  0.00  0.00     0.084 A 
BRANCH  11  14
ATOM     14  C38 ZIN A   1      19.511  -3.175   7.249  0.00  0.00     0.082 C 
ATOM     15  C40 ZIN A   1      19.843  -4.655   7.451  0.00  0.00     0.020 C 
BRANCH  14  16
ATOM     16  C28 ZIN A   1      18.679  -2.673   8.431  0.00  0.00     0.115 C 
BRANCH  16  17
ATOM     17  C27 ZIN A   1      19.560  -1.827   9.352  0.00  0.00     0.196 C 
BRANCH  17  18
ATOM     18  N26 ZIN A   1      18.739  -0.811  10.017  0.00  0.00    -0.261 N 
ATOM     19  C25 ZIN A   1      19.007   0.502  10.116  0.00  0.00     0.208 A 
ATOM     20  N24 ZIN A   1      18.032   1.065  10.782  0.00  0.00    -0.307 N 
ATOM     21  C55 ZIN A   1      17.130   0.148  11.126  0.00  0.00     0.235 A 
ATOM     22  N54 ZIN A   1      17.516  -1.017  10.676  0.00  0.00    -0.166 NA
BRANCH  20  23
ATOM     23  C21 ZIN A   1      17.949   2.492  11.105  0.00  0.00     0.237 C 
ATOM     24  C23 ZIN A   1      18.403   3.317   9.899  0.00  0.00     0.064 C 
BRANCH  23  25
ATOM     25  O20 ZIN A   1      18.808   2.782  12.240  0.00  0.00    -0.278 OA
BRANCH  25  26
ATOM     26  C18 ZIN A   1      18.208   3.216  13.364  0.00  0.00     0.370 C 
ATOM     27  N16 ZIN A   1      18.646   4.337  13.972  0.00  0.00    -0.282 N 
ATOM     28  C17 ZIN A   1      19.775   5.082  13.409  0.00  0.00     0.163 C 
ATOM     29  O19 ZIN A   1      17.272   2.599  13.832  0.00  0.00    -0.238 OA
BRANCH  27  30
ATOM     30  C15 ZIN A   1      18.026   4.787  15.136  0.00  0.00     0.141 A 
ATOM     31  C10 ZIN A   1      18.449   4.310  16.371  0.00  0.00     0.012 A 
ATOM     32  C11 ZIN A   1      17.824   4.763  17.519  0.00  0.00     0.014 A 
ATOM     33  C12 ZIN A   1      16.789   5.680  17.391  0.00  0.00     0.020 A 
ATOM     34  C13 ZIN A   1      16.417   6.107  16.132  0.00  0.00     0.119 A 
ATOM     35  N14 ZIN A   1      17.031   5.656  15.055  0.00  0.00    -0.242 NA
BRANCH  31  36
ATOM     36  C9  ZIN A   1      19.579   3.315  16.459  0.00  0.00     0.221 C 
BRANCH  36  37
ATOM     37  O8  ZIN A   1      19.037   1.985  16.677  0.00  0.00    -0.315 OA
BRANCH  37  38
ATOM     38  C6  ZIN A   1      19.352   1.382  17.834  0.00  0.00     0.284 C 
ATOM     39  O7  ZIN A   1      19.763   2.035  18.764  0.00  0.00    -0.263 OA
BRANCH  38  40
ATOM     40  C5  ZIN A   1      19.194  -0.110  17.973  0.00  0.00     0.342 C 
BRANCH  40  41
ATOM     41  N2  ZIN A   1      18.054  -0.560  17.163  0.00  0.00    -0.070 N 
ATOM     42  C1  ZIN A   1      18.546  -1.304  15.995  0.00  0.00     0.267 C 
ATOM     43  H3  ZIN A   1      17.526   0.242  16.852  0.00  0.00     0.277 HD
ATOM     44  H4  ZIN A   1      17.461  -1.158  17.718  0.00  0.00     0.277 HD
ENDBRANCH  40  41
ENDBRANCH  38  40
ENDBRANCH  37  38
ENDBRANCH  36  37
ENDBRANCH  31  36
ENDBRANCH  27  30
ENDBRANCH  25  26
ENDBRANCH  23  25
ENDBRANCH  20  23
ENDBRANCH  17  18
ENDBRANCH  16  17
BRANCH  16  45
ATOM     45  O29 ZIN A   1      17.595  -1.878   7.947  0.00  0.00    -0.382 OA
ATOM     46  H75 ZIN A   1      17.084  -2.297   7.240  0.00  0.00     0.211 HD
ENDBRANCH  16  45
BRANCH  16  47
ATOM     47  C30 ZIN A   1      18.135  -3.850   9.198  0.00  0.00     0.020 A 
ATOM     48  C36 ZIN A   1      18.850  -4.373  10.263  0.00  0.00     0.126 A 
ATOM     49  C35 ZIN A   1      18.348  -5.451  10.971  0.00  0.00     0.046 A 
ATOM     50  F37 ZIN A   1      20.033  -3.824  10.617  0.00  0.00    -0.205 F 
ATOM     51  C34 ZIN A   1      17.139  -6.014  10.609  0.00  0.00     0.045 A 
ATOM     52  C32 ZIN A   1      16.427  -5.494   9.542  0.00  0.00     0.117 A 
ATOM     53  C31 ZIN A   1      16.926  -4.413   8.836  0.00  0.00     0.055 A 
ATOM     54  F33 ZIN A   1      15.244  -6.044   9.187  0.00  0.00    -0.206 F 
ENDBRANCH  16  47
ENDBRANCH  14  16
ENDBRANCH  11  14
ENDBRANCH   1   9
TORSDOF 16
ENDMDL
MODEL 6
REMARK VINA RESULT:      -9.1      3.948     11.108
REMARK  16 active torsions:
REMARK  status: ('A' for Active; 'I' for Inactive)
REMARK    1  A    between atoms: N2_2  and  C5_5 
REMARK    2  A    between atoms: C5_5  and  C6_6 
REMARK    3  A    between atoms: C6_6  and  O8_8 
REMARK    4  A    between atoms: O8_8  and  C9_9 
REMARK    5  A    between atoms: C9_9  and  C10_10 
REMARK    6  A    between atoms: C15_15  and  N16_16 
REMARK       I    between atoms: N16_16  and  C18_18 
REMARK    7  A    between atoms: C18_18  and  O20_20 
REMARK    8  A    between atoms: O20_20  and  C21_21 
REMARK    9  A    between atoms: C21_21  and  N24_23 
REMARK   10  A    between atoms: N26_25  and  C27_26 
REMARK   11  A    between atoms: C27_26  and  C28_27 
REMARK   12  A    between atoms: C28_27  and  O29_28 
REMARK   13  A    between atoms: C28_27  and  C30_29 
REMARK   14  A    between atoms: C28_27  and  C38_37 
REMARK   15  A    between atoms: C38_37  and  C41_39 
REMARK   16  A    between atoms: C43_41  and  C44_42 
ROOT
ATOM      1  C44 ZIN A   1      18.231   1.088   8.859  0.00  0.00    -0.007 A 
ATOM      2  C45 ZIN A   1      17.432   0.012   8.467  0.00  0.00     0.015 A 
ATOM      3  C46 ZIN A   1      17.399  -0.374   7.153  0.00  0.00     0.023 A 
ATOM      4  C47 ZIN A   1      18.166   0.309   6.204  0.00  0.00     0.044 A 
ATOM      5  C48 ZIN A   1      18.132  -0.093   4.830  0.00  0.00     0.099 C 
ATOM      6  N49 ZIN A   1      18.105  -0.413   3.740  0.00  0.00    -0.191 NA
ATOM      7  C50 ZIN A   1      18.966   1.386   6.598  0.00  0.00     0.023 A 
ATOM      8  C51 ZIN A   1      18.992   1.774   7.913  0.00  0.00     0.015 A 
ENDROOT
BRANCH   1   9
ATOM      9  C43 ZIN A   1      18.265   1.505  10.280  0.00  0.00     0.074 A 
ATOM     10  N42 ZIN A   1      19.080   0.961  11.173  0.00  0.00    -0.244 NA
ATOM     11  C41 ZIN A   1      19.015   1.410  12.378  0.00  0.00     0.082 A 
ATOM     12  S53 ZIN A   1      17.831   2.637  12.498  0.00  0.00    -0.084 SA
ATOM     13  C52 ZIN A   1      17.467   2.472  10.782  0.00  0.00     0.084 A 
BRANCH  11  14
ATOM     14  C38 ZIN A   1      19.860   0.917  13.525  0.00  0.00     0.082 C 
ATOM     15  C40 ZIN A   1      21.211   0.435  12.992  0.00  0.00     0.020 C 
BRANCH  14  16
ATOM     16  C28 ZIN A   1      19.145  -0.241  14.224  0.00  0.00     0.115 C 
BRANCH  16  17
ATOM     17  C27 ZIN A   1      17.945  -0.682  13.383  0.00  0.00     0.196 C 
BRANCH  17  18
ATOM     18  N26 ZIN A   1      18.297  -1.883  12.621  0.00  0.00    -0.261 N 
ATOM     19  C25 ZIN A   1      17.469  -2.637  11.879  0.00  0.00     0.208 A 
ATOM     20  N24 ZIN A   1      18.165  -3.616  11.362  0.00  0.00    -0.307 N 
ATOM     21  C55 ZIN A   1      19.435  -3.523  11.753  0.00  0.00     0.235 A 
ATOM     22  N54 ZIN A   1      19.567  -2.474  12.523  0.00  0.00    -0.166 NA
BRANCH  20  23
ATOM     23  C21 ZIN A   1      17.627  -4.661  10.488  0.00  0.00     0.237 C 
ATOM     24  C23 ZIN A   1      17.389  -5.935  11.302  0.00  0.00     0.064 C 
BRANCH  23  25
ATOM     25  O20 ZIN A   1      18.577  -4.938   9.424  0.00  0.00    -0.278 OA
BRANCH  25  26
ATOM     26  C18 ZIN A   1      18.116  -4.868   8.161  0.00  0.00     0.370 C 
ATOM     27  N16 ZIN A   1      18.949  -5.094   7.125  0.00  0.00    -0.282 N 
ATOM     28  C17 ZIN A   1      20.356  -5.416   7.375  0.00  0.00     0.163 C 
ATOM     29  O19 ZIN A   1      16.949  -4.602   7.953  0.00  0.00    -0.238 OA
BRANCH  27  30
ATOM     30  C15 ZIN A   1      18.471  -5.022   5.818  0.00  0.00     0.141 A 
ATOM     31  C10 ZIN A   1      17.779  -6.099   5.277  0.00  0.00     0.012 A 
ATOM     32  C11 ZIN A   1      17.311  -6.015   3.978  0.00  0.00     0.014 A 
ATOM     33  C12 ZIN A   1      17.557  -4.852   3.259  0.00  0.00     0.020 A 
ATOM     34  C13 ZIN A   1      18.257  -3.824   3.858  0.00  0.00     0.119 A 
ATOM     35  N14 ZIN A   1      18.692  -3.934   5.098  0.00  0.00    -0.242 NA
BRANCH  31  36
ATOM     36  C9  ZIN A   1      17.535  -7.340   6.098  0.00  0.00     0.221 C 
BRANCH  36  37
ATOM     37  O8  ZIN A   1      16.289  -7.959   5.680  0.00  0.00    -0.315 OA
BRANCH  37  38
ATOM     38  C6  ZIN A   1      15.247  -7.856   6.519  0.00  0.00     0.284 C 
ATOM     39  O7  ZIN A   1      15.228  -8.501   7.542  0.00  0.00    -0.263 OA
BRANCH  38  40
ATOM     40  C5  ZIN A   1      14.100  -6.937   6.188  0.00  0.00     0.342 C 
BRANCH  40  41
ATOM     41  N2  ZIN A   1      12.942  -7.277   7.025  0.00  0.00    -0.070 N 
ATOM     42  C1  ZIN A   1      12.720  -6.209   8.010  0.00  0.00     0.267 C 
ATOM     43  H3  ZIN A   1      13.119  -8.146   7.506  0.00  0.00     0.277 HD
ATOM     44  H4  ZIN A   1      12.123  -7.374   6.444  0.00  0.00     0.277 HD
ENDBRANCH  40  41
ENDBRANCH  38  40
ENDBRANCH  37  38
ENDBRANCH  36  37
ENDBRANCH  31  36
ENDBRANCH  27  30
ENDBRANCH  25  26
ENDBRANCH  23  25
ENDBRANCH  20  23
ENDBRANCH  17  18
ENDBRANCH  16  17
BRANCH  16  45
ATOM     45  O29 ZIN A   1      20.050  -1.338  14.374  0.00  0.00    -0.382 OA
ATOM     46  H75 ZIN A   1      20.960  -1.074  14.568  0.00  0.00     0.211 HD
ENDBRANCH  16  45
BRANCH  16  47
ATOM     47  C30 ZIN A   1      18.669   0.207  15.581  0.00  0.00     0.020 A 
ATOM     48  C36 ZIN A   1      18.003  -0.680  16.409  0.00  0.00     0.126 A 
ATOM     49  C35 ZIN A   1      17.570  -0.269  17.659  0.00  0.00     0.046 A 
ATOM     50  F37 ZIN A   1      17.783  -1.950  16.002  0.00  0.00    -0.205 F 
ATOM     51  C34 ZIN A   1      17.794   1.029  18.075  0.00  0.00     0.045 A 
ATOM     52  C32 ZIN A   1      18.456   1.917  17.245  0.00  0.00     0.117 A 
ATOM     53  C31 ZIN A   1      18.893   1.506  15.998  0.00  0.00     0.055 A 
ATOM     54  F33 ZIN A   1      18.675   3.187  17.652  0.00  0.00    -0.206 F 
ENDBRANCH  16  47
ENDBRANCH  14  16
ENDBRANCH  11  14
ENDBRANCH   1   9
TORSDOF 16
ENDMDL
MODEL 7
REMARK VINA RESULT:      -9.0      3.889     11.350
REMARK  16 active torsions:
REMARK  status: ('A' for Active; 'I' for Inactive)
REMARK    1  A    between atoms: N2_2  and  C5_5 
REMARK    2  A    between atoms: C5_5  and  C6_6 
REMARK    3  A    between atoms: C6_6  and  O8_8 
REMARK    4  A    between atoms: O8_8  and  C9_9 
REMARK    5  A    between atoms: C9_9  and  C10_10 
REMARK    6  A    between atoms: C15_15  and  N16_16 
REMARK       I    between atoms: N16_16  and  C18_18 
REMARK    7  A    between atoms: C18_18  and  O20_20 
REMARK    8  A    between atoms: O20_20  and  C21_21 
REMARK    9  A    between atoms: C21_21  and  N24_23 
REMARK   10  A    between atoms: N26_25  and  C27_26 
REMARK   11  A    between atoms: C27_26  and  C28_27 
REMARK   12  A    between atoms: C28_27  and  O29_28 
REMARK   13  A    between atoms: C28_27  and  C30_29 
REMARK   14  A    between atoms: C28_27  and  C38_37 
REMARK   15  A    between atoms: C38_37  and  C41_39 
REMARK   16  A    between atoms: C43_41  and  C44_42 
ROOT
ATOM      1  C44 ZIN A   1      18.255   1.090   8.658  0.00  0.00    -0.007 A 
ATOM      2  C45 ZIN A   1      17.329   0.100   8.321  0.00  0.00     0.015 A 
ATOM      3  C46 ZIN A   1      17.224  -0.328   7.024  0.00  0.00     0.023 A 
ATOM      4  C47 ZIN A   1      18.045   0.226   6.037  0.00  0.00     0.044 A 
ATOM      5  C48 ZIN A   1      17.936  -0.220   4.680  0.00  0.00     0.099 C 
ATOM      6  N49 ZIN A   1      17.850  -0.574   3.604  0.00  0.00    -0.191 NA
ATOM      7  C50 ZIN A   1      18.972   1.217   6.375  0.00  0.00     0.023 A 
ATOM      8  C51 ZIN A   1      19.071   1.647   7.673  0.00  0.00     0.015 A 
ENDROOT
BRANCH   1   9
ATOM      9  C43 ZIN A   1      18.366   1.551  10.061  0.00  0.00     0.074 A 
ATOM     10  N42 ZIN A   1      19.119   0.940  10.965  0.00  0.00    -0.244 NA
ATOM     11  C41 ZIN A   1      19.132   1.439  12.153  0.00  0.00     0.082 A 
ATOM     12  S53 ZIN A   1      18.120   2.813  12.237  0.00  0.00    -0.084 SA
ATOM     13  C52 ZIN A   1      17.710   2.633  10.533  0.00  0.00     0.084 A 
BRANCH  11  14
ATOM     14  C38 ZIN A   1      19.925   0.883  13.308  0.00  0.00     0.082 C 
ATOM     15  C40 ZIN A   1      21.269   0.359  12.799  0.00  0.00     0.020 C 
BRANCH  14  16
ATOM     16  C28 ZIN A   1      19.145  -0.262  13.957  0.00  0.00     0.115 C 
BRANCH  16  17
ATOM     17  C27 ZIN A   1      17.895  -0.562  13.128  0.00  0.00     0.196 C 
BRANCH  17  18
ATOM     18  N26 ZIN A   1      18.104  -1.790  12.355  0.00  0.00    -0.261 N 
ATOM     19  C25 ZIN A   1      17.158  -2.639  11.919  0.00  0.00     0.208 A 
ATOM     20  N24 ZIN A   1      17.750  -3.608  11.271  0.00  0.00    -0.307 N 
ATOM     21  C55 ZIN A   1      19.068  -3.416  11.275  0.00  0.00     0.235 A 
ATOM     22  N54 ZIN A   1      19.334  -2.312  11.923  0.00  0.00    -0.166 NA
BRANCH  20  23
ATOM     23  C21 ZIN A   1      17.065  -4.739  10.639  0.00  0.00     0.237 C 
ATOM     24  C23 ZIN A   1      17.836  -6.029  10.931  0.00  0.00     0.064 C 
BRANCH  23  25
ATOM     25  O20 ZIN A   1      17.003  -4.527   9.204  0.00  0.00    -0.278 OA
BRANCH  25  26
ATOM     26  C18 ZIN A   1      17.031  -5.623   8.423  0.00  0.00     0.370 C 
ATOM     27  N16 ZIN A   1      15.895  -6.310   8.184  0.00  0.00    -0.282 N 
ATOM     28  C17 ZIN A   1      14.631  -5.862   8.774  0.00  0.00     0.163 C 
ATOM     29  O19 ZIN A   1      18.079  -5.994   7.933  0.00  0.00    -0.238 OA
BRANCH  27  30
ATOM     30  C15 ZIN A   1      15.924  -7.445   7.375  0.00  0.00     0.141 A 
ATOM     31  C10 ZIN A   1      15.669  -7.327   6.014  0.00  0.00     0.012 A 
ATOM     32  C11 ZIN A   1      15.699  -8.461   5.223  0.00  0.00     0.014 A 
ATOM     33  C12 ZIN A   1      15.981  -9.681   5.825  0.00  0.00     0.020 A 
ATOM     34  C13 ZIN A   1      16.219  -9.725   7.184  0.00  0.00     0.119 A 
ATOM     35  N14 ZIN A   1      16.182  -8.626   7.913  0.00  0.00    -0.242 NA
BRANCH  31  36
ATOM     36  C9  ZIN A   1      15.370  -5.980   5.407  0.00  0.00     0.221 C 
BRANCH  36  37
ATOM     37  O8  ZIN A   1      16.305  -5.718   4.326  0.00  0.00    -0.315 OA
BRANCH  37  38
ATOM     38  C6  ZIN A   1      16.724  -4.452   4.178  0.00  0.00     0.284 C 
ATOM     39  O7  ZIN A   1      15.972  -3.614   3.736  0.00  0.00    -0.263 OA
BRANCH  38  40
ATOM     40  C5  ZIN A   1      18.131  -4.074   4.561  0.00  0.00     0.342 C 
BRANCH  40  41
ATOM     41  N2  ZIN A   1      18.151  -3.606   5.953  0.00  0.00    -0.070 N 
ATOM     42  C1  ZIN A   1      19.520  -3.219   6.321  0.00  0.00     0.267 C 
ATOM     43  H3  ZIN A   1      17.837  -4.348   6.561  0.00  0.00     0.277 HD
ATOM     44  H4  ZIN A   1      17.538  -2.810   6.050  0.00  0.00     0.277 HD
ENDBRANCH  40  41
ENDBRANCH  38  40
ENDBRANCH  37  38
ENDBRANCH  36  37
ENDBRANCH  31  36
ENDBRANCH  27  30
ENDBRANCH  25  26
ENDBRANCH  23  25
ENDBRANCH  20  23
ENDBRANCH  17  18
ENDBRANCH  16  17
BRANCH  16  45
ATOM     45  O29 ZIN A   1      19.970  -1.428  14.014  0.00  0.00    -0.382 OA
ATOM     46  H75 ZIN A   1      19.818  -2.053  13.292  0.00  0.00     0.211 HD
ENDBRANCH  16  45
BRANCH  16  47
ATOM     47  C30 ZIN A   1      18.738   0.134  15.353  0.00  0.00     0.020 A 
ATOM     48  C36 ZIN A   1      18.157  -0.798  16.195  0.00  0.00     0.126 A 
ATOM     49  C35 ZIN A   1      17.787  -0.435  17.480  0.00  0.00     0.046 A 
ATOM     50  F37 ZIN A   1      17.958  -2.065  15.768  0.00  0.00    -0.205 F 
ATOM     51  C34 ZIN A   1      17.989   0.860  17.917  0.00  0.00     0.045 A 
ATOM     52  C32 ZIN A   1      18.566   1.793  17.072  0.00  0.00     0.117 A 
ATOM     53  C31 ZIN A   1      18.940   1.429  15.790  0.00  0.00     0.055 A 
ATOM     54  F33 ZIN A   1      18.764   3.060  17.500  0.00  0.00    -0.206 F 
ENDBRANCH  16  47
ENDBRANCH  14  16
ENDBRANCH  11  14
ENDBRANCH   1   9
TORSDOF 16
ENDMDL
MODEL 8
REMARK VINA RESULT:      -8.6      2.140      3.614
REMARK  16 active torsions:
REMARK  status: ('A' for Active; 'I' for Inactive)
REMARK    1  A    between atoms: N2_2  and  C5_5 
REMARK    2  A    between atoms: C5_5  and  C6_6 
REMARK    3  A    between atoms: C6_6  and  O8_8 
REMARK    4  A    between atoms: O8_8  and  C9_9 
REMARK    5  A    between atoms: C9_9  and  C10_10 
REMARK    6  A    between atoms: C15_15  and  N16_16 
REMARK       I    between atoms: N16_16  and  C18_18 
REMARK    7  A    between atoms: C18_18  and  O20_20 
REMARK    8  A    between atoms: O20_20  and  C21_21 
REMARK    9  A    between atoms: C21_21  and  N24_23 
REMARK   10  A    between atoms: N26_25  and  C27_26 
REMARK   11  A    between atoms: C27_26  and  C28_27 
REMARK   12  A    between atoms: C28_27  and  O29_28 
REMARK   13  A    between atoms: C28_27  and  C30_29 
REMARK   14  A    between atoms: C28_27  and  C38_37 
REMARK   15  A    between atoms: C38_37  and  C41_39 
REMARK   16  A    between atoms: C43_41  and  C44_42 
ROOT
ATOM      1  C44 ZIN A   1      16.983  -5.454   9.165  0.00  0.00    -0.007 A 
ATOM      2  C45 ZIN A   1      15.669  -5.734   8.785  0.00  0.00     0.015 A 
ATOM      3  C46 ZIN A   1      15.383  -6.886   8.100  0.00  0.00     0.023 A 
ATOM      4  C47 ZIN A   1      16.408  -7.782   7.783  0.00  0.00     0.044 A 
ATOM      5  C48 ZIN A   1      16.112  -8.986   7.067  0.00  0.00     0.099 C 
ATOM      6  N49 ZIN A   1      15.875  -9.942   6.499  0.00  0.00    -0.191 NA
ATOM      7  C50 ZIN A   1      17.724  -7.502   8.165  0.00  0.00     0.023 A 
ATOM      8  C51 ZIN A   1      18.007  -6.345   8.845  0.00  0.00     0.015 A 
ENDROOT
BRANCH   1   9
ATOM      9  C43 ZIN A   1      17.289  -4.208   9.905  0.00  0.00     0.074 A 
ATOM     10  N42 ZIN A   1      17.448  -3.035   9.309  0.00  0.00    -0.244 NA
ATOM     11  C41 ZIN A   1      17.712  -2.024  10.062  0.00  0.00     0.082 A 
ATOM     12  S53 ZIN A   1      17.794  -2.502  11.700  0.00  0.00    -0.084 SA
ATOM     13  C52 ZIN A   1      17.431  -4.166  11.247  0.00  0.00     0.084 A 
BRANCH  11  14
ATOM     14  C38 ZIN A   1      17.924  -0.616   9.567  0.00  0.00     0.082 C 
ATOM     15  C40 ZIN A   1      16.892  -0.296   8.483  0.00  0.00     0.020 C 
BRANCH  14  16
ATOM     16  C28 ZIN A   1      19.333  -0.488   8.983  0.00  0.00     0.115 C 
BRANCH  16  17
ATOM     17  C27 ZIN A   1      20.010   0.758   9.556  0.00  0.00     0.196 C 
BRANCH  17  18
ATOM     18  N26 ZIN A   1      19.951   0.717  11.020  0.00  0.00    -0.261 N 
ATOM     19  C25 ZIN A   1      19.006   1.264  11.803  0.00  0.00     0.208 A 
ATOM     20  N24 ZIN A   1      19.313   1.008  13.048  0.00  0.00    -0.307 N 
ATOM     21  C55 ZIN A   1      20.444   0.307  13.100  0.00  0.00     0.235 A 
ATOM     22  N54 ZIN A   1      20.872   0.099  11.882  0.00  0.00    -0.166 NA
BRANCH  20  23
ATOM     23  C21 ZIN A   1      18.532   1.434  14.212  0.00  0.00     0.237 C 
ATOM     24  C23 ZIN A   1      17.811   0.225  14.814  0.00  0.00     0.064 C 
BRANCH  23  25
ATOM     25  O20 ZIN A   1      17.553   2.426  13.802  0.00  0.00    -0.278 OA
BRANCH  25  26
ATOM     26  C18 ZIN A   1      17.642   3.643  14.371  0.00  0.00     0.370 C 
ATOM     27  N16 ZIN A   1      17.360   4.746  13.649  0.00  0.00    -0.282 N 
ATOM     28  C17 ZIN A   1      16.958   4.621  12.246  0.00  0.00     0.163 C 
ATOM     29  O19 ZIN A   1      17.976   3.747  15.534  0.00  0.00    -0.238 OA
BRANCH  27  30
ATOM     30  C15 ZIN A   1      17.452   6.006  14.238  0.00  0.00     0.141 A 
ATOM     31  C10 ZIN A   1      16.303   6.633  14.707  0.00  0.00     0.012 A 
ATOM     32  C11 ZIN A   1      16.408   7.884  15.289  0.00  0.00     0.014 A 
ATOM     33  C12 ZIN A   1      17.664   8.470  15.378  0.00  0.00     0.020 A 
ATOM     34  C13 ZIN A   1      18.762   7.792  14.886  0.00  0.00     0.119 A 
ATOM     35  N14 ZIN A   1      18.630   6.600  14.336  0.00  0.00    -0.242 NA
BRANCH  31  36
ATOM     36  C9  ZIN A   1      14.961   5.955  14.589  0.00  0.00     0.221 C 
BRANCH  36  37
ATOM     37  O8  ZIN A   1      13.932   6.823  15.135  0.00  0.00    -0.315 OA
BRANCH  37  38
ATOM     38  C6  ZIN A   1      12.723   6.278  15.339  0.00  0.00     0.284 C 
ATOM     39  O7  ZIN A   1      12.265   5.502  14.533  0.00  0.00    -0.263 OA
BRANCH  38  40
ATOM     40  C5  ZIN A   1      11.935   6.633  16.574  0.00  0.00     0.342 C 
BRANCH  40  41
ATOM     41  N2  ZIN A   1      12.763   7.460  17.462  0.00  0.00    -0.070 N 
ATOM     42  C1  ZIN A   1      13.554   6.590  18.344  0.00  0.00     0.267 C 
ATOM     43  H3  ZIN A   1      12.167   8.052  18.021  0.00  0.00     0.277 HD
ATOM     44  H4  ZIN A   1      13.383   8.032  16.909  0.00  0.00     0.277 HD
ENDBRANCH  40  41
ENDBRANCH  38  40
ENDBRANCH  37  38
ENDBRANCH  36  37
ENDBRANCH  31  36
ENDBRANCH  27  30
ENDBRANCH  25  26
ENDBRANCH  23  25
ENDBRANCH  20  23
ENDBRANCH  17  18
ENDBRANCH  16  17
BRANCH  16  45
ATOM     45  O29 ZIN A   1      20.097  -1.646   9.326  0.00  0.00    -0.382 OA
ATOM     46  H75 ZIN A   1      20.750  -1.494  10.023  0.00  0.00     0.211 HD
ENDBRANCH  16  45
BRANCH  16  47
ATOM     47  C30 ZIN A   1      19.247  -0.368   7.484  0.00  0.00     0.020 A 
ATOM     48  C36 ZIN A   1      19.088   0.875   6.897  0.00  0.00     0.126 A 
ATOM     49  C35 ZIN A   1      19.014   0.986   5.518  0.00  0.00     0.046 A 
ATOM     50  F37 ZIN A   1      19.015   1.983   7.668  0.00  0.00    -0.205 F 
ATOM     51  C34 ZIN A   1      19.087  -0.145   4.729  0.00  0.00     0.045 A 
ATOM     52  C32 ZIN A   1      19.242  -1.389   5.317  0.00  0.00     0.117 A 
ATOM     53  C31 ZIN A   1      19.320  -1.500   6.695  0.00  0.00     0.055 A 
ATOM     54  F33 ZIN A   1      19.313  -2.496   4.545  0.00  0.00    -0.206 F 
ENDBRANCH  16  47
ENDBRANCH  14  16
ENDBRANCH  11  14
ENDBRANCH   1   9
TORSDOF 16
ENDMDL
MODEL 9
REMARK VINA RESULT:      -8.0      3.508      9.840
REMARK  16 active torsions:
REMARK  status: ('A' for Active; 'I' for Inactive)
REMARK    1  A    between atoms: N2_2  and  C5_5 
REMARK    2  A    between atoms: C5_5  and  C6_6 
REMARK    3  A    between atoms: C6_6  and  O8_8 
REMARK    4  A    between atoms: O8_8  and  C9_9 
REMARK    5  A    between atoms: C9_9  and  C10_10 
REMARK    6  A    between atoms: C15_15  and  N16_16 
REMARK       I    between atoms: N16_16  and  C18_18 
REMARK    7  A    between atoms: C18_18  and  O20_20 
REMARK    8  A    between atoms: O20_20  and  C21_21 
REMARK    9  A    between atoms: C21_21  and  N24_23 
REMARK   10  A    between atoms: N26_25  and  C27_26 
REMARK   11  A    between atoms: C27_26  and  C28_27 
REMARK   12  A    between atoms: C28_27  and  O29_28 
REMARK   13  A    between atoms: C28_27  and  C30_29 
REMARK   14  A    between atoms: C28_27  and  C38_37 
REMARK   15  A    between atoms: C38_37  and  C41_39 
REMARK   16  A    between atoms: C43_41  and  C44_42 
ROOT
ATOM      1  C44 ZIN A   1      18.401   1.227   8.383  0.00  0.00    -0.007 A 
ATOM      2  C45 ZIN A   1      19.133   1.414   7.209  0.00  0.00     0.015 A 
ATOM      3  C46 ZIN A   1      18.842   0.672   6.094  0.00  0.00     0.023 A 
ATOM      4  C47 ZIN A   1      17.811  -0.272   6.133  0.00  0.00     0.044 A 
ATOM      5  C48 ZIN A   1      17.506  -1.048   4.969  0.00  0.00     0.099 C 
ATOM      6  N49 ZIN A   1      17.264  -1.664   4.045  0.00  0.00    -0.191 NA
ATOM      7  C50 ZIN A   1      17.079  -0.458   7.309  0.00  0.00     0.023 A 
ATOM      8  C51 ZIN A   1      17.376   0.282   8.425  0.00  0.00     0.015 A 
ENDROOT
BRANCH   1   9
ATOM      9  C43 ZIN A   1      18.718   2.030   9.587  0.00  0.00     0.074 A 
ATOM     10  N42 ZIN A   1      17.844   2.842  10.164  0.00  0.00    -0.244 NA
ATOM     11  C41 ZIN A   1      18.240   3.487  11.207  0.00  0.00     0.082 A 
ATOM     12  S53 ZIN A   1      19.865   3.101  11.569  0.00  0.00    -0.084 SA
ATOM     13  C52 ZIN A   1      19.924   1.999  10.194  0.00  0.00     0.084 A 
BRANCH  11  14
ATOM     14  C38 ZIN A   1      17.391   4.451  11.994  0.00  0.00     0.082 C 
ATOM     15  C40 ZIN A   1      17.573   5.864  11.436  0.00  0.00     0.020 C 
BRANCH  14  16
ATOM     16  C28 ZIN A   1      17.818   4.425  13.463  0.00  0.00     0.115 C 
BRANCH  16  17
ATOM     17  C27 ZIN A   1      16.977   3.395  14.220  0.00  0.00     0.196 C 
BRANCH  17  18
ATOM     18  N26 ZIN A   1      17.781   2.194  14.466  0.00  0.00    -0.261 N 
ATOM     19  C25 ZIN A   1      17.687   1.018  13.824  0.00  0.00     0.208 A 
ATOM     20  N24 ZIN A   1      18.574   0.205  14.336  0.00  0.00    -0.307 N 
ATOM     21  C55 ZIN A   1      19.247   0.822  15.306  0.00  0.00     0.235 A 
ATOM     22  N54 ZIN A   1      18.800   2.045  15.421  0.00  0.00    -0.166 NA
BRANCH  20  23
ATOM     23  C21 ZIN A   1      18.792  -1.180  13.910  0.00  0.00     0.237 C 
ATOM     24  C23 ZIN A   1      20.111  -1.693  14.493  0.00  0.00     0.064 C 
BRANCH  23  25
ATOM     25  O20 ZIN A   1      18.851  -1.236  12.459  0.00  0.00    -0.278 OA
BRANCH  25  26
ATOM     26  C18 ZIN A   1      18.203  -2.253  11.861  0.00  0.00     0.370 C 
ATOM     27  N16 ZIN A   1      18.897  -3.301  11.372  0.00  0.00    -0.282 N 
ATOM     28  C17 ZIN A   1      20.356  -3.332  11.492  0.00  0.00     0.163 C 
ATOM     29  O19 ZIN A   1      16.992  -2.227  11.761  0.00  0.00    -0.238 OA
BRANCH  27  30
ATOM     30  C15 ZIN A   1      18.225  -4.353  10.752  0.00  0.00     0.141 A 
ATOM     31  C10 ZIN A   1      18.135  -4.391   9.366  0.00  0.00     0.012 A 
ATOM     32  C11 ZIN A   1      17.465  -5.441   8.763  0.00  0.00     0.014 A 
ATOM     33  C12 ZIN A   1      16.902  -6.419   9.572  0.00  0.00     0.020 A 
ATOM     34  C13 ZIN A   1      17.026  -6.315  10.944  0.00  0.00     0.119 A 
ATOM     35  N14 ZIN A   1      17.670  -5.302  11.489  0.00  0.00    -0.242 NA
BRANCH  31  36
ATOM     36  C9  ZIN A   1      18.764  -3.306   8.529  0.00  0.00     0.221 C 
BRANCH  36  37
ATOM     37  O8  ZIN A   1      19.803  -3.880   7.693  0.00  0.00    -0.315 OA
BRANCH  37  38
ATOM     38  C6  ZIN A   1      19.585  -3.887   6.370  0.00  0.00     0.284 C 
ATOM     39  O7  ZIN A   1      20.007  -2.988   5.682  0.00  0.00    -0.263 OA
BRANCH  38  40
ATOM     40  C5  ZIN A   1      18.813  -5.018   5.739  0.00  0.00     0.342 C 
BRANCH  40  41
ATOM     41  N2  ZIN A   1      17.808  -4.471   4.818  0.00  0.00    -0.070 N 
ATOM     42  C1  ZIN A   1      17.507  -5.464   3.777  0.00  0.00     0.267 C 
ATOM     43  H3  ZIN A   1      18.169  -3.633   4.387  0.00  0.00     0.277 HD
ATOM     44  H4  ZIN A   1      16.966  -4.252   5.328  0.00  0.00     0.277 HD
ENDBRANCH  40  41
ENDBRANCH  38  40
ENDBRANCH  37  38
ENDBRANCH  36  37
ENDBRANCH  31  36
ENDBRANCH  27  30
ENDBRANCH  25  26
ENDBRANCH  23  25
ENDBRANCH  20  23
ENDBRANCH  17  18
ENDBRANCH  16  17
BRANCH  16  45
ATOM     45  O29 ZIN A   1      19.199   4.070  13.551  0.00  0.00    -0.382 OA
ATOM     46  H75 ZIN A   1      19.388   3.157  13.292  0.00  0.00     0.211 HD
ENDBRANCH  16  45
BRANCH  16  47
ATOM     47  C30 ZIN A   1      17.610   5.788  14.072  0.00  0.00     0.020 A 
ATOM     48  C36 ZIN A   1      18.701   6.586  14.372  0.00  0.00     0.126 A 
ATOM     49  C35 ZIN A   1      18.510   7.840  14.926  0.00  0.00     0.046 A 
ATOM     50  F37 ZIN A   1      19.952   6.144  14.116  0.00  0.00    -0.205 F 
ATOM     51  C34 ZIN A   1      17.231   8.291  15.190  0.00  0.00     0.045 A 
ATOM     52  C32 ZIN A   1      16.140   7.492  14.893  0.00  0.00     0.117 A 
ATOM     53  C31 ZIN A   1      16.331   6.239  14.335  0.00  0.00     0.055 A 
ATOM     54  F33 ZIN A   1      14.889   7.933  15.150  0.00  0.00    -0.206 F 
ENDBRANCH  16  47
ENDBRANCH  14  16
ENDBRANCH  11  14
ENDBRANCH   1   9
TORSDOF 16
ENDMDL
