MODEL 1
REMARK VINA RESULT:      -8.0      0.000      0.000
REMARK  9 active torsions:
REMARK  status: ('A' for Active; 'I' for Inactive)
REMARK    1  A    between atoms: C2_2  and  N5_5 
REMARK    2  A    between atoms: N5_5  and  C8_8 
REMARK    3  A    between atoms: C8_8  and  C9_9 
REMARK    4  A    between atoms: C9_9  and  O11_10 
REMARK    5  A    between atoms: C9_9  and  C12_11 
REMARK    6  A    between atoms: C12_11  and  O13_12 
REMARK    7  A    between atoms: O13_12  and  C14_13 
REMARK    8  A    between atoms: C21_20  and  O23_21 
REMARK    9  A    between atoms: C24_22  and  O26_23 
ROOT
ATOM      1  C14 <0> d   1      19.131   0.210  15.160  0.00  0.00     0.075 A 
ATOM      2  C15 <0> d   1      18.696  -1.103  15.099  0.00  0.00     0.037 A 
ATOM      3  C16 <0> d   1      17.895  -1.606  16.106  0.00  0.00     0.003 A 
ATOM      4  C17 <0> d   1      17.533  -0.798  17.164  0.00  0.00     0.008 A 
ATOM      5  C18 <0> d   1      17.966   0.521  17.229  0.00  0.00    -0.046 A 
ATOM      6  C19 <0> d   1      18.772   1.023  16.233  0.00  0.00    -0.016 A 
ATOM      7  C20 <0> d   1      19.291   2.438  16.247  0.00  0.00     0.076 C 
ATOM      8  C21 <0> d   1      18.475   3.301  17.207  0.00  0.00     0.151 C 
ATOM      9  C24 <0> d   1      18.404   2.584  18.560  0.00  0.00     0.151 C 
ATOM     10  C27 <0> d   1      17.524   1.348  18.408  0.00  0.00     0.073 C 
ENDROOT
BRANCH   1  11
ATOM     11  O13 <0> d   1      19.917   0.707  14.169  0.00  0.00    -0.348 OA
BRANCH  11  12
ATOM     12  C12 <0> d   1      19.394   0.660  12.840  0.00  0.00     0.209 C 
BRANCH  12  13
ATOM     13  C9  <0> d   1      20.313  -0.190  11.960  0.00  0.00     0.168 C 
BRANCH  13  14
ATOM     14  C8  <0> d   1      19.706  -0.315  10.561  0.00  0.00     0.267 C 
BRANCH  14  15
ATOM     15  N5  <0> d   1      20.101   0.845   9.751  0.00  0.00    -0.065 N 
ATOM     16  H6  <0> d   1      20.749   0.551   9.035  0.00  0.00     0.278 HD
ATOM     17  H7  <0> d   1      20.542   1.533  10.342  0.00  0.00     0.278 HD
BRANCH  15  18
ATOM     18  C2  <0> d   1      18.910   1.431   9.121  0.00  0.00     0.115 C 
ATOM     19  C1  <0> d   1      19.153   1.588   7.619  0.00  0.00     0.045 C 
ATOM     20  C3  <0> d   1      18.628   2.802   9.740  0.00  0.00     0.045 C 
ATOM     21  C4  <0> d   1      17.708   0.512   9.350  0.00  0.00     0.045 C 
ENDBRANCH  15  18
ENDBRANCH  14  15
ENDBRANCH  13  14
BRANCH  13  22
ATOM     22  O11 <0> d   1      21.595   0.434  11.869  0.00  0.00    -0.392 OA
ATOM     23  H39 <0> d   1      21.576   1.316  11.470  0.00  0.00     0.210 HD
ENDBRANCH  13  22
ENDBRANCH  12  13
ENDBRANCH  11  12
ENDBRANCH   1  11
BRANCH   8  24
ATOM     24  O23 <0> d   1      19.109   4.572  17.366  0.00  0.00    -0.393 OA
ATOM     25  H47 <0> d   1      18.726   5.117  18.066  0.00  0.00     0.210 HD
ENDBRANCH   8  24
BRANCH   9  26
ATOM     26  O26 <0> d   1      19.716   2.189  18.965  0.00  0.00    -0.393 OA
ATOM     27  H48 <0> d   1      20.137   1.553  18.369  0.00  0.00     0.210 HD
ENDBRANCH   9  26
TORSDOF 9
ENDMDL
MODEL 2
REMARK VINA RESULT:      -7.9      1.534      2.159
REMARK  9 active torsions:
REMARK  status: ('A' for Active; 'I' for Inactive)
REMARK    1  A    between atoms: C2_2  and  N5_5 
REMARK    2  A    between atoms: N5_5  and  C8_8 
REMARK    3  A    between atoms: C8_8  and  C9_9 
REMARK    4  A    between atoms: C9_9  and  O11_10 
REMARK    5  A    between atoms: C9_9  and  C12_11 
REMARK    6  A    between atoms: C12_11  and  O13_12 
REMARK    7  A    between atoms: O13_12  and  C14_13 
REMARK    8  A    between atoms: C21_20  and  O23_21 
REMARK    9  A    between atoms: C24_22  and  O26_23 
ROOT
ATOM      1  C14 <0> d   1      18.984   0.104  15.291  0.00  0.00     0.075 A 
ATOM      2  C15 <0> d   1      18.436  -1.168  15.314  0.00  0.00     0.037 A 
ATOM      3  C16 <0> d   1      17.598  -1.534  16.349  0.00  0.00     0.003 A 
ATOM      4  C17 <0> d   1      17.311  -0.631  17.353  0.00  0.00     0.008 A 
ATOM      5  C18 <0> d   1      17.858   0.647  17.334  0.00  0.00    -0.046 A 
ATOM      6  C19 <0> d   1      18.701   1.012  16.310  0.00  0.00    -0.016 A 
ATOM      7  C20 <0> d   1      19.342   2.374  16.234  0.00  0.00     0.076 C 
ATOM      8  C21 <0> d   1      18.608   3.364  17.135  0.00  0.00     0.151 C 
ATOM      9  C24 <0> d   1      18.479   2.744  18.531  0.00  0.00     0.151 C 
ATOM     10  C27 <0> d   1      17.495   1.582  18.457  0.00  0.00     0.073 C 
ENDROOT
BRANCH   1  11
ATOM     11  O13 <0> d   1      19.807   0.466  14.272  0.00  0.00    -0.348 OA
BRANCH  11  12
ATOM     12  C12 <0> d   1      19.962  -0.467  13.201  0.00  0.00     0.209 C 
BRANCH  12  13
ATOM     13  C9  <0> d   1      20.480   0.264  11.960  0.00  0.00     0.168 C 
BRANCH  13  14
ATOM     14  C8  <0> d   1      19.561   1.446  11.645  0.00  0.00     0.267 C 
BRANCH  14  15
ATOM     15  N5  <0> d   1      20.018   2.630  12.385  0.00  0.00    -0.065 N 
ATOM     16  H6  <0> d   1      20.826   3.023  11.927  0.00  0.00     0.278 HD
ATOM     17  H7  <0> d   1      20.261   2.365  13.327  0.00  0.00     0.278 HD
BRANCH  15  18
ATOM     18  C2  <0> d   1      18.942   3.631  12.420  0.00  0.00     0.115 C 
ATOM     19  C1  <0> d   1      19.440   4.892  13.129  0.00  0.00     0.045 C 
ATOM     20  C3  <0> d   1      17.740   3.061  13.177  0.00  0.00     0.045 C 
ATOM     21  C4  <0> d   1      18.524   3.980  10.990  0.00  0.00     0.045 C 
ENDBRANCH  15  18
ENDBRANCH  14  15
ENDBRANCH  13  14
BRANCH  13  22
ATOM     22  O11 <0> d   1      21.804   0.742  12.207  0.00  0.00    -0.392 OA
ATOM     23  H39 <0> d   1      22.377   0.101  12.650  0.00  0.00     0.210 HD
ENDBRANCH  13  22
ENDBRANCH  12  13
ENDBRANCH  11  12
ENDBRANCH   1  11
BRANCH   8  24
ATOM     24  O23 <0> d   1      19.351   4.583  17.215  0.00  0.00    -0.393 OA
ATOM     25  H47 <0> d   1      18.931   5.330  16.768  0.00  0.00     0.210 HD
ENDBRANCH   8  24
BRANCH   9  26
ATOM     26  O26 <0> d   1      19.754   2.262  18.963  0.00  0.00    -0.393 OA
ATOM     27  H48 <0> d   1      19.908   2.357  19.913  0.00  0.00     0.210 HD
ENDBRANCH   9  26
TORSDOF 9
ENDMDL
MODEL 3
REMARK VINA RESULT:      -7.6      2.140      7.022
REMARK  9 active torsions:
REMARK  status: ('A' for Active; 'I' for Inactive)
REMARK    1  A    between atoms: C2_2  and  N5_5 
REMARK    2  A    between atoms: N5_5  and  C8_8 
REMARK    3  A    between atoms: C8_8  and  C9_9 
REMARK    4  A    between atoms: C9_9  and  O11_10 
REMARK    5  A    between atoms: C9_9  and  C12_11 
REMARK    6  A    between atoms: C12_11  and  O13_12 
REMARK    7  A    between atoms: O13_12  and  C14_13 
REMARK    8  A    between atoms: C21_20  and  O23_21 
REMARK    9  A    between atoms: C24_22  and  O26_23 
ROOT
ATOM      1  C14 <0> d   1      18.557   2.310  12.206  0.00  0.00     0.075 A 
ATOM      2  C15 <0> d   1      18.253   3.414  11.428  0.00  0.00     0.037 A 
ATOM      3  C16 <0> d   1      18.441   3.361  10.060  0.00  0.00     0.003 A 
ATOM      4  C17 <0> d   1      18.927   2.208   9.478  0.00  0.00     0.008 A 
ATOM      5  C18 <0> d   1      19.232   1.097  10.255  0.00  0.00    -0.046 A 
ATOM      6  C19 <0> d   1      19.057   1.149  11.619  0.00  0.00    -0.016 A 
ATOM      7  C20 <0> d   1      19.382  -0.012  12.523  0.00  0.00     0.076 C 
ATOM      8  C21 <0> d   1      19.482  -1.307  11.721  0.00  0.00     0.151 C 
ATOM      9  C24 <0> d   1      20.430  -1.072  10.539  0.00  0.00     0.151 C 
ATOM     10  C27 <0> d   1      19.750  -0.130   9.551  0.00  0.00     0.073 C 
ENDROOT
BRANCH   1  11
ATOM     11  O13 <0> d   1      18.372   2.361  13.551  0.00  0.00    -0.348 OA
BRANCH  11  12
ATOM     12  C12 <0> d   1      18.794   3.551  14.220  0.00  0.00     0.209 C 
BRANCH  12  13
ATOM     13  C9  <0> d   1      19.084   3.235  15.689  0.00  0.00     0.168 C 
BRANCH  13  14
ATOM     14  C8  <0> d   1      19.206   1.721  15.869  0.00  0.00     0.267 C 
BRANCH  14  15
ATOM     15  N5  <0> d   1      17.900   1.166  16.246  0.00  0.00    -0.065 N 
ATOM     16  H6  <0> d   1      17.324   1.069  15.423  0.00  0.00     0.278 HD
ATOM     17  H7  <0> d   1      17.448   1.785  16.902  0.00  0.00     0.278 HD
BRANCH  15  18
ATOM     18  C2  <0> d   1      18.089  -0.152  16.868  0.00  0.00     0.115 C 
ATOM     19  C1  <0> d   1      18.741   0.021  18.241  0.00  0.00     0.045 C 
ATOM     20  C3  <0> d   1      18.991  -1.011  15.979  0.00  0.00     0.045 C 
ATOM     21  C4  <0> d   1      16.731  -0.839  17.031  0.00  0.00     0.045 C 
ENDBRANCH  15  18
ENDBRANCH  14  15
ENDBRANCH  13  14
BRANCH  13  22
ATOM     22  O11 <0> d   1      20.307   3.862  16.079  0.00  0.00    -0.392 OA
ATOM     23  H39 <0> d   1      20.192   4.602  16.691  0.00  0.00     0.210 HD
ENDBRANCH  13  22
ENDBRANCH  12  13
ENDBRANCH  11  12
ENDBRANCH   1  11
BRANCH   8  24
ATOM     24  O23 <0> d   1      19.996  -2.349  12.553  0.00  0.00    -0.393 OA
ATOM     25  H47 <0> d   1      19.966  -3.226  12.148  0.00  0.00     0.210 HD
ENDBRANCH   8  24
BRANCH   9  26
ATOM     26  O26 <0> d   1      21.643  -0.478  11.007  0.00  0.00    -0.393 OA
ATOM     27  H48 <0> d   1      21.662   0.486  10.935  0.00  0.00     0.210 HD
ENDBRANCH   9  26
TORSDOF 9
ENDMDL
MODEL 4
REMARK VINA RESULT:      -7.4      3.496      8.956
REMARK  9 active torsions:
REMARK  status: ('A' for Active; 'I' for Inactive)
REMARK    1  A    between atoms: C2_2  and  N5_5 
REMARK    2  A    between atoms: N5_5  and  C8_8 
REMARK    3  A    between atoms: C8_8  and  C9_9 
REMARK    4  A    between atoms: C9_9  and  O11_10 
REMARK    5  A    between atoms: C9_9  and  C12_11 
REMARK    6  A    between atoms: C12_11  and  O13_12 
REMARK    7  A    between atoms: O13_12  and  C14_13 
REMARK    8  A    between atoms: C21_20  and  O23_21 
REMARK    9  A    between atoms: C24_22  and  O26_23 
ROOT
ATOM      1  C14 <0> d   1      19.007  -0.331   8.265  0.00  0.00     0.075 A 
ATOM      2  C15 <0> d   1      19.050   0.874   7.584  0.00  0.00     0.037 A 
ATOM      3  C16 <0> d   1      19.112   0.878   6.203  0.00  0.00     0.003 A 
ATOM      4  C17 <0> d   1      19.128  -0.317   5.513  0.00  0.00     0.008 A 
ATOM      5  C18 <0> d   1      19.084  -1.528   6.193  0.00  0.00    -0.046 A 
ATOM      6  C19 <0> d   1      19.033  -1.537   7.568  0.00  0.00    -0.016 A 
ATOM      7  C20 <0> d   1      18.999  -2.813   8.369  0.00  0.00     0.076 C 
ATOM      8  C21 <0> d   1      18.589  -3.991   7.488  0.00  0.00     0.151 C 
ATOM      9  C24 <0> d   1      19.475  -3.991   6.238  0.00  0.00     0.151 C 
ATOM     10  C27 <0> d   1      19.096  -2.793   5.374  0.00  0.00     0.073 C 
ENDROOT
BRANCH   1  11
ATOM     11  O13 <0> d   1      18.945  -0.337   9.623  0.00  0.00    -0.348 OA
BRANCH  11  12
ATOM     12  C12 <0> d   1      19.652   0.698  10.309  0.00  0.00     0.209 C 
BRANCH  12  13
ATOM     13  C9  <0> d   1      20.486   0.085  11.436  0.00  0.00     0.168 C 
BRANCH  13  14
ATOM     14  C8  <0> d   1      19.633  -0.924  12.208  0.00  0.00     0.267 C 
BRANCH  14  15
ATOM     15  N5  <0> d   1      20.054  -0.943  13.616  0.00  0.00    -0.065 N 
ATOM     16  H6  <0> d   1      20.878  -0.371  13.729  0.00  0.00     0.278 HD
ATOM     17  H7  <0> d   1      20.263  -1.891  13.891  0.00  0.00     0.278 HD
BRANCH  15  18
ATOM     18  C2  <0> d   1      18.972  -0.415  14.458  0.00  0.00     0.115 C 
ATOM     19  C1  <0> d   1      19.310   1.014  14.887  0.00  0.00     0.045 C 
ATOM     20  C3  <0> d   1      18.815  -1.297  15.699  0.00  0.00     0.045 C 
ATOM     21  C4  <0> d   1      17.663  -0.414  13.665  0.00  0.00     0.045 C 
ENDBRANCH  15  18
ENDBRANCH  14  15
ENDBRANCH  13  14
BRANCH  13  22
ATOM     22  O11 <0> d   1      21.623  -0.579  10.880  0.00  0.00    -0.392 OA
ATOM     23  H39 <0> d   1      21.400  -1.323  10.303  0.00  0.00     0.210 HD
ENDBRANCH  13  22
ENDBRANCH  12  13
ENDBRANCH  11  12
ENDBRANCH   1  11
BRANCH   8  24
ATOM     24  O23 <0> d   1      18.768  -5.213   8.207  0.00  0.00    -0.393 OA
ATOM     25  H47 <0> d   1      17.942  -5.631   8.485  0.00  0.00     0.210 HD
ENDBRANCH   8  24
BRANCH   9  26
ATOM     26  O26 <0> d   1      20.848  -3.887   6.621  0.00  0.00    -0.393 OA
ATOM     27  H48 <0> d   1      21.094  -3.019   6.972  0.00  0.00     0.210 HD
ENDBRANCH   9  26
TORSDOF 9
ENDMDL
MODEL 5
REMARK VINA RESULT:      -7.3      5.428      9.042
REMARK  9 active torsions:
REMARK  status: ('A' for Active; 'I' for Inactive)
REMARK    1  A    between atoms: C2_2  and  N5_5 
REMARK    2  A    between atoms: N5_5  and  C8_8 
REMARK    3  A    between atoms: C8_8  and  C9_9 
REMARK    4  A    between atoms: C9_9  and  O11_10 
REMARK    5  A    between atoms: C9_9  and  C12_11 
REMARK    6  A    between atoms: C12_11  and  O13_12 
REMARK    7  A    between atoms: O13_12  and  C14_13 
REMARK    8  A    between atoms: C21_20  and  O23_21 
REMARK    9  A    between atoms: C24_22  and  O26_23 
ROOT
ATOM      1  C14 <0> d   1      19.470  -0.280   8.913  0.00  0.00     0.075 A 
ATOM      2  C15 <0> d   1      19.517   1.039   9.333  0.00  0.00     0.037 A 
ATOM      3  C16 <0> d   1      19.144   2.048   8.466  0.00  0.00     0.003 A 
ATOM      4  C17 <0> d   1      18.726   1.736   7.188  0.00  0.00     0.008 A 
ATOM      5  C18 <0> d   1      18.676   0.414   6.763  0.00  0.00    -0.046 A 
ATOM      6  C19 <0> d   1      19.056  -0.593   7.620  0.00  0.00    -0.016 A 
ATOM      7  C20 <0> d   1      19.042  -2.046   7.220  0.00  0.00     0.076 C 
ATOM      8  C21 <0> d   1      18.170  -2.256   5.984  0.00  0.00     0.151 C 
ATOM      9  C24 <0> d   1      18.606  -1.253   4.909  0.00  0.00     0.151 C 
ATOM     10  C27 <0> d   1      18.201   0.147   5.358  0.00  0.00     0.073 C 
ENDROOT
BRANCH   1  11
ATOM     11  O13 <0> d   1      19.835  -1.273   9.765  0.00  0.00    -0.348 OA
BRANCH  11  12
ATOM     12  C12 <0> d   1      19.354  -1.184  11.109  0.00  0.00     0.209 C 
BRANCH  12  13
ATOM     13  C9  <0> d   1      19.668  -2.487  11.848  0.00  0.00     0.168 C 
BRANCH  13  14
ATOM     14  C8  <0> d   1      18.466  -3.429  11.752  0.00  0.00     0.267 C 
BRANCH  14  15
ATOM     15  N5  <0> d   1      18.025  -3.517  10.353  0.00  0.00    -0.065 N 
ATOM     16  H6  <0> d   1      18.741  -3.140   9.749  0.00  0.00     0.278 HD
ATOM     17  H7  <0> d   1      17.173  -2.991  10.235  0.00  0.00     0.278 HD
BRANCH  15  18
ATOM     18  C2  <0> d   1      17.784  -4.924  10.004  0.00  0.00     0.115 C 
ATOM     19  C1  <0> d   1      17.402  -5.704  11.264  0.00  0.00     0.045 C 
ATOM     20  C3  <0> d   1      19.054  -5.524   9.397  0.00  0.00     0.045 C 
ATOM     21  C4  <0> d   1      16.644  -5.009   8.987  0.00  0.00     0.045 C 
ENDBRANCH  15  18
ENDBRANCH  14  15
ENDBRANCH  13  14
BRANCH  13  22
ATOM     22  O11 <0> d   1      20.809  -3.108  11.255  0.00  0.00    -0.392 OA
ATOM     23  H39 <0> d   1      21.506  -3.335  11.886  0.00  0.00     0.210 HD
ENDBRANCH  13  22
ENDBRANCH  12  13
ENDBRANCH  11  12
ENDBRANCH   1  11
BRANCH   8  24
ATOM     24  O23 <0> d   1      18.339  -3.589   5.498  0.00  0.00    -0.393 OA
ATOM     25  H47 <0> d   1      17.516  -4.014   5.223  0.00  0.00     0.210 HD
ENDBRANCH   8  24
BRANCH   9  26
ATOM     26  O26 <0> d   1      20.025  -1.310   4.746  0.00  0.00    -0.393 OA
ATOM     27  H48 <0> d   1      20.338  -0.952   3.903  0.00  0.00     0.210 HD
ENDBRANCH   9  26
TORSDOF 9
ENDMDL
MODEL 6
REMARK VINA RESULT:      -7.2      3.049      7.803
REMARK  9 active torsions:
REMARK  status: ('A' for Active; 'I' for Inactive)
REMARK    1  A    between atoms: C2_2  and  N5_5 
REMARK    2  A    between atoms: N5_5  and  C8_8 
REMARK    3  A    between atoms: C8_8  and  C9_9 
REMARK    4  A    between atoms: C9_9  and  O11_10 
REMARK    5  A    between atoms: C9_9  and  C12_11 
REMARK    6  A    between atoms: C12_11  and  O13_12 
REMARK    7  A    between atoms: O13_12  and  C14_13 
REMARK    8  A    between atoms: C21_20  and  O23_21 
REMARK    9  A    between atoms: C24_22  and  O26_23 
ROOT
ATOM      1  C14 <0> d   1      17.482   1.409  11.013  0.00  0.00     0.075 A 
ATOM      2  C15 <0> d   1      17.758   2.751  11.217  0.00  0.00     0.037 A 
ATOM      3  C16 <0> d   1      18.444   3.463  10.252  0.00  0.00     0.003 A 
ATOM      4  C17 <0> d   1      18.849   2.834   9.092  0.00  0.00     0.008 A 
ATOM      5  C18 <0> d   1      18.573   1.488   8.883  0.00  0.00    -0.046 A 
ATOM      6  C19 <0> d   1      17.899   0.772   9.846  0.00  0.00    -0.016 A 
ATOM      7  C20 <0> d   1      17.581  -0.692   9.692  0.00  0.00     0.076 C 
ATOM      8  C21 <0> d   1      17.694  -1.117   8.230  0.00  0.00     0.151 C 
ATOM      9  C24 <0> d   1      19.052  -0.652   7.694  0.00  0.00     0.151 C 
ATOM     10  C27 <0> d   1      19.037   0.870   7.590  0.00  0.00     0.073 C 
ENDROOT
BRANCH   1  11
ATOM     11  O13 <0> d   1      16.806   0.707  11.961  0.00  0.00    -0.348 OA
BRANCH  11  12
ATOM     12  C12 <0> d   1      17.414   0.607  13.250  0.00  0.00     0.209 C 
BRANCH  12  13
ATOM     13  C9  <0> d   1      18.606  -0.350  13.178  0.00  0.00     0.168 C 
BRANCH  13  14
ATOM     14  C8  <0> d   1      19.439  -0.223  14.455  0.00  0.00     0.267 C 
BRANCH  14  15
ATOM     15  N5  <0> d   1      18.723   0.616  15.425  0.00  0.00    -0.065 N 
ATOM     16  H6  <0> d   1      17.830   0.887  15.041  0.00  0.00     0.278 HD
ATOM     17  H7  <0> d   1      19.268   1.440  15.624  0.00  0.00     0.278 HD
BRANCH  15  18
ATOM     18  C2  <0> d   1      18.511  -0.143  16.666  0.00  0.00     0.115 C 
ATOM     19  C1  <0> d   1      17.010  -0.285  16.926  0.00  0.00     0.045 C 
ATOM     20  C3  <0> d   1      19.164   0.598  17.834  0.00  0.00     0.045 C 
ATOM     21  C4  <0> d   1      19.138  -1.531  16.528  0.00  0.00     0.045 C 
ENDBRANCH  15  18
ENDBRANCH  14  15
ENDBRANCH  13  14
BRANCH  13  22
ATOM     22  O11 <0> d   1      18.132  -1.692  13.050  0.00  0.00    -0.392 OA
ATOM     23  H39 <0> d   1      18.390  -2.124  12.224  0.00  0.00     0.210 HD
ENDBRANCH  13  22
ENDBRANCH  12  13
ENDBRANCH  11  12
ENDBRANCH   1  11
BRANCH   8  24
ATOM     24  O23 <0> d   1      17.599  -2.540   8.135  0.00  0.00    -0.393 OA
ATOM     25  H47 <0> d   1      18.445  -2.981   7.981  0.00  0.00     0.210 HD
ENDBRANCH   8  24
BRANCH   9  26
ATOM     26  O26 <0> d   1      20.088  -1.057   8.591  0.00  0.00    -0.393 OA
ATOM     27  H48 <0> d   1      20.925  -1.271   8.155  0.00  0.00     0.210 HD
ENDBRANCH   9  26
TORSDOF 9
ENDMDL
MODEL 7
REMARK VINA RESULT:      -7.1      2.609      7.355
REMARK  9 active torsions:
REMARK  status: ('A' for Active; 'I' for Inactive)
REMARK    1  A    between atoms: C2_2  and  N5_5 
REMARK    2  A    between atoms: N5_5  and  C8_8 
REMARK    3  A    between atoms: C8_8  and  C9_9 
REMARK    4  A    between atoms: C9_9  and  O11_10 
REMARK    5  A    between atoms: C9_9  and  C12_11 
REMARK    6  A    between atoms: C12_11  and  O13_12 
REMARK    7  A    between atoms: O13_12  and  C14_13 
REMARK    8  A    between atoms: C21_20  and  O23_21 
REMARK    9  A    between atoms: C24_22  and  O26_23 
ROOT
ATOM      1  C14 <0> d   1      17.953   1.674  10.836  0.00  0.00     0.075 A 
ATOM      2  C15 <0> d   1      18.321   2.741  10.033  0.00  0.00     0.037 A 
ATOM      3  C16 <0> d   1      18.920   2.503   8.811  0.00  0.00     0.003 A 
ATOM      4  C17 <0> d   1      19.145   1.206   8.398  0.00  0.00     0.008 A 
ATOM      5  C18 <0> d   1      18.777   0.132   9.200  0.00  0.00    -0.046 A 
ATOM      6  C19 <0> d   1      18.190   0.365  10.422  0.00  0.00    -0.016 A 
ATOM      7  C20 <0> d   1      17.779  -0.750  11.349  0.00  0.00     0.076 C 
ATOM      8  C21 <0> d   1      17.689  -2.073  10.593  0.00  0.00     0.151 C 
ATOM      9  C24 <0> d   1      18.995  -2.275   9.814  0.00  0.00     0.151 C 
ATOM     10  C27 <0> d   1      19.046  -1.256   8.681  0.00  0.00     0.073 C 
ENDROOT
BRANCH   1  11
ATOM     11  O13 <0> d   1      17.362   1.906  12.038  0.00  0.00    -0.348 OA
BRANCH  11  12
ATOM     12  C12 <0> d   1      17.749   3.095  12.732  0.00  0.00     0.209 C 
BRANCH  12  13
ATOM     13  C9  <0> d   1      18.127   2.743  14.172  0.00  0.00     0.168 C 
BRANCH  13  14
ATOM     14  C8  <0> d   1      17.769   1.282  14.450  0.00  0.00     0.267 C 
BRANCH  14  15
ATOM     15  N5  <0> d   1      17.532   1.102  15.889  0.00  0.00    -0.065 N 
ATOM     16  H6  <0> d   1      16.540   1.049  16.064  0.00  0.00     0.278 HD
ATOM     17  H7  <0> d   1      17.922   1.882  16.394  0.00  0.00     0.278 HD
BRANCH  15  18
ATOM     18  C2  <0> d   1      18.174  -0.142  16.338  0.00  0.00     0.115 C 
ATOM     19  C1  <0> d   1      18.959  -0.759  15.179  0.00  0.00     0.045 C 
ATOM     20  C3  <0> d   1      17.102  -1.127  16.811  0.00  0.00     0.045 C 
ATOM     21  C4  <0> d   1      19.128   0.165  17.494  0.00  0.00     0.045 C 
ENDBRANCH  15  18
ENDBRANCH  14  15
ENDBRANCH  13  14
BRANCH  13  22
ATOM     22  O11 <0> d   1      19.532   2.932  14.355  0.00  0.00    -0.392 OA
ATOM     23  H39 <0> d   1      19.949   2.264  14.917  0.00  0.00     0.210 HD
ENDBRANCH  13  22
ENDBRANCH  12  13
ENDBRANCH  11  12
ENDBRANCH   1  11
BRANCH   8  24
ATOM     24  O23 <0> d   1      17.510  -3.146  11.520  0.00  0.00    -0.393 OA
ATOM     25  H47 <0> d   1      17.936  -3.971  11.254  0.00  0.00     0.210 HD
ENDBRANCH   8  24
BRANCH   9  26
ATOM     26  O26 <0> d   1      20.110  -2.075  10.685  0.00  0.00    -0.393 OA
ATOM     27  H48 <0> d   1      20.096  -1.230  11.155  0.00  0.00     0.210 HD
ENDBRANCH   9  26
TORSDOF 9
ENDMDL
MODEL 8
REMARK VINA RESULT:      -7.0      2.609      6.525
REMARK  9 active torsions:
REMARK  status: ('A' for Active; 'I' for Inactive)
REMARK    1  A    between atoms: C2_2  and  N5_5 
REMARK    2  A    between atoms: N5_5  and  C8_8 
REMARK    3  A    between atoms: C8_8  and  C9_9 
REMARK    4  A    between atoms: C9_9  and  O11_10 
REMARK    5  A    between atoms: C9_9  and  C12_11 
REMARK    6  A    between atoms: C12_11  and  O13_12 
REMARK    7  A    between atoms: O13_12  and  C14_13 
REMARK    8  A    between atoms: C21_20  and  O23_21 
REMARK    9  A    between atoms: C24_22  and  O26_23 
ROOT
ATOM      1  C14 <0> d   1      19.723   0.047  10.588  0.00  0.00     0.075 A 
ATOM      2  C15 <0> d   1      19.699  -0.622   9.376  0.00  0.00     0.037 A 
ATOM      3  C16 <0> d   1      19.279   0.038   8.237  0.00  0.00     0.003 A 
ATOM      4  C17 <0> d   1      18.887   1.359   8.315  0.00  0.00     0.008 A 
ATOM      5  C18 <0> d   1      18.911   2.035   9.529  0.00  0.00    -0.046 A 
ATOM      6  C19 <0> d   1      19.319   1.378  10.667  0.00  0.00    -0.016 A 
ATOM      7  C20 <0> d   1      19.354   2.043  12.019  0.00  0.00     0.076 C 
ATOM      8  C21 <0> d   1      19.320   3.563  11.871  0.00  0.00     0.151 C 
ATOM      9  C24 <0> d   1      18.149   3.934  10.955  0.00  0.00     0.151 C 
ATOM     10  C27 <0> d   1      18.478   3.478   9.537  0.00  0.00     0.073 C 
ENDROOT
BRANCH   1  11
ATOM     11  O13 <0> d   1      20.137  -0.601  11.708  0.00  0.00    -0.348 OA
BRANCH  11  12
ATOM     12  C12 <0> d   1      19.456  -1.811  12.048  0.00  0.00     0.209 C 
BRANCH  12  13
ATOM     13  C9  <0> d   1      18.640  -1.595  13.324  0.00  0.00     0.168 C 
BRANCH  13  14
ATOM     14  C8  <0> d   1      19.490  -0.843  14.351  0.00  0.00     0.267 C 
BRANCH  14  15
ATOM     15  N5  <0> d   1      19.194  -1.352  15.696  0.00  0.00    -0.065 N 
ATOM     16  H6  <0> d   1      20.042  -1.702  16.119  0.00  0.00     0.278 HD
ATOM     17  H7  <0> d   1      18.518  -2.098  15.633  0.00  0.00     0.278 HD
BRANCH  15  18
ATOM     18  C2  <0> d   1      18.649  -0.266  16.522  0.00  0.00     0.115 C 
ATOM     19  C1  <0> d   1      17.131  -0.422  16.632  0.00  0.00     0.045 C 
ATOM     20  C3  <0> d   1      18.977   1.081  15.874  0.00  0.00     0.045 C 
ATOM     21  C4  <0> d   1      19.271  -0.325  17.918  0.00  0.00     0.045 C 
ENDBRANCH  15  18
ENDBRANCH  14  15
ENDBRANCH  13  14
BRANCH  13  22
ATOM     22  O11 <0> d   1      17.473  -0.828  13.019  0.00  0.00    -0.392 OA
ATOM     23  H39 <0> d   1      16.777  -0.887  13.688  0.00  0.00     0.210 HD
ENDBRANCH  13  22
ENDBRANCH  12  13
ENDBRANCH  11  12
ENDBRANCH   1  11
BRANCH   8  24
ATOM     24  O23 <0> d   1      19.140   4.166  13.154  0.00  0.00    -0.393 OA
ATOM     25  H47 <0> d   1      18.629   3.629  13.774  0.00  0.00     0.210 HD
ENDBRANCH   8  24
BRANCH   9  26
ATOM     26  O26 <0> d   1      16.961   3.278  11.403  0.00  0.00    -0.393 OA
ATOM     27  H48 <0> d   1      16.950   2.326  11.235  0.00  0.00     0.210 HD
ENDBRANCH   9  26
TORSDOF 9
ENDMDL
MODEL 9
REMARK VINA RESULT:      -7.0      5.750      8.750
REMARK  9 active torsions:
REMARK  status: ('A' for Active; 'I' for Inactive)
REMARK    1  A    between atoms: C2_2  and  N5_5 
REMARK    2  A    between atoms: N5_5  and  C8_8 
REMARK    3  A    between atoms: C8_8  and  C9_9 
REMARK    4  A    between atoms: C9_9  and  O11_10 
REMARK    5  A    between atoms: C9_9  and  C12_11 
REMARK    6  A    between atoms: C12_11  and  O13_12 
REMARK    7  A    between atoms: O13_12  and  C14_13 
REMARK    8  A    between atoms: C21_20  and  O23_21 
REMARK    9  A    between atoms: C24_22  and  O26_23 
ROOT
ATOM      1  C14 <0> d   1      19.375  -1.799   6.415  0.00  0.00     0.075 A 
ATOM      2  C15 <0> d   1      19.241  -1.470   5.077  0.00  0.00     0.037 A 
ATOM      3  C16 <0> d   1      19.010  -0.156   4.714  0.00  0.00     0.003 A 
ATOM      4  C17 <0> d   1      18.917   0.818   5.687  0.00  0.00     0.008 A 
ATOM      5  C18 <0> d   1      19.052   0.493   7.031  0.00  0.00    -0.046 A 
ATOM      6  C19 <0> d   1      19.272  -0.815   7.397  0.00  0.00    -0.016 A 
ATOM      7  C20 <0> d   1      19.412  -1.242   8.835  0.00  0.00     0.076 C 
ATOM      8  C21 <0> d   1      19.718  -0.039   9.726  0.00  0.00     0.151 C 
ATOM      9  C24 <0> d   1      18.685   1.055   9.433  0.00  0.00     0.151 C 
ATOM     10  C27 <0> d   1      18.948   1.609   8.037  0.00  0.00     0.073 C 
ENDROOT
BRANCH   1  11
ATOM     11  O13 <0> d   1      19.603  -3.089   6.773  0.00  0.00    -0.348 OA
BRANCH  11  12
ATOM     12  C12 <0> d   1      18.944  -4.101   6.008  0.00  0.00     0.209 C 
BRANCH  12  13
ATOM     13  C9  <0> d   1      19.038  -5.439   6.745  0.00  0.00     0.168 C 
BRANCH  13  14
ATOM     14  C8  <0> d   1      17.844  -5.584   7.691  0.00  0.00     0.267 C 
BRANCH  14  15
ATOM     15  N5  <0> d   1      17.751  -4.395   8.548  0.00  0.00    -0.065 N 
ATOM     16  H6  <0> d   1      16.830  -3.991   8.466  0.00  0.00     0.278 HD
ATOM     17  H7  <0> d   1      18.442  -3.719   8.261  0.00  0.00     0.278 HD
BRANCH  15  18
ATOM     18  C2  <0> d   1      17.994  -4.779   9.946  0.00  0.00     0.115 C 
ATOM     19  C1  <0> d   1      19.501  -4.829  10.207  0.00  0.00     0.045 C 
ATOM     20  C3  <0> d   1      17.385  -6.159  10.209  0.00  0.00     0.045 C 
ATOM     21  C4  <0> d   1      17.348  -3.751  10.877  0.00  0.00     0.045 C 
ENDBRANCH  15  18
ENDBRANCH  14  15
ENDBRANCH  13  14
BRANCH  13  22
ATOM     22  O11 <0> d   1      19.027  -6.507   5.796  0.00  0.00    -0.392 OA
ATOM     23  H39 <0> d   1      18.446  -6.354   5.038  0.00  0.00     0.210 HD
ENDBRANCH  13  22
ENDBRANCH  12  13
ENDBRANCH  11  12
ENDBRANCH   1  11
BRANCH   8  24
ATOM     24  O23 <0> d   1      19.636  -0.425  11.099  0.00  0.00    -0.393 OA
ATOM     25  H47 <0> d   1      19.484  -1.370  11.234  0.00  0.00     0.210 HD
ENDBRANCH   8  24
BRANCH   9  26
ATOM     26  O26 <0> d   1      17.369   0.500   9.485  0.00  0.00    -0.393 OA
ATOM     27  H48 <0> d   1      17.056   0.315  10.382  0.00  0.00     0.210 HD
ENDBRANCH   9  26
TORSDOF 9
ENDMDL
