MODEL 1
REMARK VINA RESULT:      -4.1      0.000      0.000
REMARK  4 active torsions:
REMARK  status: ('A' for Active; 'I' for Inactive)
REMARK    1  A    between atoms: P2_2  and  O4_4 
REMARK    2  A    between atoms: P2_2  and  C5_5 
REMARK    3  A    between atoms: C5_5  and  P6_6 
REMARK    4  A    between atoms: P6_6  and  O9_9 
ROOT
ATOM      1  C5  ZIN A   1      19.041   1.912  16.406  0.00  0.00     0.270 C 
ENDROOT
BRANCH   1   2
ATOM      2  P2  ZIN A   1      18.937   1.417  18.157  0.00  0.00     0.259 P 
ATOM      3  O1  ZIN A   1      19.713   0.098  18.367  0.00  0.00    -0.646 OA
ATOM      4  O3  ZIN A   1      17.456   1.210  18.548  0.00  0.00    -0.646 OA
BRANCH   2   5
ATOM      5  O4  ZIN A   1      19.580   2.570  19.080  0.00  0.00    -0.322 OA
ATOM      6  H10 ZIN A   1      18.930   3.174  19.463  0.00  0.00     0.221 HD
ENDBRANCH   2   5
ENDBRANCH   1   2
BRANCH   1   7
ATOM      7  P6  ZIN A   1      19.265   3.718  16.298  0.00  0.00     0.259 P 
ATOM      8  O7  ZIN A   1      18.979   4.187  14.853  0.00  0.00    -0.646 OA
ATOM      9  O8  ZIN A   1      18.288   4.417  17.270  0.00  0.00    -0.646 OA
BRANCH   7  10
ATOM     10  O9  ZIN A   1      20.779   4.096  16.694  0.00  0.00    -0.322 OA
ATOM     11  H13 ZIN A   1      21.028   3.837  17.592  0.00  0.00     0.221 HD
ENDBRANCH   7  10
ENDBRANCH   1   7
TORSDOF 4
ENDMDL
MODEL 2
REMARK VINA RESULT:      -4.0      6.161      7.131
REMARK  4 active torsions:
REMARK  status: ('A' for Active; 'I' for Inactive)
REMARK    1  A    between atoms: P2_2  and  O4_4 
REMARK    2  A    between atoms: P2_2  and  C5_5 
REMARK    3  A    between atoms: C5_5  and  P6_6 
REMARK    4  A    between atoms: P6_6  and  O9_9 
ROOT
ATOM      1  C5  ZIN A   1      19.214   1.363  11.080  0.00  0.00     0.270 C 
ENDROOT
BRANCH   1   2
ATOM      2  P2  ZIN A   1      20.105   0.438  12.373  0.00  0.00     0.259 P 
ATOM      3  O1  ZIN A   1      19.749  -1.063  12.272  0.00  0.00    -0.646 OA
ATOM      4  O3  ZIN A   1      19.695   0.971  13.764  0.00  0.00    -0.646 OA
BRANCH   2   5
ATOM      5  O4  ZIN A   1      21.691   0.627  12.171  0.00  0.00    -0.322 OA
ATOM      6  H10 ZIN A   1      21.931   1.401  11.644  0.00  0.00     0.221 HD
ENDBRANCH   2   5
ENDBRANCH   1   2
BRANCH   1   7
ATOM      7  P6  ZIN A   1      19.443   0.535   9.473  0.00  0.00     0.259 P 
ATOM      8  O7  ZIN A   1      18.207  -0.339   9.162  0.00  0.00    -0.646 OA
ATOM      9  O8  ZIN A   1      19.614   1.599   8.365  0.00  0.00    -0.646 OA
BRANCH   7  10
ATOM     10  O9  ZIN A   1      20.756  -0.396   9.530  0.00  0.00    -0.322 OA
ATOM     11  H13 ZIN A   1      21.525   0.032   9.931  0.00  0.00     0.221 HD
ENDBRANCH   7  10
ENDBRANCH   1   7
TORSDOF 4
ENDMDL
MODEL 3
REMARK VINA RESULT:      -4.0      6.152      7.665
REMARK  4 active torsions:
REMARK  status: ('A' for Active; 'I' for Inactive)
REMARK    1  A    between atoms: P2_2  and  O4_4 
REMARK    2  A    between atoms: P2_2  and  C5_5 
REMARK    3  A    between atoms: C5_5  and  P6_6 
REMARK    4  A    between atoms: P6_6  and  O9_9 
ROOT
ATOM      1  C5  ZIN A   1      19.220   1.382  11.082  0.00  0.00     0.270 C 
ENDROOT
BRANCH   1   2
ATOM      2  P2  ZIN A   1      19.439   0.553   9.474  0.00  0.00     0.259 P 
ATOM      3  O1  ZIN A   1      19.613   1.615   8.366  0.00  0.00    -0.646 OA
ATOM      4  O3  ZIN A   1      18.196  -0.313   9.166  0.00  0.00    -0.646 OA
BRANCH   2   5
ATOM      5  O4  ZIN A   1      20.746  -0.386   9.528  0.00  0.00    -0.322 OA
ATOM      6  H10 ZIN A   1      21.555   0.049   9.225  0.00  0.00     0.221 HD
ENDBRANCH   2   5
ENDBRANCH   1   2
BRANCH   1   7
ATOM      7  P6  ZIN A   1      20.105   0.448  12.373  0.00  0.00     0.259 P 
ATOM      8  O7  ZIN A   1      19.698   0.980  13.765  0.00  0.00    -0.646 OA
ATOM      9  O8  ZIN A   1      19.740  -1.050  12.267  0.00  0.00    -0.646 OA
BRANCH   7  10
ATOM     10  O9  ZIN A   1      21.693   0.628  12.174  0.00  0.00    -0.322 OA
ATOM     11  H13 ZIN A   1      21.940   1.041  11.335  0.00  0.00     0.221 HD
ENDBRANCH   7  10
ENDBRANCH   1   7
TORSDOF 4
ENDMDL
MODEL 4
REMARK VINA RESULT:      -4.0      6.795      7.776
REMARK  4 active torsions:
REMARK  status: ('A' for Active; 'I' for Inactive)
REMARK    1  A    between atoms: P2_2  and  O4_4 
REMARK    2  A    between atoms: P2_2  and  C5_5 
REMARK    3  A    between atoms: C5_5  and  P6_6 
REMARK    4  A    between atoms: P6_6  and  O9_9 
ROOT
ATOM      1  C5  ZIN A   1      19.007   0.257  11.678  0.00  0.00     0.270 C 
ENDROOT
BRANCH   1   2
ATOM      2  P2  ZIN A   1      20.063  -0.549  10.430  0.00  0.00     0.259 P 
ATOM      3  O1  ZIN A   1      20.014   0.259   9.114  0.00  0.00    -0.646 OA
ATOM      4  O3  ZIN A   1      19.554  -1.985  10.172  0.00  0.00    -0.646 OA
BRANCH   2   5
ATOM      5  O4  ZIN A   1      21.580  -0.607  10.968  0.00  0.00    -0.322 OA
ATOM      6  H10 ZIN A   1      21.813  -1.440  11.398  0.00  0.00     0.221 HD
ENDBRANCH   2   5
ENDBRANCH   1   2
BRANCH   1   7
ATOM      7  P6  ZIN A   1      17.385   0.643  10.942  0.00  0.00     0.259 P 
ATOM      8  O7  ZIN A   1      16.264   0.055  11.828  0.00  0.00    -0.646 OA
ATOM      9  O8  ZIN A   1      17.215   2.176  10.847  0.00  0.00    -0.646 OA
BRANCH   7  10
ATOM     10  O9  ZIN A   1      17.296   0.001   9.468  0.00  0.00    -0.322 OA
ATOM     11  H13 ZIN A   1      16.392  -0.126   9.148  0.00  0.00     0.221 HD
ENDBRANCH   7  10
ENDBRANCH   1   7
TORSDOF 4
ENDMDL
MODEL 5
REMARK VINA RESULT:      -4.0      2.406      3.943
REMARK  4 active torsions:
REMARK  status: ('A' for Active; 'I' for Inactive)
REMARK    1  A    between atoms: P2_2  and  O4_4 
REMARK    2  A    between atoms: P2_2  and  C5_5 
REMARK    3  A    between atoms: C5_5  and  P6_6 
REMARK    4  A    between atoms: P6_6  and  O9_9 
ROOT
ATOM      1  C5  ZIN A   1      18.801   1.176  16.291  0.00  0.00     0.270 C 
ENDROOT
BRANCH   1   2
ATOM      2  P2  ZIN A   1      18.967   1.041  18.100  0.00  0.00     0.259 P 
ATOM      3  O1  ZIN A   1      17.565   1.055  18.749  0.00  0.00    -0.646 OA
ATOM      4  O3  ZIN A   1      19.792   2.234  18.633  0.00  0.00    -0.646 OA
BRANCH   2   5
ATOM      5  O4  ZIN A   1      19.715  -0.337  18.470  0.00  0.00    -0.322 OA
ATOM      6  H10 ZIN A   1      19.285  -1.125  18.113  0.00  0.00     0.221 HD
ENDBRANCH   2   5
ENDBRANCH   1   2
BRANCH   1   7
ATOM      7  P6  ZIN A   1      18.237  -0.419  15.612  0.00  0.00     0.259 P 
ATOM      8  O7  ZIN A   1      17.580  -0.189  14.233  0.00  0.00    -0.646 OA
ATOM      9  O8  ZIN A   1      19.447  -1.368  15.454  0.00  0.00    -0.646 OA
BRANCH   7  10
ATOM     10  O9  ZIN A   1      17.164  -1.081  16.613  0.00  0.00    -0.322 OA
ATOM     11  H13 ZIN A   1      16.558  -0.445  17.018  0.00  0.00     0.221 HD
ENDBRANCH   7  10
ENDBRANCH   1   7
TORSDOF 4
ENDMDL
MODEL 6
REMARK VINA RESULT:      -4.0      5.192      6.844
REMARK  4 active torsions:
REMARK  status: ('A' for Active; 'I' for Inactive)
REMARK    1  A    between atoms: P2_2  and  O4_4 
REMARK    2  A    between atoms: P2_2  and  C5_5 
REMARK    3  A    between atoms: C5_5  and  P6_6 
REMARK    4  A    between atoms: P6_6  and  O9_9 
ROOT
ATOM      1  C5  ZIN A   1      19.537   2.204  11.432  0.00  0.00     0.270 C 
ENDROOT
BRANCH   1   2
ATOM      2  P2  ZIN A   1      17.806   1.992  10.903  0.00  0.00     0.259 P 
ATOM      3  O1  ZIN A   1      17.771   1.383   9.484  0.00  0.00    -0.646 OA
ATOM      4  O3  ZIN A   1      17.098   3.365  10.891  0.00  0.00    -0.646 OA
BRANCH   2   5
ATOM      5  O4  ZIN A   1      17.049   1.006  11.928  0.00  0.00    -0.322 OA
ATOM      6  H10 ZIN A   1      17.630   0.605  12.589  0.00  0.00     0.221 HD
ENDBRANCH   2   5
ENDBRANCH   1   2
BRANCH   1   7
ATOM      7  P6  ZIN A   1      20.125   0.669  12.220  0.00  0.00     0.259 P 
ATOM      8  O7  ZIN A   1      19.644   0.626  13.688  0.00  0.00    -0.646 OA
ATOM      9  O8  ZIN A   1      19.559  -0.550  11.457  0.00  0.00    -0.646 OA
BRANCH   7  10
ATOM     10  O9  ZIN A   1      21.734   0.626  12.181  0.00  0.00    -0.322 OA
ATOM     11  H13 ZIN A   1      22.151   0.694  13.051  0.00  0.00     0.221 HD
ENDBRANCH   7  10
ENDBRANCH   1   7
TORSDOF 4
ENDMDL
MODEL 7
REMARK VINA RESULT:      -3.9      5.267      5.900
REMARK  4 active torsions:
REMARK  status: ('A' for Active; 'I' for Inactive)
REMARK    1  A    between atoms: P2_2  and  O4_4 
REMARK    2  A    between atoms: P2_2  and  C5_5 
REMARK    3  A    between atoms: C5_5  and  P6_6 
REMARK    4  A    between atoms: P6_6  and  O9_9 
ROOT
ATOM      1  C5  ZIN A   1      19.117   1.684  12.588  0.00  0.00     0.270 C 
ENDROOT
BRANCH   1   2
ATOM      2  P2  ZIN A   1      20.119   0.342  11.870  0.00  0.00     0.259 P 
ATOM      3  O1  ZIN A   1      19.896   0.293  10.342  0.00  0.00    -0.646 OA
ATOM      4  O3  ZIN A   1      19.699  -1.008  12.494  0.00  0.00    -0.646 OA
BRANCH   2   5
ATOM      5  O4  ZIN A   1      21.677   0.613  12.175  0.00  0.00    -0.322 OA
ATOM      6  H10 ZIN A   1      21.836   1.346  12.785  0.00  0.00     0.221 HD
ENDBRANCH   2   5
ENDBRANCH   1   2
BRANCH   1   7
ATOM      7  P6  ZIN A   1      19.552   3.263  11.788  0.00  0.00     0.259 P 
ATOM      8  O7  ZIN A   1      18.844   3.359  10.418  0.00  0.00    -0.646 OA
ATOM      9  O8  ZIN A   1      19.099   4.436  12.686  0.00  0.00    -0.646 OA
BRANCH   7  10
ATOM     10  O9  ZIN A   1      21.146   3.336  11.574  0.00  0.00    -0.322 OA
ATOM     11  H13 ZIN A   1      21.414   3.464  10.654  0.00  0.00     0.221 HD
ENDBRANCH   7  10
ENDBRANCH   1   7
TORSDOF 4
ENDMDL
MODEL 8
REMARK VINA RESULT:      -3.9      5.259      6.241
REMARK  4 active torsions:
REMARK  status: ('A' for Active; 'I' for Inactive)
REMARK    1  A    between atoms: P2_2  and  O4_4 
REMARK    2  A    between atoms: P2_2  and  C5_5 
REMARK    3  A    between atoms: C5_5  and  P6_6 
REMARK    4  A    between atoms: P6_6  and  O9_9 
ROOT
ATOM      1  C5  ZIN A   1      19.144   0.419  10.744  0.00  0.00     0.270 C 
ENDROOT
BRANCH   1   2
ATOM      2  P2  ZIN A   1      20.001   0.360  12.352  0.00  0.00     0.259 P 
ATOM      3  O1  ZIN A   1      19.780  -1.024  13.004  0.00  0.00    -0.646 OA
ATOM      4  O3  ZIN A   1      19.438   1.461  13.278  0.00  0.00    -0.646 OA
BRANCH   2   5
ATOM      5  O4  ZIN A   1      21.578   0.601  12.129  0.00  0.00    -0.322 OA
ATOM      6  H10 ZIN A   1      21.794   1.037  11.294  0.00  0.00     0.221 HD
ENDBRANCH   2   5
ENDBRANCH   1   2
BRANCH   1   7
ATOM      7  P6  ZIN A   1      18.901   2.156  10.249  0.00  0.00     0.259 P 
ATOM      8  O7  ZIN A   1      19.052   2.281   8.716  0.00  0.00    -0.646 OA
ATOM      9  O8  ZIN A   1      17.486   2.617  10.667  0.00  0.00    -0.646 OA
BRANCH   7  10
ATOM     10  O9  ZIN A   1      20.002   3.081  10.973  0.00  0.00    -0.322 OA
ATOM     11  H13 ZIN A   1      19.630   3.732  11.584  0.00  0.00     0.221 HD
ENDBRANCH   7  10
ENDBRANCH   1   7
TORSDOF 4
ENDMDL
MODEL 9
REMARK VINA RESULT:      -3.9      5.247      7.103
REMARK  4 active torsions:
REMARK  status: ('A' for Active; 'I' for Inactive)
REMARK    1  A    between atoms: P2_2  and  O4_4 
REMARK    2  A    between atoms: P2_2  and  C5_5 
REMARK    3  A    between atoms: C5_5  and  P6_6 
REMARK    4  A    between atoms: P6_6  and  O9_9 
ROOT
ATOM      1  C5  ZIN A   1      19.123   0.400  10.786  0.00  0.00     0.270 C 
ENDROOT
BRANCH   1   2
ATOM      2  P2  ZIN A   1      18.899   2.129  10.254  0.00  0.00     0.259 P 
ATOM      3  O1  ZIN A   1      17.486   2.612  10.653  0.00  0.00    -0.646 OA
ATOM      4  O3  ZIN A   1      19.060   2.222   8.720  0.00  0.00    -0.646 OA
BRANCH   2   5
ATOM      5  O4  ZIN A   1      20.005   3.057  10.967  0.00  0.00    -0.322 OA
ATOM      6  H10 ZIN A   1      19.914   3.109  11.928  0.00  0.00     0.221 HD
ENDBRANCH   2   5
ENDBRANCH   1   2
BRANCH   1   7
ATOM      7  P6  ZIN A   1      20.000   0.365  12.384  0.00  0.00     0.259 P 
ATOM      8  O7  ZIN A   1      19.448   1.480  13.299  0.00  0.00    -0.646 OA
ATOM      9  O8  ZIN A   1      19.785  -1.009  13.058  0.00  0.00    -0.646 OA
BRANCH   7  10
ATOM     10  O9  ZIN A   1      21.573   0.602  12.139  0.00  0.00    -0.322 OA
ATOM     11  H13 ZIN A   1      22.128   0.382  12.899  0.00  0.00     0.221 HD
ENDBRANCH   7  10
ENDBRANCH   1   7
TORSDOF 4
ENDMDL
