MODEL 1
REMARK VINA RESULT:      -7.7      0.000      0.000
REMARK  11 active torsions:
REMARK  status: ('A' for Active; 'I' for Inactive)
REMARK    1  A    between atoms: C3_3  and  C4_4 
REMARK    2  A    between atoms: C4_4  and  C5_5 
REMARK    3  A    between atoms: C5_5  and  C8_7 
REMARK    4  A    between atoms: C8_7  and  O10_8 
REMARK    5  A    between atoms: C8_7  and  C11_9 
REMARK    6  A    between atoms: C12_10  and  C13_11 
REMARK    7  A    between atoms: C15_12  and  O17_13 
REMARK    8  A    between atoms: C23_18  and  C24_19 
REMARK    9  A    between atoms: C24_19  and  C25_20 
REMARK   10  A    between atoms: C25_20  and  C26_21 
REMARK   11  A    between atoms: C26_21  and  C27_22 
ROOT
ATOM      1  C1  ZIN A   1      19.060   1.921   9.534  0.00  0.00     0.112 C 
ATOM      2  C2  ZIN A   1      18.903   1.443   8.151  0.00  0.00    -0.111 C 
ATOM      3  C3  ZIN A   1      18.777   1.061   7.048  0.00  0.00    -0.107 C 
ENDROOT
BRANCH   3   4
ATOM      4  C4  ZIN A   1      18.620   0.583   5.664  0.00  0.00     0.101 C 
BRANCH   4   5
ATOM      5  C5  ZIN A   1      18.226  -0.895   5.678  0.00  0.00     0.025 C 
ATOM      6  C7  ZIN A   1      17.690  -1.292   4.302  0.00  0.00     0.014 C 
BRANCH   5   7
ATOM      7  C8  ZIN A   1      19.453  -1.747   6.013  0.00  0.00     0.145 C 
BRANCH   7   8
ATOM      8  O10 ZIN A   1      19.518  -2.860   5.119  0.00  0.00    -0.391 OA
ATOM      9  H41 ZIN A   1      19.875  -2.643   4.247  0.00  0.00     0.210 HD
ENDBRANCH   7   8
BRANCH   7  10
ATOM     10  C11 ZIN A   1      19.344  -2.248   7.430  0.00  0.00     0.001 C 
ATOM     11  C12 ZIN A   1      18.182  -2.254   8.036  0.00  0.00    -0.021 C 
BRANCH  11  12
ATOM     12  C13 ZIN A   1      18.073  -2.756   9.452  0.00  0.00     0.041 C 
ATOM     13  C31 ZIN A   1      18.652  -1.719  10.427  0.00  0.00     0.004 C 
ATOM     14  C19 ZIN A   1      19.490  -2.496  11.464  0.00  0.00    -0.003 C 
ATOM     15  C30 ZIN A   1      17.500  -1.058  11.238  0.00  0.00     0.039 C 
ATOM     16  C18 ZIN A   1      19.398  -3.984  11.095  0.00  0.00     0.037 C 
ATOM     17  C21 ZIN A   1      18.840  -2.267  12.838  0.00  0.00     0.039 C 
ATOM     18  C15 ZIN A   1      18.923  -4.028   9.631  0.00  0.00     0.126 C 
ATOM     19  C22 ZIN A   1      17.951  -1.049  12.685  0.00  0.00    -0.083 C 
ATOM     20  C23 ZIN A   1      17.640  -0.173  13.608  0.00  0.00    -0.024 C 
BRANCH  18  21
ATOM     21  O17 ZIN A   1      18.129  -5.193   9.398  0.00  0.00    -0.395 OA
ATOM     22  H44 ZIN A   1      18.488  -5.784   8.721  0.00  0.00     0.210 HD
ENDBRANCH  18  21
BRANCH  20  23
ATOM     23  C24 ZIN A   1      18.185  -0.324  15.005  0.00  0.00     0.028 C 
BRANCH  23  24
ATOM     24  C25 ZIN A   1      17.991   0.986  15.773  0.00  0.00     0.014 C 
BRANCH  24  25
ATOM     25  C26 ZIN A   1      17.992   0.700  17.276  0.00  0.00     0.113 C 
BRANCH  25  26
ATOM     26  C27 ZIN A   1      19.225   1.299  17.900  0.00  0.00     0.172 C 
ATOM     27  O28 ZIN A   1      19.387   2.507  17.893  0.00  0.00    -0.648 OA
ATOM     28  O29 ZIN A   1      20.062   0.575  18.412  0.00  0.00    -0.648 OA
ENDBRANCH  25  26
ENDBRANCH  24  25
ENDBRANCH  23  24
ENDBRANCH  20  23
ENDBRANCH  11  12
ENDBRANCH   7  10
ENDBRANCH   5   7
ENDBRANCH   4   5
ENDBRANCH   3   4
TORSDOF 11
ENDMDL
MODEL 2
REMARK VINA RESULT:      -7.4      2.153      9.365
REMARK  11 active torsions:
REMARK  status: ('A' for Active; 'I' for Inactive)
REMARK    1  A    between atoms: C3_3  and  C4_4 
REMARK    2  A    between atoms: C4_4  and  C5_5 
REMARK    3  A    between atoms: C5_5  and  C8_7 
REMARK    4  A    between atoms: C8_7  and  O10_8 
REMARK    5  A    between atoms: C8_7  and  C11_9 
REMARK    6  A    between atoms: C12_10  and  C13_11 
REMARK    7  A    between atoms: C15_12  and  O17_13 
REMARK    8  A    between atoms: C23_18  and  C24_19 
REMARK    9  A    between atoms: C24_19  and  C25_20 
REMARK   10  A    between atoms: C25_20  and  C26_21 
REMARK   11  A    between atoms: C26_21  and  C27_22 
ROOT
ATOM      1  C1  ZIN A   1      18.110  -2.133  12.214  0.00  0.00     0.112 C 
ATOM      2  C2  ZIN A   1      18.506  -1.731  13.574  0.00  0.00    -0.111 C 
ATOM      3  C3  ZIN A   1      18.822  -1.409  14.658  0.00  0.00    -0.107 C 
ENDROOT
BRANCH   3   4
ATOM      4  C4  ZIN A   1      19.220  -1.007  16.017  0.00  0.00     0.101 C 
BRANCH   4   5
ATOM      5  C5  ZIN A   1      18.184  -0.035  16.584  0.00  0.00     0.025 C 
ATOM      6  C7  ZIN A   1      18.136  -0.172  18.107  0.00  0.00     0.014 C 
BRANCH   5   7
ATOM      7  C8  ZIN A   1      18.573   1.398  16.213  0.00  0.00     0.145 C 
BRANCH   7   8
ATOM      8  O10 ZIN A   1      18.072   2.298  17.203  0.00  0.00    -0.391 OA
ATOM      9  H41 ZIN A   1      17.708   3.118  16.842  0.00  0.00     0.210 HD
ENDBRANCH   7   8
BRANCH   7  10
ATOM     10  C11 ZIN A   1      17.980   1.747  14.872  0.00  0.00     0.001 C 
ATOM     11  C12 ZIN A   1      18.515   2.697  14.145  0.00  0.00    -0.021 C 
BRANCH  11  12
ATOM     12  C13 ZIN A   1      17.923   3.045  12.805  0.00  0.00     0.041 C 
ATOM     13  C31 ZIN A   1      18.887   2.643  11.679  0.00  0.00     0.004 C 
ATOM     14  C19 ZIN A   1      18.895   3.799  10.657  0.00  0.00    -0.003 C 
ATOM     15  C30 ZIN A   1      18.316   1.416  10.910  0.00  0.00     0.039 C 
ATOM     16  C18 ZIN A   1      17.933   4.874  11.186  0.00  0.00     0.037 C 
ATOM     17  C21 ZIN A   1      18.357   3.239   9.331  0.00  0.00     0.039 C 
ATOM     18  C15 ZIN A   1      17.742   4.571  12.684  0.00  0.00     0.126 C 
ATOM     19  C22 ZIN A   1      18.470   1.731   9.435  0.00  0.00    -0.083 C 
ATOM     20  C23 ZIN A   1      18.661   0.880   8.457  0.00  0.00    -0.024 C 
BRANCH  18  21
ATOM     21  O17 ZIN A   1      16.432   4.950  13.108  0.00  0.00    -0.395 OA
ATOM     22  H44 ZIN A   1      15.746   4.302  12.895  0.00  0.00     0.210 HD
ENDBRANCH  18  21
BRANCH  20  23
ATOM     23  C24 ZIN A   1      18.792   1.377   7.041  0.00  0.00     0.028 C 
BRANCH  23  24
ATOM     24  C25 ZIN A   1      18.159   0.365   6.084  0.00  0.00     0.014 C 
BRANCH  24  25
ATOM     25  C26 ZIN A   1      18.531  -1.053   6.523  0.00  0.00     0.113 C 
BRANCH  25  26
ATOM     26  C27 ZIN A   1      19.434  -1.678   5.491  0.00  0.00     0.172 C 
ATOM     27  O28 ZIN A   1      19.665  -2.874   5.527  0.00  0.00    -0.648 OA
ATOM     28  O29 ZIN A   1      19.934  -0.986   4.620  0.00  0.00    -0.648 OA
ENDBRANCH  25  26
ENDBRANCH  24  25
ENDBRANCH  23  24
ENDBRANCH  20  23
ENDBRANCH  11  12
ENDBRANCH   7  10
ENDBRANCH   5   7
ENDBRANCH   4   5
ENDBRANCH   3   4
TORSDOF 11
ENDMDL
MODEL 3
REMARK VINA RESULT:      -7.3      2.189      3.027
REMARK  11 active torsions:
REMARK  status: ('A' for Active; 'I' for Inactive)
REMARK    1  A    between atoms: C3_3  and  C4_4 
REMARK    2  A    between atoms: C4_4  and  C5_5 
REMARK    3  A    between atoms: C5_5  and  C8_7 
REMARK    4  A    between atoms: C8_7  and  O10_8 
REMARK    5  A    between atoms: C8_7  and  C11_9 
REMARK    6  A    between atoms: C12_10  and  C13_11 
REMARK    7  A    between atoms: C15_12  and  O17_13 
REMARK    8  A    between atoms: C23_18  and  C24_19 
REMARK    9  A    between atoms: C24_19  and  C25_20 
REMARK   10  A    between atoms: C25_20  and  C26_21 
REMARK   11  A    between atoms: C26_21  and  C27_22 
ROOT
ATOM      1  C1  ZIN A   1      17.530   4.117  10.939  0.00  0.00     0.112 C 
ATOM      2  C2  ZIN A   1      18.258   3.213  10.032  0.00  0.00    -0.111 C 
ATOM      3  C3  ZIN A   1      18.838   2.492   9.310  0.00  0.00    -0.107 C 
ENDROOT
BRANCH   3   4
ATOM      4  C4  ZIN A   1      19.565   1.589   8.403  0.00  0.00     0.101 C 
BRANCH   4   5
ATOM      5  C5  ZIN A   1      18.575   0.927   7.443  0.00  0.00     0.025 C 
ATOM      6  C7  ZIN A   1      18.983   1.230   6.000  0.00  0.00     0.014 C 
BRANCH   5   7
ATOM      7  C8  ZIN A   1      18.583  -0.588   7.667  0.00  0.00     0.145 C 
BRANCH   7   8
ATOM      8  O10 ZIN A   1      17.419  -1.163   7.069  0.00  0.00    -0.391 OA
ATOM      9  H41 ZIN A   1      17.580  -2.009   6.631  0.00  0.00     0.210 HD
ENDBRANCH   7   8
BRANCH   7  10
ATOM     10  C11 ZIN A   1      18.580  -0.875   9.146  0.00  0.00     0.001 C 
ATOM     11  C12 ZIN A   1      17.450  -0.891   9.810  0.00  0.00    -0.021 C 
BRANCH  11  12
ATOM     12  C13 ZIN A   1      17.448  -1.180  11.288  0.00  0.00     0.041 C 
ATOM     13  C31 ZIN A   1      18.419  -0.236  12.013  0.00  0.00     0.004 C 
ATOM     14  C19 ZIN A   1      19.190  -1.088  13.044  0.00  0.00    -0.003 C 
ATOM     15  C30 ZIN A   1      17.617   0.802  12.852  0.00  0.00     0.039 C 
ATOM     16  C18 ZIN A   1      18.667  -2.527  12.920  0.00  0.00     0.037 C 
ATOM     17  C21 ZIN A   1      18.849  -0.536  14.437  0.00  0.00     0.039 C 
ATOM     18  C15 ZIN A   1      17.966  -2.607  11.551  0.00  0.00     0.126 C 
ATOM     19  C22 ZIN A   1      18.283   0.853  14.213  0.00  0.00    -0.083 C 
ATOM     20  C23 ZIN A   1      18.356   1.879  15.023  0.00  0.00    -0.024 C 
BRANCH  18  21
ATOM     21  O17 ZIN A   1      16.877  -3.530  11.599  0.00  0.00    -0.395 OA
ATOM     22  H44 ZIN A   1      16.702  -3.976  10.759  0.00  0.00     0.210 HD
ENDBRANCH  18  21
BRANCH  20  23
ATOM     23  C24 ZIN A   1      19.064   1.746  16.347  0.00  0.00     0.028 C 
BRANCH  23  24
ATOM     24  C25 ZIN A   1      18.923   3.050  17.135  0.00  0.00     0.014 C 
BRANCH  24  25
ATOM     25  C26 ZIN A   1      19.853   4.109  16.539  0.00  0.00     0.113 C 
BRANCH  25  26
ATOM     26  C27 ZIN A   1      19.109   5.411  16.401  0.00  0.00     0.172 C 
ATOM     27  O28 ZIN A   1      19.721   6.465  16.386  0.00  0.00    -0.648 OA
ATOM     28  O29 ZIN A   1      17.893   5.411  16.303  0.00  0.00    -0.648 OA
ENDBRANCH  25  26
ENDBRANCH  24  25
ENDBRANCH  23  24
ENDBRANCH  20  23
ENDBRANCH  11  12
ENDBRANCH   7  10
ENDBRANCH   5   7
ENDBRANCH   4   5
ENDBRANCH   3   4
TORSDOF 11
ENDMDL
MODEL 4
REMARK VINA RESULT:      -7.2      2.445      5.170
REMARK  11 active torsions:
REMARK  status: ('A' for Active; 'I' for Inactive)
REMARK    1  A    between atoms: C3_3  and  C4_4 
REMARK    2  A    between atoms: C4_4  and  C5_5 
REMARK    3  A    between atoms: C5_5  and  C8_7 
REMARK    4  A    between atoms: C8_7  and  O10_8 
REMARK    5  A    between atoms: C8_7  and  C11_9 
REMARK    6  A    between atoms: C12_10  and  C13_11 
REMARK    7  A    between atoms: C15_12  and  O17_13 
REMARK    8  A    between atoms: C23_18  and  C24_19 
REMARK    9  A    between atoms: C24_19  and  C25_20 
REMARK   10  A    between atoms: C25_20  and  C26_21 
REMARK   11  A    between atoms: C26_21  and  C27_22 
ROOT
ATOM      1  C1  ZIN A   1      19.973  -2.711  11.393  0.00  0.00     0.112 C 
ATOM      2  C2  ZIN A   1      19.603  -3.938  10.668  0.00  0.00    -0.111 C 
ATOM      3  C3  ZIN A   1      19.308  -4.916  10.090  0.00  0.00    -0.107 C 
ENDROOT
BRANCH   3   4
ATOM      4  C4  ZIN A   1      18.939  -6.144   9.366  0.00  0.00     0.101 C 
BRANCH   4   5
ATOM      5  C5  ZIN A   1      17.733  -5.862   8.468  0.00  0.00     0.025 C 
ATOM      6  C7  ZIN A   1      16.978  -4.641   8.995  0.00  0.00     0.014 C 
BRANCH   5   7
ATOM      7  C8  ZIN A   1      18.213  -5.588   7.041  0.00  0.00     0.145 C 
BRANCH   7   8
ATOM      8  O10 ZIN A   1      19.522  -6.137   6.866  0.00  0.00    -0.391 OA
ATOM      9  H41 ZIN A   1      20.060  -5.670   6.212  0.00  0.00     0.210 HD
ENDBRANCH   7   8
BRANCH   7  10
ATOM     10  C11 ZIN A   1      18.257  -4.101   6.802  0.00  0.00     0.001 C 
ATOM     11  C12 ZIN A   1      19.409  -3.479   6.746  0.00  0.00    -0.021 C 
BRANCH  11  12
ATOM     12  C13 ZIN A   1      19.452  -1.993   6.507  0.00  0.00     0.041 C 
ATOM     13  C31 ZIN A   1      18.647  -1.259   7.590  0.00  0.00     0.004 C 
ATOM     14  C19 ZIN A   1      17.830  -0.160   6.878  0.00  0.00    -0.003 C 
ATOM     15  C30 ZIN A   1      19.616  -0.500   8.544  0.00  0.00     0.039 C 
ATOM     16  C18 ZIN A   1      18.160  -0.253   5.380  0.00  0.00     0.037 C 
ATOM     17  C21 ZIN A   1      18.310   1.193   7.425  0.00  0.00     0.039 C 
ATOM     18  C15 ZIN A   1      18.773  -1.650   5.168  0.00  0.00     0.126 C 
ATOM     19  C22 ZIN A   1      19.033   0.888   8.723  0.00  0.00    -0.083 C 
ATOM     20  C23 ZIN A   1      19.133   1.661   9.776  0.00  0.00    -0.024 C 
BRANCH  18  21
ATOM     21  O17 ZIN A   1      19.738  -1.619   4.115  0.00  0.00    -0.395 OA
ATOM     22  H44 ZIN A   1      20.645  -1.475   4.418  0.00  0.00     0.210 HD
ENDBRANCH  18  21
BRANCH  20  23
ATOM     23  C24 ZIN A   1      18.484   3.021   9.776  0.00  0.00     0.028 C 
BRANCH  23  24
ATOM     24  C25 ZIN A   1      17.682   3.203  11.067  0.00  0.00     0.014 C 
BRANCH  24  25
ATOM     25  C26 ZIN A   1      17.862   1.972  11.958  0.00  0.00     0.113 C 
BRANCH  25  26
ATOM     26  C27 ZIN A   1      18.289   2.408  13.335  0.00  0.00     0.172 C 
ATOM     27  O28 ZIN A   1      18.970   3.409  13.475  0.00  0.00    -0.648 OA
ATOM     28  O29 ZIN A   1      17.953   1.759  14.311  0.00  0.00    -0.648 OA
ENDBRANCH  25  26
ENDBRANCH  24  25
ENDBRANCH  23  24
ENDBRANCH  20  23
ENDBRANCH  11  12
ENDBRANCH   7  10
ENDBRANCH   5   7
ENDBRANCH   4   5
ENDBRANCH   3   4
TORSDOF 11
ENDMDL
MODEL 5
REMARK VINA RESULT:      -7.1      2.182      4.064
REMARK  11 active torsions:
REMARK  status: ('A' for Active; 'I' for Inactive)
REMARK    1  A    between atoms: C3_3  and  C4_4 
REMARK    2  A    between atoms: C4_4  and  C5_5 
REMARK    3  A    between atoms: C5_5  and  C8_7 
REMARK    4  A    between atoms: C8_7  and  O10_8 
REMARK    5  A    between atoms: C8_7  and  C11_9 
REMARK    6  A    between atoms: C12_10  and  C13_11 
REMARK    7  A    between atoms: C15_12  and  O17_13 
REMARK    8  A    between atoms: C23_18  and  C24_19 
REMARK    9  A    between atoms: C24_19  and  C25_20 
REMARK   10  A    between atoms: C25_20  and  C26_21 
REMARK   11  A    between atoms: C26_21  and  C27_22 
ROOT
ATOM      1  C1  ZIN A   1      17.077  -5.135  12.384  0.00  0.00     0.112 C 
ATOM      2  C2  ZIN A   1      17.665  -5.270  11.041  0.00  0.00    -0.111 C 
ATOM      3  C3  ZIN A   1      18.134  -5.376   9.970  0.00  0.00    -0.107 C 
ENDROOT
BRANCH   3   4
ATOM      4  C4  ZIN A   1      18.721  -5.512   8.627  0.00  0.00     0.101 C 
BRANCH   4   5
ATOM      5  C5  ZIN A   1      19.239  -4.151   8.158  0.00  0.00     0.025 C 
ATOM      6  C7  ZIN A   1      19.964  -4.314   6.821  0.00  0.00     0.014 C 
BRANCH   5   7
ATOM      7  C8  ZIN A   1      18.061  -3.189   7.985  0.00  0.00     0.145 C 
BRANCH   7   8
ATOM      8  O10 ZIN A   1      18.190  -2.498   6.741  0.00  0.00    -0.391 OA
ATOM      9  H41 ZIN A   1      19.062  -2.582   6.332  0.00  0.00     0.210 HD
ENDBRANCH   7   8
BRANCH   7  10
ATOM     10  C11 ZIN A   1      18.059  -2.191   9.115  0.00  0.00     0.001 C 
ATOM     11  C12 ZIN A   1      19.186  -1.844   9.686  0.00  0.00    -0.021 C 
BRANCH  11  12
ATOM     12  C13 ZIN A   1      19.183  -0.846  10.814  0.00  0.00     0.041 C 
ATOM     13  C31 ZIN A   1      18.249  -1.321  11.938  0.00  0.00     0.004 C 
ATOM     14  C19 ZIN A   1      17.452  -0.087  12.412  0.00  0.00    -0.003 C 
ATOM     15  C30 ZIN A   1      19.092  -1.766  13.169  0.00  0.00     0.039 C 
ATOM     16  C18 ZIN A   1      17.922   1.106  11.566  0.00  0.00     0.037 C 
ATOM     17  C21 ZIN A   1      17.818   0.154  13.884  0.00  0.00     0.039 C 
ATOM     18  C15 ZIN A   1      18.615   0.501  10.329  0.00  0.00     0.126 C 
ATOM     19  C22 ZIN A   1      18.433  -1.140  14.382  0.00  0.00    -0.083 C 
ATOM     20  C23 ZIN A   1      18.400  -1.616  15.602  0.00  0.00    -0.024 C 
BRANCH  18  21
ATOM     21  O17 ZIN A   1      19.670   1.353   9.880  0.00  0.00    -0.395 OA
ATOM     22  H44 ZIN A   1      19.801   2.139  10.429  0.00  0.00     0.210 HD
ENDBRANCH  18  21
BRANCH  20  23
ATOM     23  C24 ZIN A   1      17.692  -0.851  16.691  0.00  0.00     0.028 C 
BRANCH  23  24
ATOM     24  C25 ZIN A   1      18.658  -0.608  17.854  0.00  0.00     0.014 C 
BRANCH  24  25
ATOM     25  C26 ZIN A   1      18.279   0.691  18.568  0.00  0.00     0.113 C 
BRANCH  25  26
ATOM     26  C27 ZIN A   1      19.227   1.786  18.155  0.00  0.00     0.172 C 
ATOM     27  O28 ZIN A   1      19.563   2.637  18.960  0.00  0.00    -0.648 OA
ATOM     28  O29 ZIN A   1      19.659   1.821  17.015  0.00  0.00    -0.648 OA
ENDBRANCH  25  26
ENDBRANCH  24  25
ENDBRANCH  23  24
ENDBRANCH  20  23
ENDBRANCH  11  12
ENDBRANCH   7  10
ENDBRANCH   5   7
ENDBRANCH   4   5
ENDBRANCH   3   4
TORSDOF 11
ENDMDL
MODEL 6
REMARK VINA RESULT:      -7.1      2.606      8.668
REMARK  11 active torsions:
REMARK  status: ('A' for Active; 'I' for Inactive)
REMARK    1  A    between atoms: C3_3  and  C4_4 
REMARK    2  A    between atoms: C4_4  and  C5_5 
REMARK    3  A    between atoms: C5_5  and  C8_7 
REMARK    4  A    between atoms: C8_7  and  O10_8 
REMARK    5  A    between atoms: C8_7  and  C11_9 
REMARK    6  A    between atoms: C12_10  and  C13_11 
REMARK    7  A    between atoms: C15_12  and  O17_13 
REMARK    8  A    between atoms: C23_18  and  C24_19 
REMARK    9  A    between atoms: C24_19  and  C25_20 
REMARK   10  A    between atoms: C25_20  and  C26_21 
REMARK   11  A    between atoms: C26_21  and  C27_22 
ROOT
ATOM      1  C1  ZIN A   1      17.366   5.183  10.226  0.00  0.00     0.112 C 
ATOM      2  C2  ZIN A   1      17.342   5.084  11.695  0.00  0.00    -0.111 C 
ATOM      3  C3  ZIN A   1      17.323   5.004  12.866  0.00  0.00    -0.107 C 
ENDROOT
BRANCH   3   4
ATOM      4  C4  ZIN A   1      17.297   4.905  14.335  0.00  0.00     0.101 C 
BRANCH   4   5
ATOM      5  C5  ZIN A   1      18.661   4.429  14.837  0.00  0.00     0.025 C 
ATOM      6  C7  ZIN A   1      19.161   5.375  15.930  0.00  0.00     0.014 C 
BRANCH   5   7
ATOM      7  C8  ZIN A   1      18.529   3.014  15.407  0.00  0.00     0.145 C 
BRANCH   7   8
ATOM      8  O10 ZIN A   1      19.753   2.642  16.044  0.00  0.00    -0.391 OA
ATOM      9  H41 ZIN A   1      19.642   2.024  16.779  0.00  0.00     0.210 HD
ENDBRANCH   7   8
BRANCH   7  10
ATOM     10  C11 ZIN A   1      18.233   2.049  14.289  0.00  0.00     0.001 C 
ATOM     11  C12 ZIN A   1      19.179   1.706  13.449  0.00  0.00    -0.021 C 
BRANCH  11  12
ATOM     12  C13 ZIN A   1      18.882   0.740  12.332  0.00  0.00     0.041 C 
ATOM     13  C31 ZIN A   1      18.340   1.495  11.109  0.00  0.00     0.004 C 
ATOM     14  C19 ZIN A   1      17.161   0.668  10.555  0.00  0.00    -0.003 C 
ATOM     15  C30 ZIN A   1      19.409   1.500   9.977  0.00  0.00     0.039 C 
ATOM     16  C18 ZIN A   1      17.016  -0.569  11.454  0.00  0.00     0.037 C 
ATOM     17  C21 ZIN A   1      17.541   0.227   9.133  0.00  0.00     0.039 C 
ATOM     18  C15 ZIN A   1      17.768  -0.236  12.757  0.00  0.00     0.126 C 
ATOM     19  C22 ZIN A   1      18.677   1.135   8.701  0.00  0.00    -0.083 C 
ATOM     20  C23 ZIN A   1      18.963   1.522   7.483  0.00  0.00    -0.024 C 
BRANCH  18  21
ATOM     21  O17 ZIN A   1      18.333  -1.418  13.324  0.00  0.00    -0.395 OA
ATOM     22  H44 ZIN A   1      17.981  -2.239  12.953  0.00  0.00     0.210 HD
ENDBRANCH  18  21
BRANCH  20  23
ATOM     23  C24 ZIN A   1      18.118   1.056   6.326  0.00  0.00     0.028 C 
BRANCH  23  24
ATOM     24  C25 ZIN A   1      18.889   0.008   5.520  0.00  0.00     0.014 C 
BRANCH  24  25
ATOM     25  C26 ZIN A   1      18.468  -1.393   5.969  0.00  0.00     0.113 C 
BRANCH  25  26
ATOM     26  C27 ZIN A   1      19.358  -2.418   5.317  0.00  0.00     0.172 C 
ATOM     27  O28 ZIN A   1      19.749  -3.380   5.956  0.00  0.00    -0.648 OA
ATOM     28  O29 ZIN A   1      19.686  -2.287   4.150  0.00  0.00    -0.648 OA
ENDBRANCH  25  26
ENDBRANCH  24  25
ENDBRANCH  23  24
ENDBRANCH  20  23
ENDBRANCH  11  12
ENDBRANCH   7  10
ENDBRANCH   5   7
ENDBRANCH   4   5
ENDBRANCH   3   4
TORSDOF 11
ENDMDL
MODEL 7
REMARK VINA RESULT:      -7.0      2.067      3.746
REMARK  11 active torsions:
REMARK  status: ('A' for Active; 'I' for Inactive)
REMARK    1  A    between atoms: C3_3  and  C4_4 
REMARK    2  A    between atoms: C4_4  and  C5_5 
REMARK    3  A    between atoms: C5_5  and  C8_7 
REMARK    4  A    between atoms: C8_7  and  O10_8 
REMARK    5  A    between atoms: C8_7  and  C11_9 
REMARK    6  A    between atoms: C12_10  and  C13_11 
REMARK    7  A    between atoms: C15_12  and  O17_13 
REMARK    8  A    between atoms: C23_18  and  C24_19 
REMARK    9  A    between atoms: C24_19  and  C25_20 
REMARK   10  A    between atoms: C25_20  and  C26_21 
REMARK   11  A    between atoms: C26_21  and  C27_22 
ROOT
ATOM      1  C1  ZIN A   1      16.623  -3.424   3.541  0.00  0.00     0.112 C 
ATOM      2  C2  ZIN A   1      17.465  -2.310   4.008  0.00  0.00    -0.111 C 
ATOM      3  C3  ZIN A   1      18.136  -1.422   4.380  0.00  0.00    -0.107 C 
ENDROOT
BRANCH   3   4
ATOM      4  C4  ZIN A   1      18.978  -0.308   4.846  0.00  0.00     0.101 C 
BRANCH   4   5
ATOM      5  C5  ZIN A   1      18.501   0.150   6.225  0.00  0.00     0.025 C 
ATOM      6  C7  ZIN A   1      16.978   0.036   6.301  0.00  0.00     0.014 C 
BRANCH   5   7
ATOM      7  C8  ZIN A   1      19.134  -0.733   7.302  0.00  0.00     0.145 C 
BRANCH   7   8
ATOM      8  O10 ZIN A   1      18.352  -1.918   7.466  0.00  0.00    -0.391 OA
ATOM      9  H41 ZIN A   1      17.410  -1.751   7.609  0.00  0.00     0.210 HD
ENDBRANCH   7   8
BRANCH   7  10
ATOM     10  C11 ZIN A   1      19.181   0.022   8.606  0.00  0.00     0.001 C 
ATOM     11  C12 ZIN A   1      19.225  -0.632   9.741  0.00  0.00    -0.021 C 
BRANCH  11  12
ATOM     12  C13 ZIN A   1      19.273   0.123  11.043  0.00  0.00     0.041 C 
ATOM     13  C31 ZIN A   1      18.320  -0.521  12.063  0.00  0.00     0.004 C 
ATOM     14  C19 ZIN A   1      17.583   0.630  12.780  0.00  0.00    -0.003 C 
ATOM     15  C30 ZIN A   1      19.144  -1.238  13.173  0.00  0.00     0.039 C 
ATOM     16  C18 ZIN A   1      18.107   1.944  12.180  0.00  0.00     0.037 C 
ATOM     17  C21 ZIN A   1      17.964   0.559  14.267  0.00  0.00     0.039 C 
ATOM     18  C15 ZIN A   1      18.767   1.564  10.841  0.00  0.00     0.126 C 
ATOM     19  C22 ZIN A   1      18.518  -0.834  14.493  0.00  0.00    -0.083 C 
ATOM     20  C23 ZIN A   1      18.466  -1.540  15.596  0.00  0.00    -0.024 C 
BRANCH  18  21
ATOM     21  O17 ZIN A   1      19.860   2.438  10.556  0.00  0.00    -0.395 OA
ATOM     22  H44 ZIN A   1      20.338   2.218   9.745  0.00  0.00     0.210 HD
ENDBRANCH  18  21
BRANCH  20  23
ATOM     23  C24 ZIN A   1      17.799  -0.973  16.822  0.00  0.00     0.028 C 
BRANCH  23  24
ATOM     24  C25 ZIN A   1      18.863  -0.410  17.768  0.00  0.00     0.014 C 
BRANCH  24  25
ATOM     25  C26 ZIN A   1      18.254   0.716  18.607  0.00  0.00     0.113 C 
BRANCH  25  26
ATOM     26  C27 ZIN A   1      18.868   2.031  18.204  0.00  0.00     0.172 C 
ATOM     27  O28 ZIN A   1      19.665   2.584  18.943  0.00  0.00    -0.648 OA
ATOM     28  O29 ZIN A   1      18.569   2.543  17.138  0.00  0.00    -0.648 OA
ENDBRANCH  25  26
ENDBRANCH  24  25
ENDBRANCH  23  24
ENDBRANCH  20  23
ENDBRANCH  11  12
ENDBRANCH   7  10
ENDBRANCH   5   7
ENDBRANCH   4   5
ENDBRANCH   3   4
TORSDOF 11
ENDMDL
MODEL 8
REMARK VINA RESULT:      -7.0      1.532      2.162
REMARK  11 active torsions:
REMARK  status: ('A' for Active; 'I' for Inactive)
REMARK    1  A    between atoms: C3_3  and  C4_4 
REMARK    2  A    between atoms: C4_4  and  C5_5 
REMARK    3  A    between atoms: C5_5  and  C8_7 
REMARK    4  A    between atoms: C8_7  and  O10_8 
REMARK    5  A    between atoms: C8_7  and  C11_9 
REMARK    6  A    between atoms: C12_10  and  C13_11 
REMARK    7  A    between atoms: C15_12  and  O17_13 
REMARK    8  A    between atoms: C23_18  and  C24_19 
REMARK    9  A    between atoms: C24_19  and  C25_20 
REMARK   10  A    between atoms: C25_20  and  C26_21 
REMARK   11  A    between atoms: C26_21  and  C27_22 
ROOT
ATOM      1  C1  ZIN A   1      18.263   3.724  10.201  0.00  0.00     0.112 C 
ATOM      2  C2  ZIN A   1      18.612   2.814   9.098  0.00  0.00    -0.111 C 
ATOM      3  C3  ZIN A   1      18.891   2.087   8.219  0.00  0.00    -0.107 C 
ENDROOT
BRANCH   3   4
ATOM      4  C4  ZIN A   1      19.241   1.178   7.115  0.00  0.00     0.101 C 
BRANCH   4   5
ATOM      5  C5  ZIN A   1      18.179   0.083   7.002  0.00  0.00     0.025 C 
ATOM      6  C7  ZIN A   1      17.711  -0.026   5.550  0.00  0.00     0.014 C 
BRANCH   5   7
ATOM      7  C8  ZIN A   1      18.776  -1.255   7.447  0.00  0.00     0.145 C 
BRANCH   7   8
ATOM      8  O10 ZIN A   1      17.955  -2.324   6.974  0.00  0.00    -0.391 OA
ATOM      9  H41 ZIN A   1      17.012  -2.203   7.150  0.00  0.00     0.210 HD
ENDBRANCH   7   8
BRANCH   7  10
ATOM     10  C11 ZIN A   1      18.840  -1.299   8.952  0.00  0.00     0.001 C 
ATOM     11  C12 ZIN A   1      17.750  -1.129   9.660  0.00  0.00    -0.021 C 
BRANCH  11  12
ATOM     12  C13 ZIN A   1      17.813  -1.175  11.164  0.00  0.00     0.041 C 
ATOM     13  C31 ZIN A   1      18.700  -0.037  11.691  0.00  0.00     0.004 C 
ATOM     14  C19 ZIN A   1      19.579  -0.632  12.812  0.00  0.00    -0.003 C 
ATOM     15  C30 ZIN A   1      17.817   1.040  12.388  0.00  0.00     0.039 C 
ATOM     16  C18 ZIN A   1      19.203  -2.116  12.938  0.00  0.00     0.037 C 
ATOM     17  C21 ZIN A   1      19.218   0.100  14.113  0.00  0.00     0.039 C 
ATOM     18  C15 ZIN A   1      18.481  -2.483  11.628  0.00  0.00     0.126 C 
ATOM     19  C22 ZIN A   1      18.507   1.373  13.696  0.00  0.00    -0.083 C 
ATOM     20  C23 ZIN A   1      18.495   2.519  14.331  0.00  0.00    -0.024 C 
BRANCH  18  21
ATOM     21  O17 ZIN A   1      17.494  -3.488  11.865  0.00  0.00    -0.395 OA
ATOM     22  H44 ZIN A   1      17.658  -4.319  11.397  0.00  0.00     0.210 HD
ENDBRANCH  18  21
BRANCH  20  23
ATOM     23  C24 ZIN A   1      19.244   2.670  15.629  0.00  0.00     0.028 C 
BRANCH  23  24
ATOM     24  C25 ZIN A   1      18.286   2.445  16.801  0.00  0.00     0.014 C 
BRANCH  24  25
ATOM     25  C26 ZIN A   1      18.195   0.948  17.105  0.00  0.00     0.113 C 
BRANCH  25  26
ATOM     26  C27 ZIN A   1      19.023   0.632  18.323  0.00  0.00     0.172 C 
ATOM     27  O28 ZIN A   1      19.963   1.346  18.623  0.00  0.00    -0.648 OA
ATOM     28  O29 ZIN A   1      18.751  -0.339  19.009  0.00  0.00    -0.648 OA
ENDBRANCH  25  26
ENDBRANCH  24  25
ENDBRANCH  23  24
ENDBRANCH  20  23
ENDBRANCH  11  12
ENDBRANCH   7  10
ENDBRANCH   5   7
ENDBRANCH   4   5
ENDBRANCH   3   4
TORSDOF 11
ENDMDL
MODEL 9
REMARK VINA RESULT:      -7.0      3.551      8.716
REMARK  11 active torsions:
REMARK  status: ('A' for Active; 'I' for Inactive)
REMARK    1  A    between atoms: C3_3  and  C4_4 
REMARK    2  A    between atoms: C4_4  and  C5_5 
REMARK    3  A    between atoms: C5_5  and  C8_7 
REMARK    4  A    between atoms: C8_7  and  O10_8 
REMARK    5  A    between atoms: C8_7  and  C11_9 
REMARK    6  A    between atoms: C12_10  and  C13_11 
REMARK    7  A    between atoms: C15_12  and  O17_13 
REMARK    8  A    between atoms: C23_18  and  C24_19 
REMARK    9  A    between atoms: C24_19  and  C25_20 
REMARK   10  A    between atoms: C25_20  and  C26_21 
REMARK   11  A    between atoms: C26_21  and  C27_22 
ROOT
ATOM      1  C1  ZIN A   1      12.965   6.234  15.317  0.00  0.00     0.112 C 
ATOM      2  C2  ZIN A   1      14.282   6.205  14.660  0.00  0.00    -0.111 C 
ATOM      3  C3  ZIN A   1      15.333   6.182  14.137  0.00  0.00    -0.107 C 
ENDROOT
BRANCH   3   4
ATOM      4  C4  ZIN A   1      16.650   6.154  13.479  0.00  0.00     0.101 C 
BRANCH   4   5
ATOM      5  C5  ZIN A   1      16.753   4.908  12.598  0.00  0.00     0.025 C 
ATOM      6  C7  ZIN A   1      17.019   5.327  11.152  0.00  0.00     0.014 C 
BRANCH   5   7
ATOM      7  C8  ZIN A   1      17.903   4.027  13.094  0.00  0.00     0.145 C 
BRANCH   7   8
ATOM      8  O10 ZIN A   1      19.092   4.813  13.203  0.00  0.00    -0.391 OA
ATOM      9  H41 ZIN A   1      19.455   4.855  14.097  0.00  0.00     0.210 HD
ENDBRANCH   7   8
BRANCH   7  10
ATOM     10  C11 ZIN A   1      18.132   2.904  12.116  0.00  0.00     0.001 C 
ATOM     11  C12 ZIN A   1      19.239   2.204  12.168  0.00  0.00    -0.021 C 
BRANCH  11  12
ATOM     12  C13 ZIN A   1      19.466   1.081  11.191  0.00  0.00     0.041 C 
ATOM     13  C31 ZIN A   1      18.498   1.206  10.005  0.00  0.00     0.004 C 
ATOM     14  C19 ZIN A   1      17.969  -0.212   9.703  0.00  0.00    -0.003 C 
ATOM     15  C30 ZIN A   1      19.280   1.636   8.729  0.00  0.00     0.039 C 
ATOM     16  C18 ZIN A   1      18.631  -1.163  10.711  0.00  0.00     0.037 C 
ATOM     17  C21 ZIN A   1      18.425  -0.575   8.281  0.00  0.00     0.039 C 
ATOM     18  C15 ZIN A   1      19.151  -0.273  11.855  0.00  0.00     0.126 C 
ATOM     19  C22 ZIN A   1      18.795   0.734   7.611  0.00  0.00    -0.083 C 
ATOM     20  C23 ZIN A   1      18.713   1.024   6.336  0.00  0.00    -0.024 C 
BRANCH  18  21
ATOM     21  O17 ZIN A   1      20.335  -0.833  12.426  0.00  0.00    -0.395 OA
ATOM     22  H44 ZIN A   1      20.979  -0.174  12.720  0.00  0.00     0.210 HD
ENDBRANCH  18  21
BRANCH  20  23
ATOM     23  C24 ZIN A   1      18.204  -0.006   5.361  0.00  0.00     0.028 C 
BRANCH  23  24
ATOM     24  C25 ZIN A   1      19.390  -0.720   4.707  0.00  0.00     0.014 C 
BRANCH  24  25
ATOM     25  C26 ZIN A   1      18.978  -2.142   4.319  0.00  0.00     0.113 C 
BRANCH  25  26
ATOM     26  C27 ZIN A   1      19.035  -3.030   5.534  0.00  0.00     0.172 C 
ATOM     27  O28 ZIN A   1      18.044  -3.647   5.886  0.00  0.00    -0.648 OA
ATOM     28  O29 ZIN A   1      20.074  -3.134   6.165  0.00  0.00    -0.648 OA
ENDBRANCH  25  26
ENDBRANCH  24  25
ENDBRANCH  23  24
ENDBRANCH  20  23
ENDBRANCH  11  12
ENDBRANCH   7  10
ENDBRANCH   5   7
ENDBRANCH   4   5
ENDBRANCH   3   4
TORSDOF 11
ENDMDL
