MODEL 1
REMARK VINA RESULT:      -5.1      0.000      0.000
REMARK  3 active torsions:
REMARK  status: ('A' for Active; 'I' for Inactive)
REMARK    1  A    between atoms: C2_2  and  C3_3 
REMARK    2  A    between atoms: C5_5  and  C6_6 
REMARK    3  A    between atoms: C6_6  and  N7_7 
ROOT
ATOM      1  C3  <0> d   1      18.750   0.727   6.920  0.00  0.00     0.034 A 
ATOM      2  C4  <0> d   1      19.109   1.696   7.836  0.00  0.00     0.041 A 
ATOM      3  C5  <0> d   1      18.569   1.641   9.126  0.00  0.00     0.005 A 
ATOM      4  C9  <0> d   1      17.686   0.600   9.429  0.00  0.00     0.034 A 
ATOM      5  C10 <0> d   1      17.382  -0.326   8.450  0.00  0.00     0.118 A 
ATOM      6  N11 <0> d   1      17.909  -0.235   7.244  0.00  0.00    -0.266 NA
ENDROOT
BRANCH   3   7
ATOM      7  C6  <0> d   1      18.923   2.657  10.142  0.00  0.00     0.104 C 
ATOM      8  S8  <0> d   1      17.862   3.964  10.451  0.00  0.00    -0.060 SA
BRANCH   7   9
ATOM      9  N7  <0> d   1      20.081   2.552  10.823  0.00  0.00    -0.390 N 
ATOM     10  H18 <0> d   1      20.445   3.324  11.284  0.00  0.00     0.157 HD
ATOM     11  H19 <0> d   1      20.551   1.704  10.854  0.00  0.00     0.157 HD
ENDBRANCH   7   9
ENDBRANCH   3   7
BRANCH   1  12
ATOM     12  C2  <0> d   1      19.322   0.775   5.526  0.00  0.00     0.055 C 
ATOM     13  C1  <0> d   1      19.291  -0.627   4.914  0.00  0.00     0.011 C 
ENDBRANCH   1  12
TORSDOF 3
ENDMDL
MODEL 2
REMARK VINA RESULT:      -5.0      2.514      2.822
REMARK  3 active torsions:
REMARK  status: ('A' for Active; 'I' for Inactive)
REMARK    1  A    between atoms: C2_2  and  C3_3 
REMARK    2  A    between atoms: C5_5  and  C6_6 
REMARK    3  A    between atoms: C6_6  and  N7_7 
ROOT
ATOM      1  C3  <0> d   1      19.001  -0.229   7.159  0.00  0.00     0.034 A 
ATOM      2  C4  <0> d   1      19.472  -0.833   8.307  0.00  0.00     0.041 A 
ATOM      3  C5  <0> d   1      19.744  -0.040   9.428  0.00  0.00     0.005 A 
ATOM      4  C9  <0> d   1      19.524   1.337   9.331  0.00  0.00     0.034 A 
ATOM      5  C10 <0> d   1      19.051   1.858   8.142  0.00  0.00     0.118 A 
ATOM      6  N11 <0> d   1      18.813   1.075   7.107  0.00  0.00    -0.266 NA
ENDROOT
BRANCH   3   7
ATOM      7  C6  <0> d   1      20.250  -0.642  10.681  0.00  0.00     0.104 C 
ATOM      8  S8  <0> d   1      19.166  -1.413  11.758  0.00  0.00    -0.060 SA
BRANCH   7   9
ATOM      9  N7  <0> d   1      21.564  -0.585  10.973  0.00  0.00    -0.390 N 
ATOM     10  H18 <0> d   1      21.854  -0.517  11.896  0.00  0.00     0.157 HD
ATOM     11  H19 <0> d   1      22.221  -0.612  10.261  0.00  0.00     0.157 HD
ENDBRANCH   7   9
ENDBRANCH   3   7
BRANCH   1  12
ATOM     12  C2  <0> d   1      18.705  -1.071   5.944  0.00  0.00     0.055 C 
ATOM     13  C1  <0> d   1      19.205  -0.351   4.690  0.00  0.00     0.011 C 
ENDBRANCH   1  12
TORSDOF 3
ENDMDL
MODEL 3
REMARK VINA RESULT:      -5.0      2.551      3.001
REMARK  3 active torsions:
REMARK  status: ('A' for Active; 'I' for Inactive)
REMARK    1  A    between atoms: C2_2  and  C3_3 
REMARK    2  A    between atoms: C5_5  and  C6_6 
REMARK    3  A    between atoms: C6_6  and  N7_7 
ROOT
ATOM      1  C3  <0> d   1      19.099   1.404   7.966  0.00  0.00     0.034 A 
ATOM      2  C4  <0> d   1      19.626   0.416   8.774  0.00  0.00     0.041 A 
ATOM      3  C5  <0> d   1      19.722   0.646  10.151  0.00  0.00     0.005 A 
ATOM      4  C9  <0> d   1      19.275   1.874  10.648  0.00  0.00     0.034 A 
ATOM      5  C10 <0> d   1      18.762   2.806   9.767  0.00  0.00     0.118 A 
ATOM      6  N11 <0> d   1      18.694   2.552   8.474  0.00  0.00    -0.266 NA
ENDROOT
BRANCH   3   7
ATOM      7  C6  <0> d   1      20.279  -0.383  11.056  0.00  0.00     0.104 C 
ATOM      8  S8  <0> d   1      19.255  -1.197  12.160  0.00  0.00    -0.060 SA
BRANCH   7   9
ATOM      9  N7  <0> d   1      21.593  -0.679  11.011  0.00  0.00    -0.390 N 
ATOM     10  H18 <0> d   1      22.207  -0.257  11.632  0.00  0.00     0.157 HD
ATOM     11  H19 <0> d   1      21.924  -1.315  10.358  0.00  0.00     0.157 HD
ENDBRANCH   7   9
ENDBRANCH   3   7
BRANCH   1  12
ATOM     12  C2  <0> d   1      18.991   1.171   6.481  0.00  0.00     0.055 C 
ATOM     13  C1  <0> d   1      17.753   0.321   6.187  0.00  0.00     0.011 C 
ENDBRANCH   1  12
TORSDOF 3
ENDMDL
MODEL 4
REMARK VINA RESULT:      -5.0      1.192      1.409
REMARK  3 active torsions:
REMARK  status: ('A' for Active; 'I' for Inactive)
REMARK    1  A    between atoms: C2_2  and  C3_3 
REMARK    2  A    between atoms: C5_5  and  C6_6 
REMARK    3  A    between atoms: C6_6  and  N7_7 
ROOT
ATOM      1  C3  <0> d   1      18.592   1.175   8.105  0.00  0.00     0.034 A 
ATOM      2  C4  <0> d   1      19.175   2.117   8.929  0.00  0.00     0.041 A 
ATOM      3  C5  <0> d   1      18.819   2.148  10.282  0.00  0.00     0.005 A 
ATOM      4  C9  <0> d   1      17.883   1.214  10.740  0.00  0.00     0.034 A 
ATOM      5  C10 <0> d   1      17.351   0.306   9.845  0.00  0.00     0.118 A 
ATOM      6  N11 <0> d   1      17.710   0.316   8.576  0.00  0.00    -0.266 NA
ENDROOT
BRANCH   3   7
ATOM      7  C6  <0> d   1      19.416   3.139  11.203  0.00  0.00     0.104 C 
ATOM      8  S8  <0> d   1      18.464   4.427  11.809  0.00  0.00    -0.060 SA
BRANCH   7   9
ATOM      9  N7  <0> d   1      20.709   3.028  11.566  0.00  0.00    -0.390 N 
ATOM     10  H18 <0> d   1      20.988   2.309  12.154  0.00  0.00     0.157 HD
ATOM     11  H19 <0> d   1      21.361   3.667  11.239  0.00  0.00     0.157 HD
ENDBRANCH   7   9
ENDBRANCH   3   7
BRANCH   1  12
ATOM     12  C2  <0> d   1      18.966   1.132   6.646  0.00  0.00     0.055 C 
ATOM     13  C1  <0> d   1      17.888   0.376   5.866  0.00  0.00     0.011 C 
ENDBRANCH   1  12
TORSDOF 3
ENDMDL
MODEL 5
REMARK VINA RESULT:      -5.0      5.085      7.153
REMARK  3 active torsions:
REMARK  status: ('A' for Active; 'I' for Inactive)
REMARK    1  A    between atoms: C2_2  and  C3_3 
REMARK    2  A    between atoms: C5_5  and  C6_6 
REMARK    3  A    between atoms: C6_6  and  N7_7 
ROOT
ATOM      1  C3  <0> d   1      18.824  -0.623  14.857  0.00  0.00     0.034 A 
ATOM      2  C4  <0> d   1      19.293  -1.168  13.678  0.00  0.00     0.041 A 
ATOM      3  C5  <0> d   1      19.702  -0.311  12.650  0.00  0.00     0.005 A 
ATOM      4  C9  <0> d   1      19.617   1.068  12.867  0.00  0.00     0.034 A 
ATOM      5  C10 <0> d   1      19.135   1.526  14.078  0.00  0.00     0.118 A 
ATOM      6  N11 <0> d   1      18.754   0.684  15.019  0.00  0.00    -0.266 NA
ENDROOT
BRANCH   3   7
ATOM      7  C6  <0> d   1      20.211  -0.849  11.370  0.00  0.00     0.104 C 
ATOM      8  S8  <0> d   1      19.198  -1.814  10.384  0.00  0.00    -0.060 SA
BRANCH   7   9
ATOM      9  N7  <0> d   1      21.472  -0.578  10.980  0.00  0.00    -0.390 N 
ATOM     10  H18 <0> d   1      22.064  -0.078  11.563  0.00  0.00     0.157 HD
ATOM     11  H19 <0> d   1      21.789  -0.884  10.116  0.00  0.00     0.157 HD
ENDBRANCH   7   9
ENDBRANCH   3   7
BRANCH   1  12
ATOM     12  C2  <0> d   1      18.379  -1.535  15.971  0.00  0.00     0.055 C 
ATOM     13  C1  <0> d   1      17.248  -0.867  16.756  0.00  0.00     0.011 C 
ENDBRANCH   1  12
TORSDOF 3
ENDMDL
MODEL 6
REMARK VINA RESULT:      -4.9      2.317      2.410
REMARK  3 active torsions:
REMARK  status: ('A' for Active; 'I' for Inactive)
REMARK    1  A    between atoms: C2_2  and  C3_3 
REMARK    2  A    between atoms: C5_5  and  C6_6 
REMARK    3  A    between atoms: C6_6  and  N7_7 
ROOT
ATOM      1  C3  <0> d   1      18.918  -0.160   7.225  0.00  0.00     0.034 A 
ATOM      2  C4  <0> d   1      19.541   0.250   8.386  0.00  0.00     0.041 A 
ATOM      3  C5  <0> d   1      19.626  -0.641   9.462  0.00  0.00     0.005 A 
ATOM      4  C9  <0> d   1      19.071  -1.916   9.308  0.00  0.00     0.034 A 
ATOM      5  C10 <0> d   1      18.465  -2.242   8.110  0.00  0.00     0.118 A 
ATOM      6  N11 <0> d   1      18.402  -1.370   7.123  0.00  0.00    -0.266 NA
ENDROOT
BRANCH   3   7
ATOM      7  C6  <0> d   1      20.285  -0.246  10.726  0.00  0.00     0.104 C 
ATOM      8  S8  <0> d   1      19.429   0.680  11.883  0.00  0.00    -0.060 SA
BRANCH   7   9
ATOM      9  N7  <0> d   1      21.558  -0.617  10.966  0.00  0.00    -0.390 N 
ATOM     10  H18 <0> d   1      22.202   0.037  11.280  0.00  0.00     0.157 HD
ATOM     11  H19 <0> d   1      21.830  -1.537  10.827  0.00  0.00     0.157 HD
ENDBRANCH   7   9
ENDBRANCH   3   7
BRANCH   1  12
ATOM     12  C2  <0> d   1      18.818   0.790   6.059  0.00  0.00     0.055 C 
ATOM     13  C1  <0> d   1      19.246   0.072   4.777  0.00  0.00     0.011 C 
ENDBRANCH   1  12
TORSDOF 3
ENDMDL
MODEL 7
REMARK VINA RESULT:      -4.8      2.945      4.530
REMARK  3 active torsions:
REMARK  status: ('A' for Active; 'I' for Inactive)
REMARK    1  A    between atoms: C2_2  and  C3_3 
REMARK    2  A    between atoms: C5_5  and  C6_6 
REMARK    3  A    between atoms: C6_6  and  N7_7 
ROOT
ATOM      1  C3  <0> d   1      18.301   3.594  10.142  0.00  0.00     0.034 A 
ATOM      2  C4  <0> d   1      18.862   2.972  11.239  0.00  0.00     0.041 A 
ATOM      3  C5  <0> d   1      19.573   1.780  11.053  0.00  0.00     0.005 A 
ATOM      4  C9  <0> d   1      19.681   1.272   9.754  0.00  0.00     0.034 A 
ATOM      5  C10 <0> d   1      19.088   1.961   8.714  0.00  0.00     0.118 A 
ATOM      6  N11 <0> d   1      18.422   3.078   8.934  0.00  0.00    -0.266 NA
ENDROOT
BRANCH   3   7
ATOM      7  C6  <0> d   1      20.192   1.077  12.198  0.00  0.00     0.104 C 
ATOM      8  S8  <0> d   1      19.318   0.885  13.657  0.00  0.00    -0.060 SA
BRANCH   7   9
ATOM      9  N7  <0> d   1      21.443   0.589  12.091  0.00  0.00    -0.390 N 
ATOM     10  H18 <0> d   1      22.140   1.124  11.681  0.00  0.00     0.157 HD
ATOM     11  H19 <0> d   1      21.647  -0.298  12.426  0.00  0.00     0.157 HD
ENDBRANCH   7   9
ENDBRANCH   3   7
BRANCH   1  12
ATOM     12  C2  <0> d   1      17.532   4.877  10.328  0.00  0.00     0.055 C 
ATOM     13  C1  <0> d   1      16.765   4.824  11.651  0.00  0.00     0.011 C 
ENDBRANCH   1  12
TORSDOF 3
ENDMDL
MODEL 8
REMARK VINA RESULT:      -4.7      2.571      4.493
REMARK  3 active torsions:
REMARK  status: ('A' for Active; 'I' for Inactive)
REMARK    1  A    between atoms: C2_2  and  C3_3 
REMARK    2  A    between atoms: C5_5  and  C6_6 
REMARK    3  A    between atoms: C6_6  and  N7_7 
ROOT
ATOM      1  C3  <0> d   1      17.950   2.532  10.306  0.00  0.00     0.034 A 
ATOM      2  C4  <0> d   1      18.539   1.837   9.268  0.00  0.00     0.041 A 
ATOM      3  C5  <0> d   1      18.355   0.452   9.189  0.00  0.00     0.005 A 
ATOM      4  C9  <0> d   1      17.577  -0.168  10.172  0.00  0.00     0.034 A 
ATOM      5  C10 <0> d   1      17.026   0.605  11.175  0.00  0.00     0.118 A 
ATOM      6  N11 <0> d   1      17.228   1.908  11.216  0.00  0.00    -0.266 NA
ENDROOT
BRANCH   3   7
ATOM      7  C6  <0> d   1      18.966  -0.334   8.096  0.00  0.00     0.104 C 
ATOM      8  S8  <0> d   1      18.749   0.150   6.469  0.00  0.00    -0.060 SA
BRANCH   7   9
ATOM      9  N7  <0> d   1      19.695  -1.432   8.381  0.00  0.00    -0.390 N 
ATOM     10  H18 <0> d   1      20.018  -1.579   9.284  0.00  0.00     0.157 HD
ATOM     11  H19 <0> d   1      19.895  -2.075   7.684  0.00  0.00     0.157 HD
ENDBRANCH   7   9
ENDBRANCH   3   7
BRANCH   1  12
ATOM     12  C2  <0> d   1      18.141   4.024  10.404  0.00  0.00     0.055 C 
ATOM     13  C1  <0> d   1      16.866   4.666  10.955  0.00  0.00     0.011 C 
ENDBRANCH   1  12
TORSDOF 3
ENDMDL
MODEL 9
REMARK VINA RESULT:      -4.6      5.384      7.118
REMARK  3 active torsions:
REMARK  status: ('A' for Active; 'I' for Inactive)
REMARK    1  A    between atoms: C2_2  and  C3_3 
REMARK    2  A    between atoms: C5_5  and  C6_6 
REMARK    3  A    between atoms: C6_6  and  N7_7 
ROOT
ATOM      1  C3  <0> d   1      18.029  -0.612  14.044  0.00  0.00     0.034 A 
ATOM      2  C4  <0> d   1      18.737  -1.700  13.575  0.00  0.00     0.041 A 
ATOM      3  C5  <0> d   1      18.604  -2.068  12.231  0.00  0.00     0.005 A 
ATOM      4  C9  <0> d   1      17.754  -1.310  11.420  0.00  0.00     0.034 A 
ATOM      5  C10 <0> d   1      17.083  -0.236  11.973  0.00  0.00     0.118 A 
ATOM      6  N11 <0> d   1      17.233   0.074  13.246  0.00  0.00    -0.266 NA
ENDROOT
BRANCH   3   7
ATOM      7  C6  <0> d   1      19.343  -3.227  11.684  0.00  0.00     0.104 C 
ATOM      8  S8  <0> d   1      18.509  -4.674  11.309  0.00  0.00    -0.060 SA
BRANCH   7   9
ATOM      9  N7  <0> d   1      20.672  -3.143  11.480  0.00  0.00    -0.390 N 
ATOM     10  H18 <0> d   1      21.200  -2.500  11.979  0.00  0.00     0.157 HD
ATOM     11  H19 <0> d   1      21.102  -3.726  10.835  0.00  0.00     0.157 HD
ENDBRANCH   7   9
ENDBRANCH   3   7
BRANCH   1  12
ATOM     12  C2  <0> d   1      18.162  -0.205  15.489  0.00  0.00     0.055 C 
ATOM     13  C1  <0> d   1      18.471  -1.439  16.340  0.00  0.00     0.011 C 
ENDBRANCH   1  12
TORSDOF 3
ENDMDL
