MODEL 1
REMARK VINA RESULT:      -8.5      0.000      0.000
REMARK  3 active torsions:
REMARK  status: ('A' for Active; 'I' for Inactive)
REMARK       I    between atoms: N6_6  and  C7_7 
REMARK    1  A    between atoms: C7_7  and  O9_9 
REMARK    2  A    between atoms: O9_9  and  C10_10 
REMARK    3  A    between atoms: N19_19  and  C20_20 
ROOT
ATOM      1  C10 ZIN A   1      18.593   3.576  12.831  0.00  0.00     0.193 A 
ATOM      2  C11 ZIN A   1      18.291   4.653  13.569  0.00  0.00     0.119 A 
ATOM      3  N12 ZIN A   1      18.762   5.203  14.770  0.00  0.00    -0.359 N 
ATOM      4  C13 ZIN A   1      18.183   6.351  15.219  0.00  0.00     0.107 A 
ATOM      5  C14 ZIN A   1      17.177   6.946  14.527  0.00  0.00     0.134 A 
ATOM      6  N15 ZIN A   1      16.701   6.458  13.389  0.00  0.00    -0.252 NA
ATOM      7  C16 ZIN A   1      17.192   5.357  12.869  0.00  0.00     0.156 A 
ATOM      8  C17 ZIN A   1      16.926   4.554  11.674  0.00  0.00     0.286 A 
ATOM      9  O18 ZIN A   1      16.090   4.780  10.815  0.00  0.00    -0.265 OA
ATOM     10  N19 ZIN A   1      17.789   3.517  11.701  0.00  0.00    -0.237 N 
ATOM     11  H36 ZIN A   1      19.480   4.779  15.266  0.00  0.00     0.165 HD
ENDROOT
BRANCH   1  12
ATOM     12  O9  ZIN A   1      19.560   2.669  13.142  0.00  0.00    -0.241 OA
BRANCH  12  13
ATOM     13  C7  ZIN A   1      19.160   1.527  13.731  0.00  0.00     0.369 C 
ATOM     14  N6  ZIN A   1      19.713   0.353  13.368  0.00  0.00    -0.325 N 
ATOM     15  C5  ZIN A   1      19.375  -0.893  14.073  0.00  0.00     0.156 C 
ATOM     16  C27 ZIN A   1      20.671   0.280  12.254  0.00  0.00     0.156 C 
ATOM     17  C4  ZIN A   1      18.989  -1.951  13.035  0.00  0.00     0.254 C 
ATOM     18  N2  ZIN A   1      20.070  -2.087  12.051  0.00  0.00    -0.072 N 
ATOM     19  C1  ZIN A   1      19.750  -3.176  11.119  0.00  0.00     0.269 C 
ATOM     20  H3  ZIN A   1      20.934  -2.297  12.528  0.00  0.00     0.279 HD
ATOM     21  C28 ZIN A   1      20.222  -0.833  11.301  0.00  0.00     0.254 C 
ATOM     22  O8  ZIN A   1      18.303   1.555  14.592  0.00  0.00    -0.238 OA
ENDBRANCH  12  13
ENDBRANCH   1  12
BRANCH  10  23
ATOM     23  C20 ZIN A   1      17.858   2.516  10.731  0.00  0.00     0.138 A 
ATOM     24  N26 ZIN A   1      17.119   1.426  10.860  0.00  0.00    -0.241 NA
ATOM     25  C25 ZIN A   1      17.150   0.459   9.964  0.00  0.00     0.142 A 
ATOM     26  C23 ZIN A   1      17.971   0.546   8.855  0.00  0.00     0.051 A 
ATOM     27  C22 ZIN A   1      18.767   1.671   8.686  0.00  0.00     0.029 A 
ATOM     28 Cl24 ZIN A   1      18.008  -0.738   7.687  0.00  0.00    -0.083 Cl
ATOM     29  C21 ZIN A   1      18.707   2.672   9.641  0.00  0.00     0.053 A 
ENDBRANCH  10  23
TORSDOF 3
ENDMDL
MODEL 2
REMARK VINA RESULT:      -8.4      2.143      3.206
REMARK  3 active torsions:
REMARK  status: ('A' for Active; 'I' for Inactive)
REMARK       I    between atoms: N6_6  and  C7_7 
REMARK    1  A    between atoms: C7_7  and  O9_9 
REMARK    2  A    between atoms: O9_9  and  C10_10 
REMARK    3  A    between atoms: N19_19  and  C20_20 
ROOT
ATOM      1  C10 ZIN A   1      19.040   0.723  11.832  0.00  0.00     0.193 A 
ATOM      2  C11 ZIN A   1      18.965   1.357  13.010  0.00  0.00     0.119 A 
ATOM      3  N12 ZIN A   1      19.445   1.115  14.305  0.00  0.00    -0.359 N 
ATOM      4  C13 ZIN A   1      19.152   2.023  15.277  0.00  0.00     0.107 A 
ATOM      5  C14 ZIN A   1      18.417   3.132  15.002  0.00  0.00     0.134 A 
ATOM      6  N15 ZIN A   1      17.944   3.398  13.792  0.00  0.00    -0.252 NA
ATOM      7  C16 ZIN A   1      18.171   2.586  12.785  0.00  0.00     0.156 A 
ATOM      8  C17 ZIN A   1      17.819   2.558  11.363  0.00  0.00     0.286 A 
ATOM      9  O18 ZIN A   1      17.165   3.390  10.758  0.00  0.00    -0.265 OA
ATOM     10  N19 ZIN A   1      18.366   1.437  10.850  0.00  0.00    -0.237 N 
ATOM     11  H36 ZIN A   1      19.969   0.323  14.504  0.00  0.00     0.165 HD
ENDROOT
BRANCH   1  12
ATOM     12  O9  ZIN A   1      19.692  -0.454  11.625  0.00  0.00    -0.241 OA
BRANCH  12  13
ATOM     13  C7  ZIN A   1      19.142  -1.560  12.159  0.00  0.00     0.369 C 
ATOM     14  N6  ZIN A   1      18.946  -2.651  11.393  0.00  0.00    -0.325 N 
ATOM     15  C5  ZIN A   1      18.452  -3.907  11.978  0.00  0.00     0.156 C 
ATOM     16  C27 ZIN A   1      19.220  -2.621   9.948  0.00  0.00     0.156 C 
ATOM     17  C4  ZIN A   1      17.263  -4.397  11.144  0.00  0.00     0.254 C 
ATOM     18  N2  ZIN A   1      17.665  -4.502   9.736  0.00  0.00    -0.072 N 
ATOM     19  C1  ZIN A   1      16.561  -5.075   8.954  0.00  0.00     0.269 C 
ATOM     20  H3  ZIN A   1      18.474  -5.100   9.661  0.00  0.00     0.279 HD
ATOM     21  C28 ZIN A   1      17.994  -3.170   9.211  0.00  0.00     0.254 C 
ATOM     22  O8  ZIN A   1      18.824  -1.575  13.331  0.00  0.00    -0.238 OA
ENDBRANCH  12  13
ENDBRANCH   1  12
BRANCH  10  23
ATOM     23  C20 ZIN A   1      18.261   1.041   9.516  0.00  0.00     0.138 A 
ATOM     24  N26 ZIN A   1      17.270   0.246   9.143  0.00  0.00    -0.241 NA
ATOM     25  C25 ZIN A   1      17.131  -0.146   7.892  0.00  0.00     0.142 A 
ATOM     26  C23 ZIN A   1      18.029   0.253   6.920  0.00  0.00     0.051 A 
ATOM     27  C22 ZIN A   1      19.086   1.083   7.271  0.00  0.00     0.029 A 
ATOM     28 Cl24 ZIN A   1      17.838  -0.277   5.278  0.00  0.00    -0.083 Cl
ATOM     29  C21 ZIN A   1      19.200   1.483   8.591  0.00  0.00     0.053 A 
ENDBRANCH  10  23
TORSDOF 3
ENDMDL
MODEL 3
REMARK VINA RESULT:      -8.2      3.138      5.316
REMARK  3 active torsions:
REMARK  status: ('A' for Active; 'I' for Inactive)
REMARK       I    between atoms: N6_6  and  C7_7 
REMARK    1  A    between atoms: C7_7  and  O9_9 
REMARK    2  A    between atoms: O9_9  and  C10_10 
REMARK    3  A    between atoms: N19_19  and  C20_20 
ROOT
ATOM      1  C10 ZIN A   1      19.376   0.379  11.032  0.00  0.00     0.193 A 
ATOM      2  C11 ZIN A   1      19.459   1.619  11.535  0.00  0.00     0.119 A 
ATOM      3  N12 ZIN A   1      19.944   2.851  11.075  0.00  0.00    -0.359 N 
ATOM      4  C13 ZIN A   1      19.850   3.926  11.906  0.00  0.00     0.107 A 
ATOM      5  C14 ZIN A   1      19.304   3.811  13.144  0.00  0.00     0.134 A 
ATOM      6  N15 ZIN A   1      18.834   2.664  13.617  0.00  0.00    -0.252 NA
ATOM      7  C16 ZIN A   1      18.876   1.568  12.896  0.00  0.00     0.156 A 
ATOM      8  C17 ZIN A   1      18.468   0.174  13.084  0.00  0.00     0.286 A 
ATOM      9  O18 ZIN A   1      17.940  -0.303  14.074  0.00  0.00    -0.265 OA
ATOM     10  N19 ZIN A   1      18.782  -0.480  11.947  0.00  0.00    -0.237 N 
ATOM     11  H36 ZIN A   1      20.335   2.935  10.192  0.00  0.00     0.165 HD
ENDROOT
BRANCH   1  12
ATOM     12  O9  ZIN A   1      19.808   0.015   9.794  0.00  0.00    -0.241 OA
BRANCH  12  13
ATOM     13  C7  ZIN A   1      19.024   0.347   8.751  0.00  0.00     0.369 C 
ATOM     14  N6  ZIN A   1      18.487  -0.618   7.978  0.00  0.00    -0.325 N 
ATOM     15  C5  ZIN A   1      17.539  -0.286   6.904  0.00  0.00     0.156 C 
ATOM     16  C27 ZIN A   1      18.832  -2.033   8.185  0.00  0.00     0.156 C 
ATOM     17  C4  ZIN A   1      18.005  -0.971   5.615  0.00  0.00     0.254 C 
ATOM     18  N2  ZIN A   1      18.165  -2.410   5.858  0.00  0.00    -0.072 N 
ATOM     19  C1  ZIN A   1      18.505  -3.084   4.598  0.00  0.00     0.269 C 
ATOM     20  H3  ZIN A   1      17.301  -2.788   6.217  0.00  0.00     0.279 HD
ATOM     21  C28 ZIN A   1      19.238  -2.634   6.836  0.00  0.00     0.254 C 
ATOM     22  O8  ZIN A   1      18.801   1.516   8.507  0.00  0.00    -0.238 OA
ENDBRANCH  12  13
ENDBRANCH   1  12
BRANCH  10  23
ATOM     23  C20 ZIN A   1      18.551  -1.838  11.723  0.00  0.00     0.138 A 
ATOM     24  N26 ZIN A   1      17.328  -2.259  11.445  0.00  0.00    -0.241 NA
ATOM     25  C25 ZIN A   1      17.068  -3.532  11.221  0.00  0.00     0.142 A 
ATOM     26  C23 ZIN A   1      18.071  -4.481  11.281  0.00  0.00     0.051 A 
ATOM     27  C22 ZIN A   1      19.368  -4.082  11.575  0.00  0.00     0.029 A 
ATOM     28 Cl24 ZIN A   1      17.713  -6.155  10.992  0.00  0.00    -0.083 Cl
ATOM     29  C21 ZIN A   1      19.609  -2.737  11.798  0.00  0.00     0.053 A 
ENDBRANCH  10  23
TORSDOF 3
ENDMDL
MODEL 4
REMARK VINA RESULT:      -8.2      3.095      7.259
REMARK  3 active torsions:
REMARK  status: ('A' for Active; 'I' for Inactive)
REMARK       I    between atoms: N6_6  and  C7_7 
REMARK    1  A    between atoms: C7_7  and  O9_9 
REMARK    2  A    between atoms: O9_9  and  C10_10 
REMARK    3  A    between atoms: N19_19  and  C20_20 
ROOT
ATOM      1  C10 ZIN A   1      19.162  -0.864  10.505  0.00  0.00     0.193 A 
ATOM      2  C11 ZIN A   1      19.148  -1.602   9.387  0.00  0.00     0.119 A 
ATOM      3  N12 ZIN A   1      19.561  -1.412   8.061  0.00  0.00    -0.359 N 
ATOM      4  C13 ZIN A   1      19.373  -2.433   7.179  0.00  0.00     0.107 A 
ATOM      5  C14 ZIN A   1      18.800  -3.601   7.570  0.00  0.00     0.134 A 
ATOM      6  N15 ZIN A   1      18.395  -3.821   8.813  0.00  0.00    -0.252 NA
ATOM      7  C16 ZIN A   1      18.532  -2.902   9.741  0.00  0.00     0.156 A 
ATOM      8  C17 ZIN A   1      18.212  -2.796  11.166  0.00  0.00     0.286 A 
ATOM      9  O18 ZIN A   1      17.689  -3.652  11.861  0.00  0.00    -0.265 OA
ATOM     10  N19 ZIN A   1      18.614  -1.572  11.565  0.00  0.00    -0.237 N 
ATOM     11  H36 ZIN A   1      19.969  -0.578   7.780  0.00  0.00     0.165 HD
ENDROOT
BRANCH   1  12
ATOM     12  O9  ZIN A   1      19.654   0.403  10.591  0.00  0.00    -0.241 OA
BRANCH  12  13
ATOM     13  C7  ZIN A   1      18.876   1.395  10.121  0.00  0.00     0.369 C 
ATOM     14  N6  ZIN A   1      18.883   2.600  10.723  0.00  0.00    -0.325 N 
ATOM     15  C5  ZIN A   1      18.128   3.731  10.162  0.00  0.00     0.156 C 
ATOM     16  C27 ZIN A   1      19.647   2.823  11.960  0.00  0.00     0.156 C 
ATOM     17  C4  ZIN A   1      17.275   4.347  11.276  0.00  0.00     0.254 C 
ATOM     18  N2  ZIN A   1      18.136   4.698  12.412  0.00  0.00    -0.072 N 
ATOM     19  C1  ZIN A   1      17.338   5.387  13.435  0.00  0.00     0.269 C 
ATOM     20  H3  ZIN A   1      18.875   5.307  12.097  0.00  0.00     0.279 HD
ATOM     21  C28 ZIN A   1      18.721   3.480  12.989  0.00  0.00     0.254 C 
ATOM     22  O8  ZIN A   1      18.167   1.203   9.152  0.00  0.00    -0.238 OA
ENDBRANCH  12  13
ENDBRANCH   1  12
BRANCH  10  23
ATOM     23  C20 ZIN A   1      18.485  -1.079  12.865  0.00  0.00     0.138 A 
ATOM     24  N26 ZIN A   1      17.561  -0.170  13.134  0.00  0.00    -0.241 NA
ATOM     25  C25 ZIN A   1      17.403   0.317  14.348  0.00  0.00     0.142 A 
ATOM     26  C23 ZIN A   1      18.211  -0.099  15.390  0.00  0.00     0.051 A 
ATOM     27  C22 ZIN A   1      19.196  -1.048  15.149  0.00  0.00     0.029 A 
ATOM     28 Cl24 ZIN A   1      17.996   0.556  16.983  0.00  0.00    -0.083 Cl
ATOM     29  C21 ZIN A   1      19.332  -1.545  13.864  0.00  0.00     0.053 A 
ENDBRANCH  10  23
TORSDOF 3
ENDMDL
MODEL 5
REMARK VINA RESULT:      -8.1      2.622      3.936
REMARK  3 active torsions:
REMARK  status: ('A' for Active; 'I' for Inactive)
REMARK       I    between atoms: N6_6  and  C7_7 
REMARK    1  A    between atoms: C7_7  and  O9_9 
REMARK    2  A    between atoms: O9_9  and  C10_10 
REMARK    3  A    between atoms: N19_19  and  C20_20 
ROOT
ATOM      1  C10 ZIN A   1      18.527   0.308  11.220  0.00  0.00     0.193 A 
ATOM      2  C11 ZIN A   1      18.440   0.909  12.414  0.00  0.00     0.119 A 
ATOM      3  N12 ZIN A   1      18.608   0.507  13.747  0.00  0.00    -0.359 N 
ATOM      4  C13 ZIN A   1      18.428   1.439  14.724  0.00  0.00     0.107 A 
ATOM      5  C14 ZIN A   1      18.096   2.720  14.419  0.00  0.00     0.134 A 
ATOM      6  N15 ZIN A   1      17.927   3.141  13.172  0.00  0.00    -0.252 NA
ATOM      7  C16 ZIN A   1      18.078   2.321  12.157  0.00  0.00     0.156 A 
ATOM      8  C17 ZIN A   1      17.976   2.429  10.700  0.00  0.00     0.286 A 
ATOM      9  O18 ZIN A   1      17.696   3.430  10.061  0.00  0.00    -0.265 OA
ATOM     10  N19 ZIN A   1      18.259   1.209  10.199  0.00  0.00    -0.237 N 
ATOM     11  H36 ZIN A   1      18.844  -0.407  13.967  0.00  0.00     0.165 HD
ENDROOT
BRANCH   1  12
ATOM     12  O9  ZIN A   1      18.842  -1.004  11.033  0.00  0.00    -0.241 OA
BRANCH  12  13
ATOM     13  C7  ZIN A   1      17.884  -1.908  11.307  0.00  0.00     0.369 C 
ATOM     14  N6  ZIN A   1      18.092  -3.212  11.039  0.00  0.00    -0.325 N 
ATOM     15  C5  ZIN A   1      17.108  -4.232  11.432  0.00  0.00     0.156 C 
ATOM     16  C27 ZIN A   1      19.310  -3.657  10.344  0.00  0.00     0.156 C 
ATOM     17  C4  ZIN A   1      16.802  -5.108  10.213  0.00  0.00     0.254 C 
ATOM     18  N2  ZIN A   1      18.056  -5.652   9.676  0.00  0.00    -0.072 N 
ATOM     19  C1  ZIN A   1      17.755  -6.579   8.577  0.00  0.00     0.269 C 
ATOM     20  H3  ZIN A   1      18.547  -6.147  10.406  0.00  0.00     0.279 HD
ATOM     21  C28 ZIN A   1      18.900  -4.559   9.176  0.00  0.00     0.254 C 
ATOM     22  O8  ZIN A   1      16.832  -1.549  11.799  0.00  0.00    -0.238 OA
ENDBRANCH  12  13
ENDBRANCH   1  12
BRANCH  10  23
ATOM     23  C20 ZIN A   1      18.269   0.892   8.840  0.00  0.00     0.138 A 
ATOM     24  N26 ZIN A   1      19.220   1.380   8.059  0.00  0.00    -0.241 NA
ATOM     25  C25 ZIN A   1      19.270   1.102   6.772  0.00  0.00     0.142 A 
ATOM     26  C23 ZIN A   1      18.317   0.292   6.185  0.00  0.00     0.051 A 
ATOM     27  C22 ZIN A   1      17.298  -0.237   6.968  0.00  0.00     0.029 A 
ATOM     28 Cl24 ZIN A   1      18.390  -0.061   4.486  0.00  0.00    -0.083 Cl
ATOM     29  C21 ZIN A   1      17.278   0.070   8.317  0.00  0.00     0.053 A 
ENDBRANCH  10  23
TORSDOF 3
ENDMDL
MODEL 6
REMARK VINA RESULT:      -8.0      4.296      8.341
REMARK  3 active torsions:
REMARK  status: ('A' for Active; 'I' for Inactive)
REMARK       I    between atoms: N6_6  and  C7_7 
REMARK    1  A    between atoms: C7_7  and  O9_9 
REMARK    2  A    between atoms: O9_9  and  C10_10 
REMARK    3  A    between atoms: N19_19  and  C20_20 
ROOT
ATOM      1  C10 ZIN A   1      18.406  -3.388   8.659  0.00  0.00     0.193 A 
ATOM      2  C11 ZIN A   1      17.984  -4.288   7.761  0.00  0.00     0.119 A 
ATOM      3  N12 ZIN A   1      18.265  -4.562   6.414  0.00  0.00    -0.359 N 
ATOM      4  C13 ZIN A   1      17.610  -5.598   5.821  0.00  0.00     0.107 A 
ATOM      5  C14 ZIN A   1      16.710  -6.346   6.511  0.00  0.00     0.134 A 
ATOM      6  N15 ZIN A   1      16.415  -6.121   7.785  0.00  0.00    -0.252 NA
ATOM      7  C16 ZIN A   1      16.992  -5.146   8.449  0.00  0.00     0.156 A 
ATOM      8  C17 ZIN A   1      16.916  -4.622   9.814  0.00  0.00     0.286 A 
ATOM      9  O18 ZIN A   1      16.214  -5.042  10.719  0.00  0.00    -0.265 OA
ATOM     10  N19 ZIN A   1      17.779  -3.587   9.882  0.00  0.00    -0.237 N 
ATOM     11  H36 ZIN A   1      18.906  -4.027   5.920  0.00  0.00     0.165 HD
ENDROOT
BRANCH   1  12
ATOM     12  O9  ZIN A   1      19.328  -2.417   8.409  0.00  0.00    -0.241 OA
BRANCH  12  13
ATOM     13  C7  ZIN A   1      18.860  -1.209   8.047  0.00  0.00     0.369 C 
ATOM     14  N6  ZIN A   1      19.387  -0.093   8.588  0.00  0.00    -0.325 N 
ATOM     15  C5  ZIN A   1      18.971   1.241   8.128  0.00  0.00     0.156 C 
ATOM     16  C27 ZIN A   1      20.395  -0.173   9.657  0.00  0.00     0.156 C 
ATOM     17  C4  ZIN A   1      18.599   2.084   9.352  0.00  0.00     0.254 C 
ATOM     18  N2  ZIN A   1      19.721   2.093  10.298  0.00  0.00    -0.072 N 
ATOM     19  C1  ZIN A   1      19.407   2.988  11.420  0.00  0.00     0.269 C 
ATOM     20  H3  ZIN A   1      20.552   2.421   9.830  0.00  0.00     0.279 HD
ATOM     21  C28 ZIN A   1      19.953   0.735  10.809  0.00  0.00     0.254 C 
ATOM     22  O8  ZIN A   1      17.963  -1.124   7.232  0.00  0.00    -0.238 OA
ENDBRANCH  12  13
ENDBRANCH   1  12
BRANCH  10  23
ATOM     23  C20 ZIN A   1      18.004  -2.814  11.022  0.00  0.00     0.138 A 
ATOM     24  N26 ZIN A   1      17.168  -1.835  11.326  0.00  0.00    -0.241 NA
ATOM     25  C25 ZIN A   1      17.341  -1.085  12.397  0.00  0.00     0.142 A 
ATOM     26  C23 ZIN A   1      18.417  -1.290  13.239  0.00  0.00     0.051 A 
ATOM     27  C22 ZIN A   1      19.321  -2.304  12.952  0.00  0.00     0.029 A 
ATOM     28 Cl24 ZIN A   1      18.637  -0.290  14.642  0.00  0.00    -0.083 Cl
ATOM     29  C21 ZIN A   1      19.108  -3.078  11.825  0.00  0.00     0.053 A 
ENDBRANCH  10  23
TORSDOF 3
ENDMDL
MODEL 7
REMARK VINA RESULT:      -7.9      1.868      5.503
REMARK  3 active torsions:
REMARK  status: ('A' for Active; 'I' for Inactive)
REMARK       I    between atoms: N6_6  and  C7_7 
REMARK    1  A    between atoms: C7_7  and  O9_9 
REMARK    2  A    between atoms: O9_9  and  C10_10 
REMARK    3  A    between atoms: N19_19  and  C20_20 
ROOT
ATOM      1  C10 ZIN A   1      18.922   0.963  12.183  0.00  0.00     0.193 A 
ATOM      2  C11 ZIN A   1      18.970   0.734  13.503  0.00  0.00     0.119 A 
ATOM      3  N12 ZIN A   1      19.189   1.519  14.644  0.00  0.00    -0.359 N 
ATOM      4  C13 ZIN A   1      19.160   0.905  15.859  0.00  0.00     0.107 A 
ATOM      5  C14 ZIN A   1      18.928  -0.429  15.965  0.00  0.00     0.134 A 
ATOM      6  N15 ZIN A   1      18.716  -1.207  14.911  0.00  0.00    -0.252 NA
ATOM      7  C16 ZIN A   1      18.722  -0.713  13.695  0.00  0.00     0.156 A 
ATOM      8  C17 ZIN A   1      18.534  -1.251  12.346  0.00  0.00     0.286 A 
ATOM      9  O18 ZIN A   1      18.305  -2.411  12.049  0.00  0.00    -0.265 OA
ATOM     10  N19 ZIN A   1      18.656  -0.212  11.493  0.00  0.00    -0.237 N 
ATOM     11  H36 ZIN A   1      19.356   2.472  14.570  0.00  0.00     0.165 HD
ENDROOT
BRANCH   1  12
ATOM     12  O9  ZIN A   1      19.100   2.181  11.600  0.00  0.00    -0.241 OA
BRANCH  12  13
ATOM     13  C7  ZIN A   1      18.081   3.056  11.688  0.00  0.00     0.369 C 
ATOM     14  N6  ZIN A   1      18.279   4.265  12.249  0.00  0.00    -0.325 N 
ATOM     15  C5  ZIN A   1      17.214   5.279  12.256  0.00  0.00     0.156 C 
ATOM     16  C27 ZIN A   1      19.567   4.609  12.872  0.00  0.00     0.156 C 
ATOM     17  C4  ZIN A   1      17.053   5.806  13.686  0.00  0.00     0.254 C 
ATOM     18  N2  ZIN A   1      18.350   6.287  14.178  0.00  0.00    -0.072 N 
ATOM     19  C1  ZIN A   1      18.176   6.891  15.505  0.00  0.00     0.269 C 
ATOM     20  H3  ZIN A   1      18.715   6.978  13.541  0.00  0.00     0.279 HD
ATOM     21  C28 ZIN A   1      19.294   5.165  14.273  0.00  0.00     0.254 C 
ATOM     22  O8  ZIN A   1      16.984   2.756  11.261  0.00  0.00    -0.238 OA
ENDBRANCH  12  13
ENDBRANCH   1  12
BRANCH  10  23
ATOM     23  C20 ZIN A   1      18.543  -0.307  10.105  0.00  0.00     0.138 A 
ATOM     24  N26 ZIN A   1      19.605  -0.619   9.380  0.00  0.00    -0.241 NA
ATOM     25  C25 ZIN A   1      19.540  -0.724   8.067  0.00  0.00     0.142 A 
ATOM     26  C23 ZIN A   1      18.353  -0.500   7.396  0.00  0.00     0.051 A 
ATOM     27  C22 ZIN A   1      17.216  -0.165   8.120  0.00  0.00     0.029 A 
ATOM     28 Cl24 ZIN A   1      18.283  -0.635   5.667  0.00  0.00    -0.083 Cl
ATOM     29  C21 ZIN A   1      17.315  -0.069   9.498  0.00  0.00     0.053 A 
ENDBRANCH  10  23
TORSDOF 3
ENDMDL
MODEL 8
REMARK VINA RESULT:      -7.9      2.912      6.149
REMARK  3 active torsions:
REMARK  status: ('A' for Active; 'I' for Inactive)
REMARK       I    between atoms: N6_6  and  C7_7 
REMARK    1  A    between atoms: C7_7  and  O9_9 
REMARK    2  A    between atoms: O9_9  and  C10_10 
REMARK    3  A    between atoms: N19_19  and  C20_20 
ROOT
ATOM      1  C10 ZIN A   1      19.380  -0.719  11.565  0.00  0.00     0.193 A 
ATOM      2  C11 ZIN A   1      19.526  -2.021  11.287  0.00  0.00     0.119 A 
ATOM      3  N12 ZIN A   1      20.180  -3.103  11.893  0.00  0.00    -0.359 N 
ATOM      4  C13 ZIN A   1      20.097  -4.321  11.289  0.00  0.00     0.107 A 
ATOM      5  C14 ZIN A   1      19.402  -4.486  10.134  0.00  0.00     0.134 A 
ATOM      6  N15 ZIN A   1      18.770  -3.489   9.528  0.00  0.00    -0.252 NA
ATOM      7  C16 ZIN A   1      18.787  -2.275  10.029  0.00  0.00     0.156 A 
ATOM      8  C17 ZIN A   1      18.224  -0.978   9.648  0.00  0.00     0.286 A 
ATOM      9  O18 ZIN A   1      17.540  -0.740   8.667  0.00  0.00    -0.265 OA
ATOM     10  N19 ZIN A   1      18.602  -0.097  10.598  0.00  0.00    -0.237 N 
ATOM     11  H36 ZIN A   1      20.678  -2.988  12.717  0.00  0.00     0.165 HD
ENDROOT
BRANCH   1  12
ATOM     12  O9  ZIN A   1      19.915  -0.093  12.649  0.00  0.00    -0.241 OA
BRANCH  12  13
ATOM     13  C7  ZIN A   1      19.474  -0.483  13.860  0.00  0.00     0.369 C 
ATOM     14  N6  ZIN A   1      18.861   0.401  14.671  0.00  0.00    -0.325 N 
ATOM     15  C5  ZIN A   1      18.271  -0.026  15.948  0.00  0.00     0.156 C 
ATOM     16  C27 ZIN A   1      18.763   1.823  14.304  0.00  0.00     0.156 C 
ATOM     17  C4  ZIN A   1      18.781   0.903  17.055  0.00  0.00     0.254 C 
ATOM     18  N2  ZIN A   1      18.496   2.296  16.692  0.00  0.00    -0.072 N 
ATOM     19  C1  ZIN A   1      18.885   3.179  17.800  0.00  0.00     0.269 C 
ATOM     20  H3  ZIN A   1      17.508   2.401  16.512  0.00  0.00     0.279 HD
ATOM     21  C28 ZIN A   1      19.252   2.663  15.487  0.00  0.00     0.254 C 
ATOM     22  O8  ZIN A   1      19.627  -1.634  14.220  0.00  0.00    -0.238 OA
ENDBRANCH  12  13
ENDBRANCH   1  12
BRANCH  10  23
ATOM     23  C20 ZIN A   1      18.266   1.258  10.602  0.00  0.00     0.138 A 
ATOM     24  N26 ZIN A   1      17.345   1.703  11.442  0.00  0.00    -0.241 NA
ATOM     25  C25 ZIN A   1      17.002   2.975  11.482  0.00  0.00     0.142 A 
ATOM     26  C23 ZIN A   1      17.590   3.895  10.634  0.00  0.00     0.051 A 
ATOM     27  C22 ZIN A   1      18.557   3.467   9.734  0.00  0.00     0.029 A 
ATOM     28 Cl24 ZIN A   1      17.124   5.566  10.693  0.00  0.00    -0.083 Cl
ATOM     29  C21 ZIN A   1      18.900   2.126   9.721  0.00  0.00     0.053 A 
ENDBRANCH  10  23
TORSDOF 3
ENDMDL
MODEL 9
REMARK VINA RESULT:      -7.8      3.894      6.666
REMARK  3 active torsions:
REMARK  status: ('A' for Active; 'I' for Inactive)
REMARK       I    between atoms: N6_6  and  C7_7 
REMARK    1  A    between atoms: C7_7  and  O9_9 
REMARK    2  A    between atoms: O9_9  and  C10_10 
REMARK    3  A    between atoms: N19_19  and  C20_20 
ROOT
ATOM      1  C10 ZIN A   1      19.135  -1.224   9.814  0.00  0.00     0.193 A 
ATOM      2  C11 ZIN A   1      19.131  -1.135   8.477  0.00  0.00     0.119 A 
ATOM      3  N12 ZIN A   1      19.285  -2.039   7.417  0.00  0.00    -0.359 N 
ATOM      4  C13 ZIN A   1      19.217  -1.553   6.146  0.00  0.00     0.107 A 
ATOM      5  C14 ZIN A   1      19.009  -0.232   5.911  0.00  0.00     0.134 A 
ATOM      6  N15 ZIN A   1      18.859   0.656   6.884  0.00  0.00    -0.252 NA
ATOM      7  C16 ZIN A   1      18.906   0.291   8.145  0.00  0.00     0.156 A 
ATOM      8  C17 ZIN A   1      18.788   0.970   9.437  0.00  0.00     0.286 A 
ATOM      9  O18 ZIN A   1      18.596   2.160   9.620  0.00  0.00    -0.265 OA
ATOM     10  N19 ZIN A   1      18.924   0.023  10.388  0.00  0.00    -0.237 N 
ATOM     11  H36 ZIN A   1      19.435  -2.983   7.583  0.00  0.00     0.165 HD
ENDROOT
BRANCH   1  12
ATOM     12  O9  ZIN A   1      19.312  -2.379  10.514  0.00  0.00    -0.241 OA
BRANCH  12  13
ATOM     13  C7  ZIN A   1      18.246  -3.191  10.634  0.00  0.00     0.369 C 
ATOM     14  N6  ZIN A   1      18.322  -4.469  10.215  0.00  0.00    -0.325 N 
ATOM     15  C5  ZIN A   1      17.210  -5.406  10.437  0.00  0.00     0.156 C 
ATOM     16  C27 ZIN A   1      19.520  -4.969   9.522  0.00  0.00     0.156 C 
ATOM     17  C4  ZIN A   1      16.878  -6.091   9.107  0.00  0.00     0.254 C 
ATOM     18  N2  ZIN A   1      18.091  -6.710   8.560  0.00  0.00    -0.072 N 
ATOM     19  C1  ZIN A   1      17.752  -7.459   7.343  0.00  0.00     0.269 C 
ATOM     20  H3  ZIN A   1      18.483  -7.341   9.243  0.00  0.00     0.279 HD
ATOM     21  C28 ZIN A   1      19.078  -5.672   8.235  0.00  0.00     0.254 C 
ATOM     22  O8  ZIN A   1      17.215  -2.771  11.121  0.00  0.00    -0.238 OA
ENDBRANCH  12  13
ENDBRANCH   1  12
BRANCH  10  23
ATOM     23  C20 ZIN A   1      18.872   0.264  11.761  0.00  0.00     0.138 A 
ATOM     24  N26 ZIN A   1      19.996   0.351  12.455  0.00  0.00    -0.241 NA
ATOM     25  C25 ZIN A   1      19.991   0.583  13.753  0.00  0.00     0.142 A 
ATOM     26  C23 ZIN A   1      18.802   0.733  14.442  0.00  0.00     0.051 A 
ATOM     27  C22 ZIN A   1      17.601   0.644  13.752  0.00  0.00     0.029 A 
ATOM     28 Cl24 ZIN A   1      18.811   1.031  16.152  0.00  0.00    -0.083 Cl
ATOM     29  C21 ZIN A   1      17.639   0.406  12.388  0.00  0.00     0.053 A 
ENDBRANCH  10  23
TORSDOF 3
ENDMDL
