MODEL 1
REMARK VINA RESULT:     -10.3      0.000      0.000
REMARK  5 active torsions:
REMARK  status: ('A' for Active; 'I' for Inactive)
REMARK    1  A    between atoms: C4_4  and  C6_5 
REMARK       I    between atoms: C6_5  and  N8_7 
REMARK    2  A    between atoms: N8_7  and  C9_8 
REMARK    3  A    between atoms: C12_11  and  O13_12 
REMARK    4  A    between atoms: C22_20  and  C24_21 
REMARK    5  A    between atoms: C24_21  and  C25_22 
ROOT
ATOM      1  C9  ZIN A   1      18.919  -4.499  10.140  0.00  0.00     0.220 C 
ATOM      2  C10 ZIN A   1      20.106  -5.164  10.841  0.00  0.00     0.082 C 
ATOM      3  O11 ZIN A   1      19.349  -3.857   8.924  0.00  0.00    -0.296 OA
ATOM      4  C12 ZIN A   1      18.237  -4.017   8.029  0.00  0.00     0.276 C 
ATOM      5  C14 ZIN A   1      18.717  -4.140   6.596  0.00  0.00     0.173 C 
ATOM      6  C16 ZIN A   1      18.742  -2.759   5.906  0.00  0.00     0.034 C 
ATOM      7  C17 ZIN A   1      18.655  -3.128   4.406  0.00  0.00     0.022 C 
ATOM      8  C18 ZIN A   1      18.051  -4.545   4.376  0.00  0.00     0.127 C 
ATOM      9  N19 ZIN A   1      17.793  -4.940   5.780  0.00  0.00    -0.338 N 
ATOM     10  C20 ZIN A   1      16.876  -5.825   6.194  0.00  0.00     0.243 C 
ATOM     11  O21 ZIN A   1      16.292  -6.504   5.377  0.00  0.00    -0.271 OA
ATOM     12  C22 ZIN A   1      16.556  -5.990   7.656  0.00  0.00     0.189 C 
ATOM     13  N31 ZIN A   1      17.515  -5.217   8.452  0.00  0.00    -0.277 N 
ATOM     14  C32 ZIN A   1      17.914  -5.542   9.701  0.00  0.00     0.280 C 
ATOM     15  O33 ZIN A   1      17.557  -6.508  10.342  0.00  0.00    -0.268 OA
ENDROOT
BRANCH   1  16
ATOM     16  N8  ZIN A   1      18.284  -3.525  11.032  0.00  0.00    -0.321 N 
ATOM     17  C6  ZIN A   1      18.970  -2.439  11.441  0.00  0.00     0.229 C 
ATOM     18  O7  ZIN A   1      20.112  -2.266  11.070  0.00  0.00    -0.273 OA
ATOM     19  H53 ZIN A   1      17.372  -3.662  11.328  0.00  0.00     0.166 HD
BRANCH  17  20
ATOM     20  C4  ZIN A   1      18.317  -1.437  12.358  0.00  0.00     0.129 C 
ATOM     21  C3  ZIN A   1      19.194  -1.223  13.598  0.00  0.00     0.290 C 
ATOM     22  N2  ZIN A   1      18.583  -0.176  14.422  0.00  0.00     0.094 N 
ATOM     23  C1  ZIN A   1      19.236  -0.092  15.735  0.00  0.00     0.310 C 
ATOM     24  C46 ZIN A   1      18.562   1.126  13.766  0.00  0.00     0.260 C 
ATOM     25  C35 ZIN A   1      18.281   1.031  12.289  0.00  0.00    -0.017 C 
ATOM     26  C45 ZIN A   1      17.602   2.063  14.511  0.00  0.00     0.081 C 
ATOM     27  C34 ZIN A   1      18.168  -0.119  11.649  0.00  0.00    -0.001 C 
ATOM     28  C36 ZIN A   1      18.135   2.292  11.536  0.00  0.00    -0.015 A 
ATOM     29  C44 ZIN A   1      18.316   2.553  10.196  0.00  0.00     0.013 A 
ATOM     30  C37 ZIN A   1      17.753   3.396  12.326  0.00  0.00     0.009 A 
ATOM     31  C43 ZIN A   1      18.123   3.844   9.712  0.00  0.00     0.003 A 
ATOM     32  C42 ZIN A   1      17.753   4.929  10.499  0.00  0.00     0.030 A 
ATOM     33  C41 ZIN A   1      17.561   4.701  11.861  0.00  0.00     0.043 A 
ATOM     34  N40 ZIN A   1      17.212   5.426  12.960  0.00  0.00    -0.365 N 
ATOM     35  C39 ZIN A   1      17.175   4.613  14.083  0.00  0.00     0.096 A 
ATOM     36  H73 ZIN A   1      17.018   6.375  12.957  0.00  0.00     0.165 HD
ATOM     37  C38 ZIN A   1      17.491   3.363  13.760  0.00  0.00    -0.027 A 
ENDBRANCH  17  20
ENDBRANCH   1  16
BRANCH   4  38
ATOM     38  O13 ZIN A   1      17.377  -2.881   8.130  0.00  0.00    -0.347 OA
ATOM     39  H57 ZIN A   1      16.455  -3.101   8.322  0.00  0.00     0.215 HD
ENDBRANCH   4  38
BRANCH  12  40
ATOM     40  C24 ZIN A   1      15.156  -5.441   7.937  0.00  0.00     0.073 C 
BRANCH  40  41
ATOM     41  C25 ZIN A   1      14.164  -6.576   7.940  0.00  0.00    -0.056 A 
ATOM     42  C30 ZIN A   1      12.824  -6.321   8.165  0.00  0.00     0.007 A 
ATOM     43  C29 ZIN A   1      11.913  -7.361   8.163  0.00  0.00     0.001 A 
ATOM     44  C28 ZIN A   1      12.342  -8.656   7.945  0.00  0.00     0.000 A 
ATOM     45  C27 ZIN A   1      13.683  -8.911   7.726  0.00  0.00     0.001 A 
ATOM     46  C26 ZIN A   1      14.594  -7.871   7.723  0.00  0.00     0.007 A 
ENDBRANCH  40  41
ENDBRANCH  12  40
TORSDOF 5
ENDMDL
MODEL 2
REMARK VINA RESULT:     -10.3      1.838      2.647
REMARK  5 active torsions:
REMARK  status: ('A' for Active; 'I' for Inactive)
REMARK    1  A    between atoms: C4_4  and  C6_5 
REMARK       I    between atoms: C6_5  and  N8_7 
REMARK    2  A    between atoms: N8_7  and  C9_8 
REMARK    3  A    between atoms: C12_11  and  O13_12 
REMARK    4  A    between atoms: C22_20  and  C24_21 
REMARK    5  A    between atoms: C24_21  and  C25_22 
ROOT
ATOM      1  C9  ZIN A   1      18.294  -5.571   7.763  0.00  0.00     0.220 C 
ATOM      2  C10 ZIN A   1      19.407  -6.307   8.513  0.00  0.00     0.082 C 
ATOM      3  O11 ZIN A   1      18.731  -5.217   6.437  0.00  0.00    -0.296 OA
ATOM      4  C12 ZIN A   1      17.546  -5.327   5.633  0.00  0.00     0.276 C 
ATOM      5  C14 ZIN A   1      17.893  -5.760   4.223  0.00  0.00     0.173 C 
ATOM      6  C16 ZIN A   1      18.089  -4.533   3.306  0.00  0.00     0.034 C 
ATOM      7  C17 ZIN A   1      17.834  -5.120   1.897  0.00  0.00     0.022 C 
ATOM      8  C18 ZIN A   1      17.010  -6.399   2.138  0.00  0.00     0.127 C 
ATOM      9  N19 ZIN A   1      16.795  -6.512   3.598  0.00  0.00    -0.338 N 
ATOM     10  C20 ZIN A   1      15.782  -7.149   4.199  0.00  0.00     0.243 C 
ATOM     11  O21 ZIN A   1      15.038  -7.842   3.538  0.00  0.00    -0.271 OA
ATOM     12  C22 ZIN A   1      15.547  -7.019   5.681  0.00  0.00     0.189 C 
ATOM     13  N31 ZIN A   1      16.673  -6.303   6.288  0.00  0.00    -0.277 N 
ATOM     14  C32 ZIN A   1      17.106  -6.485   7.555  0.00  0.00     0.280 C 
ATOM     15  O33 ZIN A   1      16.646  -7.259   8.368  0.00  0.00    -0.268 OA
ENDROOT
BRANCH   1  16
ATOM     16  N8  ZIN A   1      17.891  -4.372   8.503  0.00  0.00    -0.321 N 
ATOM     17  C6  ZIN A   1      17.901  -4.377   9.851  0.00  0.00     0.229 C 
ATOM     18  O7  ZIN A   1      18.245  -5.373  10.452  0.00  0.00    -0.273 OA
ATOM     19  H53 ZIN A   1      17.617  -3.576   8.023  0.00  0.00     0.166 HD
BRANCH  17  20
ATOM     20  C4  ZIN A   1      17.487  -3.144  10.611  0.00  0.00     0.129 C 
ATOM     21  C3  ZIN A   1      18.305  -3.035  11.903  0.00  0.00     0.290 C 
ATOM     22  N2  ZIN A   1      17.951  -1.779  12.571  0.00  0.00     0.094 N 
ATOM     23  C1  ZIN A   1      18.514  -1.728  13.928  0.00  0.00     0.310 C 
ATOM     24  C46 ZIN A   1      18.329  -0.599  11.804  0.00  0.00     0.260 C 
ATOM     25  C35 ZIN A   1      18.131  -0.777  10.321  0.00  0.00    -0.017 C 
ATOM     26  C45 ZIN A   1      17.615   0.636  12.371  0.00  0.00     0.081 C 
ATOM     27  C34 ZIN A   1      17.751  -1.919   9.778  0.00  0.00    -0.001 C 
ATOM     28  C36 ZIN A   1      18.385   0.387   9.451  0.00  0.00    -0.015 A 
ATOM     29  C44 ZIN A   1      18.719   0.441   8.116  0.00  0.00     0.013 A 
ATOM     30  C37 ZIN A   1      18.268   1.632  10.101  0.00  0.00     0.009 A 
ATOM     31  C43 ZIN A   1      18.918   1.676   7.504  0.00  0.00     0.003 A 
ATOM     32  C42 ZIN A   1      18.807   2.900   8.155  0.00  0.00     0.030 A 
ATOM     33  C41 ZIN A   1      18.470   2.882   9.508  0.00  0.00     0.043 A 
ATOM     34  N40 ZIN A   1      18.261   3.789  10.501  0.00  0.00    -0.365 N 
ATOM     35  C39 ZIN A   1      17.929   3.145  11.683  0.00  0.00     0.096 A 
ATOM     36  H73 ZIN A   1      18.335   4.751  10.397  0.00  0.00     0.165 HD
ATOM     37  C38 ZIN A   1      17.913   1.828  11.501  0.00  0.00    -0.027 A 
ENDBRANCH  17  20
ENDBRANCH   1  16
BRANCH   4  38
ATOM     38  O13 ZIN A   1      16.889  -4.060   5.577  0.00  0.00    -0.347 OA
ATOM     39  H57 ZIN A   1      17.460  -3.310   5.793  0.00  0.00     0.215 HD
ENDBRANCH   4  38
BRANCH  12  40
ATOM     40  C24 ZIN A   1      14.278  -6.201   5.927  0.00  0.00     0.073 C 
BRANCH  40  41
ATOM     41  C25 ZIN A   1      13.387  -6.937   6.895  0.00  0.00    -0.056 A 
ATOM     42  C30 ZIN A   1      12.602  -6.230   7.786  0.00  0.00     0.007 A 
ATOM     43  C29 ZIN A   1      11.782  -6.905   8.671  0.00  0.00     0.001 A 
ATOM     44  C28 ZIN A   1      11.752  -8.286   8.670  0.00  0.00     0.000 A 
ATOM     45  C27 ZIN A   1      12.541  -8.994   7.782  0.00  0.00     0.001 A 
ATOM     46  C26 ZIN A   1      13.358  -8.320   6.894  0.00  0.00     0.007 A 
ENDBRANCH  40  41
ENDBRANCH  12  40
TORSDOF 5
ENDMDL
MODEL 3
REMARK VINA RESULT:      -9.7      5.623      9.184
REMARK  5 active torsions:
REMARK  status: ('A' for Active; 'I' for Inactive)
REMARK    1  A    between atoms: C4_4  and  C6_5 
REMARK       I    between atoms: C6_5  and  N8_7 
REMARK    2  A    between atoms: N8_7  and  C9_8 
REMARK    3  A    between atoms: C12_11  and  O13_12 
REMARK    4  A    between atoms: C22_20  and  C24_21 
REMARK    5  A    between atoms: C24_21  and  C25_22 
ROOT
ATOM      1  C9  ZIN A   1      19.162   4.615  13.048  0.00  0.00     0.220 C 
ATOM      2  C10 ZIN A   1      20.347   5.505  13.429  0.00  0.00     0.082 C 
ATOM      3  O11 ZIN A   1      19.124   4.410  11.623  0.00  0.00    -0.296 OA
ATOM      4  C12 ZIN A   1      18.624   3.072  11.472  0.00  0.00     0.276 C 
ATOM      5  C14 ZIN A   1      19.214   2.416  10.240  0.00  0.00     0.173 C 
ATOM      6  C16 ZIN A   1      18.294   2.622   9.016  0.00  0.00     0.034 C 
ATOM      7  C17 ZIN A   1      18.702   1.454   8.086  0.00  0.00     0.022 C 
ATOM      8  C18 ZIN A   1      19.358   0.413   9.014  0.00  0.00     0.127 C 
ATOM      9  N19 ZIN A   1      19.302   0.956  10.389  0.00  0.00    -0.338 N 
ATOM     10  C20 ZIN A   1      19.301   0.239  11.521  0.00  0.00     0.243 C 
ATOM     11  O21 ZIN A   1      19.524  -0.952  11.471  0.00  0.00    -0.271 OA
ATOM     12  C22 ZIN A   1      19.026   0.884  12.853  0.00  0.00     0.189 C 
ATOM     13  N31 ZIN A   1      18.984   2.340  12.687  0.00  0.00    -0.277 N 
ATOM     14  C32 ZIN A   1      19.329   3.233  13.641  0.00  0.00     0.280 C 
ATOM     15  O33 ZIN A   1      19.728   2.974  14.757  0.00  0.00    -0.268 OA
ENDROOT
BRANCH   1  16
ATOM     16  N8  ZIN A   1      17.908   5.218  13.509  0.00  0.00    -0.321 N 
ATOM     17  C6  ZIN A   1      17.908   6.042  14.575  0.00  0.00     0.229 C 
ATOM     18  O7  ZIN A   1      18.946   6.287  15.153  0.00  0.00    -0.273 OA
ATOM     19  H53 ZIN A   1      17.078   5.024  13.046  0.00  0.00     0.166 HD
BRANCH  17  20
ATOM     20  C4  ZIN A   1      16.618   6.662  15.048  0.00  0.00     0.129 C 
ATOM     21  C3  ZIN A   1      15.440   6.045  14.287  0.00  0.00     0.290 C 
ATOM     22  N2  ZIN A   1      14.196   6.594  14.834  0.00  0.00     0.094 N 
ATOM     23  C1  ZIN A   1      13.046   6.233  13.994  0.00  0.00     0.310 C 
ATOM     24  C46 ZIN A   1      13.967   6.214  16.223  0.00  0.00     0.260 C 
ATOM     25  C35 ZIN A   1      15.234   6.187  17.038  0.00  0.00    -0.017 C 
ATOM     26  C45 ZIN A   1      12.872   7.103  16.827  0.00  0.00     0.081 C 
ATOM     27  C34 ZIN A   1      16.431   6.389  16.516  0.00  0.00    -0.001 C 
ATOM     28  C36 ZIN A   1      15.115   5.914  18.483  0.00  0.00    -0.015 A 
ATOM     29  C44 ZIN A   1      16.036   5.403  19.369  0.00  0.00     0.013 A 
ATOM     30  C37 ZIN A   1      13.852   6.226  19.028  0.00  0.00     0.009 A 
ATOM     31  C43 ZIN A   1      15.684   5.225  20.705  0.00  0.00     0.003 A 
ATOM     32  C42 ZIN A   1      14.434   5.530  21.233  0.00  0.00     0.030 A 
ATOM     33  C41 ZIN A   1      13.477   6.050  20.363  0.00  0.00     0.043 A 
ATOM     34  N40 ZIN A   1      12.184   6.472  20.432  0.00  0.00    -0.365 N 
ATOM     35  C39 ZIN A   1      11.752   6.910  19.189  0.00  0.00     0.096 A 
ATOM     36  H73 ZIN A   1      11.642   6.467  21.235  0.00  0.00     0.165 HD
ATOM     37  C38 ZIN A   1      12.726   6.789  18.293  0.00  0.00    -0.027 A 
ENDBRANCH  17  20
ENDBRANCH   1  16
BRANCH   4  38
ATOM     38  O13 ZIN A   1      17.202   3.107  11.339  0.00  0.00    -0.347 OA
ATOM     39  H57 ZIN A   1      16.864   2.601  10.587  0.00  0.00     0.215 HD
ENDBRANCH   4  38
BRANCH  12  40
ATOM     40  C24 ZIN A   1      17.661   0.427  13.370  0.00  0.00     0.073 C 
BRANCH  40  41
ATOM     41  C25 ZIN A   1      17.813  -0.134  14.761  0.00  0.00    -0.056 A 
ATOM     42  C30 ZIN A   1      18.739  -1.130  15.007  0.00  0.00     0.007 A 
ATOM     43  C29 ZIN A   1      18.882  -1.642  16.283  0.00  0.00     0.001 A 
ATOM     44  C28 ZIN A   1      18.094  -1.163  17.312  0.00  0.00     0.000 A 
ATOM     45  C27 ZIN A   1      17.165  -0.170  17.065  0.00  0.00     0.001 A 
ATOM     46  C26 ZIN A   1      17.024   0.345  15.790  0.00  0.00     0.007 A 
ENDBRANCH  40  41
ENDBRANCH  12  40
TORSDOF 5
ENDMDL
MODEL 4
REMARK VINA RESULT:      -9.3      5.774     11.230
REMARK  5 active torsions:
REMARK  status: ('A' for Active; 'I' for Inactive)
REMARK    1  A    between atoms: C4_4  and  C6_5 
REMARK       I    between atoms: C6_5  and  N8_7 
REMARK    2  A    between atoms: N8_7  and  C9_8 
REMARK    3  A    between atoms: C12_11  and  O13_12 
REMARK    4  A    between atoms: C22_20  and  C24_21 
REMARK    5  A    between atoms: C24_21  and  C25_22 
ROOT
ATOM      1  C9  ZIN A   1      19.765   5.267  15.615  0.00  0.00     0.220 C 
ATOM      2  C10 ZIN A   1      21.221   5.735  15.609  0.00  0.00     0.082 C 
ATOM      3  O11 ZIN A   1      19.146   5.565  16.881  0.00  0.00    -0.296 OA
ATOM      4  C12 ZIN A   1      17.784   5.870  16.546  0.00  0.00     0.276 C 
ATOM      5  C14 ZIN A   1      17.215   6.901  17.501  0.00  0.00     0.173 C 
ATOM      6  C16 ZIN A   1      16.498   6.214  18.685  0.00  0.00     0.034 C 
ATOM      7  C17 ZIN A   1      15.524   7.312  19.173  0.00  0.00     0.022 C 
ATOM      8  C18 ZIN A   1      15.354   8.261  17.972  0.00  0.00     0.127 C 
ATOM      9  N19 ZIN A   1      16.169   7.715  16.864  0.00  0.00    -0.338 N 
ATOM     10  C20 ZIN A   1      15.957   7.912  15.556  0.00  0.00     0.243 C 
ATOM     11  O21 ZIN A   1      15.134   8.730  15.203  0.00  0.00    -0.271 OA
ATOM     12  C22 ZIN A   1      16.720   7.137  14.516  0.00  0.00     0.189 C 
ATOM     13  N31 ZIN A   1      17.781   6.365  15.168  0.00  0.00    -0.277 N 
ATOM     14  C32 ZIN A   1      18.959   6.038  14.592  0.00  0.00     0.280 C 
ATOM     15  O33 ZIN A   1      19.317   6.333  13.471  0.00  0.00    -0.268 OA
ENDROOT
BRANCH   1  16
ATOM     16  N8  ZIN A   1      19.693   3.829  15.341  0.00  0.00    -0.321 N 
ATOM     17  C6  ZIN A   1      19.663   2.949  16.361  0.00  0.00     0.229 C 
ATOM     18  O7  ZIN A   1      19.694   3.346  17.507  0.00  0.00    -0.273 OA
ATOM     19  H53 ZIN A   1      19.667   3.511  14.425  0.00  0.00     0.166 HD
BRANCH  17  20
ATOM     20  C4  ZIN A   1      19.589   1.470  16.078  0.00  0.00     0.129 C 
ATOM     21  C3  ZIN A   1      18.228   0.927  16.527  0.00  0.00     0.290 C 
ATOM     22  N2  ZIN A   1      18.147  -0.488  16.152  0.00  0.00     0.094 N 
ATOM     23  C1  ZIN A   1      16.976  -1.129  16.765  0.00  0.00     0.310 C 
ATOM     24  C46 ZIN A   1      18.162  -0.697  14.710  0.00  0.00     0.260 C 
ATOM     25  C35 ZIN A   1      19.086   0.250  13.991  0.00  0.00    -0.017 C 
ATOM     26  C45 ZIN A   1      18.444  -2.174  14.405  0.00  0.00     0.081 C 
ATOM     27  C34 ZIN A   1      19.734   1.227  14.601  0.00  0.00    -0.001 C 
ATOM     28  C36 ZIN A   1      19.261   0.068  12.537  0.00  0.00    -0.015 A 
ATOM     29  C44 ZIN A   1      19.644   0.969  11.569  0.00  0.00     0.013 A 
ATOM     30  C37 ZIN A   1      18.985  -1.237  12.080  0.00  0.00     0.009 A 
ATOM     31  C43 ZIN A   1      19.731   0.559  10.240  0.00  0.00     0.003 A 
ATOM     32  C42 ZIN A   1      19.451  -0.729   9.798  0.00  0.00     0.030 A 
ATOM     33  C41 ZIN A   1      19.061  -1.668  10.752  0.00  0.00     0.043 A 
ATOM     34  N40 ZIN A   1      18.705  -2.982  10.780  0.00  0.00    -0.365 N 
ATOM     35  C39 ZIN A   1      18.421  -3.379  12.078  0.00  0.00     0.096 A 
ATOM     36  H73 ZIN A   1      18.657  -3.558  10.002  0.00  0.00     0.165 HD
ATOM     37  C38 ZIN A   1      18.578  -2.360  12.917  0.00  0.00    -0.027 A 
ENDBRANCH  17  20
ENDBRANCH   1  16
BRANCH   4  38
ATOM     38  O13 ZIN A   1      16.995   4.682  16.628  0.00  0.00    -0.347 OA
ATOM     39  H57 ZIN A   1      16.817   4.268  15.772  0.00  0.00     0.215 HD
ENDBRANCH   4  38
BRANCH  12  40
ATOM     40  C24 ZIN A   1      15.777   6.152  13.821  0.00  0.00     0.073 C 
BRANCH  40  41
ATOM     41  C25 ZIN A   1      16.523   5.432  12.726  0.00  0.00    -0.056 A 
ATOM     42  C30 ZIN A   1      16.772   6.070  11.525  0.00  0.00     0.007 A 
ATOM     43  C29 ZIN A   1      17.459   5.411  10.522  0.00  0.00     0.001 A 
ATOM     44  C28 ZIN A   1      17.890   4.113  10.717  0.00  0.00     0.000 A 
ATOM     45  C27 ZIN A   1      17.637   3.473  11.916  0.00  0.00     0.001 A 
ATOM     46  C26 ZIN A   1      16.953   4.133  12.921  0.00  0.00     0.007 A 
ENDBRANCH  40  41
ENDBRANCH  12  40
TORSDOF 5
ENDMDL
MODEL 5
REMARK VINA RESULT:      -9.3      2.441      4.750
REMARK  5 active torsions:
REMARK  status: ('A' for Active; 'I' for Inactive)
REMARK    1  A    between atoms: C4_4  and  C6_5 
REMARK       I    between atoms: C6_5  and  N8_7 
REMARK    2  A    between atoms: N8_7  and  C9_8 
REMARK    3  A    between atoms: C12_11  and  O13_12 
REMARK    4  A    between atoms: C22_20  and  C24_21 
REMARK    5  A    between atoms: C24_21  and  C25_22 
ROOT
ATOM      1  C9  ZIN A   1      19.964  -5.251   7.387  0.00  0.00     0.220 C 
ATOM      2  C10 ZIN A   1      21.436  -5.663   7.462  0.00  0.00     0.082 C 
ATOM      3  O11 ZIN A   1      19.405  -5.612   6.110  0.00  0.00    -0.296 OA
ATOM      4  C12 ZIN A   1      18.043  -5.957   6.406  0.00  0.00     0.276 C 
ATOM      5  C14 ZIN A   1      17.548  -7.038   5.466  0.00  0.00     0.173 C 
ATOM      6  C16 ZIN A   1      16.852  -6.416   4.235  0.00  0.00     0.034 C 
ATOM      7  C17 ZIN A   1      15.936  -7.565   3.747  0.00  0.00     0.022 C 
ATOM      8  C18 ZIN A   1      15.756  -8.482   4.973  0.00  0.00     0.127 C 
ATOM      9  N19 ZIN A   1      16.509  -7.870   6.091  0.00  0.00    -0.338 N 
ATOM     10  C20 ZIN A   1      16.255  -8.034   7.396  0.00  0.00     0.243 C 
ATOM     11  O21 ZIN A   1      15.450  -8.870   7.745  0.00  0.00    -0.271 OA
ATOM     12  C22 ZIN A   1      16.950  -7.197   8.437  0.00  0.00     0.189 C 
ATOM     13  N31 ZIN A   1      18.007  -6.408   7.798  0.00  0.00    -0.277 N 
ATOM     14  C32 ZIN A   1      19.149  -6.019   8.406  0.00  0.00     0.280 C 
ATOM     15  O33 ZIN A   1      19.476  -6.264   9.548  0.00  0.00    -0.268 OA
ENDROOT
BRANCH   1  16
ATOM     16  N8  ZIN A   1      19.830  -3.808   7.611  0.00  0.00    -0.321 N 
ATOM     17  C6  ZIN A   1      19.767  -2.966   6.560  0.00  0.00     0.229 C 
ATOM     18  O7  ZIN A   1      19.819  -3.402   5.430  0.00  0.00    -0.273 OA
ATOM     19  H53 ZIN A   1      19.787  -3.460   8.515  0.00  0.00     0.166 HD
BRANCH  17  20
ATOM     20  C4  ZIN A   1      19.629  -1.484   6.791  0.00  0.00     0.129 C 
ATOM     21  C3  ZIN A   1      18.222  -1.027   6.387  0.00  0.00     0.290 C 
ATOM     22  N2  ZIN A   1      18.085   0.395   6.712  0.00  0.00     0.094 N 
ATOM     23  C1  ZIN A   1      16.856   0.952   6.131  0.00  0.00     0.310 C 
ATOM     24  C46 ZIN A   1      18.153   0.661   8.144  0.00  0.00     0.260 C 
ATOM     25  C35 ZIN A   1      19.157  -0.209   8.854  0.00  0.00    -0.017 C 
ATOM     26  C45 ZIN A   1      18.371   2.162   8.380  0.00  0.00     0.081 C 
ATOM     27  C34 ZIN A   1      19.827  -1.175   8.251  0.00  0.00    -0.001 C 
ATOM     28  C36 ZIN A   1      19.387   0.039  10.290  0.00  0.00    -0.015 A 
ATOM     29  C44 ZIN A   1      19.859  -0.802  11.272  0.00  0.00     0.013 A 
ATOM     30  C37 ZIN A   1      19.065   1.346  10.710  0.00  0.00     0.009 A 
ATOM     31  C43 ZIN A   1      19.985  -0.336  12.579  0.00  0.00     0.003 A 
ATOM     32  C42 ZIN A   1      19.658   0.953  12.985  0.00  0.00     0.030 A 
ATOM     33  C41 ZIN A   1      19.177   1.832  12.016  0.00  0.00     0.043 A 
ATOM     34  N40 ZIN A   1      18.753   3.124  11.956  0.00  0.00    -0.365 N 
ATOM     35  C39 ZIN A   1      18.390   3.455  10.659  0.00  0.00     0.096 A 
ATOM     36  H73 ZIN A   1      18.709   3.728  12.714  0.00  0.00     0.165 HD
ATOM     37  C38 ZIN A   1      18.563   2.413   9.852  0.00  0.00    -0.027 A 
ENDBRANCH  17  20
ENDBRANCH   1  16
BRANCH   4  38
ATOM     38  O13 ZIN A   1      17.215  -4.802   6.256  0.00  0.00    -0.347 OA
ATOM     39  H57 ZIN A   1      17.628  -3.981   6.556  0.00  0.00     0.215 HD
ENDBRANCH   4  38
BRANCH  12  40
ATOM     40  C24 ZIN A   1      15.947  -6.227   9.065  0.00  0.00     0.073 C 
BRANCH  40  41
ATOM     41  C25 ZIN A   1      16.644  -5.390  10.107  0.00  0.00    -0.056 A 
ATOM     42  C30 ZIN A   1      17.017  -5.957  11.311  0.00  0.00     0.007 A 
ATOM     43  C29 ZIN A   1      17.660  -5.191  12.266  0.00  0.00     0.001 A 
ATOM     44  C28 ZIN A   1      17.922  -3.857  12.020  0.00  0.00     0.000 A 
ATOM     45  C27 ZIN A   1      17.544  -3.289  10.818  0.00  0.00     0.001 A 
ATOM     46  C26 ZIN A   1      16.905  -4.055   9.861  0.00  0.00     0.007 A 
ENDBRANCH  40  41
ENDBRANCH  12  40
TORSDOF 5
ENDMDL
MODEL 6
REMARK VINA RESULT:      -8.7      2.283      4.291
REMARK  5 active torsions:
REMARK  status: ('A' for Active; 'I' for Inactive)
REMARK    1  A    between atoms: C4_4  and  C6_5 
REMARK       I    between atoms: C6_5  and  N8_7 
REMARK    2  A    between atoms: N8_7  and  C9_8 
REMARK    3  A    between atoms: C12_11  and  O13_12 
REMARK    4  A    between atoms: C22_20  and  C24_21 
REMARK    5  A    between atoms: C24_21  and  C25_22 
ROOT
ATOM      1  C9  ZIN A   1      18.752  -5.810   6.908  0.00  0.00     0.220 C 
ATOM      2  C10 ZIN A   1      19.921  -6.450   7.660  0.00  0.00     0.082 C 
ATOM      3  O11 ZIN A   1      18.961  -5.897   5.486  0.00  0.00    -0.296 OA
ATOM      4  C12 ZIN A   1      17.642  -6.067   4.944  0.00  0.00     0.276 C 
ATOM      5  C14 ZIN A   1      17.683  -6.915   3.689  0.00  0.00     0.173 C 
ATOM      6  C16 ZIN A   1      17.804  -6.026   2.431  0.00  0.00     0.034 C 
ATOM      7  C17 ZIN A   1      17.243  -6.940   1.315  0.00  0.00     0.022 C 
ATOM      8  C18 ZIN A   1      16.377  -7.982   2.048  0.00  0.00     0.127 C 
ATOM      9  N19 ZIN A   1      16.430  -7.658   3.492  0.00  0.00    -0.338 N 
ATOM     10  C20 ZIN A   1      15.498  -7.964   4.404  0.00  0.00     0.243 C 
ATOM     11  O21 ZIN A   1      14.589  -8.708   4.100  0.00  0.00    -0.271 OA
ATOM     12  C22 ZIN A   1      15.555  -7.400   5.798  0.00  0.00     0.189 C 
ATOM     13  N31 ZIN A   1      16.829  -6.700   5.985  0.00  0.00    -0.277 N 
ATOM     14  C32 ZIN A   1      17.475  -6.580   7.167  0.00  0.00     0.280 C 
ATOM     15  O33 ZIN A   1      17.113  -7.032   8.232  0.00  0.00    -0.268 OA
ENDROOT
BRANCH   1  16
ATOM     16  N8  ZIN A   1      18.593  -4.411   7.314  0.00  0.00    -0.321 N 
ATOM     17  C6  ZIN A   1      19.568  -3.518   7.050  0.00  0.00     0.229 C 
ATOM     18  O7  ZIN A   1      20.575  -3.871   6.474  0.00  0.00    -0.273 OA
ATOM     19  H53 ZIN A   1      17.788  -4.128   7.773  0.00  0.00     0.166 HD
BRANCH  17  20
ATOM     20  C4  ZIN A   1      19.404  -2.079   7.467  0.00  0.00     0.129 C 
ATOM     21  C3  ZIN A   1      18.118  -1.509   6.858  0.00  0.00     0.290 C 
ATOM     22  N2  ZIN A   1      17.935  -0.143   7.359  0.00  0.00     0.094 N 
ATOM     23  C1  ZIN A   1      16.860   0.545   6.631  0.00  0.00     0.310 C 
ATOM     24  C46 ZIN A   1      17.709  -0.089   8.798  0.00  0.00     0.260 C 
ATOM     25  C35 ZIN A   1      18.532  -1.095   9.558  0.00  0.00    -0.017 C 
ATOM     26  C45 ZIN A   1      17.893   1.351   9.295  0.00  0.00     0.081 C 
ATOM     27  C34 ZIN A   1      19.299  -1.993   8.966  0.00  0.00    -0.001 C 
ATOM     28  C36 ZIN A   1      18.463  -1.066  11.031  0.00  0.00    -0.015 A 
ATOM     29  C44 ZIN A   1      18.710  -2.060  11.952  0.00  0.00     0.013 A 
ATOM     30  C37 ZIN A   1      18.078   0.180  11.568  0.00  0.00     0.009 A 
ATOM     31  C43 ZIN A   1      18.569  -1.792  13.312  0.00  0.00     0.003 A 
ATOM     32  C42 ZIN A   1      18.182  -0.562  13.832  0.00  0.00     0.030 A 
ATOM     33  C41 ZIN A   1      17.923   0.467  12.928  0.00  0.00     0.043 A 
ATOM     34  N40 ZIN A   1      17.537   1.772  12.978  0.00  0.00    -0.365 N 
ATOM     35  C39 ZIN A   1      17.456   2.301  11.698  0.00  0.00     0.096 A 
ATOM     36  H73 ZIN A   1      17.346   2.261  13.792  0.00  0.00     0.165 HD
ATOM     37  C38 ZIN A   1      17.778   1.380  10.796  0.00  0.00    -0.027 A 
ENDBRANCH  17  20
ENDBRANCH   1  16
BRANCH   4  38
ATOM     38  O13 ZIN A   1      17.091  -4.790   4.619  0.00  0.00    -0.347 OA
ATOM     39  H57 ZIN A   1      16.140  -4.719   4.779  0.00  0.00     0.215 HD
ENDBRANCH   4  38
BRANCH  12  40
ATOM     40  C24 ZIN A   1      14.425  -6.386   5.986  0.00  0.00     0.073 C 
BRANCH  40  41
ATOM     41  C25 ZIN A   1      13.482  -6.878   7.054  0.00  0.00    -0.056 A 
ATOM     42  C30 ZIN A   1      13.393  -8.230   7.328  0.00  0.00     0.007 A 
ATOM     43  C29 ZIN A   1      12.531  -8.681   8.310  0.00  0.00     0.001 A 
ATOM     44  C28 ZIN A   1      11.752  -7.781   9.012  0.00  0.00     0.000 A 
ATOM     45  C27 ZIN A   1      11.837  -6.429   8.735  0.00  0.00     0.001 A 
ATOM     46  C26 ZIN A   1      12.702  -5.977   7.756  0.00  0.00     0.007 A 
ENDBRANCH  40  41
ENDBRANCH  12  40
TORSDOF 5
ENDMDL
MODEL 7
REMARK VINA RESULT:      -7.7      1.876      2.981
REMARK  5 active torsions:
REMARK  status: ('A' for Active; 'I' for Inactive)
REMARK    1  A    between atoms: C4_4  and  C6_5 
REMARK       I    between atoms: C6_5  and  N8_7 
REMARK    2  A    between atoms: N8_7  and  C9_8 
REMARK    3  A    between atoms: C12_11  and  O13_12 
REMARK    4  A    between atoms: C22_20  and  C24_21 
REMARK    5  A    between atoms: C24_21  and  C25_22 
ROOT
ATOM      1  C9  ZIN A   1      18.619  -4.231   6.860  0.00  0.00     0.220 C 
ATOM      2  C10 ZIN A   1      19.796  -3.436   6.292  0.00  0.00     0.082 C 
ATOM      3  O11 ZIN A   1      17.490  -4.165   5.968  0.00  0.00    -0.296 OA
ATOM      4  C12 ZIN A   1      16.858  -5.448   6.102  0.00  0.00     0.276 C 
ATOM      5  C14 ZIN A   1      16.211  -5.865   4.797  0.00  0.00     0.173 C 
ATOM      6  C16 ZIN A   1      14.730  -5.428   4.755  0.00  0.00     0.034 C 
ATOM      7  C17 ZIN A   1      14.118  -6.403   3.722  0.00  0.00     0.022 C 
ATOM      8  C18 ZIN A   1      15.083  -7.604   3.682  0.00  0.00     0.127 C 
ATOM      9  N19 ZIN A   1      16.164  -7.328   4.655  0.00  0.00    -0.338 N 
ATOM     10  C20 ZIN A   1      16.910  -8.244   5.286  0.00  0.00     0.243 C 
ATOM     11  O21 ZIN A   1      16.840  -9.406   4.946  0.00  0.00    -0.271 OA
ATOM     12  C22 ZIN A   1      17.834  -7.858   6.410  0.00  0.00     0.189 C 
ATOM     13  N31 ZIN A   1      17.896  -6.397   6.506  0.00  0.00    -0.277 N 
ATOM     14  C32 ZIN A   1      18.969  -5.701   6.946  0.00  0.00     0.280 C 
ATOM     15  O33 ZIN A   1      20.027  -6.166   7.313  0.00  0.00    -0.268 OA
ENDROOT
BRANCH   1  16
ATOM     16  N8  ZIN A   1      18.251  -3.717   8.183  0.00  0.00    -0.321 N 
ATOM     17  C6  ZIN A   1      18.034  -2.399   8.357  0.00  0.00     0.229 C 
ATOM     18  O7  ZIN A   1      18.141  -1.637   7.420  0.00  0.00    -0.273 OA
ATOM     19  H53 ZIN A   1      18.165  -4.326   8.932  0.00  0.00     0.166 HD
BRANCH  17  20
ATOM     20  C4  ZIN A   1      17.656  -1.871   9.718  0.00  0.00     0.129 C 
ATOM     21  C3  ZIN A   1      18.672  -2.354  10.759  0.00  0.00     0.290 C 
ATOM     22  N2  ZIN A   1      18.335  -1.748  12.051  0.00  0.00     0.094 N 
ATOM     23  C1  ZIN A   1      19.117  -2.355  13.137  0.00  0.00     0.310 C 
ATOM     24  C46 ZIN A   1      18.477  -0.298  12.054  0.00  0.00     0.260 C 
ATOM     25  C35 ZIN A   1      18.042   0.335  10.758  0.00  0.00    -0.017 C 
ATOM     26  C45 ZIN A   1      17.771   0.287  13.285  0.00  0.00     0.081 C 
ATOM     27  C34 ZIN A   1      17.670  -0.367   9.702  0.00  0.00    -0.001 C 
ATOM     28  C36 ZIN A   1      18.045   1.809  10.678  0.00  0.00    -0.015 A 
ATOM     29  C44 ZIN A   1      18.139   2.639   9.584  0.00  0.00     0.013 A 
ATOM     30  C37 ZIN A   1      17.939   2.455  11.927  0.00  0.00     0.009 A 
ATOM     31  C43 ZIN A   1      18.127   4.020   9.762  0.00  0.00     0.003 A 
ATOM     32  C42 ZIN A   1      18.029   4.649  10.998  0.00  0.00     0.030 A 
ATOM     33  C41 ZIN A   1      17.932   3.839  12.128  0.00  0.00     0.043 A 
ATOM     34  N40 ZIN A   1      17.822   4.005  13.475  0.00  0.00    -0.365 N 
ATOM     35  C39 ZIN A   1      17.753   2.774  14.110  0.00  0.00     0.096 A 
ATOM     36  H73 ZIN A   1      17.796   4.862  13.927  0.00  0.00     0.165 HD
ATOM     37  C38 ZIN A   1      17.815   1.790  13.219  0.00  0.00    -0.027 A 
ENDBRANCH  17  20
ENDBRANCH   1  16
BRANCH   4  38
ATOM     38  O13 ZIN A   1      15.852  -5.380   7.114  0.00  0.00    -0.347 OA
ATOM     39  H57 ZIN A   1      15.370  -6.208   7.245  0.00  0.00     0.215 HD
ENDBRANCH   4  38
BRANCH  12  40
ATOM     40  C24 ZIN A   1      17.281  -8.397   7.732  0.00  0.00     0.073 C 
BRANCH  40  41
ATOM     41  C25 ZIN A   1      15.863  -8.866   7.529  0.00  0.00    -0.056 A 
ATOM     42  C30 ZIN A   1      15.605 -10.203   7.290  0.00  0.00     0.007 A 
ATOM     43  C29 ZIN A   1      14.304 -10.634   7.108  0.00  0.00     0.001 A 
ATOM     44  C28 ZIN A   1      13.262  -9.728   7.157  0.00  0.00     0.000 A 
ATOM     45  C27 ZIN A   1      13.521  -8.390   7.392  0.00  0.00     0.001 A 
ATOM     46  C26 ZIN A   1      14.821  -7.958   7.578  0.00  0.00     0.007 A 
ENDBRANCH  40  41
ENDBRANCH  12  40
TORSDOF 5
ENDMDL
MODEL 8
REMARK VINA RESULT:      -7.5      4.707     12.145
REMARK  5 active torsions:
REMARK  status: ('A' for Active; 'I' for Inactive)
REMARK    1  A    between atoms: C4_4  and  C6_5 
REMARK       I    between atoms: C6_5  and  N8_7 
REMARK    2  A    between atoms: N8_7  and  C9_8 
REMARK    3  A    between atoms: C12_11  and  O13_12 
REMARK    4  A    between atoms: C22_20  and  C24_21 
REMARK    5  A    between atoms: C24_21  and  C25_22 
ROOT
ATOM      1  C9  ZIN A   1      18.377   2.416  17.473  0.00  0.00     0.220 C 
ATOM      2  C10 ZIN A   1      19.370   1.320  17.865  0.00  0.00     0.082 C 
ATOM      3  O11 ZIN A   1      17.401   2.607  18.513  0.00  0.00    -0.296 OA
ATOM      4  C12 ZIN A   1      17.116   4.014  18.478  0.00  0.00     0.276 C 
ATOM      5  C14 ZIN A   1      16.780   4.528  19.863  0.00  0.00     0.173 C 
ATOM      6  C16 ZIN A   1      15.255   4.488  20.108  0.00  0.00     0.034 C 
ATOM      7  C17 ZIN A   1      15.064   5.543  21.224  0.00  0.00     0.022 C 
ATOM      8  C18 ZIN A   1      16.307   6.450  21.136  0.00  0.00     0.127 C 
ATOM      9  N19 ZIN A   1      17.138   5.945  20.020  0.00  0.00    -0.338 N 
ATOM     10  C20 ZIN A   1      18.008   6.663  19.297  0.00  0.00     0.243 C 
ATOM     11  O21 ZIN A   1      18.291   7.788  19.651  0.00  0.00    -0.271 OA
ATOM     12  C22 ZIN A   1      18.639   6.101  18.052  0.00  0.00     0.189 C 
ATOM     13  N31 ZIN A   1      18.303   4.678  17.938  0.00  0.00    -0.277 N 
ATOM     14  C32 ZIN A   1      19.086   3.748  17.349  0.00  0.00     0.280 C 
ATOM     15  O33 ZIN A   1      20.171   3.939  16.841  0.00  0.00    -0.268 OA
ENDROOT
BRANCH   1  16
ATOM     16  N8  ZIN A   1      17.716   2.073  16.211  0.00  0.00    -0.321 N 
ATOM     17  C6  ZIN A   1      18.426   1.523  15.205  0.00  0.00     0.229 C 
ATOM     18  O7  ZIN A   1      19.612   1.311  15.345  0.00  0.00    -0.273 OA
ATOM     19  H53 ZIN A   1      16.768   2.241  16.099  0.00  0.00     0.166 HD
BRANCH  17  20
ATOM     20  C4  ZIN A   1      17.744   1.170  13.908  0.00  0.00     0.129 C 
ATOM     21  C3  ZIN A   1      18.058   2.237  12.853  0.00  0.00     0.290 C 
ATOM     22  N2  ZIN A   1      17.465   1.818  11.580  0.00  0.00     0.094 N 
ATOM     23  C1  ZIN A   1      17.519   2.904  10.592  0.00  0.00     0.310 C 
ATOM     24  C46 ZIN A   1      18.060   0.599  11.048  0.00  0.00     0.260 C 
ATOM     25  C35 ZIN A   1      18.396  -0.404  12.120  0.00  0.00    -0.017 C 
ATOM     26  C45 ZIN A   1      17.166   0.030   9.938  0.00  0.00     0.081 C 
ATOM     27  C34 ZIN A   1      18.255  -0.155  13.410  0.00  0.00    -0.001 C 
ATOM     28  C36 ZIN A   1      18.911  -1.719  11.693  0.00  0.00    -0.015 A 
ATOM     29  C44 ZIN A   1      19.687  -2.632  12.371  0.00  0.00     0.013 A 
ATOM     30  C37 ZIN A   1      18.546  -2.085  10.381  0.00  0.00     0.009 A 
ATOM     31  C43 ZIN A   1      20.060  -3.820  11.747  0.00  0.00     0.003 A 
ATOM     32  C42 ZIN A   1      19.701  -4.169  10.450  0.00  0.00     0.030 A 
ATOM     33  C41 ZIN A   1      18.915  -3.268   9.734  0.00  0.00     0.043 A 
ATOM     34  N40 ZIN A   1      18.352  -3.192   8.497  0.00  0.00    -0.365 N 
ATOM     35  C39 ZIN A   1      17.643  -2.007   8.360  0.00  0.00     0.096 A 
ATOM     36  H73 ZIN A   1      18.435  -3.869   7.808  0.00  0.00     0.165 HD
ATOM     37  C38 ZIN A   1      17.721  -1.292   9.478  0.00  0.00    -0.027 A 
ENDBRANCH  17  20
ENDBRANCH   1  16
BRANCH   4  38
ATOM     38  O13 ZIN A   1      16.002   4.253  17.616  0.00  0.00    -0.347 OA
ATOM     39  H57 ZIN A   1      15.345   3.542  17.615  0.00  0.00     0.215 HD
ENDBRANCH   4  38
BRANCH  12  40
ATOM     40  C24 ZIN A   1      18.077   6.820  16.824  0.00  0.00     0.073 C 
BRANCH  40  41
ATOM     41  C25 ZIN A   1      18.759   6.303  15.583  0.00  0.00    -0.056 A 
ATOM     42  C30 ZIN A   1      20.113   6.517  15.400  0.00  0.00     0.007 A 
ATOM     43  C29 ZIN A   1      20.740   6.039  14.264  0.00  0.00     0.001 A 
ATOM     44  C28 ZIN A   1      20.012   5.356  13.308  0.00  0.00     0.000 A 
ATOM     45  C27 ZIN A   1      18.658   5.147  13.489  0.00  0.00     0.001 A 
ATOM     46  C26 ZIN A   1      18.031   5.621  14.627  0.00  0.00     0.007 A 
ENDBRANCH  40  41
ENDBRANCH  12  40
TORSDOF 5
ENDMDL
MODEL 9
REMARK VINA RESULT:      -7.4      2.890      4.968
REMARK  5 active torsions:
REMARK  status: ('A' for Active; 'I' for Inactive)
REMARK    1  A    between atoms: C4_4  and  C6_5 
REMARK       I    between atoms: C6_5  and  N8_7 
REMARK    2  A    between atoms: N8_7  and  C9_8 
REMARK    3  A    between atoms: C12_11  and  O13_12 
REMARK    4  A    between atoms: C22_20  and  C24_21 
REMARK    5  A    between atoms: C24_21  and  C25_22 
ROOT
ATOM      1  C9  ZIN A   1      17.659  -6.202   7.660  0.00  0.00     0.220 C 
ATOM      2  C10 ZIN A   1      18.229  -6.847   8.926  0.00  0.00     0.082 C 
ATOM      3  O11 ZIN A   1      18.250  -6.791   6.486  0.00  0.00    -0.296 OA
ATOM      4  C12 ZIN A   1      17.193  -6.778   5.514  0.00  0.00     0.276 C 
ATOM      5  C14 ZIN A   1      17.311  -7.964   4.578  0.00  0.00     0.173 C 
ATOM      6  C16 ZIN A   1      18.123  -7.589   3.319  0.00  0.00     0.034 C 
ATOM      7  C17 ZIN A   1      17.645  -8.634   2.283  0.00  0.00     0.022 C 
ATOM      8  C18 ZIN A   1      16.281  -9.124   2.809  0.00  0.00     0.127 C 
ATOM      9  N19 ZIN A   1      16.001  -8.380   4.057  0.00  0.00    -0.338 N 
ATOM     10  C20 ZIN A   1      14.789  -8.125   4.568  0.00  0.00     0.243 C 
ATOM     11  O21 ZIN A   1      13.815  -8.665   4.088  0.00  0.00    -0.271 OA
ATOM     12  C22 ZIN A   1      14.613  -7.179   5.725  0.00  0.00     0.189 C 
ATOM     13  N31 ZIN A   1      15.930  -6.810   6.254  0.00  0.00    -0.277 N 
ATOM     14  C32 ZIN A   1      16.178  -6.490   7.543  0.00  0.00     0.280 C 
ATOM     15  O33 ZIN A   1      15.369  -6.466   8.447  0.00  0.00    -0.268 OA
ENDROOT
BRANCH   1  16
ATOM     16  N8  ZIN A   1      17.896  -4.756   7.677  0.00  0.00    -0.321 N 
ATOM     17  C6  ZIN A   1      19.155  -4.278   7.599  0.00  0.00     0.229 C 
ATOM     18  O7  ZIN A   1      20.090  -5.045   7.513  0.00  0.00    -0.273 OA
ATOM     19  H53 ZIN A   1      17.149  -4.143   7.745  0.00  0.00     0.166 HD
BRANCH  17  20
ATOM     20  C4  ZIN A   1      19.398  -2.791   7.617  0.00  0.00     0.129 C 
ATOM     21  C3  ZIN A   1      18.548  -2.117   6.533  0.00  0.00     0.290 C 
ATOM     22  N2  ZIN A   1      18.731  -0.666   6.637  0.00  0.00     0.094 N 
ATOM     23  C1  ZIN A   1      18.141   0.023   5.482  0.00  0.00     0.310 C 
ATOM     24  C46 ZIN A   1      18.223  -0.116   7.888  0.00  0.00     0.260 C 
ATOM     25  C35 ZIN A   1      18.469  -1.021   9.067  0.00  0.00    -0.017 C 
ATOM     26  C45 ZIN A   1      18.767   1.305   8.086  0.00  0.00     0.081 C 
ATOM     27  C34 ZIN A   1      18.999  -2.225   8.953  0.00  0.00    -0.001 C 
ATOM     28  C36 ZIN A   1      18.089  -0.525  10.404  0.00  0.00    -0.015 A 
ATOM     29  C44 ZIN A   1      17.776  -1.217  11.552  0.00  0.00     0.013 A 
ATOM     30  C37 ZIN A   1      18.038   0.880  10.507  0.00  0.00     0.009 A 
ATOM     31  C43 ZIN A   1      17.435  -0.519  12.708  0.00  0.00     0.003 A 
ATOM     32  C42 ZIN A   1      17.381   0.867  12.799  0.00  0.00     0.030 A 
ATOM     33  C41 ZIN A   1      17.692   1.600  11.654  0.00  0.00     0.043 A 
ATOM     34  N40 ZIN A   1      17.768   2.911  11.293  0.00  0.00    -0.365 N 
ATOM     35  C39 ZIN A   1      18.156   3.025   9.966  0.00  0.00     0.096 A 
ATOM     36  H73 ZIN A   1      17.578   3.659  11.880  0.00  0.00     0.165 HD
ATOM     37  C38 ZIN A   1      18.340   1.821   9.434  0.00  0.00    -0.027 A 
ENDBRANCH  17  20
ENDBRANCH   1  16
BRANCH   4  38
ATOM     38  O13 ZIN A   1      17.266  -5.576   4.746  0.00  0.00    -0.347 OA
ATOM     39  H57 ZIN A   1      18.148  -5.382   4.402  0.00  0.00     0.215 HD
ENDBRANCH   4  38
BRANCH  12  40
ATOM     40  C24 ZIN A   1      13.923  -5.902   5.241  0.00  0.00     0.073 C 
BRANCH  40  41
ATOM     41  C25 ZIN A   1      14.016  -5.820   3.739  0.00  0.00    -0.056 A 
ATOM     42  C30 ZIN A   1      15.169  -5.344   3.143  0.00  0.00     0.007 A 
ATOM     43  C29 ZIN A   1      15.257  -5.273   1.765  0.00  0.00     0.001 A 
ATOM     44  C28 ZIN A   1      14.188  -5.669   0.983  0.00  0.00     0.000 A 
ATOM     45  C27 ZIN A   1      13.033  -6.140   1.579  0.00  0.00     0.001 A 
ATOM     46  C26 ZIN A   1      12.947  -6.216   2.957  0.00  0.00     0.007 A 
ENDBRANCH  40  41
ENDBRANCH  12  40
TORSDOF 5
ENDMDL
