MODEL 1
REMARK VINA RESULT:      -9.7      0.000      0.000
REMARK  5 active torsions:
REMARK  status: ('A' for Active; 'I' for Inactive)
REMARK    1  A    between atoms: C3_3  and  C4_4 
REMARK    2  A    between atoms: C4_4  and  C5_5 
REMARK    3  A    between atoms: C5_5  and  N6_6 
REMARK    4  A    between atoms: C9_9  and  C10_10 
REMARK    5  A    between atoms: C28_28  and  O30_29 
ROOT
ATOM      1  N6  ZIN A   1      17.819   2.367  10.802  0.00  0.00     0.088 N 
ATOM      2  C7  ZIN A   1      17.498   0.936  10.732  0.00  0.00     0.273 C 
ATOM      3  C8  ZIN A   1      17.544   0.472   9.274  0.00  0.00     0.041 C 
ATOM      4  C9  ZIN A   1      18.941   0.729   8.705  0.00  0.00     0.044 C 
ATOM      5  C20 ZIN A   1      19.271   2.219   8.834  0.00  0.00     0.041 C 
ATOM      6  C21 ZIN A   1      19.175   2.632  10.305  0.00  0.00     0.273 C 
ENDROOT
BRANCH   1   7
ATOM      7  C5  ZIN A   1      17.650   2.877  12.168  0.00  0.00     0.277 C 
BRANCH   7   8
ATOM      8  C4  ZIN A   1      19.023   3.078  12.812  0.00  0.00     0.076 C 
BRANCH   8   9
ATOM      9  C3  ZIN A   1      18.948   2.729  14.276  0.00  0.00     0.036 A 
ATOM     10  C2  ZIN A   1      18.841   3.701  15.223  0.00  0.00     0.044 A 
ATOM     11  C1  ZIN A   1      18.785   5.152  14.818  0.00  0.00     0.071 C 
ATOM     12  N32 ZIN A   1      18.791   3.363  16.509  0.00  0.00    -0.237 NA
ATOM     13  C31 ZIN A   1      18.822   2.111  16.913  0.00  0.00     0.138 A 
ATOM     14  N24 ZIN A   1      18.906   1.107  16.027  0.00  0.00    -0.300 N 
ATOM     15  C28 ZIN A   1      18.765   1.880  18.404  0.00  0.00     0.188 C 
ATOM     16  C22 ZIN A   1      18.989   1.388  14.700  0.00  0.00     0.257 A 
ATOM     17  C25 ZIN A   1      18.902  -0.307  16.404  0.00  0.00     0.134 C 
ATOM     18  O23 ZIN A   1      19.099   0.487  13.887  0.00  0.00    -0.267 OA
ATOM     19  C26 ZIN A   1      19.269  -0.487  17.873  0.00  0.00     0.023 C 
ATOM     20  C27 ZIN A   1      18.371   0.436  18.708  0.00  0.00     0.041 C 
BRANCH  15  21
ATOM     21  O30 ZIN A   1      17.799   2.762  18.980  0.00  0.00    -0.388 OA
ATOM     22  H58 ZIN A   1      17.390   2.424  19.789  0.00  0.00     0.210 HD
ENDBRANCH  15  21
ENDBRANCH   8   9
ENDBRANCH   7   8
ENDBRANCH   1   7
BRANCH   4  23
ATOM     23  C10 ZIN A   1      18.975   0.330   7.252  0.00  0.00     0.079 A 
ATOM     24  C19 ZIN A   1      18.885  -1.034   6.725  0.00  0.00     0.027 A 
ATOM     25  C13 ZIN A   1      18.956  -0.925   5.325  0.00  0.00     0.116 A 
ATOM     26  C18 ZIN A   1      18.737  -2.291   7.318  0.00  0.00     0.019 A 
ATOM     27  O12 ZIN A   1      19.088   0.386   5.037  0.00  0.00    -0.212 OA
ATOM     28  C14 ZIN A   1      18.891  -2.072   4.546  0.00  0.00     0.082 A 
ATOM     29  N11 ZIN A   1      19.096   1.130   6.239  0.00  0.00    -0.131 NA
ATOM     30  C15 ZIN A   1      18.751  -3.305   5.152  0.00  0.00     0.119 A 
ATOM     31  F16 ZIN A   1      18.688  -4.420   4.392  0.00  0.00    -0.206 F 
ATOM     32  C17 ZIN A   1      18.676  -3.408   6.536  0.00  0.00     0.043 A 
ENDBRANCH   4  23
TORSDOF 5
ENDMDL
MODEL 2
REMARK VINA RESULT:      -9.6      3.599      9.248
REMARK  5 active torsions:
REMARK  status: ('A' for Active; 'I' for Inactive)
REMARK    1  A    between atoms: C3_3  and  C4_4 
REMARK    2  A    between atoms: C4_4  and  C5_5 
REMARK    3  A    between atoms: C5_5  and  N6_6 
REMARK    4  A    between atoms: C9_9  and  C10_10 
REMARK    5  A    between atoms: C28_28  and  O30_29 
ROOT
ATOM      1  N6  ZIN A   1      19.102   1.776   9.770  0.00  0.00     0.088 N 
ATOM      2  C7  ZIN A   1      19.938   0.810  10.493  0.00  0.00     0.273 C 
ATOM      3  C8  ZIN A   1      20.064   1.237  11.957  0.00  0.00     0.041 C 
ATOM      4  C9  ZIN A   1      18.670   1.305  12.586  0.00  0.00     0.044 C 
ATOM      5  C20 ZIN A   1      17.804   2.281  11.786  0.00  0.00     0.041 C 
ATOM      6  C21 ZIN A   1      17.743   1.824  10.326  0.00  0.00     0.273 C 
ENDROOT
BRANCH   1   7
ATOM      7  C5  ZIN A   1      19.072   1.474   8.333  0.00  0.00     0.277 C 
BRANCH   7   8
ATOM      8  C4  ZIN A   1      17.914   0.520   8.036  0.00  0.00     0.076 C 
BRANCH   8   9
ATOM      9  C3  ZIN A   1      18.448  -0.878   7.857  0.00  0.00     0.036 A 
ATOM     10  C2  ZIN A   1      19.112  -1.234   6.722  0.00  0.00     0.044 A 
ATOM     11  C1  ZIN A   1      19.332  -0.226   5.624  0.00  0.00     0.071 C 
ATOM     12  N32 ZIN A   1      19.560  -2.480   6.587  0.00  0.00    -0.237 NA
ATOM     13  C31 ZIN A   1      19.406  -3.393   7.522  0.00  0.00     0.138 A 
ATOM     14  N24 ZIN A   1      18.779  -3.098   8.671  0.00  0.00    -0.300 N 
ATOM     15  C28 ZIN A   1      19.960  -4.766   7.225  0.00  0.00     0.188 C 
ATOM     16  C22 ZIN A   1      18.273  -1.851   8.858  0.00  0.00     0.257 A 
ATOM     17  C25 ZIN A   1      18.610  -4.051   9.768  0.00  0.00     0.134 C 
ATOM     18  O23 ZIN A   1      17.673  -1.579   9.884  0.00  0.00    -0.267 OA
ATOM     19  C26 ZIN A   1      18.786  -5.486   9.283  0.00  0.00     0.023 C 
ATOM     20  C27 ZIN A   1      20.109  -5.574   8.512  0.00  0.00     0.041 C 
BRANCH  15  21
ATOM     21  O30 ZIN A   1      21.239  -4.631   6.602  0.00  0.00    -0.388 OA
ATOM     22  H58 ZIN A   1      21.678  -3.787   6.782  0.00  0.00     0.210 HD
ENDBRANCH  15  21
ENDBRANCH   8   9
ENDBRANCH   7   8
ENDBRANCH   1   7
BRANCH   4  23
ATOM     23  C10 ZIN A   1      18.783   1.783  14.011  0.00  0.00     0.079 A 
ATOM     24  C19 ZIN A   1      18.878   0.938  15.205  0.00  0.00     0.027 A 
ATOM     25  C13 ZIN A   1      18.967   1.811  16.303  0.00  0.00     0.116 A 
ATOM     26  C18 ZIN A   1      18.909  -0.444  15.409  0.00  0.00     0.019 A 
ATOM     27  O12 ZIN A   1      18.920   3.067  15.814  0.00  0.00    -0.212 OA
ATOM     28  C14 ZIN A   1      19.074   1.287  17.584  0.00  0.00     0.082 A 
ATOM     29  N11 ZIN A   1      18.807   3.018  14.406  0.00  0.00    -0.131 NA
ATOM     30  C15 ZIN A   1      19.097  -0.081  17.766  0.00  0.00     0.119 A 
ATOM     31  F16 ZIN A   1      19.200  -0.589  19.014  0.00  0.00    -0.206 F 
ATOM     32  C17 ZIN A   1      19.013  -0.941  16.677  0.00  0.00     0.043 A 
ENDBRANCH   4  23
TORSDOF 5
ENDMDL
MODEL 3
REMARK VINA RESULT:      -9.6      1.239      2.071
REMARK  5 active torsions:
REMARK  status: ('A' for Active; 'I' for Inactive)
REMARK    1  A    between atoms: C3_3  and  C4_4 
REMARK    2  A    between atoms: C4_4  and  C5_5 
REMARK    3  A    between atoms: C5_5  and  N6_6 
REMARK    4  A    between atoms: C9_9  and  C10_10 
REMARK    5  A    between atoms: C28_28  and  O30_29 
ROOT
ATOM      1  N6  ZIN A   1      17.838   2.259  10.510  0.00  0.00     0.088 N 
ATOM      2  C7  ZIN A   1      17.518   0.827  10.503  0.00  0.00     0.273 C 
ATOM      3  C8  ZIN A   1      17.540   0.304   9.064  0.00  0.00     0.041 C 
ATOM      4  C9  ZIN A   1      18.928   0.539   8.462  0.00  0.00     0.044 C 
ATOM      5  C20 ZIN A   1      19.257   2.033   8.526  0.00  0.00     0.041 C 
ATOM      6  C21 ZIN A   1      19.186   2.505   9.980  0.00  0.00     0.273 C 
ENDROOT
BRANCH   1   7
ATOM      7  C5  ZIN A   1      17.691   2.825  11.857  0.00  0.00     0.277 C 
BRANCH   7   8
ATOM      8  C4  ZIN A   1      19.073   3.008  12.487  0.00  0.00     0.076 C 
BRANCH   8   9
ATOM      9  C3  ZIN A   1      18.991   2.735  13.967  0.00  0.00     0.036 A 
ATOM     10  C2  ZIN A   1      19.269   1.498  14.466  0.00  0.00     0.044 A 
ATOM     11  C1  ZIN A   1      19.673   0.380  13.540  0.00  0.00     0.071 C 
ATOM     12  N32 ZIN A   1      19.175   1.282  15.776  0.00  0.00    -0.237 NA
ATOM     13  C31 ZIN A   1      18.840   2.228  16.627  0.00  0.00     0.138 A 
ATOM     14  N24 ZIN A   1      18.575   3.472  16.198  0.00  0.00    -0.300 N 
ATOM     15  C28 ZIN A   1      18.767   1.834  18.082  0.00  0.00     0.188 C 
ATOM     16  C22 ZIN A   1      18.625   3.749  14.869  0.00  0.00     0.257 A 
ATOM     17  C25 ZIN A   1      18.238   4.581  17.092  0.00  0.00     0.134 C 
ATOM     18  O23 ZIN A   1      18.355   4.867  14.464  0.00  0.00    -0.267 OA
ATOM     19  C26 ZIN A   1      17.766   4.070  18.450  0.00  0.00     0.023 C 
ATOM     20  C27 ZIN A   1      18.806   3.073  18.975  0.00  0.00     0.041 C 
BRANCH  15  21
ATOM     21  O30 ZIN A   1      19.877   0.991  18.397  0.00  0.00    -0.388 OA
ATOM     22  H58 ZIN A   1      19.962   0.221  17.819  0.00  0.00     0.210 HD
ENDBRANCH  15  21
ENDBRANCH   8   9
ENDBRANCH   7   8
ENDBRANCH   1   7
BRANCH   4  23
ATOM     23  C10 ZIN A   1      18.938   0.081   7.026  0.00  0.00     0.079 A 
ATOM     24  C19 ZIN A   1      18.798  -1.299   6.555  0.00  0.00     0.027 A 
ATOM     25  C13 ZIN A   1      18.863  -1.248   5.152  0.00  0.00     0.116 A 
ATOM     26  C18 ZIN A   1      18.613  -2.525   7.199  0.00  0.00     0.019 A 
ATOM     27  O12 ZIN A   1      19.036   0.046   4.810  0.00  0.00    -0.212 OA
ATOM     28  C14 ZIN A   1      18.754  -2.423   4.419  0.00  0.00     0.082 A 
ATOM     29  N11 ZIN A   1      19.078   0.836   5.981  0.00  0.00    -0.131 NA
ATOM     30  C15 ZIN A   1      18.577  -3.625   5.075  0.00  0.00     0.119 A 
ATOM     31  F16 ZIN A   1      18.471  -4.767   4.361  0.00  0.00    -0.206 F 
ATOM     32  C17 ZIN A   1      18.508  -3.671   6.462  0.00  0.00     0.043 A 
ENDBRANCH   4  23
TORSDOF 5
ENDMDL
MODEL 4
REMARK VINA RESULT:      -9.3      1.701      2.120
REMARK  5 active torsions:
REMARK  status: ('A' for Active; 'I' for Inactive)
REMARK    1  A    between atoms: C3_3  and  C4_4 
REMARK    2  A    between atoms: C4_4  and  C5_5 
REMARK    3  A    between atoms: C5_5  and  N6_6 
REMARK    4  A    between atoms: C9_9  and  C10_10 
REMARK    5  A    between atoms: C28_28  and  O30_29 
ROOT
ATOM      1  N6  ZIN A   1      18.947   3.199  11.650  0.00  0.00     0.088 N 
ATOM      2  C7  ZIN A   1      20.184   2.409  11.661  0.00  0.00     0.273 C 
ATOM      3  C8  ZIN A   1      19.938   1.063  10.972  0.00  0.00     0.041 C 
ATOM      4  C9  ZIN A   1      19.480   1.308   9.532  0.00  0.00     0.044 C 
ATOM      5  C20 ZIN A   1      18.217   2.174   9.547  0.00  0.00     0.041 C 
ATOM      6  C21 ZIN A   1      18.512   3.487  10.276  0.00  0.00     0.273 C 
ENDROOT
BRANCH   1   7
ATOM      7  C5  ZIN A   1      19.106   4.437  12.422  0.00  0.00     0.277 C 
BRANCH   7   8
ATOM      8  C4  ZIN A   1      18.037   4.499  13.514  0.00  0.00     0.076 C 
BRANCH   8   9
ATOM      9  C3  ZIN A   1      18.421   3.582  14.646  0.00  0.00     0.036 A 
ATOM     10  C2  ZIN A   1      19.223   4.017  15.658  0.00  0.00     0.044 A 
ATOM     11  C1  ZIN A   1      19.734   5.435  15.665  0.00  0.00     0.071 C 
ATOM     12  N32 ZIN A   1      19.558   3.180  16.638  0.00  0.00    -0.237 NA
ATOM     13  C31 ZIN A   1      19.127   1.938  16.685  0.00  0.00     0.138 A 
ATOM     14  N24 ZIN A   1      18.317   1.457  15.729  0.00  0.00    -0.300 N 
ATOM     15  C28 ZIN A   1      19.595   1.103  17.853  0.00  0.00     0.188 C 
ATOM     16  C22 ZIN A   1      17.963   2.253  14.686  0.00  0.00     0.257 A 
ATOM     17  C25 ZIN A   1      17.768   0.100  15.741  0.00  0.00     0.134 C 
ATOM     18  O23 ZIN A   1      17.254   1.818  13.794  0.00  0.00    -0.267 OA
ATOM     19  C26 ZIN A   1      18.573  -0.812  16.660  0.00  0.00     0.023 C 
ATOM     20  C27 ZIN A   1      18.704  -0.125  18.025  0.00  0.00     0.041 C 
BRANCH  15  21
ATOM     21  O30 ZIN A   1      19.545   1.892  19.043  0.00  0.00    -0.388 OA
ATOM     22  H58 ZIN A   1      18.668   2.249  19.243  0.00  0.00     0.210 HD
ENDBRANCH  15  21
ENDBRANCH   8   9
ENDBRANCH   7   8
ENDBRANCH   1   7
BRANCH   4  23
ATOM     23  C10 ZIN A   1      19.179  -0.010   8.868  0.00  0.00     0.079 A 
ATOM     24  C19 ZIN A   1      18.782  -0.207   7.471  0.00  0.00     0.027 A 
ATOM     25  C13 ZIN A   1      18.612  -1.592   7.298  0.00  0.00     0.116 A 
ATOM     26  C18 ZIN A   1      18.584   0.659   6.393  0.00  0.00     0.019 A 
ATOM     27  O12 ZIN A   1      18.872  -2.174   8.487  0.00  0.00    -0.212 OA
ATOM     28  C14 ZIN A   1      18.234  -2.083   6.056  0.00  0.00     0.082 A 
ATOM     29  N11 ZIN A   1      19.217  -1.179   9.429  0.00  0.00    -0.131 NA
ATOM     30  C15 ZIN A   1      18.037  -1.211   5.004  0.00  0.00     0.119 A 
ATOM     31  F16 ZIN A   1      17.670  -1.691   3.796  0.00  0.00    -0.206 F 
ATOM     32  C17 ZIN A   1      18.212   0.157   5.178  0.00  0.00     0.043 A 
ENDBRANCH   4  23
TORSDOF 5
ENDMDL
MODEL 5
REMARK VINA RESULT:      -9.3      2.456      2.923
REMARK  5 active torsions:
REMARK  status: ('A' for Active; 'I' for Inactive)
REMARK    1  A    between atoms: C3_3  and  C4_4 
REMARK    2  A    between atoms: C4_4  and  C5_5 
REMARK    3  A    between atoms: C5_5  and  N6_6 
REMARK    4  A    between atoms: C9_9  and  C10_10 
REMARK    5  A    between atoms: C28_28  and  O30_29 
ROOT
ATOM      1  N6  ZIN A   1      18.777   2.037  11.383  0.00  0.00     0.088 N 
ATOM      2  C7  ZIN A   1      20.096   1.401  11.269  0.00  0.00     0.273 C 
ATOM      3  C8  ZIN A   1      19.931  -0.032  10.756  0.00  0.00     0.041 C 
ATOM      4  C9  ZIN A   1      19.239  -0.004   9.391  0.00  0.00     0.044 C 
ATOM      5  C20 ZIN A   1      17.889   0.706   9.527  0.00  0.00     0.041 C 
ATOM      6  C21 ZIN A   1      18.112   2.118  10.075  0.00  0.00     0.273 C 
ENDROOT
BRANCH   1   7
ATOM      7  C5  ZIN A   1      18.883   3.364  12.002  0.00  0.00     0.277 C 
BRANCH   7   8
ATOM      8  C4  ZIN A   1      17.799   3.517  13.070  0.00  0.00     0.076 C 
BRANCH   8   9
ATOM      9  C3  ZIN A   1      18.257   2.865  14.349  0.00  0.00     0.036 A 
ATOM     10  C2  ZIN A   1      18.975   3.563  15.273  0.00  0.00     0.044 A 
ATOM     11  C1  ZIN A   1      19.315   5.011  15.032  0.00  0.00     0.071 C 
ATOM     12  N32 ZIN A   1      19.378   2.956  16.387  0.00  0.00    -0.237 NA
ATOM     13  C31 ZIN A   1      19.094   1.699  16.650  0.00  0.00     0.138 A 
ATOM     14  N24 ZIN A   1      18.374   0.964  15.789  0.00  0.00    -0.300 N 
ATOM     15  C28 ZIN A   1      19.625   1.143  17.950  0.00  0.00     0.188 C 
ATOM     16  C22 ZIN A   1      17.957   1.517  14.620  0.00  0.00     0.257 A 
ATOM     17  C25 ZIN A   1      17.987  -0.426  16.037  0.00  0.00     0.134 C 
ATOM     18  O23 ZIN A   1      17.329   0.852  13.814  0.00  0.00    -0.267 OA
ATOM     19  C26 ZIN A   1      18.869  -1.060  17.107  0.00  0.00     0.023 C 
ATOM     20  C27 ZIN A   1      18.880  -0.135  18.330  0.00  0.00     0.041 C 
BRANCH  15  21
ATOM     21  O30 ZIN A   1      19.450   2.115  18.982  0.00  0.00    -0.388 OA
ATOM     22  H58 ZIN A   1      18.526   2.333  19.166  0.00  0.00     0.210 HD
ENDBRANCH  15  21
ENDBRANCH   8   9
ENDBRANCH   7   8
ENDBRANCH   1   7
BRANCH   4  23
ATOM     23  C10 ZIN A   1      19.020  -1.414   8.909  0.00  0.00     0.079 A 
ATOM     24  C19 ZIN A   1      18.457  -2.520   9.688  0.00  0.00     0.027 A 
ATOM     25  C13 ZIN A   1      18.438  -3.638   8.835  0.00  0.00     0.116 A 
ATOM     26  C18 ZIN A   1      17.970  -2.632  10.993  0.00  0.00     0.019 A 
ATOM     27  O12 ZIN A   1      18.954  -3.242   7.653  0.00  0.00    -0.212 OA
ATOM     28  C14 ZIN A   1      17.947  -4.848   9.306  0.00  0.00     0.082 A 
ATOM     29  N11 ZIN A   1      19.301  -1.874   7.729  0.00  0.00    -0.131 NA
ATOM     30  C15 ZIN A   1      17.475  -4.939  10.601  0.00  0.00     0.119 A 
ATOM     31  F16 ZIN A   1      16.997  -6.118  11.057  0.00  0.00    -0.206 F 
ATOM     32  C17 ZIN A   1      17.490  -3.831  11.439  0.00  0.00     0.043 A 
ENDBRANCH   4  23
TORSDOF 5
ENDMDL
MODEL 6
REMARK VINA RESULT:      -9.3      2.392      3.931
REMARK  5 active torsions:
REMARK  status: ('A' for Active; 'I' for Inactive)
REMARK    1  A    between atoms: C3_3  and  C4_4 
REMARK    2  A    between atoms: C4_4  and  C5_5 
REMARK    3  A    between atoms: C5_5  and  N6_6 
REMARK    4  A    between atoms: C9_9  and  C10_10 
REMARK    5  A    between atoms: C28_28  and  O30_29 
ROOT
ATOM      1  N6  ZIN A   1      19.232  -1.556  12.960  0.00  0.00     0.088 N 
ATOM      2  C7  ZIN A   1      19.888  -0.565  12.098  0.00  0.00     0.273 C 
ATOM      3  C8  ZIN A   1      19.882  -1.062  10.650  0.00  0.00     0.041 C 
ATOM      4  C9  ZIN A   1      18.437  -1.285  10.197  0.00  0.00     0.044 C 
ATOM      5  C20 ZIN A   1      17.763  -2.285  11.140  0.00  0.00     0.041 C 
ATOM      6  C21 ZIN A   1      17.829  -1.752  12.573  0.00  0.00     0.273 C 
ENDROOT
BRANCH   1   7
ATOM      7  C5  ZIN A   1      19.341  -1.178  14.375  0.00  0.00     0.277 C 
BRANCH   7   8
ATOM      8  C4  ZIN A   1      18.055  -0.476  14.815  0.00  0.00     0.076 C 
BRANCH   8   9
ATOM      9  C3  ZIN A   1      18.339   0.983  15.065  0.00  0.00     0.036 A 
ATOM     10  C2  ZIN A   1      18.856   1.401  16.254  0.00  0.00     0.044 A 
ATOM     11  C1  ZIN A   1      19.163   0.403  17.341  0.00  0.00     0.071 C 
ATOM     12  N32 ZIN A   1      19.084   2.698  16.452  0.00  0.00    -0.237 NA
ATOM     13  C31 ZIN A   1      18.846   3.606  15.530  0.00  0.00     0.138 A 
ATOM     14  N24 ZIN A   1      18.357   3.254  14.332  0.00  0.00    -0.300 N 
ATOM     15  C28 ZIN A   1      19.147   5.039  15.900  0.00  0.00     0.188 C 
ATOM     16  C22 ZIN A   1      18.076   1.949  14.078  0.00  0.00     0.257 A 
ATOM     17  C25 ZIN A   1      18.109   4.206  13.248  0.00  0.00     0.134 C 
ATOM     18  O23 ZIN A   1      17.600   1.620  13.005  0.00  0.00    -0.267 OA
ATOM     19  C26 ZIN A   1      18.014   5.633  13.778  0.00  0.00     0.023 C 
ATOM     20  C27 ZIN A   1      19.249   5.906  14.646  0.00  0.00     0.041 C 
BRANCH  15  21
ATOM     21  O30 ZIN A   1      20.385   5.091  16.611  0.00  0.00    -0.388 OA
ATOM     22  H58 ZIN A   1      20.879   5.913  16.481  0.00  0.00     0.210 HD
ENDBRANCH  15  21
ENDBRANCH   8   9
ENDBRANCH   7   8
ENDBRANCH   1   7
BRANCH   4  23
ATOM     23  C10 ZIN A   1      18.428  -1.832   8.793  0.00  0.00     0.079 A 
ATOM     24  C19 ZIN A   1      18.535  -1.051   7.557  0.00  0.00     0.027 A 
ATOM     25  C13 ZIN A   1      18.485  -1.974   6.499  0.00  0.00     0.116 A 
ATOM     26  C18 ZIN A   1      18.682   0.312   7.286  0.00  0.00     0.019 A 
ATOM     27  O12 ZIN A   1      18.350  -3.199   7.048  0.00  0.00    -0.212 OA
ATOM     28  C14 ZIN A   1      18.569  -1.518   5.190  0.00  0.00     0.082 A 
ATOM     29  N11 ZIN A   1      18.318  -3.079   8.456  0.00  0.00    -0.131 NA
ATOM     30  C15 ZIN A   1      18.708  -0.166   4.943  0.00  0.00     0.119 A 
ATOM     31  F16 ZIN A   1      18.790   0.275   3.669  0.00  0.00    -0.206 F 
ATOM     32  C17 ZIN A   1      18.763   0.743   5.993  0.00  0.00     0.043 A 
ENDBRANCH   4  23
TORSDOF 5
ENDMDL
MODEL 7
REMARK VINA RESULT:      -9.2      4.299     10.679
REMARK  5 active torsions:
REMARK  status: ('A' for Active; 'I' for Inactive)
REMARK    1  A    between atoms: C3_3  and  C4_4 
REMARK    2  A    between atoms: C4_4  and  C5_5 
REMARK    3  A    between atoms: C5_5  and  N6_6 
REMARK    4  A    between atoms: C9_9  and  C10_10 
REMARK    5  A    between atoms: C28_28  and  O30_29 
ROOT
ATOM      1  N6  ZIN A   1      18.439  -4.586  10.378  0.00  0.00     0.088 N 
ATOM      2  C7  ZIN A   1      19.650  -4.624  11.207  0.00  0.00     0.273 C 
ATOM      3  C8  ZIN A   1      19.927  -3.229  11.773  0.00  0.00     0.041 C 
ATOM      4  C9  ZIN A   1      18.728  -2.775  12.610  0.00  0.00     0.044 C 
ATOM      5  C20 ZIN A   1      17.471  -2.791  11.736  0.00  0.00     0.041 C 
ATOM      6  C21 ZIN A   1      17.265  -4.199  11.171  0.00  0.00     0.273 C 
ENDROOT
BRANCH   1   7
ATOM      7  C5  ZIN A   1      18.220  -5.873   9.707  0.00  0.00     0.277 C 
BRANCH   7   8
ATOM      8  C4  ZIN A   1      19.206  -6.019   8.547  0.00  0.00     0.076 C 
BRANCH   8   9
ATOM      9  C3  ZIN A   1      18.705  -5.238   7.360  0.00  0.00     0.036 A 
ATOM     10  C2  ZIN A   1      17.851  -5.802   6.461  0.00  0.00     0.044 A 
ATOM     11  C1  ZIN A   1      17.385  -7.223   6.646  0.00  0.00     0.071 C 
ATOM     12  N32 ZIN A   1      17.436  -5.092   5.414  0.00  0.00    -0.237 NA
ATOM     13  C31 ZIN A   1      17.803  -3.844   5.215  0.00  0.00     0.138 A 
ATOM     14  N24 ZIN A   1      18.625  -3.226   6.077  0.00  0.00    -0.300 N 
ATOM     15  C28 ZIN A   1      17.258  -3.167   3.981  0.00  0.00     0.188 C 
ATOM     16  C22 ZIN A   1      19.107  -3.906   7.150  0.00  0.00     0.257 A 
ATOM     17  C25 ZIN A   1      19.039  -1.829   5.940  0.00  0.00     0.134 C 
ATOM     18  O23 ZIN A   1      19.880  -3.367   7.923  0.00  0.00    -0.267 OA
ATOM     19  C26 ZIN A   1      18.832  -1.330   4.514  0.00  0.00     0.023 C 
ATOM     20  C27 ZIN A   1      17.390  -1.650   4.098  0.00  0.00     0.041 C 
BRANCH  15  21
ATOM     21  O30 ZIN A   1      15.879  -3.509   3.828  0.00  0.00    -0.388 OA
ATOM     22  H58 ZIN A   1      15.621  -4.322   4.284  0.00  0.00     0.210 HD
ENDBRANCH  15  21
ENDBRANCH   8   9
ENDBRANCH   7   8
ENDBRANCH   1   7
BRANCH   4  23
ATOM     23  C10 ZIN A   1      18.970  -1.378  13.120  0.00  0.00     0.079 A 
ATOM     24  C19 ZIN A   1      18.874  -0.936  14.514  0.00  0.00     0.027 A 
ATOM     25  C13 ZIN A   1      19.184   0.435  14.517  0.00  0.00     0.116 A 
ATOM     26  C18 ZIN A   1      18.576  -1.585  15.715  0.00  0.00     0.019 A 
ATOM     27  O12 ZIN A   1      19.433   0.788  13.239  0.00  0.00    -0.212 OA
ATOM     28  C14 ZIN A   1      19.177   1.134  15.717  0.00  0.00     0.082 A 
ATOM     29  N11 ZIN A   1      19.294  -0.346  12.406  0.00  0.00    -0.131 NA
ATOM     30  C15 ZIN A   1      18.875   0.475  16.892  0.00  0.00     0.119 A 
ATOM     31  F16 ZIN A   1      18.869   1.157  18.059  0.00  0.00    -0.206 F 
ATOM     32  C17 ZIN A   1      18.575  -0.882  16.886  0.00  0.00     0.043 A 
ENDBRANCH   4  23
TORSDOF 5
ENDMDL
MODEL 8
REMARK VINA RESULT:      -9.2      3.685     10.090
REMARK  5 active torsions:
REMARK  status: ('A' for Active; 'I' for Inactive)
REMARK    1  A    between atoms: C3_3  and  C4_4 
REMARK    2  A    between atoms: C4_4  and  C5_5 
REMARK    3  A    between atoms: C5_5  and  N6_6 
REMARK    4  A    between atoms: C9_9  and  C10_10 
REMARK    5  A    between atoms: C28_28  and  O30_29 
ROOT
ATOM      1  N6  ZIN A   1      18.385   0.897  11.210  0.00  0.00     0.088 N 
ATOM      2  C7  ZIN A   1      19.760   0.526  11.564  0.00  0.00     0.273 C 
ATOM      3  C8  ZIN A   1      19.910   0.507  13.087  0.00  0.00     0.041 C 
ATOM      4  C9  ZIN A   1      18.921  -0.500  13.680  0.00  0.00     0.044 C 
ATOM      5  C20 ZIN A   1      17.500  -0.118  13.257  0.00  0.00     0.041 C 
ATOM      6  C21 ZIN A   1      17.420  -0.081  11.729  0.00  0.00     0.273 C 
ENDROOT
BRANCH   1   7
ATOM      7  C5  ZIN A   1      18.240   1.060   9.758  0.00  0.00     0.277 C 
BRANCH   7   8
ATOM      8  C4  ZIN A   1      19.503   0.553   9.059  0.00  0.00     0.076 C 
BRANCH   8   9
ATOM      9  C3  ZIN A   1      19.128  -0.490   8.039  0.00  0.00     0.036 A 
ATOM     10  C2  ZIN A   1      18.878  -0.146   6.745  0.00  0.00     0.044 A 
ATOM     11  C1  ZIN A   1      18.982   1.294   6.310  0.00  0.00     0.071 C 
ATOM     12  N32 ZIN A   1      18.535  -1.087   5.868  0.00  0.00    -0.237 NA
ATOM     13  C31 ZIN A   1      18.445  -2.358   6.195  0.00  0.00     0.138 A 
ATOM     14  N24 ZIN A   1      18.699  -2.763   7.448  0.00  0.00    -0.300 N 
ATOM     15  C28 ZIN A   1      18.039  -3.312   5.097  0.00  0.00     0.188 C 
ATOM     16  C22 ZIN A   1      19.026  -1.847   8.397  0.00  0.00     0.257 A 
ATOM     17  C25 ZIN A   1      18.658  -4.164   7.870  0.00  0.00     0.134 C 
ATOM     18  O23 ZIN A   1      19.228  -2.197   9.547  0.00  0.00    -0.267 OA
ATOM     19  C26 ZIN A   1      17.856  -5.012   6.889  0.00  0.00     0.023 C 
ATOM     20  C27 ZIN A   1      18.392  -4.748   5.476  0.00  0.00     0.041 C 
BRANCH  15  21
ATOM     21  O30 ZIN A   1      18.723  -2.960   3.893  0.00  0.00    -0.388 OA
ATOM     22  H58 ZIN A   1      19.628  -3.299   3.841  0.00  0.00     0.210 HD
ENDBRANCH  15  21
ENDBRANCH   8   9
ENDBRANCH   7   8
ENDBRANCH   1   7
BRANCH   4  23
ATOM     23  C10 ZIN A   1      19.021  -0.479  15.184  0.00  0.00     0.079 A 
ATOM     24  C19 ZIN A   1      18.982   0.710  16.039  0.00  0.00     0.027 A 
ATOM     25  C13 ZIN A   1      19.106   0.251  17.362  0.00  0.00     0.116 A 
ATOM     26  C18 ZIN A   1      18.840   2.077  15.787  0.00  0.00     0.019 A 
ATOM     27  O12 ZIN A   1      19.219  -1.092  17.306  0.00  0.00    -0.212 OA
ATOM     28  C14 ZIN A   1      19.098   1.167  18.406  0.00  0.00     0.082 A 
ATOM     29  N11 ZIN A   1      19.164  -1.510  15.957  0.00  0.00    -0.131 NA
ATOM     30  C15 ZIN A   1      18.962   2.514  18.135  0.00  0.00     0.119 A 
ATOM     31  F16 ZIN A   1      18.954   3.403  19.152  0.00  0.00    -0.206 F 
ATOM     32  C17 ZIN A   1      18.834   2.963  16.826  0.00  0.00     0.043 A 
ENDBRANCH   4  23
TORSDOF 5
ENDMDL
MODEL 9
REMARK VINA RESULT:      -9.1      3.934      9.991
REMARK  5 active torsions:
REMARK  status: ('A' for Active; 'I' for Inactive)
REMARK    1  A    between atoms: C3_3  and  C4_4 
REMARK    2  A    between atoms: C4_4  and  C5_5 
REMARK    3  A    between atoms: C5_5  and  N6_6 
REMARK    4  A    between atoms: C9_9  and  C10_10 
REMARK    5  A    between atoms: C28_28  and  O30_29 
ROOT
ATOM      1  N6  ZIN A   1      18.154   0.260   9.447  0.00  0.00     0.088 N 
ATOM      2  C7  ZIN A   1      19.506   0.032   9.972  0.00  0.00     0.273 C 
ATOM      3  C8  ZIN A   1      19.657   0.736  11.322  0.00  0.00     0.041 C 
ATOM      4  C9  ZIN A   1      18.612   0.189  12.298  0.00  0.00     0.044 C 
ATOM      5  C20 ZIN A   1      17.215   0.395  11.706  0.00  0.00     0.041 C 
ATOM      6  C21 ZIN A   1      17.134  -0.299  10.344  0.00  0.00     0.273 C 
ENDROOT
BRANCH   1   7
ATOM      7  C5  ZIN A   1      18.017  -0.284   8.090  0.00  0.00     0.277 C 
BRANCH   7   8
ATOM      8  C4  ZIN A   1      19.259  -1.106   7.742  0.00  0.00     0.076 C 
BRANCH   8   9
ATOM      9  C3  ZIN A   1      18.841  -2.478   7.281  0.00  0.00     0.036 A 
ATOM     10  C2  ZIN A   1      18.773  -2.781   5.955  0.00  0.00     0.044 A 
ATOM     11  C1  ZIN A   1      19.127  -1.742   4.921  0.00  0.00     0.071 C 
ATOM     12  N32 ZIN A   1      18.387  -3.997   5.577  0.00  0.00    -0.237 NA
ATOM     13  C31 ZIN A   1      18.082  -4.943   6.440  0.00  0.00     0.138 A 
ATOM     14  N24 ZIN A   1      18.150  -4.713   7.760  0.00  0.00    -0.300 N 
ATOM     15  C28 ZIN A   1      17.654  -6.271   5.864  0.00  0.00     0.188 C 
ATOM     16  C22 ZIN A   1      18.509  -3.482   8.209  0.00  0.00     0.257 A 
ATOM     17  C25 ZIN A   1      17.865  -5.729   8.774  0.00  0.00     0.134 C 
ATOM     18  O23 ZIN A   1      18.543  -3.250   9.406  0.00  0.00    -0.267 OA
ATOM     19  C26 ZIN A   1      17.050  -6.877   8.189  0.00  0.00     0.023 C 
ATOM     20  C27 ZIN A   1      17.756  -7.370   6.920  0.00  0.00     0.041 C 
BRANCH  15  21
ATOM     21  O30 ZIN A   1      18.498  -6.599   4.759  0.00  0.00    -0.388 OA
ATOM     22  H58 ZIN A   1      19.416  -6.783   5.006  0.00  0.00     0.210 HD
ENDBRANCH  15  21
ENDBRANCH   8   9
ENDBRANCH   7   8
ENDBRANCH   1   7
BRANCH   4  23
ATOM     23  C10 ZIN A   1      18.715   0.920  13.611  0.00  0.00     0.079 A 
ATOM     24  C19 ZIN A   1      18.780   0.310  14.941  0.00  0.00     0.027 A 
ATOM     25  C13 ZIN A   1      18.872   1.369  15.860  0.00  0.00     0.116 A 
ATOM     26  C18 ZIN A   1      18.783  -1.011  15.398  0.00  0.00     0.019 A 
ATOM     27  O12 ZIN A   1      18.854   2.514  15.148  0.00  0.00    -0.212 OA
ATOM     28  C14 ZIN A   1      18.953   1.090  17.219  0.00  0.00     0.082 A 
ATOM     29  N11 ZIN A   1      18.758   2.206  13.772  0.00  0.00    -0.131 NA
ATOM     30  C15 ZIN A   1      18.949  -0.222  17.650  0.00  0.00     0.119 A 
ATOM     31  F16 ZIN A   1      19.028  -0.491  18.972  0.00  0.00    -0.206 F 
ATOM     32  C17 ZIN A   1      18.863  -1.266  16.738  0.00  0.00     0.043 A 
ENDBRANCH   4  23
TORSDOF 5
ENDMDL
