MODEL 1
REMARK VINA RESULT:      -8.5      0.000      0.000
REMARK  5 active torsions:
REMARK  status: ('A' for Active; 'I' for Inactive)
REMARK    1  A    between atoms: C2_2  and  C3_3 
REMARK    2  A    between atoms: C3_3  and  C4_4 
REMARK    3  A    between atoms: C4_4  and  C5_5 
REMARK    4  A    between atoms: C5_5  and  C6_6 
REMARK    5  A    between atoms: C8_8  and  O9_9 
ROOT
ATOM      1  C6  ZIN A   1      18.552  -0.727  14.858  0.00  0.00    -0.053 A 
ATOM      2  C7  ZIN A   1      17.888  -1.350  13.819  0.00  0.00     0.044 A 
ATOM      3  C8  ZIN A   1      17.653  -0.661  12.639  0.00  0.00     0.075 A 
ATOM      4  C10 ZIN A   1      18.087   0.649  12.498  0.00  0.00     0.017 A 
ATOM      5  C11 ZIN A   1      18.763   1.273  13.537  0.00  0.00     0.080 A 
ATOM      6  C12 ZIN A   1      18.983   0.577  14.722  0.00  0.00     0.044 A 
ATOM      7  O13 ZIN A   1      19.232   2.544  13.438  0.00  0.00    -0.340 OA
ATOM      8  C14 ZIN A   1      18.816   3.364  12.342  0.00  0.00     0.065 C 
ATOM      9  C15 ZIN A   1      17.388   3.862  12.580  0.00  0.00     0.046 C 
ATOM     10  C16 ZIN A   1      19.762   4.557  12.197  0.00  0.00     0.046 C 
ATOM     11  C17 ZIN A   1      18.861   2.510  11.079  0.00  0.00     0.032 C 
ATOM     12  C19 ZIN A   1      18.520   3.297   9.816  0.00  0.00     0.013 C 
ATOM     13  C20 ZIN A   1      18.771   2.380   8.613  0.00  0.00     0.034 C 
ATOM     14  C21 ZIN A   1      18.240   0.999   8.855  0.00  0.00    -0.087 C 
ATOM     15  C22 ZIN A   1      18.179   0.063   7.675  0.00  0.00     0.043 C 
ATOM     16  C23 ZIN A   1      17.828   0.543  10.002  0.00  0.00    -0.014 C 
ATOM     17  C24 ZIN A   1      17.820   1.397  11.228  0.00  0.00     0.054 C 
ENDROOT
BRANCH   1  18
ATOM     18  C5  ZIN A   1      18.804  -1.472  16.143  0.00  0.00     0.039 C 
BRANCH  18  19
ATOM     19  C4  ZIN A   1      18.174  -0.704  17.308  0.00  0.00     0.005 C 
BRANCH  19  20
ATOM     20  C3  ZIN A   1      19.279  -0.148  18.209  0.00  0.00    -0.000 C 
BRANCH  20  21
ATOM     21  C2  ZIN A   1      19.005   1.329  18.499  0.00  0.00    -0.005 C 
ATOM     22  C1  ZIN A   1      17.502   1.542  18.688  0.00  0.00     0.005 C 
ENDBRANCH  20  21
ENDBRANCH  19  20
ENDBRANCH  18  19
ENDBRANCH   1  18
BRANCH   3  23
ATOM     23  O9  ZIN A   1      16.997  -1.271  11.616  0.00  0.00    -0.360 OA
ATOM     24  H38 ZIN A   1      16.660  -2.150  11.836  0.00  0.00     0.217 HD
ENDBRANCH   3  23
TORSDOF 5
ENDMDL
MODEL 2
REMARK VINA RESULT:      -8.3      2.160      7.769
REMARK  5 active torsions:
REMARK  status: ('A' for Active; 'I' for Inactive)
REMARK    1  A    between atoms: C2_2  and  C3_3 
REMARK    2  A    between atoms: C3_3  and  C4_4 
REMARK    3  A    between atoms: C4_4  and  C5_5 
REMARK    4  A    between atoms: C5_5  and  C6_6 
REMARK    5  A    between atoms: C8_8  and  O9_9 
ROOT
ATOM      1  C6  ZIN A   1      18.784   1.042   8.196  0.00  0.00    -0.053 A 
ATOM      2  C7  ZIN A   1      18.157   1.865   9.112  0.00  0.00     0.044 A 
ATOM      3  C8  ZIN A   1      17.952   1.423  10.411  0.00  0.00     0.075 A 
ATOM      4  C10 ZIN A   1      18.377   0.160  10.792  0.00  0.00     0.017 A 
ATOM      5  C11 ZIN A   1      19.016  -0.665   9.877  0.00  0.00     0.080 A 
ATOM      6  C12 ZIN A   1      19.206  -0.216   8.573  0.00  0.00     0.044 A 
ATOM      7  O13 ZIN A   1      19.477  -1.899  10.209  0.00  0.00    -0.340 OA
ATOM      8  C14 ZIN A   1      19.086  -2.483  11.455  0.00  0.00     0.065 C 
ATOM      9  C15 ZIN A   1      17.647  -2.996  11.360  0.00  0.00     0.046 C 
ATOM     10  C16 ZIN A   1      20.025  -3.639  11.804  0.00  0.00     0.046 C 
ATOM     11  C17 ZIN A   1      19.177  -1.400  12.526  0.00  0.00     0.032 C 
ATOM     12  C19 ZIN A   1      18.868  -1.920  13.927  0.00  0.00     0.013 C 
ATOM     13  C20 ZIN A   1      19.163  -0.789  14.920  0.00  0.00     0.034 C 
ATOM     14  C21 ZIN A   1      18.637   0.525  14.428  0.00  0.00    -0.087 C 
ATOM     15  C22 ZIN A   1      18.622   1.674  15.403  0.00  0.00     0.043 C 
ATOM     16  C23 ZIN A   1      18.195   0.754  13.225  0.00  0.00    -0.014 C 
ATOM     17  C24 ZIN A   1      18.142  -0.321  12.191  0.00  0.00     0.054 C 
ENDROOT
BRANCH   1  18
ATOM     18  C5  ZIN A   1      19.003   1.518   6.784  0.00  0.00     0.039 C 
BRANCH  18  19
ATOM     19  C4  ZIN A   1      18.311   0.560   5.811  0.00  0.00     0.005 C 
BRANCH  19  20
ATOM     20  C3  ZIN A   1      19.348  -0.029   4.852  0.00  0.00    -0.000 C 
BRANCH  20  21
ATOM     21  C2  ZIN A   1      18.993  -1.486   4.549  0.00  0.00    -0.005 C 
ATOM     22  C1  ZIN A   1      17.477  -1.620   4.391  0.00  0.00     0.005 C 
ENDBRANCH  20  21
ENDBRANCH  19  20
ENDBRANCH  18  19
ENDBRANCH   1  18
BRANCH   3  23
ATOM     23  O9  ZIN A   1      17.333   2.231  11.312  0.00  0.00    -0.360 OA
ATOM     24  H38 ZIN A   1      17.390   1.917  12.224  0.00  0.00     0.217 HD
ENDBRANCH   3  23
TORSDOF 5
ENDMDL
MODEL 3
REMARK VINA RESULT:      -8.1      2.342      4.215
REMARK  5 active torsions:
REMARK  status: ('A' for Active; 'I' for Inactive)
REMARK    1  A    between atoms: C2_2  and  C3_3 
REMARK    2  A    between atoms: C3_3  and  C4_4 
REMARK    3  A    between atoms: C4_4  and  C5_5 
REMARK    4  A    between atoms: C5_5  and  C6_6 
REMARK    5  A    between atoms: C8_8  and  O9_9 
ROOT
ATOM      1  C6  ZIN A   1      19.227  -0.959  14.435  0.00  0.00    -0.053 A 
ATOM      2  C7  ZIN A   1      19.932  -0.021  13.706  0.00  0.00     0.044 A 
ATOM      3  C8  ZIN A   1      20.010  -0.135  12.326  0.00  0.00     0.075 A 
ATOM      4  C10 ZIN A   1      19.380  -1.186  11.677  0.00  0.00     0.017 A 
ATOM      5  C11 ZIN A   1      18.663  -2.124  12.406  0.00  0.00     0.080 A 
ATOM      6  C12 ZIN A   1      18.601  -2.007  13.791  0.00  0.00     0.044 A 
ATOM      7  O13 ZIN A   1      18.006  -3.156  11.815  0.00  0.00    -0.340 OA
ATOM      8  C14 ZIN A   1      18.248  -3.445  10.435  0.00  0.00     0.065 C 
ATOM      9  C15 ZIN A   1      19.594  -4.157  10.282  0.00  0.00     0.046 C 
ATOM     10  C16 ZIN A   1      17.129  -4.331   9.886  0.00  0.00     0.046 C 
ATOM     11  C17 ZIN A   1      18.276  -2.120   9.680  0.00  0.00     0.032 C 
ATOM     12  C19 ZIN A   1      18.441  -2.296   8.172  0.00  0.00     0.013 C 
ATOM     13  C20 ZIN A   1      18.279  -0.917   7.521  0.00  0.00     0.034 C 
ATOM     14  C21 ZIN A   1      19.020   0.140   8.281  0.00  0.00    -0.087 C 
ATOM     15  C22 ZIN A   1      19.168   1.489   7.626  0.00  0.00     0.043 C 
ATOM     16  C23 ZIN A   1      19.544  -0.012   9.463  0.00  0.00    -0.014 C 
ATOM     17  C24 ZIN A   1      19.477  -1.316  10.188  0.00  0.00     0.054 C 
ENDROOT
BRANCH   1  18
ATOM     18  C5  ZIN A   1      19.145  -0.841  15.934  0.00  0.00     0.039 C 
BRANCH  18  19
ATOM     19  C4  ZIN A   1      17.762  -1.293  16.406  0.00  0.00     0.005 C 
BRANCH  19  20
ATOM     20  C3  ZIN A   1      17.058  -0.131  17.110  0.00  0.00    -0.000 C 
BRANCH  20  21
ATOM     21  C2  ZIN A   1      18.048   0.580  18.035  0.00  0.00    -0.005 C 
ATOM     22  C1  ZIN A   1      17.318   1.666  18.827  0.00  0.00     0.005 C 
ENDBRANCH  20  21
ENDBRANCH  19  20
ENDBRANCH  18  19
ENDBRANCH   1  18
BRANCH   3  23
ATOM     23  O9  ZIN A   1      20.705   0.786  11.608  0.00  0.00    -0.360 OA
ATOM     24  H38 ZIN A   1      21.556   1.027  11.998  0.00  0.00     0.217 HD
ENDBRANCH   3  23
TORSDOF 5
ENDMDL
MODEL 4
REMARK VINA RESULT:      -8.0      3.819      6.199
REMARK  5 active torsions:
REMARK  status: ('A' for Active; 'I' for Inactive)
REMARK    1  A    between atoms: C2_2  and  C3_3 
REMARK    2  A    between atoms: C3_3  and  C4_4 
REMARK    3  A    between atoms: C4_4  and  C5_5 
REMARK    4  A    between atoms: C5_5  and  C6_6 
REMARK    5  A    between atoms: C8_8  and  O9_9 
ROOT
ATOM      1  C6  ZIN A   1      18.488   2.373  10.225  0.00  0.00    -0.053 A 
ATOM      2  C7  ZIN A   1      18.077   1.259  10.931  0.00  0.00     0.044 A 
ATOM      3  C8  ZIN A   1      17.960   0.037  10.285  0.00  0.00     0.075 A 
ATOM      4  C10 ZIN A   1      18.258  -0.069   8.935  0.00  0.00     0.017 A 
ATOM      5  C11 ZIN A   1      18.680   1.047   8.226  0.00  0.00     0.080 A 
ATOM      6  C12 ZIN A   1      18.782   2.271   8.881  0.00  0.00     0.044 A 
ATOM      7  O13 ZIN A   1      19.009   0.990   6.909  0.00  0.00    -0.340 OA
ATOM      8  C14 ZIN A   1      18.685  -0.181   6.154  0.00  0.00     0.065 C 
ATOM      9  C15 ZIN A   1      17.190  -0.190   5.826  0.00  0.00     0.046 C 
ATOM     10  C16 ZIN A   1      19.499  -0.206   4.859  0.00  0.00     0.046 C 
ATOM     11  C17 ZIN A   1      19.033  -1.397   7.008  0.00  0.00     0.032 C 
ATOM     12  C19 ZIN A   1      18.815  -2.720   6.278  0.00  0.00     0.013 C 
ATOM     13  C20 ZIN A   1      19.361  -3.840   7.170  0.00  0.00     0.034 C 
ATOM     14  C21 ZIN A   1      18.960  -3.649   8.601  0.00  0.00    -0.087 C 
ATOM     15  C22 ZIN A   1      19.201  -4.796   9.549  0.00  0.00     0.043 C 
ATOM     16  C23 ZIN A   1      18.422  -2.570   9.092  0.00  0.00    -0.014 C 
ATOM     17  C24 ZIN A   1      18.117  -1.386   8.235  0.00  0.00     0.054 C 
ENDROOT
BRANCH   1  18
ATOM     18  C5  ZIN A   1      18.610   3.702  10.923  0.00  0.00     0.039 C 
BRANCH  18  19
ATOM     19  C4  ZIN A   1      17.704   4.725  10.234  0.00  0.00     0.005 C 
BRANCH  19  20
ATOM     20  C3  ZIN A   1      16.523   5.057  11.148  0.00  0.00    -0.000 C 
BRANCH  20  21
ATOM     21  C2  ZIN A   1      16.933   4.848  12.608  0.00  0.00    -0.005 C 
ATOM     22  C1  ZIN A   1      16.291   5.930  13.479  0.00  0.00     0.005 C 
ENDBRANCH  20  21
ENDBRANCH  19  20
ENDBRANCH  18  19
ENDBRANCH   1  18
BRANCH   3  23
ATOM     23  O9  ZIN A   1      17.554  -1.060  10.977  0.00  0.00    -0.360 OA
ATOM     24  H38 ZIN A   1      16.820  -0.892  11.583  0.00  0.00     0.217 HD
ENDBRANCH   3  23
TORSDOF 5
ENDMDL
MODEL 5
REMARK VINA RESULT:      -8.0      2.005      6.948
REMARK  5 active torsions:
REMARK  status: ('A' for Active; 'I' for Inactive)
REMARK    1  A    between atoms: C2_2  and  C3_3 
REMARK    2  A    between atoms: C3_3  and  C4_4 
REMARK    3  A    between atoms: C4_4  and  C5_5 
REMARK    4  A    between atoms: C5_5  and  C6_6 
REMARK    5  A    between atoms: C8_8  and  O9_9 
ROOT
ATOM      1  C6  ZIN A   1      19.098   1.169   8.205  0.00  0.00    -0.053 A 
ATOM      2  C7  ZIN A   1      19.774   0.193   8.911  0.00  0.00     0.044 A 
ATOM      3  C8  ZIN A   1      19.911   0.306  10.287  0.00  0.00     0.075 A 
ATOM      4  C10 ZIN A   1      19.367   1.393  10.954  0.00  0.00     0.017 A 
ATOM      5  C11 ZIN A   1      18.679   2.370  10.247  0.00  0.00     0.080 A 
ATOM      6  C12 ZIN A   1      18.559   2.253   8.866  0.00  0.00     0.044 A 
ATOM      7  O13 ZIN A   1      18.105   3.440  10.858  0.00  0.00    -0.340 OA
ATOM      8  C14 ZIN A   1      18.415   3.718  12.227  0.00  0.00     0.065 C 
ATOM      9  C15 ZIN A   1      19.805   4.351  12.326  0.00  0.00     0.046 C 
ATOM     10  C16 ZIN A   1      17.370   4.669  12.812  0.00  0.00     0.046 C 
ATOM     11  C17 ZIN A   1      18.395   2.395  12.987  0.00  0.00     0.032 C 
ATOM     12  C19 ZIN A   1      18.625   2.566  14.486  0.00  0.00     0.013 C 
ATOM     13  C20 ZIN A   1      18.408   1.201  15.149  0.00  0.00     0.034 C 
ATOM     14  C21 ZIN A   1      19.058   0.100  14.368  0.00  0.00    -0.087 C 
ATOM     15  C22 ZIN A   1      19.153  -1.254  15.023  0.00  0.00     0.043 C 
ATOM     16  C23 ZIN A   1      19.546   0.218  13.166  0.00  0.00    -0.014 C 
ATOM     17  C24 ZIN A   1      19.527   1.522  12.438  0.00  0.00     0.054 C 
ENDROOT
BRANCH   1  18
ATOM     18  C5  ZIN A   1      18.954   1.051   6.710  0.00  0.00     0.039 C 
BRANCH  18  19
ATOM     19  C4  ZIN A   1      17.668   0.288   6.381  0.00  0.00     0.005 C 
BRANCH  19  20
ATOM     20  C3  ZIN A   1      17.903  -0.603   5.160  0.00  0.00    -0.000 C 
BRANCH  20  21
ATOM     21  C2  ZIN A   1      19.311  -1.198   5.226  0.00  0.00    -0.005 C 
ATOM     22  C1  ZIN A   1      19.250  -2.585   5.870  0.00  0.00     0.005 C 
ENDBRANCH  20  21
ENDBRANCH  19  20
ENDBRANCH  18  19
ENDBRANCH   1  18
BRANCH   3  23
ATOM     23  O9  ZIN A   1      20.577  -0.652  10.984  0.00  0.00    -0.360 OA
ATOM     24  H38 ZIN A   1      20.047  -1.079  11.670  0.00  0.00     0.217 HD
ENDBRANCH   3  23
TORSDOF 5
ENDMDL
MODEL 6
REMARK VINA RESULT:      -7.7      2.629      6.088
REMARK  5 active torsions:
REMARK  status: ('A' for Active; 'I' for Inactive)
REMARK    1  A    between atoms: C2_2  and  C3_3 
REMARK    2  A    between atoms: C3_3  and  C4_4 
REMARK    3  A    between atoms: C4_4  and  C5_5 
REMARK    4  A    between atoms: C5_5  and  C6_6 
REMARK    5  A    between atoms: C8_8  and  O9_9 
ROOT
ATOM      1  C6  ZIN A   1      17.865  -1.618  11.634  0.00  0.00    -0.053 A 
ATOM      2  C7  ZIN A   1      17.508  -0.317  11.334  0.00  0.00     0.044 A 
ATOM      3  C8  ZIN A   1      17.523   0.649  12.328  0.00  0.00     0.075 A 
ATOM      4  C10 ZIN A   1      17.899   0.314  13.620  0.00  0.00     0.017 A 
ATOM      5  C11 ZIN A   1      18.268  -0.989  13.922  0.00  0.00     0.080 A 
ATOM      6  C12 ZIN A   1      18.237  -1.954  12.919  0.00  0.00     0.044 A 
ATOM      7  O13 ZIN A   1      18.670  -1.361  15.165  0.00  0.00    -0.340 OA
ATOM      8  C14 ZIN A   1      18.481  -0.464  16.263  0.00  0.00     0.065 C 
ATOM      9  C15 ZIN A   1      17.011  -0.468  16.689  0.00  0.00     0.046 C 
ATOM     10  C16 ZIN A   1      19.362  -0.890  17.439  0.00  0.00     0.046 C 
ATOM     11  C17 ZIN A   1      18.879   0.933  15.797  0.00  0.00     0.032 C 
ATOM     12  C19 ZIN A   1      18.806   1.976  16.909  0.00  0.00     0.013 C 
ATOM     13  C20 ZIN A   1      19.392   3.283  16.362  0.00  0.00     0.034 C 
ATOM     14  C21 ZIN A   1      18.902   3.567  14.975  0.00  0.00    -0.087 C 
ATOM     15  C22 ZIN A   1      19.183   4.934  14.407  0.00  0.00     0.043 C 
ATOM     16  C23 ZIN A   1      18.254   2.727  14.220  0.00  0.00    -0.014 C 
ATOM     17  C24 ZIN A   1      17.901   1.357  14.697  0.00  0.00     0.054 C 
ENDROOT
BRANCH   1  18
ATOM     18  C5  ZIN A   1      17.844  -2.671  10.557  0.00  0.00     0.039 C 
BRANCH  18  19
ATOM     19  C4  ZIN A   1      19.059  -3.587  10.717  0.00  0.00     0.005 C 
BRANCH  19  20
ATOM     20  C3  ZIN A   1      18.694  -5.002  10.261  0.00  0.00    -0.000 C 
BRANCH  20  21
ATOM     21  C2  ZIN A   1      17.307  -5.367  10.794  0.00  0.00    -0.005 C 
ATOM     22  C1  ZIN A   1      17.414  -5.759  12.269  0.00  0.00     0.005 C 
ENDBRANCH  20  21
ENDBRANCH  19  20
ENDBRANCH  18  19
ENDBRANCH   1  18
BRANCH   3  23
ATOM     23  O9  ZIN A   1      17.170   1.929  12.035  0.00  0.00    -0.360 OA
ATOM     24  H38 ZIN A   1      17.093   2.502  12.810  0.00  0.00     0.217 HD
ENDBRANCH   3  23
TORSDOF 5
ENDMDL
MODEL 7
REMARK VINA RESULT:      -7.6      2.669      5.009
REMARK  5 active torsions:
REMARK  status: ('A' for Active; 'I' for Inactive)
REMARK    1  A    between atoms: C2_2  and  C3_3 
REMARK    2  A    between atoms: C3_3  and  C4_4 
REMARK    3  A    between atoms: C4_4  and  C5_5 
REMARK    4  A    between atoms: C5_5  and  C6_6 
REMARK    5  A    between atoms: C8_8  and  O9_9 
ROOT
ATOM      1  C6  ZIN A   1      18.136   0.371  12.852  0.00  0.00    -0.053 A 
ATOM      2  C7  ZIN A   1      19.007   0.766  11.855  0.00  0.00     0.044 A 
ATOM      3  C8  ZIN A   1      19.286  -0.094  10.802  0.00  0.00     0.075 A 
ATOM      4  C10 ZIN A   1      18.690  -1.344  10.747  0.00  0.00     0.017 A 
ATOM      5  C11 ZIN A   1      17.807  -1.739  11.742  0.00  0.00     0.080 A 
ATOM      6  C12 ZIN A   1      17.544  -0.874  12.800  0.00  0.00     0.044 A 
ATOM      7  O13 ZIN A   1      17.176  -2.942  11.719  0.00  0.00    -0.340 OA
ATOM      8  C14 ZIN A   1      17.605  -3.942  10.790  0.00  0.00     0.065 C 
ATOM      9  C15 ZIN A   1      18.905  -4.583  11.280  0.00  0.00     0.046 C 
ATOM     10  C16 ZIN A   1      16.522  -5.013  10.645  0.00  0.00     0.046 C 
ATOM     11  C17 ZIN A   1      17.840  -3.259   9.446  0.00  0.00     0.032 C 
ATOM     12  C19 ZIN A   1      18.219  -4.238   8.338  0.00  0.00     0.013 C 
ATOM     13  C20 ZIN A   1      18.255  -3.457   7.018  0.00  0.00     0.034 C 
ATOM     14  C21 ZIN A   1      18.944  -2.137   7.179  0.00  0.00    -0.087 C 
ATOM     15  C22 ZIN A   1      19.284  -1.375   5.924  0.00  0.00     0.043 C 
ATOM     16  C23 ZIN A   1      19.270  -1.594   8.316  0.00  0.00    -0.014 C 
ATOM     17  C24 ZIN A   1      19.003  -2.277   9.617  0.00  0.00     0.054 C 
ENDROOT
BRANCH   1  18
ATOM     18  C5  ZIN A   1      17.836   1.300  13.999  0.00  0.00     0.039 C 
BRANCH  18  19
ATOM     19  C4  ZIN A   1      18.514   0.778  15.268  0.00  0.00     0.005 C 
BRANCH  19  20
ATOM     20  C3  ZIN A   1      17.447   0.325  16.267  0.00  0.00    -0.000 C 
BRANCH  20  21
ATOM     21  C2  ZIN A   1      17.566  -1.184  16.491  0.00  0.00    -0.005 C 
ATOM     22  C1  ZIN A   1      19.007  -1.627  16.228  0.00  0.00     0.005 C 
ENDBRANCH  20  21
ENDBRANCH  19  20
ENDBRANCH  18  19
ENDBRANCH   1  18
BRANCH   3  23
ATOM     23  O9  ZIN A   1      20.144   0.292   9.822  0.00  0.00    -0.360 OA
ATOM     24  H38 ZIN A   1      19.890  -0.005   8.938  0.00  0.00     0.217 HD
ENDBRANCH   3  23
TORSDOF 5
ENDMDL
MODEL 8
REMARK VINA RESULT:      -7.5      1.919      7.282
REMARK  5 active torsions:
REMARK  status: ('A' for Active; 'I' for Inactive)
REMARK    1  A    between atoms: C2_2  and  C3_3 
REMARK    2  A    between atoms: C3_3  and  C4_4 
REMARK    3  A    between atoms: C4_4  and  C5_5 
REMARK    4  A    between atoms: C5_5  and  C6_6 
REMARK    5  A    between atoms: C8_8  and  O9_9 
ROOT
ATOM      1  C6  ZIN A   1      18.936   1.865   8.974  0.00  0.00    -0.053 A 
ATOM      2  C7  ZIN A   1      18.498   3.085   9.451  0.00  0.00     0.044 A 
ATOM      3  C8  ZIN A   1      18.290   3.260  10.811  0.00  0.00     0.075 A 
ATOM      4  C10 ZIN A   1      18.524   2.215  11.692  0.00  0.00     0.017 A 
ATOM      5  C11 ZIN A   1      18.973   0.991  11.216  0.00  0.00     0.080 A 
ATOM      6  C12 ZIN A   1      19.167   0.823   9.848  0.00  0.00     0.044 A 
ATOM      7  O13 ZIN A   1      19.244  -0.054  12.040  0.00  0.00    -0.340 OA
ATOM      8  C14 ZIN A   1      18.827   0.003  13.408  0.00  0.00     0.065 C 
ATOM      9  C15 ZIN A   1      17.321  -0.253  13.503  0.00  0.00     0.046 C 
ATOM     10  C16 ZIN A   1      19.583  -1.046  14.225  0.00  0.00     0.046 C 
ATOM     11  C17 ZIN A   1      19.147   1.399  13.934  0.00  0.00     0.032 C 
ATOM     12  C19 ZIN A   1      18.829   1.564  15.417  0.00  0.00     0.013 C 
ATOM     13  C20 ZIN A   1      19.354   2.936  15.857  0.00  0.00     0.034 C 
ATOM     14  C21 ZIN A   1      19.024   3.998  14.853  0.00  0.00    -0.087 C 
ATOM     15  C22 ZIN A   1      19.245   5.432  15.262  0.00  0.00     0.043 C 
ATOM     16  C23 ZIN A   1      18.565   3.782  13.654  0.00  0.00    -0.014 C 
ATOM     17  C24 ZIN A   1      18.286   2.401  13.159  0.00  0.00     0.054 C 
ENDROOT
BRANCH   1  18
ATOM     18  C5  ZIN A   1      19.157   1.671   7.496  0.00  0.00     0.039 C 
BRANCH  18  19
ATOM     19  C4  ZIN A   1      18.910   0.205   7.133  0.00  0.00     0.005 C 
BRANCH  19  20
ATOM     20  C3  ZIN A   1      17.580   0.082   6.386  0.00  0.00    -0.000 C 
BRANCH  20  21
ATOM     21  C2  ZIN A   1      17.786  -0.737   5.109  0.00  0.00    -0.005 C 
ATOM     22  C1  ZIN A   1      19.278  -0.788   4.771  0.00  0.00     0.005 C 
ENDBRANCH  20  21
ENDBRANCH  19  20
ENDBRANCH  18  19
ENDBRANCH   1  18
BRANCH   3  23
ATOM     23  O9  ZIN A   1      17.857   4.459  11.282  0.00  0.00    -0.360 OA
ATOM     24  H38 ZIN A   1      18.432   4.847  11.957  0.00  0.00     0.217 HD
ENDBRANCH   3  23
TORSDOF 5
ENDMDL
MODEL 9
REMARK VINA RESULT:      -7.4      1.969      6.336
REMARK  5 active torsions:
REMARK  status: ('A' for Active; 'I' for Inactive)
REMARK    1  A    between atoms: C2_2  and  C3_3 
REMARK    2  A    between atoms: C3_3  and  C4_4 
REMARK    3  A    between atoms: C4_4  and  C5_5 
REMARK    4  A    between atoms: C5_5  and  C6_6 
REMARK    5  A    between atoms: C8_8  and  O9_9 
ROOT
ATOM      1  C6  ZIN A   1      17.978  -1.771  11.625  0.00  0.00    -0.053 A 
ATOM      2  C7  ZIN A   1      17.572  -0.487  11.314  0.00  0.00     0.044 A 
ATOM      3  C8  ZIN A   1      17.546   0.487  12.301  0.00  0.00     0.075 A 
ATOM      4  C10 ZIN A   1      17.930   0.176  13.597  0.00  0.00     0.017 A 
ATOM      5  C11 ZIN A   1      18.347  -1.110  13.909  0.00  0.00     0.080 A 
ATOM      6  C12 ZIN A   1      18.357  -2.083  12.914  0.00  0.00     0.044 A 
ATOM      7  O13 ZIN A   1      18.759  -1.457  15.157  0.00  0.00    -0.340 OA
ATOM      8  C14 ZIN A   1      18.530  -0.560  16.248  0.00  0.00     0.065 C 
ATOM      9  C15 ZIN A   1      17.060  -0.617  16.668  0.00  0.00     0.046 C 
ATOM     10  C16 ZIN A   1      19.422  -0.943  17.430  0.00  0.00     0.046 C 
ATOM     11  C17 ZIN A   1      18.877   0.848  15.772  0.00  0.00     0.032 C 
ATOM     12  C19 ZIN A   1      18.759   1.895  16.876  0.00  0.00     0.013 C 
ATOM     13  C20 ZIN A   1      19.297   3.220  16.321  0.00  0.00     0.034 C 
ATOM     14  C21 ZIN A   1      18.801   3.475  14.931  0.00  0.00    -0.087 C 
ATOM     15  C22 ZIN A   1      19.031   4.848  14.353  0.00  0.00     0.043 C 
ATOM     16  C23 ZIN A   1      18.189   2.605  14.180  0.00  0.00    -0.014 C 
ATOM     17  C24 ZIN A   1      17.888   1.225  14.665  0.00  0.00     0.054 C 
ENDROOT
BRANCH   1  18
ATOM     18  C5  ZIN A   1      18.002  -2.832  10.556  0.00  0.00     0.039 C 
BRANCH  18  19
ATOM     19  C4  ZIN A   1      17.808  -2.178   9.185  0.00  0.00     0.005 C 
BRANCH  19  20
ATOM     20  C3  ZIN A   1      19.152  -2.113   8.458  0.00  0.00    -0.000 C 
BRANCH  20  21
ATOM     21  C2  ZIN A   1      19.090  -1.041   7.367  0.00  0.00    -0.005 C 
ATOM     22  C1  ZIN A   1      19.089   0.346   8.013  0.00  0.00     0.005 C 
ENDBRANCH  20  21
ENDBRANCH  19  20
ENDBRANCH  18  19
ENDBRANCH   1  18
BRANCH   3  23
ATOM     23  O9  ZIN A   1      17.145   1.749  11.997  0.00  0.00    -0.360 OA
ATOM     24  H38 ZIN A   1      16.364   1.787  11.429  0.00  0.00     0.217 HD
ENDBRANCH   3  23
TORSDOF 5
ENDMDL
