MODEL 1
REMARK VINA RESULT:      -8.7      0.000      0.000
REMARK  5 active torsions:
REMARK  status: ('A' for Active; 'I' for Inactive)
REMARK    1  A    between atoms: O2_2  and  C3_3 
REMARK    2  A    between atoms: C5_4  and  N7_5 
REMARK       I    between atoms: N7_5  and  C9_7 
REMARK    3  A    between atoms: C9_7  and  C11_9 
REMARK    4  A    between atoms: C18_16  and  N40_37 
REMARK    5  A    between atoms: C21_18  and  N23_20 
ROOT
ATOM      1  C3  ZIN A   1      19.960  -0.606  11.910  0.00  0.00     0.199 C 
ATOM      2  C5  ZIN A   1      18.596  -1.212  12.262  0.00  0.00     0.124 C 
ATOM      3  C17 ZIN A   1      18.635  -1.650  13.730  0.00  0.00     0.082 C 
ATOM      4  C18 ZIN A   1      18.920  -0.440  14.610  0.00  0.00     0.233 C 
ATOM      5  O20 ZIN A   1      20.038   0.298  14.172  0.00  0.00    -0.333 OA
ATOM      6  C21 ZIN A   1      20.229   0.591  12.814  0.00  0.00     0.168 C 
ATOM      7  C22 ZIN A   1      21.698   0.985  12.639  0.00  0.00     0.074 C 
ENDROOT
BRANCH   2   8
ATOM      8  N7  ZIN A   1      17.545  -0.209  12.070  0.00  0.00    -0.345 N 
ATOM      9  C8  ZIN A   1      17.365   0.862  13.052  0.00  0.00     0.153 C 
ATOM     10  C9  ZIN A   1      16.743  -0.273  10.989  0.00  0.00     0.253 C 
ATOM     11  O10 ZIN A   1      15.628   0.211  11.029  0.00  0.00    -0.267 OA
BRANCH  10  12
ATOM     12  C11 ZIN A   1      17.217  -0.933   9.753  0.00  0.00     0.032 A 
ATOM     13  C16 ZIN A   1      17.249  -0.227   8.550  0.00  0.00     0.017 A 
ATOM     14  C15 ZIN A   1      17.699  -0.847   7.402  0.00  0.00     0.001 A 
ATOM     15  C14 ZIN A   1      18.104  -2.169   7.440  0.00  0.00     0.000 A 
ATOM     16  C13 ZIN A   1      18.069  -2.876   8.628  0.00  0.00     0.001 A 
ATOM     17  C12 ZIN A   1      17.628  -2.266   9.785  0.00  0.00     0.017 A 
ENDBRANCH  10  12
ENDBRANCH   2   8
BRANCH   1  18
ATOM     18  O2  ZIN A   1      19.956  -0.182  10.546  0.00  0.00    -0.384 OA
ATOM     19  C1  ZIN A   1      20.833  -0.931   9.702  0.00  0.00     0.202 C 
ENDBRANCH   1  18
BRANCH   6  20
ATOM     20  N23 ZIN A   1      19.433   1.738  12.371  0.00  0.00    -0.308 N 
ATOM     21  C31 ZIN A   1      18.815   2.640  13.224  0.00  0.00     0.077 A 
ATOM     22  C30 ZIN A   1      18.137   3.608  12.468  0.00  0.00     0.015 A 
ATOM     23  C32 ZIN A   1      18.786   2.698  14.622  0.00  0.00     0.077 A 
ATOM     24  C25 ZIN A   1      18.378   3.259  11.065  0.00  0.00     0.004 A 
ATOM     25  C42 ZIN A   1      17.431   4.619  13.110  0.00  0.00    -0.010 A 
ATOM     26  C24 ZIN A   1      19.182   2.099  11.069  0.00  0.00     0.049 A 
ATOM     27  C26 ZIN A   1      17.962   3.856   9.876  0.00  0.00     0.014 A 
ATOM     28  C29 ZIN A   1      19.591   1.515   9.871  0.00  0.00     0.030 A 
ATOM     29  C28 ZIN A   1      19.170   2.122   8.698  0.00  0.00     0.002 A 
ATOM     30  C27 ZIN A   1      18.379   3.257   8.699  0.00  0.00     0.001 A 
ATOM     31  C41 ZIN A   1      17.394   4.687  14.498  0.00  0.00     0.054 A 
ATOM     32  C43 ZIN A   1      16.609   5.778  12.602  0.00  0.00     0.163 A 
ATOM     33  C33 ZIN A   1      18.082   3.719  15.266  0.00  0.00     0.022 A 
ATOM     34  C45 ZIN A   1      16.576   5.849  14.884  0.00  0.00     0.253 A 
ATOM     35  C34 ZIN A   1      18.260   3.493  16.697  0.00  0.00     0.004 A 
ATOM     36  C39 ZIN A   1      19.061   2.335  16.828  0.00  0.00     0.048 A 
ATOM     37  C35 ZIN A   1      17.798   4.190  17.814  0.00  0.00     0.014 A 
ATOM     38  C38 ZIN A   1      19.412   1.853  18.089  0.00  0.00     0.030 A 
ATOM     39  N40 ZIN A   1      19.392   1.881  15.577  0.00  0.00    -0.316 N 
ATOM     40  C37 ZIN A   1      18.945   2.559  19.186  0.00  0.00     0.002 A 
ATOM     41  C36 ZIN A   1      18.163   3.693  19.054  0.00  0.00     0.001 A 
ATOM     42  N44 ZIN A   1      16.120   6.485  13.791  0.00  0.00    -0.353 N 
ATOM     43  O46 ZIN A   1      16.347   6.186  16.030  0.00  0.00    -0.268 OA
ATOM     44  H73 ZIN A   1      15.562   7.279  13.790  0.00  0.00     0.163 HD
ENDBRANCH   6  20
TORSDOF 5
ENDMDL
MODEL 2
REMARK VINA RESULT:      -8.2      6.834     11.206
REMARK  5 active torsions:
REMARK  status: ('A' for Active; 'I' for Inactive)
REMARK    1  A    between atoms: O2_2  and  C3_3 
REMARK    2  A    between atoms: C5_4  and  N7_5 
REMARK       I    between atoms: N7_5  and  C9_7 
REMARK    3  A    between atoms: C9_7  and  C11_9 
REMARK    4  A    between atoms: C18_16  and  N40_37 
REMARK    5  A    between atoms: C21_18  and  N23_20 
ROOT
ATOM      1  C3  ZIN A   1      15.121  -8.985   5.829  0.00  0.00     0.199 C 
ATOM      2  C5  ZIN A   1      13.892  -8.068   5.843  0.00  0.00     0.124 C 
ATOM      3  C17 ZIN A   1      13.522  -7.791   7.306  0.00  0.00     0.082 C 
ATOM      4  C18 ZIN A   1      14.696  -7.116   8.004  0.00  0.00     0.233 C 
ATOM      5  O20 ZIN A   1      15.911  -7.804   7.809  0.00  0.00    -0.333 OA
ATOM      6  C21 ZIN A   1      16.275  -8.294   6.548  0.00  0.00     0.168 C 
ATOM      7  C22 ZIN A   1      17.374  -9.336   6.768  0.00  0.00     0.074 C 
ENDROOT
BRANCH   2   8
ATOM      8  N7  ZIN A   1      14.206  -6.809   5.164  0.00  0.00    -0.345 N 
ATOM      9  C8  ZIN A   1      15.116  -5.845   5.789  0.00  0.00     0.153 C 
ATOM     10  C9  ZIN A   1      13.658  -6.537   3.963  0.00  0.00     0.253 C 
ATOM     11  O10 ZIN A   1      13.514  -5.382   3.608  0.00  0.00    -0.267 OA
BRANCH  10  12
ATOM     12  C11 ZIN A   1      13.230  -7.640   3.077  0.00  0.00     0.032 A 
ATOM     13  C16 ZIN A   1      13.781  -7.769   1.802  0.00  0.00     0.017 A 
ATOM     14  C15 ZIN A   1      13.382  -8.805   0.983  0.00  0.00     0.001 A 
ATOM     15  C14 ZIN A   1      12.428  -9.707   1.419  0.00  0.00     0.000 A 
ATOM     16  C13 ZIN A   1      11.873  -9.582   2.680  0.00  0.00     0.001 A 
ATOM     17  C12 ZIN A   1      12.268  -8.554   3.512  0.00  0.00     0.017 A 
ENDBRANCH  10  12
ENDBRANCH   2   8
BRANCH   1  18
ATOM     18  O2  ZIN A   1      15.496  -9.259   4.478  0.00  0.00    -0.384 OA
ATOM     19  C1  ZIN A   1      15.222 -10.597   4.059  0.00  0.00     0.202 C 
ENDBRANCH   1  18
BRANCH   6  20
ATOM     20  N23 ZIN A   1      16.847  -7.257   5.687  0.00  0.00    -0.308 N 
ATOM     21  C31 ZIN A   1      17.344  -6.046   6.143  0.00  0.00     0.077 A 
ATOM     22  C30 ZIN A   1      17.811  -5.294   5.054  0.00  0.00     0.015 A 
ATOM     23  C32 ZIN A   1      17.430  -5.527   7.440  0.00  0.00     0.077 A 
ATOM     24  C25 ZIN A   1      17.580  -6.122   3.868  0.00  0.00     0.004 A 
ATOM     25  C42 ZIN A   1      18.350  -4.029   5.266  0.00  0.00    -0.010 A 
ATOM     26  C24 ZIN A   1      16.986  -7.320   4.321  0.00  0.00     0.049 A 
ATOM     27  C26 ZIN A   1      17.844  -5.902   2.516  0.00  0.00     0.014 A 
ATOM     28  C29 ZIN A   1      16.644  -8.327   3.419  0.00  0.00     0.030 A 
ATOM     29  C28 ZIN A   1      16.914  -8.093   2.081  0.00  0.00     0.002 A 
ATOM     30  C27 ZIN A   1      17.495  -6.917   1.640  0.00  0.00     0.001 A 
ATOM     31  C41 ZIN A   1      18.440  -3.503   6.549  0.00  0.00     0.054 A 
ATOM     32  C43 ZIN A   1      18.919  -2.987   4.334  0.00  0.00     0.163 A 
ATOM     33  C33 ZIN A   1      17.979  -4.260   7.651  0.00  0.00     0.022 A 
ATOM     34  C45 ZIN A   1      19.045  -2.163   6.460  0.00  0.00     0.253 A 
ATOM     35  C34 ZIN A   1      17.925  -4.032   9.093  0.00  0.00     0.004 A 
ATOM     36  C39 ZIN A   1      17.334  -5.183   9.664  0.00  0.00     0.048 A 
ATOM     37  C35 ZIN A   1      18.334  -2.954   9.881  0.00  0.00     0.014 A 
ATOM     38  C38 ZIN A   1      17.141  -5.272  11.042  0.00  0.00     0.030 A 
ATOM     39  N40 ZIN A   1      17.065  -6.084   8.666  0.00  0.00    -0.316 N 
ATOM     40  C37 ZIN A   1      17.554  -4.194  11.807  0.00  0.00     0.002 A 
ATOM     41  C36 ZIN A   1      18.133  -3.070  11.246  0.00  0.00     0.001 A 
ATOM     42  N44 ZIN A   1      19.324  -1.860   5.181  0.00  0.00    -0.353 N 
ATOM     43  O46 ZIN A   1      19.261  -1.435   7.410  0.00  0.00    -0.268 OA
ATOM     44  H73 ZIN A   1      19.728  -1.034   4.870  0.00  0.00     0.163 HD
ENDBRANCH   6  20
TORSDOF 5
ENDMDL
MODEL 3
REMARK VINA RESULT:      -6.8      2.601      8.561
REMARK  5 active torsions:
REMARK  status: ('A' for Active; 'I' for Inactive)
REMARK    1  A    between atoms: O2_2  and  C3_3 
REMARK    2  A    between atoms: C5_4  and  N7_5 
REMARK       I    between atoms: N7_5  and  C9_7 
REMARK    3  A    between atoms: C9_7  and  C11_9 
REMARK    4  A    between atoms: C18_16  and  N40_37 
REMARK    5  A    between atoms: C21_18  and  N23_20 
ROOT
ATOM      1  C3  ZIN A   1      19.674   1.271  10.048  0.00  0.00     0.199 C 
ATOM      2  C5  ZIN A   1      18.180   1.497   9.785  0.00  0.00     0.124 C 
ATOM      3  C17 ZIN A   1      17.936   1.356   8.278  0.00  0.00     0.082 C 
ATOM      4  C18 ZIN A   1      18.349  -0.040   7.829  0.00  0.00     0.233 C 
ATOM      5  O20 ZIN A   1      19.643  -0.390   8.265  0.00  0.00    -0.333 OA
ATOM      6  C21 ZIN A   1      20.065  -0.124   9.575  0.00  0.00     0.168 C 
ATOM      7  C22 ZIN A   1      21.593  -0.206   9.582  0.00  0.00     0.074 C 
ENDROOT
BRANCH   2   8
ATOM      8  N7  ZIN A   1      17.394   0.498  10.512  0.00  0.00    -0.345 N 
ATOM      9  C8  ZIN A   1      17.312  -0.876  10.011  0.00  0.00     0.153 C 
ATOM     10  C9  ZIN A   1      16.744   0.843  11.641  0.00  0.00     0.253 C 
ATOM     11  O10 ZIN A   1      15.758   0.222  11.989  0.00  0.00    -0.267 OA
BRANCH  10  12
ATOM     12  C11 ZIN A   1      17.230   1.977  12.457  0.00  0.00     0.032 A 
ATOM     13  C16 ZIN A   1      17.606   1.774  13.785  0.00  0.00     0.017 A 
ATOM     14  C15 ZIN A   1      18.063   2.835  14.539  0.00  0.00     0.001 A 
ATOM     15  C14 ZIN A   1      18.138   4.100  13.984  0.00  0.00     0.000 A 
ATOM     16  C13 ZIN A   1      17.761   4.309  12.670  0.00  0.00     0.001 A 
ATOM     17  C12 ZIN A   1      17.307   3.255  11.903  0.00  0.00     0.017 A 
ENDBRANCH  10  12
ENDBRANCH   2   8
BRANCH   1  18
ATOM     18  O2  ZIN A   1      19.936   1.391  11.447  0.00  0.00    -0.384 OA
ATOM     19  C1  ZIN A   1      20.672   2.564  11.803  0.00  0.00     0.202 C 
ENDBRANCH   1  18
BRANCH   6  20
ATOM     20  N23 ZIN A   1      19.588  -1.125  10.531  0.00  0.00    -0.308 N 
ATOM     21  C31 ZIN A   1      19.040  -2.349  10.178  0.00  0.00     0.077 A 
ATOM     22  C30 ZIN A   1      18.689  -3.056  11.338  0.00  0.00     0.015 A 
ATOM     23  C32 ZIN A   1      18.814  -2.916   8.918  0.00  0.00     0.077 A 
ATOM     24  C25 ZIN A   1      19.063  -2.191  12.460  0.00  0.00     0.004 A 
ATOM     25  C42 ZIN A   1      18.108  -4.315  11.233  0.00  0.00    -0.010 A 
ATOM     26  C24 ZIN A   1      19.612  -1.017  11.901  0.00  0.00     0.049 A 
ATOM     27  C26 ZIN A   1      18.957  -2.363  13.840  0.00  0.00     0.014 A 
ATOM     28  C29 ZIN A   1      20.071   0.013  12.722  0.00  0.00     0.030 A 
ATOM     29  C28 ZIN A   1      19.960  -0.176  14.090  0.00  0.00     0.002 A 
ATOM     30  C27 ZIN A   1      19.419  -1.327  14.635  0.00  0.00     0.001 A 
ATOM     31  C41 ZIN A   1      17.878  -4.888   9.988  0.00  0.00     0.054 A 
ATOM     32  C43 ZIN A   1      17.619  -5.307  12.260  0.00  0.00     0.163 A 
ATOM     33  C33 ZIN A   1      18.238  -4.184   8.815  0.00  0.00     0.022 A 
ATOM     34  C45 ZIN A   1      17.259  -6.208  10.193  0.00  0.00     0.253 A 
ATOM     35  C34 ZIN A   1      18.151  -4.474   7.387  0.00  0.00     0.004 A 
ATOM     36  C39 ZIN A   1      18.677  -3.348   6.712  0.00  0.00     0.048 A 
ATOM     37  C35 ZIN A   1      17.674  -5.585   6.689  0.00  0.00     0.014 A 
ATOM     38  C38 ZIN A   1      18.732  -3.317   5.319  0.00  0.00     0.030 A 
ATOM     39  N40 ZIN A   1      19.096  -2.430   7.641  0.00  0.00    -0.316 N 
ATOM     40  C37 ZIN A   1      18.256  -4.429   4.645  0.00  0.00     0.002 A 
ATOM     41  C36 ZIN A   1      17.743  -5.530   5.307  0.00  0.00     0.001 A 
ATOM     42  N44 ZIN A   1      17.107  -6.457  11.504  0.00  0.00    -0.353 N 
ATOM     43  O46 ZIN A   1      16.932  -6.967   9.300  0.00  0.00    -0.268 OA
ATOM     44  H73 ZIN A   1      16.724  -7.262  11.888  0.00  0.00     0.163 HD
ENDBRANCH   6  20
TORSDOF 5
ENDMDL
MODEL 4
REMARK VINA RESULT:      -6.3      2.573      7.808
REMARK  5 active torsions:
REMARK  status: ('A' for Active; 'I' for Inactive)
REMARK    1  A    between atoms: O2_2  and  C3_3 
REMARK    2  A    between atoms: C5_4  and  N7_5 
REMARK       I    between atoms: N7_5  and  C9_7 
REMARK    3  A    between atoms: C9_7  and  C11_9 
REMARK    4  A    between atoms: C18_16  and  N40_37 
REMARK    5  A    between atoms: C21_18  and  N23_20 
ROOT
ATOM      1  C3  ZIN A   1      18.712  -2.759  12.411  0.00  0.00     0.199 C 
ATOM      2  C5  ZIN A   1      17.970  -1.826  13.375  0.00  0.00     0.124 C 
ATOM      3  C17 ZIN A   1      18.907  -1.509  14.546  0.00  0.00     0.082 C 
ATOM      4  C18 ZIN A   1      20.165  -0.833  14.017  0.00  0.00     0.233 C 
ATOM      5  O20 ZIN A   1      20.753  -1.540  12.949  0.00  0.00    -0.333 OA
ATOM      6  C21 ZIN A   1      19.974  -2.066  11.909  0.00  0.00     0.168 C 
ATOM      7  C22 ZIN A   1      20.827  -3.116  11.193  0.00  0.00     0.074 C 
ENDROOT
BRANCH   2   8
ATOM      8  N7  ZIN A   1      17.604  -0.588  12.682  0.00  0.00    -0.345 N 
ATOM      9  C8  ZIN A   1      17.127  -0.636  11.298  0.00  0.00     0.153 C 
ATOM     10  C9  ZIN A   1      17.707   0.595  13.319  0.00  0.00     0.253 C 
ATOM     11  O10 ZIN A   1      17.867   1.617  12.680  0.00  0.00    -0.267 OA
BRANCH  10  12
ATOM     12  C11 ZIN A   1      17.625   0.652  14.795  0.00  0.00     0.032 A 
ATOM     13  C16 ZIN A   1      16.743  -0.183  15.481  0.00  0.00     0.017 A 
ATOM     14  C15 ZIN A   1      16.677  -0.129  16.857  0.00  0.00     0.001 A 
ATOM     15  C14 ZIN A   1      17.474   0.760  17.557  0.00  0.00     0.000 A 
ATOM     16  C13 ZIN A   1      18.346   1.595  16.883  0.00  0.00     0.001 A 
ATOM     17  C12 ZIN A   1      18.427   1.546  15.506  0.00  0.00     0.017 A 
ENDBRANCH  10  12
ENDBRANCH   2   8
BRANCH   1  18
ATOM     18  O2  ZIN A   1      17.867  -3.071  11.302  0.00  0.00    -0.384 OA
ATOM     19  C1  ZIN A   1      16.924  -4.113  11.565  0.00  0.00     0.202 C 
ENDBRANCH   1  18
BRANCH   6  20
ATOM     20  N23 ZIN A   1      19.622  -1.058  10.907  0.00  0.00    -0.308 N 
ATOM     21  C31 ZIN A   1      19.138  -1.348   9.640  0.00  0.00     0.077 A 
ATOM     22  C30 ZIN A   1      18.908  -0.151   8.944  0.00  0.00     0.015 A 
ATOM     23  C32 ZIN A   1      18.873  -2.577   9.025  0.00  0.00     0.077 A 
ATOM     24  C25 ZIN A   1      19.277   0.925   9.867  0.00  0.00     0.004 A 
ATOM     25  C42 ZIN A   1      18.427  -0.191   7.640  0.00  0.00    -0.010 A 
ATOM     26  C24 ZIN A   1      19.708   0.305  11.060  0.00  0.00     0.049 A 
ATOM     27  C26 ZIN A   1      19.256   2.313   9.730  0.00  0.00     0.014 A 
ATOM     28  C29 ZIN A   1      20.127   1.072  12.146  0.00  0.00     0.030 A 
ATOM     29  C28 ZIN A   1      20.098   2.448  11.994  0.00  0.00     0.002 A 
ATOM     30  C27 ZIN A   1      19.677   3.053  10.823  0.00  0.00     0.001 A 
ATOM     31  C41 ZIN A   1      18.160  -1.405   7.018  0.00  0.00     0.054 A 
ATOM     32  C43 ZIN A   1      18.091   0.887   6.637  0.00  0.00     0.163 A 
ATOM     33  C33 ZIN A   1      18.382  -2.614   7.718  0.00  0.00     0.022 A 
ATOM     34  C45 ZIN A   1      17.669  -1.132   5.657  0.00  0.00     0.253 A 
ATOM     35  C34 ZIN A   1      18.211  -4.027   7.390  0.00  0.00     0.004 A 
ATOM     36  C39 ZIN A   1      18.622  -4.760   8.528  0.00  0.00     0.048 A 
ATOM     37  C35 ZIN A   1      17.750  -4.666   6.238  0.00  0.00     0.014 A 
ATOM     38  C38 ZIN A   1      18.578  -6.153   8.528  0.00  0.00     0.030 A 
ATOM     39  N40 ZIN A   1      18.993  -3.879   9.512  0.00  0.00    -0.316 N 
ATOM     40  C37 ZIN A   1      18.116  -6.770   7.377  0.00  0.00     0.002 A 
ATOM     41  C36 ZIN A   1      17.714  -6.050   6.266  0.00  0.00     0.001 A 
ATOM     42  N44 ZIN A   1      17.626   0.192   5.431  0.00  0.00    -0.353 N 
ATOM     43  O46 ZIN A   1      17.347  -1.985   4.852  0.00  0.00    -0.268 OA
ATOM     44  H73 ZIN A   1      17.335   0.617   4.609  0.00  0.00     0.163 HD
ENDBRANCH   6  20
TORSDOF 5
ENDMDL
MODEL 5
REMARK VINA RESULT:      -6.3      1.901      4.162
REMARK  5 active torsions:
REMARK  status: ('A' for Active; 'I' for Inactive)
REMARK    1  A    between atoms: O2_2  and  C3_3 
REMARK    2  A    between atoms: C5_4  and  N7_5 
REMARK       I    between atoms: N7_5  and  C9_7 
REMARK    3  A    between atoms: C9_7  and  C11_9 
REMARK    4  A    between atoms: C18_16  and  N40_37 
REMARK    5  A    between atoms: C21_18  and  N23_20 
ROOT
ATOM      1  C3  ZIN A   1      18.686   2.697  10.571  0.00  0.00     0.199 C 
ATOM      2  C5  ZIN A   1      17.929   1.756   9.626  0.00  0.00     0.124 C 
ATOM      3  C17 ZIN A   1      18.844   1.443   8.436  0.00  0.00     0.082 C 
ATOM      4  C18 ZIN A   1      20.117   0.776   8.940  0.00  0.00     0.233 C 
ATOM      5  O20 ZIN A   1      20.722   1.490   9.993  0.00  0.00    -0.333 OA
ATOM      6  C21 ZIN A   1      19.962   2.014  11.048  0.00  0.00     0.168 C 
ATOM      7  C22 ZIN A   1      20.823   3.071  11.743  0.00  0.00     0.074 C 
ENDROOT
BRANCH   2   8
ATOM      8  N7  ZIN A   1      17.587   0.518  10.329  0.00  0.00    -0.345 N 
ATOM      9  C8  ZIN A   1      17.131   0.566  11.720  0.00  0.00     0.153 C 
ATOM     10  C9  ZIN A   1      17.691  -0.667   9.695  0.00  0.00     0.253 C 
ATOM     11  O10 ZIN A   1      17.872  -1.685  10.336  0.00  0.00    -0.267 OA
BRANCH  10  12
ATOM     12  C11 ZIN A   1      17.587  -0.731   8.221  0.00  0.00     0.032 A 
ATOM     13  C16 ZIN A   1      16.617   0.018   7.554  0.00  0.00     0.017 A 
ATOM     14  C15 ZIN A   1      16.530  -0.041   6.179  0.00  0.00     0.001 A 
ATOM     15  C14 ZIN A   1      17.393  -0.852   5.462  0.00  0.00     0.000 A 
ATOM     16  C13 ZIN A   1      18.352  -1.602   6.118  0.00  0.00     0.001 A 
ATOM     17  C12 ZIN A   1      18.455  -1.546   7.493  0.00  0.00     0.017 A 
ENDBRANCH  10  12
ENDBRANCH   2   8
BRANCH   1  18
ATOM     18  O2  ZIN A   1      17.861   3.006  11.697  0.00  0.00    -0.384 OA
ATOM     19  C1  ZIN A   1      16.916   4.050  11.455  0.00  0.00     0.202 C 
ENDBRANCH   1  18
BRANCH   6  20
ATOM     20  N23 ZIN A   1      19.639   1.006  12.060  0.00  0.00    -0.308 N 
ATOM     21  C31 ZIN A   1      19.180   1.296  13.336  0.00  0.00     0.077 A 
ATOM     22  C30 ZIN A   1      18.974   0.100  14.040  0.00  0.00     0.015 A 
ATOM     23  C32 ZIN A   1      18.921   2.525  13.954  0.00  0.00     0.077 A 
ATOM     24  C25 ZIN A   1      19.329  -0.976  13.112  0.00  0.00     0.004 A 
ATOM     25  C42 ZIN A   1      18.520   0.139  15.354  0.00  0.00    -0.010 A 
ATOM     26  C24 ZIN A   1      19.730  -0.357  11.909  0.00  0.00     0.049 A 
ATOM     27  C26 ZIN A   1      19.320  -2.364  13.252  0.00  0.00     0.014 A 
ATOM     28  C29 ZIN A   1      20.130  -1.124  10.815  0.00  0.00     0.030 A 
ATOM     29  C28 ZIN A   1      20.113  -2.500  10.970  0.00  0.00     0.002 A 
ATOM     30  C27 ZIN A   1      19.722  -3.104  12.152  0.00  0.00     0.001 A 
ATOM     31  C41 ZIN A   1      18.260   1.353  15.979  0.00  0.00     0.054 A 
ATOM     32  C43 ZIN A   1      18.213  -0.938  16.366  0.00  0.00     0.163 A 
ATOM     33  C33 ZIN A   1      18.458   2.562  15.271  0.00  0.00     0.022 A 
ATOM     34  C45 ZIN A   1      17.800   1.080  17.351  0.00  0.00     0.253 A 
ATOM     35  C34 ZIN A   1      18.285   3.974  15.600  0.00  0.00     0.004 A 
ATOM     36  C39 ZIN A   1      18.667   4.707  14.451  0.00  0.00     0.048 A 
ATOM     37  C35 ZIN A   1      17.845   4.613  16.760  0.00  0.00     0.014 A 
ATOM     38  C38 ZIN A   1      18.614   6.100  14.449  0.00  0.00     0.030 A 
ATOM     39  N40 ZIN A   1      19.022   3.826  13.462  0.00  0.00    -0.316 N 
ATOM     40  C37 ZIN A   1      18.173   6.716  15.609  0.00  0.00     0.002 A 
ATOM     41  C36 ZIN A   1      17.800   5.997  16.730  0.00  0.00     0.001 A 
ATOM     42  N44 ZIN A   1      17.770  -0.243  17.580  0.00  0.00    -0.353 N 
ATOM     43  O46 ZIN A   1      17.490   1.933  18.161  0.00  0.00    -0.268 OA
ATOM     44  H73 ZIN A   1      17.500  -0.668  18.410  0.00  0.00     0.163 HD
ENDBRANCH   6  20
TORSDOF 5
ENDMDL
MODEL 6
REMARK VINA RESULT:      -6.3      5.026      8.860
REMARK  5 active torsions:
REMARK  status: ('A' for Active; 'I' for Inactive)
REMARK    1  A    between atoms: O2_2  and  C3_3 
REMARK    2  A    between atoms: C5_4  and  N7_5 
REMARK       I    between atoms: N7_5  and  C9_7 
REMARK    3  A    between atoms: C9_7  and  C11_9 
REMARK    4  A    between atoms: C18_16  and  N40_37 
REMARK    5  A    between atoms: C21_18  and  N23_20 
ROOT
ATOM      1  C3  ZIN A   1      18.040  -7.254   8.532  0.00  0.00     0.199 C 
ATOM      2  C5  ZIN A   1      16.602  -6.891   8.919  0.00  0.00     0.124 C 
ATOM      3  C17 ZIN A   1      16.634  -6.234  10.304  0.00  0.00     0.082 C 
ATOM      4  C18 ZIN A   1      17.500  -4.983  10.249  0.00  0.00     0.233 C 
ATOM      5  O20 ZIN A   1      18.761  -5.221   9.666  0.00  0.00    -0.333 OA
ATOM      6  C21 ZIN A   1      18.890  -5.989   8.500  0.00  0.00     0.168 C 
ATOM      7  C22 ZIN A   1      20.356  -6.416   8.400  0.00  0.00     0.074 C 
ENDROOT
BRANCH   2   8
ATOM      8  N7  ZIN A   1      16.047  -5.955   7.939  0.00  0.00    -0.345 N 
ATOM      9  C8  ZIN A   1      16.577  -4.593   7.843  0.00  0.00     0.153 C 
ATOM     10  C9  ZIN A   1      15.047  -6.347   7.124  0.00  0.00     0.253 C 
ATOM     11  O10 ZIN A   1      14.281  -5.524   6.662  0.00  0.00    -0.267 OA
BRANCH  10  12
ATOM     12  C11 ZIN A   1      14.881  -7.779   6.792  0.00  0.00     0.032 A 
ATOM     13  C16 ZIN A   1      15.005  -8.211   5.471  0.00  0.00     0.017 A 
ATOM     14  C15 ZIN A   1      14.855  -9.548   5.170  0.00  0.00     0.001 A 
ATOM     15  C14 ZIN A   1      14.569 -10.459   6.172  0.00  0.00     0.000 A 
ATOM     16  C13 ZIN A   1      14.439 -10.036   7.482  0.00  0.00     0.001 A 
ATOM     17  C12 ZIN A   1      14.593  -8.702   7.799  0.00  0.00     0.017 A 
ENDBRANCH  10  12
ENDBRANCH   2   8
BRANCH   1  18
ATOM     18  O2  ZIN A   1      18.047  -7.865   7.240  0.00  0.00    -0.384 OA
ATOM     19  C1  ZIN A   1      17.975  -9.292   7.272  0.00  0.00     0.202 C 
ENDBRANCH   1  18
BRANCH   6  20
ATOM     20  N23 ZIN A   1      18.594  -5.221   7.289  0.00  0.00    -0.308 N 
ATOM     21  C31 ZIN A   1      18.614  -3.837   7.213  0.00  0.00     0.077 A 
ATOM     22  C30 ZIN A   1      18.281  -3.436   5.910  0.00  0.00     0.015 A 
ATOM     23  C32 ZIN A   1      18.900  -2.875   8.189  0.00  0.00     0.077 A 
ATOM     24  C25 ZIN A   1      18.054  -4.672   5.158  0.00  0.00     0.004 A 
ATOM     25  C42 ZIN A   1      18.226  -2.083   5.595  0.00  0.00    -0.010 A 
ATOM     26  C24 ZIN A   1      18.262  -5.739   6.059  0.00  0.00     0.049 A 
ATOM     27  C26 ZIN A   1      17.703  -4.898   3.827  0.00  0.00     0.014 A 
ATOM     28  C29 ZIN A   1      18.124  -7.061   5.638  0.00  0.00     0.030 A 
ATOM     29  C28 ZIN A   1      17.776  -7.267   4.313  0.00  0.00     0.002 A 
ATOM     30  C27 ZIN A   1      17.570  -6.219   3.433  0.00  0.00     0.001 A 
ATOM     31  C41 ZIN A   1      18.508  -1.118   6.555  0.00  0.00     0.054 A 
ATOM     32  C43 ZIN A   1      17.900  -1.338   4.323  0.00  0.00     0.163 A 
ATOM     33  C33 ZIN A   1      18.852  -1.517   7.868  0.00  0.00     0.022 A 
ATOM     34  C45 ZIN A   1      18.369   0.210   5.935  0.00  0.00     0.253 A 
ATOM     35  C34 ZIN A   1      19.205  -0.800   9.091  0.00  0.00     0.004 A 
ATOM     36  C39 ZIN A   1      19.436  -1.780  10.083  0.00  0.00     0.048 A 
ATOM     37  C35 ZIN A   1      19.327   0.563   9.368  0.00  0.00     0.014 A 
ATOM     38  C38 ZIN A   1      19.795  -1.408  11.378  0.00  0.00     0.030 A 
ATOM     39  N40 ZIN A   1      19.275  -3.023   9.525  0.00  0.00    -0.316 N 
ATOM     40  C37 ZIN A   1      19.913  -0.052  11.634  0.00  0.00     0.002 A 
ATOM     41  C36 ZIN A   1      19.688   0.905  10.661  0.00  0.00     0.001 A 
ATOM     42  N44 ZIN A   1      18.018   0.089   4.643  0.00  0.00    -0.353 N 
ATOM     43  O46 ZIN A   1      18.547   1.266   6.510  0.00  0.00    -0.268 OA
ATOM     44  H73 ZIN A   1      17.870   0.822   4.026  0.00  0.00     0.163 HD
ENDBRANCH   6  20
TORSDOF 5
ENDMDL
MODEL 7
REMARK VINA RESULT:      -6.0      2.376      7.634
REMARK  5 active torsions:
REMARK  status: ('A' for Active; 'I' for Inactive)
REMARK    1  A    between atoms: O2_2  and  C3_3 
REMARK    2  A    between atoms: C5_4  and  N7_5 
REMARK       I    between atoms: N7_5  and  C9_7 
REMARK    3  A    between atoms: C9_7  and  C11_9 
REMARK    4  A    between atoms: C18_16  and  N40_37 
REMARK    5  A    between atoms: C21_18  and  N23_20 
ROOT
ATOM      1  C3  ZIN A   1      17.923   1.127  13.224  0.00  0.00     0.199 C 
ATOM      2  C5  ZIN A   1      19.437   1.259  13.434  0.00  0.00     0.124 C 
ATOM      3  C17 ZIN A   1      20.001  -0.139  13.712  0.00  0.00     0.082 C 
ATOM      4  C18 ZIN A   1      19.709  -1.046  12.524  0.00  0.00     0.233 C 
ATOM      5  O20 ZIN A   1      18.355  -1.009  12.134  0.00  0.00    -0.333 OA
ATOM      6  C21 ZIN A   1      17.657   0.203  12.042  0.00  0.00     0.168 C 
ATOM      7  C22 ZIN A   1      16.164  -0.134  12.043  0.00  0.00     0.074 C 
ENDROOT
BRANCH   2   8
ATOM      8  N7  ZIN A   1      20.057   1.816  12.230  0.00  0.00    -0.345 N 
ATOM      9  C8  ZIN A   1      20.112   1.023  11.000  0.00  0.00     0.153 C 
ATOM     10  C9  ZIN A   1      20.579   3.059  12.255  0.00  0.00     0.253 C 
ATOM     11  O10 ZIN A   1      21.469   3.359  11.483  0.00  0.00    -0.267 OA
BRANCH  10  12
ATOM     12  C11 ZIN A   1      20.069   4.057  13.219  0.00  0.00     0.032 A 
ATOM     13  C16 ZIN A   1      19.631   5.304  12.771  0.00  0.00     0.017 A 
ATOM     14  C15 ZIN A   1      19.151   6.228  13.676  0.00  0.00     0.001 A 
ATOM     15  C14 ZIN A   1      19.115   5.926  15.025  0.00  0.00     0.000 A 
ATOM     16  C13 ZIN A   1      19.553   4.694  15.476  0.00  0.00     0.001 A 
ATOM     17  C12 ZIN A   1      20.030   3.757  14.581  0.00  0.00     0.017 A 
ENDBRANCH  10  12
ENDBRANCH   2   8
BRANCH   1  18
ATOM     18  O2  ZIN A   1      17.365   2.415  12.957  0.00  0.00    -0.384 OA
ATOM     19  C1  ZIN A   1      16.982   3.136  14.130  0.00  0.00     0.202 C 
ENDBRANCH   1  18
BRANCH   6  20
ATOM     20  N23 ZIN A   1      17.925   0.909  10.788  0.00  0.00    -0.308 N 
ATOM     21  C31 ZIN A   1      18.341   0.296   9.615  0.00  0.00     0.077 A 
ATOM     22  C30 ZIN A   1      18.506   1.265   8.614  0.00  0.00     0.015 A 
ATOM     23  C32 ZIN A   1      18.594  -1.052   9.333  0.00  0.00     0.077 A 
ATOM     24  C25 ZIN A   1      18.155   2.544   9.236  0.00  0.00     0.004 A 
ATOM     25  C42 ZIN A   1      18.929   0.885   7.345  0.00  0.00    -0.010 A 
ATOM     26  C24 ZIN A   1      17.805   2.262  10.574  0.00  0.00     0.049 A 
ATOM     27  C26 ZIN A   1      18.127   3.845   8.732  0.00  0.00     0.014 A 
ATOM     28  C29 ZIN A   1      17.415   3.285  11.437  0.00  0.00     0.030 A 
ATOM     29  C28 ZIN A   1      17.391   4.570  10.920  0.00  0.00     0.002 A 
ATOM     30  C27 ZIN A   1      17.737   4.844   9.608  0.00  0.00     0.001 A 
ATOM     31  C41 ZIN A   1      19.185  -0.449   7.052  0.00  0.00     0.054 A 
ATOM     32  C43 ZIN A   1      19.205   1.662   6.081  0.00  0.00     0.163 A 
ATOM     33  C33 ZIN A   1      19.012  -1.432   8.055  0.00  0.00     0.022 A 
ATOM     34  C45 ZIN A   1      19.614  -0.542   5.647  0.00  0.00     0.253 A 
ATOM     35  C34 ZIN A   1      19.176  -2.882   8.099  0.00  0.00     0.004 A 
ATOM     36  C39 ZIN A   1      18.852  -3.288   9.414  0.00  0.00     0.048 A 
ATOM     37  C35 ZIN A   1      19.564  -3.805   7.126  0.00  0.00     0.014 A 
ATOM     38  C38 ZIN A   1      18.914  -4.632   9.778  0.00  0.00     0.030 A 
ATOM     39  N40 ZIN A   1      18.480  -2.185  10.139  0.00  0.00    -0.316 N 
ATOM     40  C37 ZIN A   1      19.299  -5.533   8.799  0.00  0.00     0.002 A 
ATOM     41  C36 ZIN A   1      19.614  -5.134   7.512  0.00  0.00     0.001 A 
ATOM     42  N44 ZIN A   1      19.627   0.676   5.080  0.00  0.00    -0.353 N 
ATOM     43  O46 ZIN A   1      19.913  -1.576   5.080  0.00  0.00    -0.268 OA
ATOM     44  H73 ZIN A   1      19.873   0.870   4.162  0.00  0.00     0.163 HD
ENDBRANCH   6  20
TORSDOF 5
ENDMDL
MODEL 8
REMARK VINA RESULT:      -5.9      3.258      5.390
REMARK  5 active torsions:
REMARK  status: ('A' for Active; 'I' for Inactive)
REMARK    1  A    between atoms: O2_2  and  C3_3 
REMARK    2  A    between atoms: C5_4  and  N7_5 
REMARK       I    between atoms: N7_5  and  C9_7 
REMARK    3  A    between atoms: C9_7  and  C11_9 
REMARK    4  A    between atoms: C18_16  and  N40_37 
REMARK    5  A    between atoms: C21_18  and  N23_20 
ROOT
ATOM      1  C3  ZIN A   1      19.365  -5.696  10.357  0.00  0.00     0.199 C 
ATOM      2  C5  ZIN A   1      17.851  -5.942  10.342  0.00  0.00     0.124 C 
ATOM      3  C17 ZIN A   1      17.376  -6.065  11.795  0.00  0.00     0.082 C 
ATOM      4  C18 ZIN A   1      17.697  -4.777  12.541  0.00  0.00     0.233 C 
ATOM      5  O20 ZIN A   1      19.038  -4.375  12.378  0.00  0.00    -0.333 OA
ATOM      6  C21 ZIN A   1      19.661  -4.412  11.123  0.00  0.00     0.168 C 
ATOM      7  C22 ZIN A   1      21.170  -4.353  11.366  0.00  0.00     0.074 C 
ENDROOT
BRANCH   2   8
ATOM      8  N7  ZIN A   1      17.174  -4.818   9.691  0.00  0.00    -0.345 N 
ATOM      9  C8  ZIN A   1      17.202  -3.489  10.306  0.00  0.00     0.153 C 
ATOM     10  C9  ZIN A   1      16.524  -5.008   8.526  0.00  0.00     0.253 C 
ATOM     11  O10 ZIN A   1      15.605  -4.274   8.216  0.00  0.00    -0.267 OA
BRANCH  10  12
ATOM     12  C11 ZIN A   1      16.927  -6.108   7.624  0.00  0.00     0.032 A 
ATOM     13  C16 ZIN A   1      17.228  -5.844   6.287  0.00  0.00     0.017 A 
ATOM     14  C15 ZIN A   1      17.609  -6.875   5.453  0.00  0.00     0.001 A 
ATOM     15  C14 ZIN A   1      17.680  -8.169   5.936  0.00  0.00     0.000 A 
ATOM     16  C13 ZIN A   1      17.377  -8.439   7.258  0.00  0.00     0.001 A 
ATOM     17  C12 ZIN A   1      17.001  -7.416   8.105  0.00  0.00     0.017 A 
ENDBRANCH  10  12
ENDBRANCH   2   8
BRANCH   1  18
ATOM     18  O2  ZIN A   1      19.841  -5.571   9.015  0.00  0.00    -0.384 OA
ATOM     19  C1  ZIN A   1      20.801  -6.563   8.645  0.00  0.00     0.202 C 
ENDBRANCH   1  18
BRANCH   6  20
ATOM     20  N23 ZIN A   1      19.324  -3.251  10.296  0.00  0.00    -0.308 N 
ATOM     21  C31 ZIN A   1      18.924  -2.022  10.797  0.00  0.00     0.077 A 
ATOM     22  C30 ZIN A   1      18.680  -1.141   9.732  0.00  0.00     0.015 A 
ATOM     23  C32 ZIN A   1      18.747  -1.589  12.116  0.00  0.00     0.077 A 
ATOM     24  C25 ZIN A   1      18.965  -1.902   8.513  0.00  0.00     0.004 A 
ATOM     25  C42 ZIN A   1      18.255   0.158   9.990  0.00  0.00    -0.010 A 
ATOM     26  C24 ZIN A   1      19.358  -3.194   8.923  0.00  0.00     0.049 A 
ATOM     27  C26 ZIN A   1      18.904  -1.551   7.164  0.00  0.00     0.014 A 
ATOM     28  C29 ZIN A   1      19.702  -4.164   7.983  0.00  0.00     0.030 A 
ATOM     29  C28 ZIN A   1      19.638  -3.798   6.648  0.00  0.00     0.002 A 
ATOM     30  C27 ZIN A   1      19.250  -2.531   6.249  0.00  0.00     0.001 A 
ATOM     31  C41 ZIN A   1      18.075   0.599  11.296  0.00  0.00     0.054 A 
ATOM     32  C43 ZIN A   1      17.907   1.320   9.093  0.00  0.00     0.163 A 
ATOM     33  C33 ZIN A   1      18.327  -0.282  12.374  0.00  0.00     0.022 A 
ATOM     34  C45 ZIN A   1      17.624   2.000  11.255  0.00  0.00     0.253 A 
ATOM     35  C34 ZIN A   1      18.253  -0.160  13.827  0.00  0.00     0.004 A 
ATOM     36  C39 ZIN A   1      18.627  -1.416  14.359  0.00  0.00     0.048 A 
ATOM     37  C35 ZIN A   1      17.902   0.908  14.655  0.00  0.00     0.014 A 
ATOM     38  C38 ZIN A   1      18.655  -1.623  15.737  0.00  0.00     0.030 A 
ATOM     39  N40 ZIN A   1      18.946  -2.258  13.325  0.00  0.00    -0.316 N 
ATOM     40  C37 ZIN A   1      18.306  -0.552  16.543  0.00  0.00     0.002 A 
ATOM     41  C36 ZIN A   1      17.941   0.676  16.020  0.00  0.00     0.001 A 
ATOM     42  N44 ZIN A   1      17.526   2.423   9.983  0.00  0.00    -0.353 N 
ATOM     43  O46 ZIN A   1      17.377   2.678  12.234  0.00  0.00    -0.268 OA
ATOM     44  H73 ZIN A   1      17.250   3.309   9.701  0.00  0.00     0.163 HD
ENDBRANCH   6  20
TORSDOF 5
ENDMDL
