MODEL 1
REMARK VINA RESULT:       0.6      0.000      0.000
REMARK  7 active torsions:
REMARK  status: ('A' for Active; 'I' for Inactive)
REMARK    1  A    between atoms: C2_2  and  C5_5 
REMARK    2  A    between atoms: C39_35  and  C41_36 
REMARK       I    between atoms: C41_36  and  N43_38 
REMARK    3  A    between atoms: N43_38  and  C44_39 
REMARK    4  A    between atoms: C44_39  and  C45_40 
REMARK       I    between atoms: C45_40  and  N47_42 
REMARK    5  A    between atoms: N47_42  and  S48_43 
REMARK    6  A    between atoms: S48_43  and  C51_46 
REMARK    7  A    between atoms: C56_51  and  C58_52 
ROOT
ATOM      1  C5  ZIN A   1      18.424  -0.134  16.392  0.00  0.00     0.186 C 
ATOM      2  N7  ZIN A   1      17.430   0.709  17.088  0.00  0.00    -0.323 N 
ATOM      3  C8  ZIN A   1      17.882   1.901  17.572  0.00  0.00     0.361 C 
ATOM      4  O9  ZIN A   1      19.042   2.228  17.415  0.00  0.00    -0.238 OA
ATOM      5  O10 ZIN A   1      17.026   2.709  18.225  0.00  0.00    -0.296 OA
ATOM      6  C11 ZIN A   1      17.552   3.978  18.696  0.00  0.00     0.162 C 
ATOM      7  C13 ZIN A   1      17.492   4.027  20.227  0.00  0.00     0.035 C 
ATOM      8  C14 ZIN A   1      16.833   5.353  20.618  0.00  0.00     0.005 C 
ATOM      9  C15 ZIN A   1      16.330   6.031  19.341  0.00  0.00     0.035 C 
ATOM     10  C16 ZIN A   1      16.690   5.124  18.158  0.00  0.00     0.151 C 
ATOM     11  O18 ZIN A   1      17.415   5.872  17.183  0.00  0.00    -0.380 OA
ATOM     12  C19 ZIN A   1      16.893   5.757  15.854  0.00  0.00     0.195 C 
ATOM     13  C20 ZIN A   1      18.044   5.657  14.889  0.00  0.00     0.001 C 
ATOM     14  C21 ZIN A   1      17.891   5.098  13.713  0.00  0.00     0.056 C 
ATOM     15  C22 ZIN A   1      19.076   5.015  12.791  0.00  0.00     0.310 C 
ATOM     16  F23 ZIN A   1      19.663   6.279  12.685  0.00  0.00    -0.194 F 
ATOM     17  F24 ZIN A   1      20.009   4.121  13.326  0.00  0.00    -0.194 F 
ATOM     18  C25 ZIN A   1      18.677   4.543  11.421  0.00  0.00     0.163 C 
ATOM     19  C26 ZIN A   1      18.366   3.189  11.202  0.00  0.00     0.197 C 
ATOM     20  N27 ZIN A   1      18.168   2.740   9.979  0.00  0.00    -0.221 NA
ATOM     21  C28 ZIN A   1      18.210   3.592   8.947  0.00  0.00     0.088 A 
ATOM     22  C29 ZIN A   1      18.130   3.137   7.619  0.00  0.00     0.034 A 
ATOM     23  C30 ZIN A   1      18.091   4.038   6.599  0.00  0.00     0.002 A 
ATOM     24  C31 ZIN A   1      18.135   5.407   6.850  0.00  0.00     0.002 A 
ATOM     25  C32 ZIN A   1      18.255   5.882   8.119  0.00  0.00     0.034 A 
ATOM     26  C33 ZIN A   1      18.354   4.980   9.193  0.00  0.00     0.086 A 
ATOM     27  N34 ZIN A   1      18.620   5.406  10.433  0.00  0.00    -0.240 NA
ATOM     28  O35 ZIN A   1      18.243   2.353  12.258  0.00  0.00    -0.326 OA
ATOM     29  C36 ZIN A   1      18.878   1.077  12.192  0.00  0.00     0.151 C 
ATOM     30  C38 ZIN A   1      17.924   0.038  11.576  0.00  0.00     0.069 C 
ATOM     31  C39 ZIN A   1      17.571  -0.941  12.704  0.00  0.00     0.181 C 
ATOM     32  N61 ZIN A   1      18.137  -0.414  13.951  0.00  0.00    -0.334 N 
ATOM     33  C62 ZIN A   1      19.171   0.575  13.619  0.00  0.00     0.159 C 
ATOM     34  C63 ZIN A   1      17.771  -0.773  15.194  0.00  0.00     0.244 C 
ATOM     35  O64 ZIN A   1      16.911  -1.613  15.353  0.00  0.00    -0.271 OA
ATOM     36  H74 ZIN A   1      16.506   0.430  17.193  0.00  0.00     0.165 HD
ENDROOT
BRANCH  31  37
ATOM     37  C41 ZIN A   1      18.163  -2.295  12.409  0.00  0.00     0.241 C 
ATOM     38  O42 ZIN A   1      18.414  -3.059  13.316  0.00  0.00    -0.271 OA
ATOM     39  N43 ZIN A   1      18.412  -2.658  11.134  0.00  0.00    -0.341 N 
ATOM     40  H91 ZIN A   1      18.385  -1.994  10.427  0.00  0.00     0.163 HD
BRANCH  39  41
ATOM     41  C44 ZIN A   1      18.723  -4.054  10.817  0.00  0.00     0.126 A 
ATOM     42  C56 ZIN A   1      20.082  -4.347  10.179  0.00  0.00     0.091 A 
ATOM     43  C55 ZIN A   1      19.821  -4.736  11.636  0.00  0.00     0.055 A 
BRANCH  42  44
ATOM     44  C58 ZIN A   1      20.151  -5.475   9.148  0.00  0.00     0.360 C 
ATOM     45  F59 ZIN A   1      20.270  -4.928   7.866  0.00  0.00    -0.214 F 
ATOM     46  F60 ZIN A   1      21.260  -6.284   9.415  0.00  0.00    -0.214 F 
ENDBRANCH  42  44
BRANCH  41  47
ATOM     47  C45 ZIN A   1      17.554  -4.897  10.381  0.00  0.00     0.282 C 
ATOM     48  O46 ZIN A   1      16.957  -5.573  11.192  0.00  0.00    -0.268 OA
ATOM     49  N47 ZIN A   1      17.169  -4.902   9.089  0.00  0.00    -0.124 NA
BRANCH  49  50
ATOM     50  S48 ZIN A   1      16.110  -6.051   8.543  0.00  0.00     0.262 S 
ATOM     51  O49 ZIN A   1      16.605  -7.269   9.083  0.00  0.00    -0.203 OA
ATOM     52  O50 ZIN A   1      14.831  -5.552   8.912  0.00  0.00    -0.203 OA
BRANCH  50  53
ATOM     53  C51 ZIN A   1      16.306  -6.029   6.740  0.00  0.00     0.081 A 
ATOM     54  C54 ZIN A   1      17.567  -6.672   6.159  0.00  0.00     0.029 A 
ATOM     55  C53 ZIN A   1      17.417  -5.150   6.162  0.00  0.00     0.029 A 
ATOM     56  C52 ZIN A   1      15.013  -6.156   5.934  0.00  0.00     0.034 C 
ENDBRANCH  50  53
ENDBRANCH  49  50
ENDBRANCH  41  47
ENDBRANCH  39  41
ENDBRANCH  31  37
BRANCH   1  57
ATOM     57  C2  ZIN A   1      18.929  -1.222  17.343  0.00  0.00    -0.022 C 
ATOM     58  C1  ZIN A   1      20.204  -1.847  16.773  0.00  0.00     0.017 C 
ATOM     59  C3  ZIN A   1      17.856  -2.302  17.495  0.00  0.00     0.017 C 
ATOM     60  C4  ZIN A   1      19.230  -0.605  18.710  0.00  0.00     0.017 C 
ENDBRANCH   1  57
TORSDOF 7
ENDMDL
MODEL 2
REMARK VINA RESULT:       3.6      4.014     11.966
REMARK  7 active torsions:
REMARK  status: ('A' for Active; 'I' for Inactive)
REMARK    1  A    between atoms: C2_2  and  C5_5 
REMARK    2  A    between atoms: C39_35  and  C41_36 
REMARK       I    between atoms: C41_36  and  N43_38 
REMARK    3  A    between atoms: N43_38  and  C44_39 
REMARK    4  A    between atoms: C44_39  and  C45_40 
REMARK       I    between atoms: C45_40  and  N47_42 
REMARK    5  A    between atoms: N47_42  and  S48_43 
REMARK    6  A    between atoms: S48_43  and  C51_46 
REMARK    7  A    between atoms: C56_51  and  C58_52 
ROOT
ATOM      1  C5  ZIN A   1      17.945   3.728  10.316  0.00  0.00     0.186 C 
ATOM      2  N7  ZIN A   1      17.350   2.581   9.599  0.00  0.00    -0.323 N 
ATOM      3  C8  ZIN A   1      18.208   1.585   9.238  0.00  0.00     0.361 C 
ATOM      4  O9  ZIN A   1      19.389   1.660   9.513  0.00  0.00    -0.238 OA
ATOM      5  O10 ZIN A   1      17.728   0.517   8.573  0.00  0.00    -0.296 OA
ATOM      6  C11 ZIN A   1      18.678  -0.528   8.236  0.00  0.00     0.162 C 
ATOM      7  C13 ZIN A   1      18.793  -0.652   6.712  0.00  0.00     0.035 C 
ATOM      8  C14 ZIN A   1      18.639  -2.134   6.359  0.00  0.00     0.005 C 
ATOM      9  C15 ZIN A   1      18.253  -2.890   7.634  0.00  0.00     0.035 C 
ATOM     10  C16 ZIN A   1      18.181  -1.871   8.777  0.00  0.00     0.151 C 
ATOM     11  O18 ZIN A   1      19.004  -2.304   9.860  0.00  0.00    -0.380 OA
ATOM     12  C19 ZIN A   1      18.340  -2.315  11.128  0.00  0.00     0.195 C 
ATOM     13  C20 ZIN A   1      19.293  -1.808  12.177  0.00  0.00     0.001 C 
ATOM     14  C21 ZIN A   1      18.850  -1.286  13.295  0.00  0.00     0.056 C 
ATOM     15  C22 ZIN A   1      19.845  -0.785  14.306  0.00  0.00     0.310 C 
ATOM     16  F23 ZIN A   1      20.793  -1.784  14.548  0.00  0.00    -0.194 F 
ATOM     17  F24 ZIN A   1      20.491   0.343  13.790  0.00  0.00    -0.194 F 
ATOM     18  C25 ZIN A   1      19.178  -0.418  15.601  0.00  0.00     0.163 C 
ATOM     19  C26 ZIN A   1      18.429   0.768  15.700  0.00  0.00     0.197 C 
ATOM     20  N27 ZIN A   1      17.973   1.173  16.867  0.00  0.00    -0.221 NA
ATOM     21  C28 ZIN A   1      18.180   0.422  17.956  0.00  0.00     0.088 A 
ATOM     22  C29 ZIN A   1      17.825   0.876  19.237  0.00  0.00     0.034 A 
ATOM     23  C30 ZIN A   1      17.973   0.052  20.311  0.00  0.00     0.002 A 
ATOM     24  C31 ZIN A   1      18.479  -1.237  20.160  0.00  0.00     0.002 A 
ATOM     25  C32 ZIN A   1      18.875  -1.695  18.940  0.00  0.00     0.034 A 
ATOM     26  C33 ZIN A   1      18.788  -0.852  17.820  0.00  0.00     0.086 A 
ATOM     27  N34 ZIN A   1      19.301  -1.214  16.638  0.00  0.00    -0.240 NA
ATOM     28  O35 ZIN A   1      18.151   1.477  14.581  0.00  0.00    -0.326 OA
ATOM     29  C36 ZIN A   1      18.333   2.892  14.612  0.00  0.00     0.151 C 
ATOM     30  C38 ZIN A   1      17.038   3.586  15.074  0.00  0.00     0.069 C 
ATOM     31  C39 ZIN A   1      16.506   4.352  13.855  0.00  0.00     0.181 C 
ATOM     32  N61 ZIN A   1      17.335   3.992  12.699  0.00  0.00    -0.334 N 
ATOM     33  C62 ZIN A   1      18.592   3.407  13.184  0.00  0.00     0.159 C 
ATOM     34  C63 ZIN A   1      17.003   4.164  11.408  0.00  0.00     0.244 C 
ATOM     35  O64 ZIN A   1      15.939   4.671  11.119  0.00  0.00    -0.271 OA
ATOM     36  H74 ZIN A   1      16.402   2.539   9.397  0.00  0.00     0.165 HD
ENDROOT
BRANCH  31  37
ATOM     37  C41 ZIN A   1      16.599   5.835  14.104  0.00  0.00     0.241 C 
ATOM     38  O42 ZIN A   1      16.500   6.614  13.181  0.00  0.00    -0.271 OA
ATOM     39  N43 ZIN A   1      16.789   6.297  15.357  0.00  0.00    -0.341 N 
ATOM     40  H91 ZIN A   1      17.048   5.686  16.065  0.00  0.00     0.163 HD
BRANCH  39  41
ATOM     41  C44 ZIN A   1      16.606   7.721  15.649  0.00  0.00     0.126 A 
ATOM     42  C56 ZIN A   1      17.551   8.359  16.669  0.00  0.00     0.091 A 
ATOM     43  C55 ZIN A   1      17.700   8.684  15.181  0.00  0.00     0.055 A 
BRANCH  42  44
ATOM     44  C58 ZIN A   1      16.978   9.451  17.576  0.00  0.00     0.360 C 
ATOM     45  F59 ZIN A   1      15.697   9.081  17.998  0.00  0.00    -0.214 F 
ATOM     46  F60 ZIN A   1      17.807   9.613  18.690  0.00  0.00    -0.214 F 
ENDBRANCH  42  44
BRANCH  41  47
ATOM     47  C45 ZIN A   1      15.183   8.213  15.615  0.00  0.00     0.282 C 
ATOM     48  O46 ZIN A   1      14.937   9.328  15.206  0.00  0.00    -0.268 OA
ATOM     49  N47 ZIN A   1      14.182   7.416  16.039  0.00  0.00    -0.124 NA
BRANCH  49  50
ATOM     50  S48 ZIN A   1      12.676   8.049  16.307  0.00  0.00     0.262 S 
ATOM     51  O49 ZIN A   1      12.791   9.408  15.911  0.00  0.00    -0.203 OA
ATOM     52  O50 ZIN A   1      11.797   7.160  15.630  0.00  0.00    -0.203 OA
BRANCH  50  53
ATOM     53  C51 ZIN A   1      12.447   7.927  18.103  0.00  0.00     0.081 A 
ATOM     54  C54 ZIN A   1      13.257   6.864  18.847  0.00  0.00     0.029 A 
ATOM     55  C53 ZIN A   1      11.752   6.675  18.642  0.00  0.00     0.029 A 
ATOM     56  C52 ZIN A   1      12.184   9.249  18.825  0.00  0.00     0.034 C 
ENDBRANCH  50  53
ENDBRANCH  49  50
ENDBRANCH  41  47
ENDBRANCH  39  41
ENDBRANCH  31  37
BRANCH   1  57
ATOM     57  C2  ZIN A   1      18.167   4.885   9.338  0.00  0.00    -0.022 C 
ATOM     58  C1  ZIN A   1      18.110   4.357   7.902  0.00  0.00     0.017 C 
ATOM     59  C3  ZIN A   1      19.537   5.514   9.597  0.00  0.00     0.017 C 
ATOM     60  C4  ZIN A   1      17.075   5.938   9.538  0.00  0.00     0.017 C 
ENDBRANCH   1  57
TORSDOF 7
ENDMDL
