MODEL 1
REMARK VINA RESULT:      -7.7      0.000      0.000
REMARK  9 active torsions:
REMARK  status: ('A' for Active; 'I' for Inactive)
REMARK    1  A    between atoms: C2_2  and  C4_3 
REMARK    2  A    between atoms: C2_2  and  N12_11 
REMARK    3  A    between atoms: C4_3  and  C5_4 
REMARK    4  A    between atoms: C5_4  and  C6_5 
REMARK    5  A    between atoms: N12_11  and  C15_14 
REMARK    6  A    between atoms: C15_14  and  C16_15 
REMARK    7  A    between atoms: C16_15  and  O18_16 
REMARK    8  A    between atoms: C16_15  and  C19_17 
REMARK    9  A    between atoms: C24_22  and  C25_23 
REMARK       I    between atoms: C25_23  and  N26_24 
ROOT
ATOM      1  C16 ZIN A   1      20.431   0.586  12.957  0.00  0.00     0.176 C 
ENDROOT
BRANCH   1   2
ATOM      2  C15 ZIN A   1      19.736   1.948  12.939  0.00  0.00     0.269 C 
BRANCH   2   3
ATOM      3  N12 ZIN A   1      20.149   2.693  11.742  0.00  0.00    -0.069 N 
ATOM      4  H13 ZIN A   1      20.384   2.044  11.006  0.00  0.00     0.277 HD
ATOM      5  H14 ZIN A   1      20.956   3.260  11.961  0.00  0.00     0.277 HD
BRANCH   3   6
ATOM      6  C2  ZIN A   1      19.048   3.559  11.300  0.00  0.00     0.182 C 
ATOM      7  C1  ZIN A   1      17.892   3.462  12.297  0.00  0.00     0.040 C 
BRANCH   6   8
ATOM      8  C4  ZIN A   1      18.569   3.109   9.918  0.00  0.00     0.037 C 
BRANCH   8   9
ATOM      9  C5  ZIN A   1      19.477   1.991   9.402  0.00  0.00     0.040 C 
BRANCH   9  10
ATOM     10  C6  ZIN A   1      18.747   1.195   8.352  0.00  0.00    -0.058 A 
ATOM     11  C11 ZIN A   1      17.813   0.248   8.727  0.00  0.00     0.007 A 
ATOM     12  C10 ZIN A   1      17.139  -0.479   7.764  0.00  0.00     0.001 A 
ATOM     13  C9  ZIN A   1      17.407  -0.267   6.424  0.00  0.00     0.000 A 
ATOM     14  C8  ZIN A   1      18.345   0.677   6.049  0.00  0.00     0.001 A 
ATOM     15  C7  ZIN A   1      19.016   1.408   7.013  0.00  0.00     0.007 A 
ENDBRANCH   9  10
ENDBRANCH   8   9
ENDBRANCH   6   8
ENDBRANCH   3   6
ENDBRANCH   2   3
ENDBRANCH   1   2
BRANCH   1  16
ATOM     16  O18 ZIN A   1      21.594   0.632  12.128  0.00  0.00    -0.389 OA
ATOM     17  H43 ZIN A   1      22.425   0.687  12.619  0.00  0.00     0.210 HD
ENDBRANCH   1  16
BRANCH   1  18
ATOM     18  C19 ZIN A   1      19.486  -0.468  12.438  0.00  0.00    -0.027 A 
ATOM     19  C28 ZIN A   1      19.986  -1.600  11.835  0.00  0.00     0.029 A 
ATOM     20  C24 ZIN A   1      19.112  -2.581  11.360  0.00  0.00     0.068 A 
ATOM     21  C22 ZIN A   1      17.728  -2.397  11.490  0.00  0.00     0.122 A 
ATOM     22  C21 ZIN A   1      17.242  -1.248  12.096  0.00  0.00     0.041 A 
ATOM     23  O23 ZIN A   1      16.869  -3.339  11.027  0.00  0.00    -0.191 OA
ATOM     24  C20 ZIN A   1      18.118  -0.289  12.565  0.00  0.00     0.012 A 
BRANCH  20  25
ATOM     25  C25 ZIN A   1      19.641  -3.799  10.718  0.00  0.00     0.252 C 
ATOM     26  N26 ZIN A   1      19.534  -3.959   9.384  0.00  0.00    -0.366 N 
ATOM     27  H46 ZIN A   1      19.111  -3.272   8.846  0.00  0.00     0.159 HD
ATOM     28  H47 ZIN A   1      19.883  -4.760   8.962  0.00  0.00     0.159 HD
ATOM     29  O27 ZIN A   1      20.171  -4.661  11.392  0.00  0.00    -0.268 OA
ENDBRANCH  20  25
ENDBRANCH   1  18
TORSDOF 9
ENDMDL
MODEL 2
REMARK VINA RESULT:      -7.7      2.847      5.487
REMARK  9 active torsions:
REMARK  status: ('A' for Active; 'I' for Inactive)
REMARK    1  A    between atoms: C2_2  and  C4_3 
REMARK    2  A    between atoms: C2_2  and  N12_11 
REMARK    3  A    between atoms: C4_3  and  C5_4 
REMARK    4  A    between atoms: C5_4  and  C6_5 
REMARK    5  A    between atoms: N12_11  and  C15_14 
REMARK    6  A    between atoms: C15_14  and  C16_15 
REMARK    7  A    between atoms: C16_15  and  O18_16 
REMARK    8  A    between atoms: C16_15  and  C19_17 
REMARK    9  A    between atoms: C24_22  and  C25_23 
REMARK       I    between atoms: C25_23  and  N26_24 
ROOT
ATOM      1  C16 ZIN A   1      20.338   0.772  12.181  0.00  0.00     0.176 C 
ENDROOT
BRANCH   1   2
ATOM      2  C15 ZIN A   1      19.773  -0.096  11.056  0.00  0.00     0.269 C 
BRANCH   2   3
ATOM      3  N12 ZIN A   1      20.084   0.521   9.759  0.00  0.00    -0.069 N 
ATOM      4  H13 ZIN A   1      20.651  -0.110   9.213  0.00  0.00     0.277 HD
ATOM      5  H14 ZIN A   1      20.588   1.383   9.909  0.00  0.00     0.277 HD
BRANCH   3   6
ATOM      6  C2  ZIN A   1      18.835   0.804   9.040  0.00  0.00     0.182 C 
ATOM      7  C1  ZIN A   1      19.159   1.454   7.693  0.00  0.00     0.040 C 
BRANCH   6   8
ATOM      8  C4  ZIN A   1      17.973   1.757   9.871  0.00  0.00     0.037 C 
BRANCH   8   9
ATOM      9  C5  ZIN A   1      18.500   3.186   9.717  0.00  0.00     0.040 C 
BRANCH   9  10
ATOM     10  C6  ZIN A   1      18.137   3.989  10.940  0.00  0.00    -0.058 A 
ATOM     11  C11 ZIN A   1      19.028   4.090  11.990  0.00  0.00     0.007 A 
ATOM     12  C10 ZIN A   1      18.697   4.831  13.110  0.00  0.00     0.001 A 
ATOM     13  C9  ZIN A   1      17.469   5.462  13.182  0.00  0.00     0.000 A 
ATOM     14  C8  ZIN A   1      16.576   5.356  12.133  0.00  0.00     0.001 A 
ATOM     15  C7  ZIN A   1      16.908   4.619  11.012  0.00  0.00     0.007 A 
ENDBRANCH   9  10
ENDBRANCH   8   9
ENDBRANCH   6   8
ENDBRANCH   3   6
ENDBRANCH   2   3
ENDBRANCH   1   2
BRANCH   1  16
ATOM     16  O18 ZIN A   1      21.758   0.623  12.232  0.00  0.00    -0.389 OA
ATOM     17  H43 ZIN A   1      22.119   0.587  13.128  0.00  0.00     0.210 HD
ENDBRANCH   1  16
BRANCH   1  18
ATOM     18  C19 ZIN A   1      19.741   0.342  13.496  0.00  0.00    -0.027 A 
ATOM     19  C28 ZIN A   1      19.576   1.261  14.509  0.00  0.00     0.029 A 
ATOM     20  C24 ZIN A   1      19.017   0.865  15.726  0.00  0.00     0.068 A 
ATOM     21  C22 ZIN A   1      18.638  -0.472  15.911  0.00  0.00     0.122 A 
ATOM     22  C21 ZIN A   1      18.815  -1.385  14.882  0.00  0.00     0.041 A 
ATOM     23  O23 ZIN A   1      18.098  -0.870  17.091  0.00  0.00    -0.191 OA
ATOM     24  C20 ZIN A   1      19.365  -0.978  13.683  0.00  0.00     0.012 A 
BRANCH  20  25
ATOM     25  C25 ZIN A   1      18.833   1.846  16.813  0.00  0.00     0.252 C 
ATOM     26  N26 ZIN A   1      17.655   1.914  17.466  0.00  0.00    -0.366 N 
ATOM     27  H46 ZIN A   1      16.930   1.318  17.222  0.00  0.00     0.159 HD
ATOM     28  H47 ZIN A   1      17.535   2.558  18.181  0.00  0.00     0.159 HD
ATOM     29  O27 ZIN A   1      19.742   2.593  17.119  0.00  0.00    -0.268 OA
ENDBRANCH  20  25
ENDBRANCH   1  18
TORSDOF 9
ENDMDL
MODEL 3
REMARK VINA RESULT:      -7.6      2.522      4.792
REMARK  9 active torsions:
REMARK  status: ('A' for Active; 'I' for Inactive)
REMARK    1  A    between atoms: C2_2  and  C4_3 
REMARK    2  A    between atoms: C2_2  and  N12_11 
REMARK    3  A    between atoms: C4_3  and  C5_4 
REMARK    4  A    between atoms: C5_4  and  C6_5 
REMARK    5  A    between atoms: N12_11  and  C15_14 
REMARK    6  A    between atoms: C15_14  and  C16_15 
REMARK    7  A    between atoms: C16_15  and  O18_16 
REMARK    8  A    between atoms: C16_15  and  C19_17 
REMARK    9  A    between atoms: C24_22  and  C25_23 
REMARK       I    between atoms: C25_23  and  N26_24 
ROOT
ATOM      1  C16 ZIN A   1      20.354  -0.237  10.888  0.00  0.00     0.176 C 
ENDROOT
BRANCH   1   2
ATOM      2  C15 ZIN A   1      20.175   1.033  11.722  0.00  0.00     0.269 C 
BRANCH   2   3
ATOM      3  N12 ZIN A   1      20.506   0.748  13.125  0.00  0.00    -0.069 N 
ATOM      4  H13 ZIN A   1      20.873   1.581  13.560  0.00  0.00     0.277 HD
ATOM      5  H14 ZIN A   1      21.200   0.015  13.164  0.00  0.00     0.277 HD
BRANCH   3   6
ATOM      6  C2  ZIN A   1      19.297   0.315  13.836  0.00  0.00     0.182 C 
ATOM      7  C1  ZIN A   1      19.244   0.987  15.209  0.00  0.00     0.040 C 
BRANCH   6   8
ATOM      8  C4  ZIN A   1      19.326  -1.205  14.014  0.00  0.00     0.037 C 
BRANCH   8   9
ATOM      9  C5  ZIN A   1      18.047  -1.811  13.432  0.00  0.00     0.040 C 
BRANCH   9  10
ATOM     10  C6  ZIN A   1      18.399  -2.719  12.281  0.00  0.00    -0.058 A 
ATOM     11  C11 ZIN A   1      17.449  -3.023  11.325  0.00  0.00     0.007 A 
ATOM     12  C10 ZIN A   1      17.773  -3.852  10.268  0.00  0.00     0.001 A 
ATOM     13  C9  ZIN A   1      19.046  -4.384  10.172  0.00  0.00     0.000 A 
ATOM     14  C8  ZIN A   1      19.994  -4.083  11.131  0.00  0.00     0.001 A 
ATOM     15  C7  ZIN A   1      19.671  -3.251  12.187  0.00  0.00     0.007 A 
ENDBRANCH   9  10
ENDBRANCH   8   9
ENDBRANCH   6   8
ENDBRANCH   3   6
ENDBRANCH   2   3
ENDBRANCH   1   2
BRANCH   1  16
ATOM     16  O18 ZIN A   1      21.742  -0.567  10.814  0.00  0.00    -0.389 OA
ATOM     17  H43 ZIN A   1      22.326   0.200  10.741  0.00  0.00     0.210 HD
ENDBRANCH   1  16
BRANCH   1  18
ATOM     18  C19 ZIN A   1      19.818  -0.005   9.498  0.00  0.00    -0.027 A 
ATOM     19  C28 ZIN A   1      19.635  -1.072   8.647  0.00  0.00     0.029 A 
ATOM     20  C24 ZIN A   1      19.133  -0.860   7.361  0.00  0.00     0.068 A 
ATOM     21  C22 ZIN A   1      18.830   0.444   6.942  0.00  0.00     0.122 A 
ATOM     22  C21 ZIN A   1      19.025   1.507   7.811  0.00  0.00     0.041 A 
ATOM     23  O23 ZIN A   1      18.347   0.663   5.693  0.00  0.00    -0.191 OA
ATOM     24  C20 ZIN A   1      19.518   1.281   9.081  0.00  0.00     0.012 A 
BRANCH  20  25
ATOM     25  C25 ZIN A   1      18.928  -1.999   6.446  0.00  0.00     0.252 C 
ATOM     26  N26 ZIN A   1      17.708  -2.234   5.925  0.00  0.00    -0.366 N 
ATOM     27  H46 ZIN A   1      16.965  -1.653   6.150  0.00  0.00     0.159 HD
ATOM     28  H47 ZIN A   1      17.574  -2.982   5.322  0.00  0.00     0.159 HD
ATOM     29  O27 ZIN A   1      19.861  -2.727   6.163  0.00  0.00    -0.268 OA
ENDBRANCH  20  25
ENDBRANCH   1  18
TORSDOF 9
ENDMDL
MODEL 4
REMARK VINA RESULT:      -7.4      3.110      7.136
REMARK  9 active torsions:
REMARK  status: ('A' for Active; 'I' for Inactive)
REMARK    1  A    between atoms: C2_2  and  C4_3 
REMARK    2  A    between atoms: C2_2  and  N12_11 
REMARK    3  A    between atoms: C4_3  and  C5_4 
REMARK    4  A    between atoms: C5_4  and  C6_5 
REMARK    5  A    between atoms: N12_11  and  C15_14 
REMARK    6  A    between atoms: C15_14  and  C16_15 
REMARK    7  A    between atoms: C16_15  and  O18_16 
REMARK    8  A    between atoms: C16_15  and  C19_17 
REMARK    9  A    between atoms: C24_22  and  C25_23 
REMARK       I    between atoms: C25_23  and  N26_24 
ROOT
ATOM      1  C16 ZIN A   1      20.468  -0.242  10.420  0.00  0.00     0.176 C 
ENDROOT
BRANCH   1   2
ATOM      2  C15 ZIN A   1      19.481  -1.361  10.758  0.00  0.00     0.269 C 
BRANCH   2   3
ATOM      3  N12 ZIN A   1      19.937  -2.068  11.963  0.00  0.00    -0.069 N 
ATOM      4  H13 ZIN A   1      20.798  -1.657  12.289  0.00  0.00     0.277 HD
ATOM      5  H14 ZIN A   1      20.090  -3.042  11.743  0.00  0.00     0.277 HD
BRANCH   3   6
ATOM      6  C2  ZIN A   1      18.913  -1.958  13.011  0.00  0.00     0.182 C 
ATOM      7  C1  ZIN A   1      17.650  -1.324  12.425  0.00  0.00     0.040 C 
BRANCH   6   8
ATOM      8  C4  ZIN A   1      19.442  -1.084  14.150  0.00  0.00     0.037 C 
BRANCH   8   9
ATOM      9  C5  ZIN A   1      18.631  -1.356  15.419  0.00  0.00     0.040 C 
BRANCH   9  10
ATOM     10  C6  ZIN A   1      18.780  -0.195  16.369  0.00  0.00    -0.058 A 
ATOM     11  C11 ZIN A   1      18.628  -0.390  17.728  0.00  0.00     0.007 A 
ATOM     12  C10 ZIN A   1      18.769   0.674  18.599  0.00  0.00     0.001 A 
ATOM     13  C9  ZIN A   1      19.052   1.935  18.110  0.00  0.00     0.000 A 
ATOM     14  C8  ZIN A   1      19.199   2.131  16.749  0.00  0.00     0.001 A 
ATOM     15  C7  ZIN A   1      19.062   1.066  15.878  0.00  0.00     0.007 A 
ENDBRANCH   9  10
ENDBRANCH   8   9
ENDBRANCH   6   8
ENDBRANCH   3   6
ENDBRANCH   2   3
ENDBRANCH   1   2
BRANCH   1  16
ATOM     16  O18 ZIN A   1      21.539  -0.249  11.366  0.00  0.00    -0.389 OA
ATOM     17  H43 ZIN A   1      21.733   0.619  11.746  0.00  0.00     0.210 HD
ENDBRANCH   1  16
BRANCH   1  18
ATOM     18  C19 ZIN A   1      19.759   1.086  10.472  0.00  0.00    -0.027 A 
ATOM     19  C28 ZIN A   1      19.730   1.803  11.648  0.00  0.00     0.029 A 
ATOM     20  C24 ZIN A   1      19.079   3.037  11.697  0.00  0.00     0.068 A 
ATOM     21  C22 ZIN A   1      18.447   3.533  10.547  0.00  0.00     0.122 A 
ATOM     22  C21 ZIN A   1      18.482   2.796   9.373  0.00  0.00     0.041 A 
ATOM     23  O23 ZIN A   1      17.807   4.729  10.584  0.00  0.00    -0.191 OA
ATOM     24  C20 ZIN A   1      19.134   1.579   9.338  0.00  0.00     0.012 A 
BRANCH  20  25
ATOM     25  C25 ZIN A   1      19.049   3.813  12.952  0.00  0.00     0.252 C 
ATOM     26  N26 ZIN A   1      20.022   4.709  13.213  0.00  0.00    -0.366 N 
ATOM     27  H46 ZIN A   1      20.740   4.845  12.576  0.00  0.00     0.159 HD
ATOM     28  H47 ZIN A   1      20.002   5.219  14.038  0.00  0.00     0.159 HD
ATOM     29  O27 ZIN A   1      18.148   3.643  13.751  0.00  0.00    -0.268 OA
ENDBRANCH  20  25
ENDBRANCH   1  18
TORSDOF 9
ENDMDL
MODEL 5
REMARK VINA RESULT:      -7.2      2.686      4.836
REMARK  9 active torsions:
REMARK  status: ('A' for Active; 'I' for Inactive)
REMARK    1  A    between atoms: C2_2  and  C4_3 
REMARK    2  A    between atoms: C2_2  and  N12_11 
REMARK    3  A    between atoms: C4_3  and  C5_4 
REMARK    4  A    between atoms: C5_4  and  C6_5 
REMARK    5  A    between atoms: N12_11  and  C15_14 
REMARK    6  A    between atoms: C15_14  and  C16_15 
REMARK    7  A    between atoms: C16_15  and  O18_16 
REMARK    8  A    between atoms: C16_15  and  C19_17 
REMARK    9  A    between atoms: C24_22  and  C25_23 
REMARK       I    between atoms: C25_23  and  N26_24 
ROOT
ATOM      1  C16 ZIN A   1      20.349  -1.047  10.767  0.00  0.00     0.176 C 
ENDROOT
BRANCH   1   2
ATOM      2  C15 ZIN A   1      19.444  -0.631  11.928  0.00  0.00     0.269 C 
BRANCH   2   3
ATOM      3  N12 ZIN A   1      20.268  -0.335  13.109  0.00  0.00    -0.069 N 
ATOM      4  H13 ZIN A   1      21.065   0.218  12.833  0.00  0.00     0.277 HD
ATOM      5  H14 ZIN A   1      20.585  -1.200  13.522  0.00  0.00     0.277 HD
BRANCH   3   6
ATOM      6  C2  ZIN A   1      19.468   0.411  14.089  0.00  0.00     0.182 C 
ATOM      7  C1  ZIN A   1      18.696  -0.573  14.971  0.00  0.00     0.040 C 
BRANCH   6   8
ATOM      8  C4  ZIN A   1      18.480   1.320  13.355  0.00  0.00     0.037 C 
BRANCH   8   9
ATOM      9  C5  ZIN A   1      18.882   2.782  13.563  0.00  0.00     0.040 C 
BRANCH   9  10
ATOM     10  C6  ZIN A   1      18.179   3.645  12.546  0.00  0.00    -0.058 A 
ATOM     11  C11 ZIN A   1      17.221   4.553  12.953  0.00  0.00     0.007 A 
ATOM     12  C10 ZIN A   1      16.580   5.347  12.021  0.00  0.00     0.001 A 
ATOM     13  C9  ZIN A   1      16.892   5.227  10.680  0.00  0.00     0.000 A 
ATOM     14  C8  ZIN A   1      17.847   4.315  10.272  0.00  0.00     0.001 A 
ATOM     15  C7  ZIN A   1      18.491   3.523  11.204  0.00  0.00     0.007 A 
ENDBRANCH   9  10
ENDBRANCH   8   9
ENDBRANCH   6   8
ENDBRANCH   3   6
ENDBRANCH   2   3
ENDBRANCH   1   2
BRANCH   1  16
ATOM     16  O18 ZIN A   1      21.660  -0.516  10.970  0.00  0.00    -0.389 OA
ATOM     17  H43 ZIN A   1      22.059  -0.766  11.814  0.00  0.00     0.210 HD
ENDBRANCH   1  16
BRANCH   1  18
ATOM     18  C19 ZIN A   1      19.786  -0.513   9.475  0.00  0.00    -0.027 A 
ATOM     19  C28 ZIN A   1      19.564  -1.368   8.418  0.00  0.00     0.029 A 
ATOM     20  C24 ZIN A   1      19.036  -0.875   7.222  0.00  0.00     0.068 A 
ATOM     21  C22 ZIN A   1      18.747   0.491   7.104  0.00  0.00     0.122 A 
ATOM     22  C21 ZIN A   1      18.981   1.339   8.176  0.00  0.00     0.041 A 
ATOM     23  O23 ZIN A   1      18.239   0.982   5.945  0.00  0.00    -0.191 OA
ATOM     24  C20 ZIN A   1      19.499   0.837   9.354  0.00  0.00     0.012 A 
BRANCH  20  25
ATOM     25  C25 ZIN A   1      18.790  -1.787   6.088  0.00  0.00     0.252 C 
ATOM     26  N26 ZIN A   1      17.549  -1.905   5.576  0.00  0.00    -0.366 N 
ATOM     27  H46 ZIN A   1      16.818  -1.391   5.952  0.00  0.00     0.159 HD
ATOM     28  H47 ZIN A   1      17.388  -2.504   4.830  0.00  0.00     0.159 HD
ATOM     29  O27 ZIN A   1      19.707  -2.431   5.616  0.00  0.00    -0.268 OA
ENDBRANCH  20  25
ENDBRANCH   1  18
TORSDOF 9
ENDMDL
MODEL 6
REMARK VINA RESULT:      -7.2      3.544      6.650
REMARK  9 active torsions:
REMARK  status: ('A' for Active; 'I' for Inactive)
REMARK    1  A    between atoms: C2_2  and  C4_3 
REMARK    2  A    between atoms: C2_2  and  N12_11 
REMARK    3  A    between atoms: C4_3  and  C5_4 
REMARK    4  A    between atoms: C5_4  and  C6_5 
REMARK    5  A    between atoms: N12_11  and  C15_14 
REMARK    6  A    between atoms: C15_14  and  C16_15 
REMARK    7  A    between atoms: C16_15  and  O18_16 
REMARK    8  A    between atoms: C16_15  and  C19_17 
REMARK    9  A    between atoms: C24_22  and  C25_23 
REMARK       I    between atoms: C25_23  and  N26_24 
ROOT
ATOM      1  C16 ZIN A   1      20.382  -0.602  10.874  0.00  0.00     0.176 C 
ENDROOT
BRANCH   1   2
ATOM      2  C15 ZIN A   1      19.930   0.422  11.917  0.00  0.00     0.269 C 
BRANCH   2   3
ATOM      3  N12 ZIN A   1      20.179  -0.108  13.264  0.00  0.00    -0.069 N 
ATOM      4  H13 ZIN A   1      20.137   0.644  13.935  0.00  0.00     0.277 HD
ATOM      5  H14 ZIN A   1      21.094  -0.535  13.293  0.00  0.00     0.277 HD
BRANCH   3   6
ATOM      6  C2  ZIN A   1      19.160  -1.115  13.590  0.00  0.00     0.182 C 
ATOM      7  C1  ZIN A   1      17.804  -0.663  13.042  0.00  0.00     0.040 C 
BRANCH   6   8
ATOM      8  C4  ZIN A   1      19.068  -1.273  15.109  0.00  0.00     0.037 C 
BRANCH   8   9
ATOM      9  C5  ZIN A   1      17.791  -0.599  15.616  0.00  0.00     0.040 C 
BRANCH   9  10
ATOM     10  C6  ZIN A   1      18.152   0.490  16.594  0.00  0.00    -0.058 A 
ATOM     11  C11 ZIN A   1      18.945   1.547  16.190  0.00  0.00     0.007 A 
ATOM     12  C10 ZIN A   1      19.272   2.548  17.086  0.00  0.00     0.001 A 
ATOM     13  C9  ZIN A   1      18.814   2.486  18.388  0.00  0.00     0.000 A 
ATOM     14  C8  ZIN A   1      18.024   1.427  18.793  0.00  0.00     0.001 A 
ATOM     15  C7  ZIN A   1      17.693   0.427  17.896  0.00  0.00     0.007 A 
ENDBRANCH   9  10
ENDBRANCH   8   9
ENDBRANCH   6   8
ENDBRANCH   3   6
ENDBRANCH   2   3
ENDBRANCH   1   2
BRANCH   1  16
ATOM     16  O18 ZIN A   1      21.810  -0.619  10.810  0.00  0.00    -0.389 OA
ATOM     17  H43 ZIN A   1      22.163  -0.648   9.911  0.00  0.00     0.210 HD
ENDBRANCH   1  16
BRANCH   1  18
ATOM     18  C19 ZIN A   1      19.824  -0.227   9.526  0.00  0.00    -0.027 A 
ATOM     19  C28 ZIN A   1      19.621  -1.200   8.572  0.00  0.00     0.029 A 
ATOM     20  C24 ZIN A   1      19.097  -0.855   7.324  0.00  0.00     0.068 A 
ATOM     21  C22 ZIN A   1      18.793   0.486   7.048  0.00  0.00     0.122 A 
ATOM     22  C21 ZIN A   1      19.009   1.454   8.018  0.00  0.00     0.041 A 
ATOM     23  O23 ZIN A   1      18.289   0.834   5.837  0.00  0.00    -0.191 OA
ATOM     24  C20 ZIN A   1      19.523   1.097   9.249  0.00  0.00     0.012 A 
BRANCH  20  25
ATOM     25  C25 ZIN A   1      18.871  -1.893   6.300  0.00  0.00     0.252 C 
ATOM     26  N26 ZIN A   1      17.656  -2.025   5.731  0.00  0.00    -0.366 N 
ATOM     27  H46 ZIN A   1      16.932  -1.436   5.994  0.00  0.00     0.159 HD
ATOM     28  H47 ZIN A   1      17.508  -2.706   5.057  0.00  0.00     0.159 HD
ATOM     29  O27 ZIN A   1      19.780  -2.631   5.971  0.00  0.00    -0.268 OA
ENDBRANCH  20  25
ENDBRANCH   1  18
TORSDOF 9
ENDMDL
MODEL 7
REMARK VINA RESULT:      -7.1      3.031      5.878
REMARK  9 active torsions:
REMARK  status: ('A' for Active; 'I' for Inactive)
REMARK    1  A    between atoms: C2_2  and  C4_3 
REMARK    2  A    between atoms: C2_2  and  N12_11 
REMARK    3  A    between atoms: C4_3  and  C5_4 
REMARK    4  A    between atoms: C5_4  and  C6_5 
REMARK    5  A    between atoms: N12_11  and  C15_14 
REMARK    6  A    between atoms: C15_14  and  C16_15 
REMARK    7  A    between atoms: C16_15  and  O18_16 
REMARK    8  A    between atoms: C16_15  and  C19_17 
REMARK    9  A    between atoms: C24_22  and  C25_23 
REMARK       I    between atoms: C25_23  and  N26_24 
ROOT
ATOM      1  C16 ZIN A   1      17.541  -0.347  13.129  0.00  0.00     0.176 C 
ENDROOT
BRANCH   1   2
ATOM      2  C15 ZIN A   1      18.688  -0.635  12.158  0.00  0.00     0.269 C 
BRANCH   2   3
ATOM      3  N12 ZIN A   1      18.148  -1.215  10.921  0.00  0.00    -0.069 N 
ATOM      4  H13 ZIN A   1      17.158  -1.031  10.867  0.00  0.00     0.277 HD
ATOM      5  H14 ZIN A   1      18.305  -2.213  10.921  0.00  0.00     0.277 HD
BRANCH   3   6
ATOM      6  C2  ZIN A   1      18.823  -0.614   9.763  0.00  0.00     0.182 C 
ATOM      7  C1  ZIN A   1      20.298  -0.383  10.097  0.00  0.00     0.040 C 
BRANCH   6   8
ATOM      8  C4  ZIN A   1      18.161   0.724   9.425  0.00  0.00     0.037 C 
BRANCH   8   9
ATOM      9  C5  ZIN A   1      19.218   1.831   9.431  0.00  0.00     0.040 C 
BRANCH   9  10
ATOM     10  C6  ZIN A   1      18.881   2.842  10.496  0.00  0.00    -0.058 A 
ATOM     11  C11 ZIN A   1      19.834   3.209  11.427  0.00  0.00     0.007 A 
ATOM     12  C10 ZIN A   1      19.526   4.140  12.402  0.00  0.00     0.001 A 
ATOM     13  C9  ZIN A   1      18.262   4.696  12.451  0.00  0.00     0.000 A 
ATOM     14  C8  ZIN A   1      17.307   4.325  11.523  0.00  0.00     0.001 A 
ATOM     15  C7  ZIN A   1      17.616   3.397  10.545  0.00  0.00     0.007 A 
ENDBRANCH   9  10
ENDBRANCH   8   9
ENDBRANCH   6   8
ENDBRANCH   3   6
ENDBRANCH   2   3
ENDBRANCH   1   2
BRANCH   1  16
ATOM     16  O18 ZIN A   1      16.684   0.651  12.571  0.00  0.00    -0.389 OA
ATOM     17  H43 ZIN A   1      15.922   0.869  13.125  0.00  0.00     0.210 HD
ENDBRANCH   1  16
BRANCH   1  18
ATOM     18  C19 ZIN A   1      18.103   0.147  14.437  0.00  0.00    -0.027 A 
ATOM     19  C28 ZIN A   1      18.324   1.494  14.624  0.00  0.00     0.029 A 
ATOM     20  C24 ZIN A   1      18.838   1.954  15.838  0.00  0.00     0.068 A 
ATOM     21  C22 ZIN A   1      19.137   1.037  16.856  0.00  0.00     0.122 A 
ATOM     22  C21 ZIN A   1      18.913  -0.316  16.649  0.00  0.00     0.041 A 
ATOM     23  O23 ZIN A   1      19.642   1.471  18.038  0.00  0.00    -0.191 OA
ATOM     24  C20 ZIN A   1      18.400  -0.757  15.444  0.00  0.00     0.012 A 
BRANCH  20  25
ATOM     25  C25 ZIN A   1      19.071   3.396  16.048  0.00  0.00     0.252 C 
ATOM     26  N26 ZIN A   1      20.327   3.860  16.200  0.00  0.00    -0.366 N 
ATOM     27  H46 ZIN A   1      21.077   3.247  16.170  0.00  0.00     0.159 HD
ATOM     28  H47 ZIN A   1      20.480   4.808  16.337  0.00  0.00     0.159 HD
ATOM     29  O27 ZIN A   1      18.129   4.165  16.085  0.00  0.00    -0.268 OA
ENDBRANCH  20  25
ENDBRANCH   1  18
TORSDOF 9
ENDMDL
MODEL 8
REMARK VINA RESULT:      -7.1      2.581      5.298
REMARK  9 active torsions:
REMARK  status: ('A' for Active; 'I' for Inactive)
REMARK    1  A    between atoms: C2_2  and  C4_3 
REMARK    2  A    between atoms: C2_2  and  N12_11 
REMARK    3  A    between atoms: C4_3  and  C5_4 
REMARK    4  A    between atoms: C5_4  and  C6_5 
REMARK    5  A    between atoms: N12_11  and  C15_14 
REMARK    6  A    between atoms: C15_14  and  C16_15 
REMARK    7  A    between atoms: C16_15  and  O18_16 
REMARK    8  A    between atoms: C16_15  and  C19_17 
REMARK    9  A    between atoms: C24_22  and  C25_23 
REMARK       I    between atoms: C25_23  and  N26_24 
ROOT
ATOM      1  C16 ZIN A   1      17.877   0.900   9.314  0.00  0.00     0.176 C 
ENDROOT
BRANCH   1   2
ATOM      2  C15 ZIN A   1      19.003   0.958  10.346  0.00  0.00     0.269 C 
BRANCH   2   3
ATOM      3  N12 ZIN A   1      18.621   0.180  11.533  0.00  0.00    -0.069 N 
ATOM      4  H13 ZIN A   1      17.913  -0.493  11.281  0.00  0.00     0.277 HD
ATOM      5  H14 ZIN A   1      18.258   0.803  12.240  0.00  0.00     0.277 HD
BRANCH   3   6
ATOM      6  C2  ZIN A   1      19.800  -0.521  12.059  0.00  0.00     0.182 C 
ATOM      7  C1  ZIN A   1      20.847  -0.658  10.952  0.00  0.00     0.040 C 
BRANCH   6   8
ATOM      8  C4  ZIN A   1      19.390  -1.912  12.548  0.00  0.00     0.037 C 
BRANCH   8   9
ATOM      9  C5  ZIN A   1      17.989  -2.243  12.026  0.00  0.00     0.040 C 
BRANCH   9  10
ATOM     10  C6  ZIN A   1      18.031  -3.545  11.267  0.00  0.00    -0.058 A 
ATOM     11  C11 ZIN A   1      16.887  -4.309  11.143  0.00  0.00     0.007 A 
ATOM     12  C10 ZIN A   1      16.924  -5.501  10.443  0.00  0.00     0.001 A 
ATOM     13  C9  ZIN A   1      18.109  -5.932   9.875  0.00  0.00     0.000 A 
ATOM     14  C8  ZIN A   1      19.254  -5.169  10.004  0.00  0.00     0.001 A 
ATOM     15  C7  ZIN A   1      19.216  -3.975  10.700  0.00  0.00     0.007 A 
ENDBRANCH   9  10
ENDBRANCH   8   9
ENDBRANCH   6   8
ENDBRANCH   3   6
ENDBRANCH   2   3
ENDBRANCH   1   2
BRANCH   1  16
ATOM     16  O18 ZIN A   1      16.773   0.169   9.853  0.00  0.00    -0.389 OA
ATOM     17  H43 ZIN A   1      16.694   0.229  10.815  0.00  0.00     0.210 HD
ENDBRANCH   1  16
BRANCH   1  18
ATOM     18  C19 ZIN A   1      18.372   0.214   8.067  0.00  0.00    -0.027 A 
ATOM     19  C28 ZIN A   1      18.524  -1.155   8.051  0.00  0.00     0.029 A 
ATOM     20  C24 ZIN A   1      18.977  -1.793   6.895  0.00  0.00     0.068 A 
ATOM     21  C22 ZIN A   1      19.285  -1.031   5.759  0.00  0.00     0.122 A 
ATOM     22  C21 ZIN A   1      19.130   0.347   5.793  0.00  0.00     0.041 A 
ATOM     23  O23 ZIN A   1      19.731  -1.639   4.631  0.00  0.00    -0.191 OA
ATOM     24  C20 ZIN A   1      18.678   0.964   6.943  0.00  0.00     0.012 A 
BRANCH  20  25
ATOM     25  C25 ZIN A   1      19.137  -3.260   6.869  0.00  0.00     0.252 C 
ATOM     26  N26 ZIN A   1      20.370  -3.803   6.843  0.00  0.00    -0.366 N 
ATOM     27  H46 ZIN A   1      21.152  -3.230   6.843  0.00  0.00     0.159 HD
ATOM     28  H47 ZIN A   1      20.475  -4.767   6.828  0.00  0.00     0.159 HD
ATOM     29  O27 ZIN A   1      18.156  -3.979   6.870  0.00  0.00    -0.268 OA
ENDBRANCH  20  25
ENDBRANCH   1  18
TORSDOF 9
ENDMDL
MODEL 9
REMARK VINA RESULT:      -7.0      2.920      7.088
REMARK  9 active torsions:
REMARK  status: ('A' for Active; 'I' for Inactive)
REMARK    1  A    between atoms: C2_2  and  C4_3 
REMARK    2  A    between atoms: C2_2  and  N12_11 
REMARK    3  A    between atoms: C4_3  and  C5_4 
REMARK    4  A    between atoms: C5_4  and  C6_5 
REMARK    5  A    between atoms: N12_11  and  C15_14 
REMARK    6  A    between atoms: C15_14  and  C16_15 
REMARK    7  A    between atoms: C16_15  and  O18_16 
REMARK    8  A    between atoms: C16_15  and  C19_17 
REMARK    9  A    between atoms: C24_22  and  C25_23 
REMARK       I    between atoms: C25_23  and  N26_24 
ROOT
ATOM      1  C16 ZIN A   1      18.955  -0.121   9.418  0.00  0.00     0.176 C 
ENDROOT
BRANCH   1   2
ATOM      2  C15 ZIN A   1      18.180  -1.181  10.202  0.00  0.00     0.269 C 
BRANCH   2   3
ATOM      3  N12 ZIN A   1      19.079  -2.292  10.545  0.00  0.00    -0.069 N 
ATOM      4  H13 ZIN A   1      20.023  -1.947  10.631  0.00  0.00     0.277 HD
ATOM      5  H14 ZIN A   1      19.041  -2.991   9.817  0.00  0.00     0.277 HD
BRANCH   3   6
ATOM      6  C2  ZIN A   1      18.656  -2.888  11.819  0.00  0.00     0.182 C 
ATOM      7  C1  ZIN A   1      17.473  -3.827  11.574  0.00  0.00     0.040 C 
BRANCH   6   8
ATOM      8  C4  ZIN A   1      18.235  -1.780  12.786  0.00  0.00     0.037 C 
BRANCH   8   9
ATOM      9  C5  ZIN A   1      19.373  -1.505  13.772  0.00  0.00     0.040 C 
BRANCH   9  10
ATOM     10  C6  ZIN A   1      18.827  -0.789  14.981  0.00  0.00    -0.058 A 
ATOM     11  C11 ZIN A   1      19.086   0.556  15.163  0.00  0.00     0.007 A 
ATOM     12  C10 ZIN A   1      18.582   1.214  16.269  0.00  0.00     0.001 A 
ATOM     13  C9  ZIN A   1      17.826   0.525  17.198  0.00  0.00     0.000 A 
ATOM     14  C8  ZIN A   1      17.571  -0.822  17.019  0.00  0.00     0.001 A 
ATOM     15  C7  ZIN A   1      18.072  -1.480  15.910  0.00  0.00     0.007 A 
ENDBRANCH   9  10
ENDBRANCH   8   9
ENDBRANCH   6   8
ENDBRANCH   3   6
ENDBRANCH   2   3
ENDBRANCH   1   2
BRANCH   1  16
ATOM     16  O18 ZIN A   1      20.272  -0.602   9.138  0.00  0.00    -0.389 OA
ATOM     17  H43 ZIN A   1      20.801  -0.006   8.592  0.00  0.00     0.210 HD
ENDBRANCH   1  16
BRANCH   1  18
ATOM     18  C19 ZIN A   1      19.046   1.143  10.234  0.00  0.00    -0.027 A 
ATOM     19  C28 ZIN A   1      18.282   2.237   9.893  0.00  0.00     0.029 A 
ATOM     20  C24 ZIN A   1      18.359   3.406  10.652  0.00  0.00     0.068 A 
ATOM     21  C22 ZIN A   1      19.227   3.461  11.753  0.00  0.00     0.122 A 
ATOM     22  C21 ZIN A   1      19.992   2.351  12.080  0.00  0.00     0.041 A 
ATOM     23  O23 ZIN A   1      19.315   4.593  12.495  0.00  0.00    -0.191 OA
ATOM     24  C20 ZIN A   1      19.902   1.200  11.322  0.00  0.00     0.012 A 
BRANCH  20  25
ATOM     25  C25 ZIN A   1      17.539   4.580  10.295  0.00  0.00     0.252 C 
ATOM     26  N26 ZIN A   1      16.559   4.993  11.123  0.00  0.00    -0.366 N 
ATOM     27  H46 ZIN A   1      16.395   4.521  11.954  0.00  0.00     0.159 HD
ATOM     28  H47 ZIN A   1      16.021   5.766  10.889  0.00  0.00     0.159 HD
ATOM     29  O27 ZIN A   1      17.746   5.172   9.254  0.00  0.00    -0.268 OA
ENDBRANCH  20  25
ENDBRANCH   1  18
TORSDOF 9
ENDMDL
