MODEL 1
REMARK VINA RESULT:      -7.0      0.000      0.000
REMARK  6 active torsions:
REMARK  status: ('A' for Active; 'I' for Inactive)
REMARK    1  A    between atoms: C7_7  and  C8_8 
REMARK    2  A    between atoms: C8_8  and  O10_9 
REMARK    3  A    between atoms: C8_8  and  C17_16 
REMARK    4  A    between atoms: O10_9  and  C11_10 
REMARK    5  A    between atoms: C11_10  and  C12_11 
REMARK    6  A    between atoms: C12_11  and  N13_12 
ROOT
ATOM      1  C8  ZIN A   1      18.210   0.528  10.239  0.00  0.00     0.188 C 
ENDROOT
BRANCH   1   2
ATOM      2  C7  ZIN A   1      18.458   1.919  10.763  0.00  0.00    -0.019 A 
ATOM      3  C2  ZIN A   1      19.551   2.169  11.572  0.00  0.00    -0.053 A 
ATOM      4  C1  ZIN A   1      20.496   1.051  11.926  0.00  0.00     0.049 C 
ATOM      5  C3  ZIN A   1      19.779   3.445  12.052  0.00  0.00     0.007 A 
ATOM      6  C4  ZIN A   1      18.910   4.471  11.727  0.00  0.00     0.001 A 
ATOM      7  C5  ZIN A   1      17.815   4.220  10.922  0.00  0.00     0.001 A 
ATOM      8  C6  ZIN A   1      17.587   2.944  10.441  0.00  0.00     0.011 A 
ENDBRANCH   1   2
BRANCH   1   9
ATOM      9  O10 ZIN A   1      16.959   0.049  10.735  0.00  0.00    -0.375 OA
BRANCH   9  10
ATOM     10  C11 ZIN A   1      17.074  -0.793  11.885  0.00  0.00     0.196 C 
BRANCH  10  11
ATOM     11  C12 ZIN A   1      17.535  -2.187  11.451  0.00  0.00     0.260 C 
BRANCH  11  12
ATOM     12  N13 ZIN A   1      18.492  -2.714  12.433  0.00  0.00    -0.077 N 
ATOM     13  H14 ZIN A   1      18.121  -3.558  12.844  0.00  0.00     0.279 HD
ATOM     14  C15 ZIN A   1      19.765  -3.012  11.765  0.00  0.00     0.269 C 
ATOM     15  C16 ZIN A   1      18.713  -1.714  13.485  0.00  0.00     0.269 C 
ENDBRANCH  11  12
ENDBRANCH  10  11
ENDBRANCH   9  10
ENDBRANCH   1   9
BRANCH   1  16
ATOM     16  C17 ZIN A   1      18.176   0.558   8.733  0.00  0.00    -0.025 A 
ATOM     17  C22 ZIN A   1      17.216  -0.164   8.049  0.00  0.00     0.010 A 
ATOM     18  C21 ZIN A   1      17.183  -0.134   6.667  0.00  0.00     0.001 A 
ATOM     19  C20 ZIN A   1      18.114   0.612   5.969  0.00  0.00     0.000 A 
ATOM     20  C19 ZIN A   1      19.078   1.330   6.654  0.00  0.00     0.001 A 
ATOM     21  C18 ZIN A   1      19.109   1.303   8.035  0.00  0.00     0.010 A 
ENDBRANCH   1  16
TORSDOF 6
ENDMDL
MODEL 2
REMARK VINA RESULT:      -6.9      1.588      4.591
REMARK  6 active torsions:
REMARK  status: ('A' for Active; 'I' for Inactive)
REMARK    1  A    between atoms: C7_7  and  C8_8 
REMARK    2  A    between atoms: C8_8  and  O10_9 
REMARK    3  A    between atoms: C8_8  and  C17_16 
REMARK    4  A    between atoms: O10_9  and  C11_10 
REMARK    5  A    between atoms: C11_10  and  C12_11 
REMARK    6  A    between atoms: C12_11  and  N13_12 
ROOT
ATOM      1  C8  ZIN A   1      18.697   1.736  11.328  0.00  0.00     0.188 C 
ENDROOT
BRANCH   1   2
ATOM      2  C7  ZIN A   1      18.510   1.290   9.902  0.00  0.00    -0.019 A 
ATOM      3  C2  ZIN A   1      17.543   0.353   9.590  0.00  0.00    -0.053 A 
ATOM      4  C1  ZIN A   1      16.672  -0.220  10.678  0.00  0.00     0.049 C 
ATOM      5  C3  ZIN A   1      17.370  -0.055   8.281  0.00  0.00     0.007 A 
ATOM      6  C4  ZIN A   1      18.170   0.471   7.283  0.00  0.00     0.001 A 
ATOM      7  C5  ZIN A   1      19.140   1.404   7.594  0.00  0.00     0.001 A 
ATOM      8  C6  ZIN A   1      19.312   1.813   8.903  0.00  0.00     0.011 A 
ENDBRANCH   1   2
BRANCH   1   9
ATOM      9  O10 ZIN A   1      20.092   1.852  11.612  0.00  0.00    -0.375 OA
BRANCH   9  10
ATOM     10  C11 ZIN A   1      20.657   0.694  12.233  0.00  0.00     0.196 C 
BRANCH  10  11
ATOM     11  C12 ZIN A   1      19.959   0.443  13.572  0.00  0.00     0.260 C 
BRANCH  11  12
ATOM     12  N13 ZIN A   1      19.952  -0.997  13.859  0.00  0.00    -0.077 N 
ATOM     13  H14 ZIN A   1      20.899  -1.321  13.980  0.00  0.00     0.279 HD
ATOM     14  C15 ZIN A   1      19.186  -1.248  15.086  0.00  0.00     0.269 C 
ATOM     15  C16 ZIN A   1      19.330  -1.715  12.738  0.00  0.00     0.269 C 
ENDBRANCH  11  12
ENDBRANCH  10  11
ENDBRANCH   9  10
ENDBRANCH   1   9
BRANCH   1  16
ATOM     16  C17 ZIN A   1      18.031   3.072  11.529  0.00  0.00    -0.025 A 
ATOM     17  C22 ZIN A   1      17.790   3.541  12.806  0.00  0.00     0.010 A 
ATOM     18  C21 ZIN A   1      17.182   4.769  12.990  0.00  0.00     0.001 A 
ATOM     19  C20 ZIN A   1      16.807   5.525  11.895  0.00  0.00     0.000 A 
ATOM     20  C19 ZIN A   1      17.043   5.054  10.617  0.00  0.00     0.001 A 
ATOM     21  C18 ZIN A   1      17.654   3.828  10.433  0.00  0.00     0.010 A 
ENDBRANCH   1  16
TORSDOF 6
ENDMDL
MODEL 3
REMARK VINA RESULT:      -6.8      2.504      5.533
REMARK  6 active torsions:
REMARK  status: ('A' for Active; 'I' for Inactive)
REMARK    1  A    between atoms: C7_7  and  C8_8 
REMARK    2  A    between atoms: C8_8  and  O10_9 
REMARK    3  A    between atoms: C8_8  and  C17_16 
REMARK    4  A    between atoms: O10_9  and  C11_10 
REMARK    5  A    between atoms: C11_10  and  C12_11 
REMARK    6  A    between atoms: C12_11  and  N13_12 
ROOT
ATOM      1  C8  ZIN A   1      19.003  -0.840  12.617  0.00  0.00     0.188 C 
ENDROOT
BRANCH   1   2
ATOM      2  C7  ZIN A   1      18.693  -0.785  14.090  0.00  0.00    -0.019 A 
ATOM      3  C2  ZIN A   1      17.787   0.142  14.573  0.00  0.00    -0.053 A 
ATOM      4  C1  ZIN A   1      17.106   1.093  13.623  0.00  0.00     0.049 C 
ATOM      5  C3  ZIN A   1      17.502   0.192  15.924  0.00  0.00     0.007 A 
ATOM      6  C4  ZIN A   1      18.128  -0.681  16.795  0.00  0.00     0.001 A 
ATOM      7  C5  ZIN A   1      19.037  -1.604  16.313  0.00  0.00     0.001 A 
ATOM      8  C6  ZIN A   1      19.321  -1.655  14.962  0.00  0.00     0.011 A 
ENDBRANCH   1   2
BRANCH   1   9
ATOM      9  O10 ZIN A   1      20.353  -0.427  12.398  0.00  0.00    -0.375 OA
BRANCH   9  10
ATOM     10  C11 ZIN A   1      20.474   0.865  11.796  0.00  0.00     0.196 C 
BRANCH  10  11
ATOM     11  C12 ZIN A   1      19.389   1.032  10.729  0.00  0.00     0.260 C 
BRANCH  11  12
ATOM     12  N13 ZIN A   1      19.980   0.853   9.397  0.00  0.00    -0.077 N 
ATOM     13  H14 ZIN A   1      20.974   1.020   9.445  0.00  0.00     0.279 HD
ATOM     14  C15 ZIN A   1      19.736  -0.519   8.933  0.00  0.00     0.269 C 
ATOM     15  C16 ZIN A   1      19.369   1.804   8.459  0.00  0.00     0.269 C 
ENDBRANCH  11  12
ENDBRANCH  10  11
ENDBRANCH   9  10
ENDBRANCH   1   9
BRANCH   1  16
ATOM     16  C17 ZIN A   1      18.823  -2.251  12.119  0.00  0.00    -0.025 A 
ATOM     17  C22 ZIN A   1      19.927  -3.036  11.848  0.00  0.00     0.010 A 
ATOM     18  C21 ZIN A   1      19.761  -4.331  11.395  0.00  0.00     0.001 A 
ATOM     19  C20 ZIN A   1      18.490  -4.839  11.204  0.00  0.00     0.000 A 
ATOM     20  C19 ZIN A   1      17.384  -4.052  11.470  0.00  0.00     0.001 A 
ATOM     21  C18 ZIN A   1      17.550  -2.759  11.927  0.00  0.00     0.010 A 
ENDBRANCH   1  16
TORSDOF 6
ENDMDL
MODEL 4
REMARK VINA RESULT:      -6.7      1.972      4.597
REMARK  6 active torsions:
REMARK  status: ('A' for Active; 'I' for Inactive)
REMARK    1  A    between atoms: C7_7  and  C8_8 
REMARK    2  A    between atoms: C8_8  and  O10_9 
REMARK    3  A    between atoms: C8_8  and  C17_16 
REMARK    4  A    between atoms: O10_9  and  C11_10 
REMARK    5  A    between atoms: C11_10  and  C12_11 
REMARK    6  A    between atoms: C12_11  and  N13_12 
ROOT
ATOM      1  C8  ZIN A   1      18.504   1.078  10.172  0.00  0.00     0.188 C 
ENDROOT
BRANCH   1   2
ATOM      2  C7  ZIN A   1      18.754  -0.234  10.868  0.00  0.00    -0.019 A 
ATOM      3  C2  ZIN A   1      17.883  -0.675  11.848  0.00  0.00    -0.053 A 
ATOM      4  C1  ZIN A   1      16.682   0.156  12.216  0.00  0.00     0.049 C 
ATOM      5  C3  ZIN A   1      18.112  -1.879  12.486  0.00  0.00     0.007 A 
ATOM      6  C4  ZIN A   1      19.216  -2.641  12.148  0.00  0.00     0.001 A 
ATOM      7  C5  ZIN A   1      20.088  -2.198  11.172  0.00  0.00     0.001 A 
ATOM      8  C6  ZIN A   1      19.859  -0.995  10.533  0.00  0.00     0.011 A 
ENDBRANCH   1   2
BRANCH   1   9
ATOM      9  O10 ZIN A   1      19.616   1.949  10.384  0.00  0.00    -0.375 OA
BRANCH   9  10
ATOM     10  C11 ZIN A   1      19.387   2.953  11.376  0.00  0.00     0.196 C 
BRANCH  10  11
ATOM     11  C12 ZIN A   1      18.218   3.840  10.941  0.00  0.00     0.260 C 
BRANCH  11  12
ATOM     12  N13 ZIN A   1      17.241   3.933  12.034  0.00  0.00    -0.077 N 
ATOM     13  H14 ZIN A   1      16.504   3.261  11.884  0.00  0.00     0.279 HD
ATOM     14  C15 ZIN A   1      17.908   3.652  13.312  0.00  0.00     0.269 C 
ATOM     15  C16 ZIN A   1      16.671   5.286  12.066  0.00  0.00     0.269 C 
ENDBRANCH  11  12
ENDBRANCH  10  11
ENDBRANCH   9  10
ENDBRANCH   1   9
BRANCH   1  16
ATOM     16  C17 ZIN A   1      18.327   0.838   8.695  0.00  0.00    -0.025 A 
ATOM     17  C22 ZIN A   1      19.157   1.468   7.787  0.00  0.00     0.010 A 
ATOM     18  C21 ZIN A   1      18.998   1.244   6.433  0.00  0.00     0.001 A 
ATOM     19  C20 ZIN A   1      18.002   0.396   5.985  0.00  0.00     0.000 A 
ATOM     20  C19 ZIN A   1      17.168  -0.231   6.893  0.00  0.00     0.001 A 
ATOM     21  C18 ZIN A   1      17.330  -0.010   8.247  0.00  0.00     0.010 A 
ENDBRANCH   1  16
TORSDOF 6
ENDMDL
MODEL 5
REMARK VINA RESULT:      -6.4      2.833      6.477
REMARK  6 active torsions:
REMARK  status: ('A' for Active; 'I' for Inactive)
REMARK    1  A    between atoms: C7_7  and  C8_8 
REMARK    2  A    between atoms: C8_8  and  O10_9 
REMARK    3  A    between atoms: C8_8  and  C17_16 
REMARK    4  A    between atoms: O10_9  and  C11_10 
REMARK    5  A    between atoms: C11_10  and  C12_11 
REMARK    6  A    between atoms: C12_11  and  N13_12 
ROOT
ATOM      1  C8  ZIN A   1      18.724   1.292  13.846  0.00  0.00     0.188 C 
ENDROOT
BRANCH   1   2
ATOM      2  C7  ZIN A   1      18.401   0.698  12.500  0.00  0.00    -0.019 A 
ATOM      3  C2  ZIN A   1      19.420   0.372  11.625  0.00  0.00    -0.053 A 
ATOM      4  C1  ZIN A   1      20.855   0.606  12.020  0.00  0.00     0.049 C 
ATOM      5  C3  ZIN A   1      19.124  -0.173  10.390  0.00  0.00     0.007 A 
ATOM      6  C4  ZIN A   1      17.806  -0.387  10.028  0.00  0.00     0.001 A 
ATOM      7  C5  ZIN A   1      16.788  -0.057  10.900  0.00  0.00     0.001 A 
ATOM      8  C6  ZIN A   1      17.084   0.487  12.136  0.00  0.00     0.011 A 
ENDBRANCH   1   2
BRANCH   1   9
ATOM      9  O10 ZIN A   1      17.986   2.502  14.023  0.00  0.00    -0.375 OA
BRANCH   9  10
ATOM     10  C11 ZIN A   1      18.796   3.680  14.039  0.00  0.00     0.196 C 
BRANCH  10  11
ATOM     11  C12 ZIN A   1      18.682   4.394  12.690  0.00  0.00     0.260 C 
BRANCH  11  12
ATOM     12  N13 ZIN A   1      17.346   4.162  12.125  0.00  0.00    -0.077 N 
ATOM     13  H14 ZIN A   1      16.919   3.373  12.585  0.00  0.00     0.279 HD
ATOM     14  C15 ZIN A   1      16.515   5.355  12.325  0.00  0.00     0.269 C 
ATOM     15  C16 ZIN A   1      17.466   3.884  10.688  0.00  0.00     0.269 C 
ENDBRANCH  11  12
ENDBRANCH  10  11
ENDBRANCH   9  10
ENDBRANCH   1   9
BRANCH   1  16
ATOM     16  C17 ZIN A   1      18.351   0.312  14.929  0.00  0.00    -0.025 A 
ATOM     17  C22 ZIN A   1      19.043  -0.878  15.054  0.00  0.00     0.010 A 
ATOM     18  C21 ZIN A   1      18.703  -1.774  16.050  0.00  0.00     0.001 A 
ATOM     19  C20 ZIN A   1      17.666  -1.484  16.917  0.00  0.00     0.000 A 
ATOM     20  C19 ZIN A   1      16.971  -0.296  16.789  0.00  0.00     0.001 A 
ATOM     21  C18 ZIN A   1      17.313   0.602  15.795  0.00  0.00     0.010 A 
ENDBRANCH   1  16
TORSDOF 6
ENDMDL
MODEL 6
REMARK VINA RESULT:      -6.4      2.460      5.428
REMARK  6 active torsions:
REMARK  status: ('A' for Active; 'I' for Inactive)
REMARK    1  A    between atoms: C7_7  and  C8_8 
REMARK    2  A    between atoms: C8_8  and  O10_9 
REMARK    3  A    between atoms: C8_8  and  C17_16 
REMARK    4  A    between atoms: O10_9  and  C11_10 
REMARK    5  A    between atoms: C11_10  and  C12_11 
REMARK    6  A    between atoms: C12_11  and  N13_12 
ROOT
ATOM      1  C8  ZIN A   1      18.535  -1.005  12.813  0.00  0.00     0.188 C 
ENDROOT
BRANCH   1   2
ATOM      2  C7  ZIN A   1      18.716   0.343  12.166  0.00  0.00    -0.019 A 
ATOM      3  C2  ZIN A   1      17.777   0.811  11.265  0.00  0.00    -0.053 A 
ATOM      4  C1  ZIN A   1      16.569  -0.027  10.935  0.00  0.00     0.049 C 
ATOM      5  C3  ZIN A   1      17.942   2.048  10.672  0.00  0.00     0.007 A 
ATOM      6  C4  ZIN A   1      19.051   2.817  10.976  0.00  0.00     0.001 A 
ATOM      7  C5  ZIN A   1      19.993   2.348  11.872  0.00  0.00     0.001 A 
ATOM      8  C6  ZIN A   1      19.827   1.111  12.466  0.00  0.00     0.011 A 
ENDBRANCH   1   2
BRANCH   1   9
ATOM      9  O10 ZIN A   1      19.657  -1.835  12.506  0.00  0.00    -0.375 OA
BRANCH   9  10
ATOM     10  C11 ZIN A   1      19.382  -2.847  11.534  0.00  0.00     0.196 C 
BRANCH  10  11
ATOM     11  C12 ZIN A   1      18.105  -3.594  11.926  0.00  0.00     0.260 C 
BRANCH  11  12
ATOM     12  N13 ZIN A   1      17.215  -3.686  10.761  0.00  0.00    -0.077 N 
ATOM     13  H14 ZIN A   1      16.417  -3.085  10.900  0.00  0.00     0.279 HD
ATOM     14  C15 ZIN A   1      17.941  -3.266   9.556  0.00  0.00     0.269 C 
ATOM     15  C16 ZIN A   1      16.760  -5.073  10.602  0.00  0.00     0.269 C 
ENDBRANCH  11  12
ENDBRANCH  10  11
ENDBRANCH   9  10
ENDBRANCH   1   9
BRANCH   1  16
ATOM     16  C17 ZIN A   1      18.429  -0.835  14.306  0.00  0.00    -0.025 A 
ATOM     17  C22 ZIN A   1      17.482   0.019  14.840  0.00  0.00     0.010 A 
ATOM     18  C21 ZIN A   1      17.382   0.171  16.210  0.00  0.00     0.001 A 
ATOM     19  C20 ZIN A   1      18.234  -0.524  17.047  0.00  0.00     0.000 A 
ATOM     20  C19 ZIN A   1      19.185  -1.374  16.513  0.00  0.00     0.001 A 
ATOM     21  C18 ZIN A   1      19.283  -1.529  15.143  0.00  0.00     0.010 A 
ENDBRANCH   1  16
TORSDOF 6
ENDMDL
MODEL 7
REMARK VINA RESULT:      -6.3      2.616      6.603
REMARK  6 active torsions:
REMARK  status: ('A' for Active; 'I' for Inactive)
REMARK    1  A    between atoms: C7_7  and  C8_8 
REMARK    2  A    between atoms: C8_8  and  O10_9 
REMARK    3  A    between atoms: C8_8  and  C17_16 
REMARK    4  A    between atoms: O10_9  and  C11_10 
REMARK    5  A    between atoms: C11_10  and  C12_11 
REMARK    6  A    between atoms: C12_11  and  N13_12 
ROOT
ATOM      1  C8  ZIN A   1      18.411  -0.268  12.845  0.00  0.00     0.188 C 
ENDROOT
BRANCH   1   2
ATOM      2  C7  ZIN A   1      18.619  -1.608  12.188  0.00  0.00    -0.019 A 
ATOM      3  C2  ZIN A   1      19.694  -1.803  11.340  0.00  0.00    -0.053 A 
ATOM      4  C1  ZIN A   1      20.660  -0.677  11.078  0.00  0.00     0.049 C 
ATOM      5  C3  ZIN A   1      19.885  -3.032  10.737  0.00  0.00     0.007 A 
ATOM      6  C4  ZIN A   1      18.998  -4.065  10.979  0.00  0.00     0.001 A 
ATOM      7  C5  ZIN A   1      17.921  -3.868  11.822  0.00  0.00     0.001 A 
ATOM      8  C6  ZIN A   1      17.730  -2.640  12.425  0.00  0.00     0.011 A 
ENDBRANCH   1   2
BRANCH   1   9
ATOM      9  O10 ZIN A   1      17.203   0.319  12.358  0.00  0.00    -0.375 OA
BRANCH   9  10
ATOM     10  C11 ZIN A   1      17.398   1.239  11.281  0.00  0.00     0.196 C 
BRANCH  10  11
ATOM     11  C12 ZIN A   1      17.906   2.572  11.837  0.00  0.00     0.260 C 
BRANCH  11  12
ATOM     12  N13 ZIN A   1      18.582   3.322  10.770  0.00  0.00    -0.077 N 
ATOM     13  H14 ZIN A   1      19.434   3.724  11.130  0.00  0.00     0.279 HD
ATOM     14  C15 ZIN A   1      18.899   2.415   9.660  0.00  0.00     0.269 C 
ATOM     15  C16 ZIN A   1      17.700   4.393  10.291  0.00  0.00     0.269 C 
ENDBRANCH  11  12
ENDBRANCH  10  11
ENDBRANCH   9  10
ENDBRANCH   1   9
BRANCH   1  16
ATOM     16  C17 ZIN A   1      18.314  -0.451  14.337  0.00  0.00    -0.025 A 
ATOM     17  C22 ZIN A   1      17.339   0.216  15.055  0.00  0.00     0.010 A 
ATOM     18  C21 ZIN A   1      17.249   0.044  16.423  0.00  0.00     0.001 A 
ATOM     19  C20 ZIN A   1      18.139  -0.787  17.077  0.00  0.00     0.000 A 
ATOM     20  C19 ZIN A   1      19.118  -1.450  16.360  0.00  0.00     0.001 A 
ATOM     21  C18 ZIN A   1      19.206  -1.282  14.991  0.00  0.00     0.010 A 
ENDBRANCH   1  16
TORSDOF 6
ENDMDL
MODEL 8
REMARK VINA RESULT:      -6.3      1.963      5.011
REMARK  6 active torsions:
REMARK  status: ('A' for Active; 'I' for Inactive)
REMARK    1  A    between atoms: C7_7  and  C8_8 
REMARK    2  A    between atoms: C8_8  and  O10_9 
REMARK    3  A    between atoms: C8_8  and  C17_16 
REMARK    4  A    between atoms: O10_9  and  C11_10 
REMARK    5  A    between atoms: C11_10  and  C12_11 
REMARK    6  A    between atoms: C12_11  and  N13_12 
ROOT
ATOM      1  C8  ZIN A   1      19.003   2.330  10.545  0.00  0.00     0.188 C 
ENDROOT
BRANCH   1   2
ATOM      2  C7  ZIN A   1      18.528   1.031  11.140  0.00  0.00    -0.019 A 
ATOM      3  C2  ZIN A   1      19.399   0.245  11.872  0.00  0.00    -0.053 A 
ATOM      4  C1  ZIN A   1      20.823   0.692  12.079  0.00  0.00     0.049 C 
ATOM      5  C3  ZIN A   1      18.963  -0.947  12.418  0.00  0.00     0.007 A 
ATOM      6  C4  ZIN A   1      17.655  -1.357  12.228  0.00  0.00     0.001 A 
ATOM      7  C5  ZIN A   1      16.786  -0.574  11.492  0.00  0.00     0.001 A 
ATOM      8  C6  ZIN A   1      17.222   0.618  10.947  0.00  0.00     0.011 A 
ENDBRANCH   1   2
BRANCH   1   9
ATOM      9  O10 ZIN A   1      18.733   2.339   9.142  0.00  0.00    -0.375 OA
BRANCH   9  10
ATOM     10  C11 ZIN A   1      19.586   1.481   8.381  0.00  0.00     0.196 C 
BRANCH  10  11
ATOM     11  C12 ZIN A   1      18.867   1.055   7.099  0.00  0.00     0.260 C 
BRANCH  11  12
ATOM     12  N13 ZIN A   1      18.672  -0.401   7.107  0.00  0.00    -0.077 N 
ATOM     13  H14 ZIN A   1      17.689  -0.608   7.195  0.00  0.00     0.279 HD
ATOM     14  C15 ZIN A   1      19.183  -0.970   5.854  0.00  0.00     0.269 C 
ATOM     15  C16 ZIN A   1      19.398  -0.984   8.243  0.00  0.00     0.269 C 
ENDBRANCH  11  12
ENDBRANCH  10  11
ENDBRANCH   9  10
ENDBRANCH   1   9
BRANCH   1  16
ATOM     16  C17 ZIN A   1      18.281   3.478  11.203  0.00  0.00    -0.025 A 
ATOM     17  C22 ZIN A   1      17.427   4.273  10.464  0.00  0.00     0.010 A 
ATOM     18  C21 ZIN A   1      16.761   5.323  11.069  0.00  0.00     0.001 A 
ATOM     19  C20 ZIN A   1      16.957   5.583  12.412  0.00  0.00     0.000 A 
ATOM     20  C19 ZIN A   1      17.816   4.790  13.151  0.00  0.00     0.001 A 
ATOM     21  C18 ZIN A   1      18.478   3.738  12.547  0.00  0.00     0.010 A 
ENDBRANCH   1  16
TORSDOF 6
ENDMDL
MODEL 9
REMARK VINA RESULT:      -6.3      3.355      6.395
REMARK  6 active torsions:
REMARK  status: ('A' for Active; 'I' for Inactive)
REMARK    1  A    between atoms: C7_7  and  C8_8 
REMARK    2  A    between atoms: C8_8  and  O10_9 
REMARK    3  A    between atoms: C8_8  and  C17_16 
REMARK    4  A    between atoms: O10_9  and  C11_10 
REMARK    5  A    between atoms: C11_10  and  C12_11 
REMARK    6  A    between atoms: C12_11  and  N13_12 
ROOT
ATOM      1  C8  ZIN A   1      18.779   2.166  13.758  0.00  0.00     0.188 C 
ENDROOT
BRANCH   1   2
ATOM      2  C7  ZIN A   1      18.555   1.977  12.281  0.00  0.00    -0.019 A 
ATOM      3  C2  ZIN A   1      19.302   2.701  11.369  0.00  0.00    -0.053 A 
ATOM      4  C1  ZIN A   1      20.344   3.675  11.855  0.00  0.00     0.049 C 
ATOM      5  C3  ZIN A   1      19.097   2.527  10.013  0.00  0.00     0.007 A 
ATOM      6  C4  ZIN A   1      18.140   1.632   9.569  0.00  0.00     0.001 A 
ATOM      7  C5  ZIN A   1      17.391   0.913  10.479  0.00  0.00     0.001 A 
ATOM      8  C6  ZIN A   1      17.596   1.086  11.835  0.00  0.00     0.011 A 
ENDBRANCH   1   2
BRANCH   1   9
ATOM      9  O10 ZIN A   1      17.761   3.016  14.290  0.00  0.00    -0.375 OA
BRANCH   9  10
ATOM     10  C11 ZIN A   1      18.245   4.276  14.763  0.00  0.00     0.196 C 
BRANCH  10  11
ATOM     11  C12 ZIN A   1      19.267   4.041  15.878  0.00  0.00     0.260 C 
BRANCH  11  12
ATOM     12  N13 ZIN A   1      19.703   5.334  16.422  0.00  0.00    -0.077 N 
ATOM     13  H14 ZIN A   1      20.017   5.210  17.372  0.00  0.00     0.279 HD
ATOM     14  C15 ZIN A   1      20.804   5.863  15.607  0.00  0.00     0.269 C 
ATOM     15  C16 ZIN A   1      18.578   6.279  16.398  0.00  0.00     0.269 C 
ENDBRANCH  11  12
ENDBRANCH  10  11
ENDBRANCH   9  10
ENDBRANCH   1   9
BRANCH   1  16
ATOM     16  C17 ZIN A   1      18.727   0.828  14.449  0.00  0.00    -0.025 A 
ATOM     17  C22 ZIN A   1      17.764   0.581  15.408  0.00  0.00     0.010 A 
ATOM     18  C21 ZIN A   1      17.714  -0.648  16.039  0.00  0.00     0.001 A 
ATOM     19  C20 ZIN A   1      18.634  -1.628  15.716  0.00  0.00     0.000 A 
ATOM     20  C19 ZIN A   1      19.602  -1.380  14.760  0.00  0.00     0.001 A 
ATOM     21  C18 ZIN A   1      19.649  -0.152  14.127  0.00  0.00     0.010 A 
ENDBRANCH   1  16
TORSDOF 6
ENDMDL
