MODEL 1
REMARK VINA RESULT:      -6.4      0.000      0.000
REMARK  11 active torsions:
REMARK  status: ('A' for Active; 'I' for Inactive)
REMARK    1  A    between atoms: C2_2  and  O3_3 
REMARK    2  A    between atoms: O3_3  and  C4_4 
REMARK    3  A    between atoms: C4_4  and  C6_6 
REMARK    4  A    between atoms: C7_7  and  C8_8 
REMARK    5  A    between atoms: C8_8  and  O9_9 
REMARK    6  A    between atoms: O9_9  and  C10_10 
REMARK    7  A    between atoms: C10_10  and  C11_11 
REMARK    8  A    between atoms: C11_11  and  N12_12 
REMARK    9  A    between atoms: C19_19  and  C20_20 
REMARK   10  A    between atoms: C20_20  and  O22_22 
REMARK   11  A    between atoms: C24_24  and  C26_25 
ROOT
ATOM      1  C6  ZIN A   1      18.405  -1.398   8.163  0.00  0.00     0.055 C 
ATOM      2  C7  ZIN A   1      19.203  -2.107   7.346  0.00  0.00     0.046 C 
ATOM      3  N16 ZIN A   1      19.784  -3.271   7.771  0.00  0.00    -0.360 N 
ATOM      4  C17 ZIN A   1      19.300  -3.922   8.873  0.00  0.00     0.018 C 
ATOM      5  C18 ZIN A   1      19.662  -5.367   9.102  0.00  0.00     0.069 C 
ATOM      6  C19 ZIN A   1      18.507  -3.289   9.754  0.00  0.00     0.052 C 
ATOM      7  C24 ZIN A   1      18.132  -1.843   9.572  0.00  0.00     0.102 C 
ATOM      8  H44 ZIN A   1      20.542  -3.636   7.288  0.00  0.00     0.165 HD
ENDROOT
BRANCH   2   9
ATOM      9  C8  ZIN A   1      19.460  -1.615   5.945  0.00  0.00     0.225 C 
BRANCH   9  10
ATOM     10  O9  ZIN A   1      19.570  -2.732   5.061  0.00  0.00    -0.384 OA
BRANCH  10  11
ATOM     11  C10 ZIN A   1      18.341  -3.098   4.429  0.00  0.00     0.195 C 
BRANCH  11  12
ATOM     12  C11 ZIN A   1      18.026  -4.563   4.737  0.00  0.00     0.255 C 
BRANCH  12  13
ATOM     13  N12 ZIN A   1      17.104  -4.638   5.878  0.00  0.00    -0.077 N 
ATOM     14  H13 ZIN A   1      17.156  -5.557   6.292  0.00  0.00     0.274 HD
ATOM     15  H14 ZIN A   1      17.362  -3.944   6.564  0.00  0.00     0.274 HD
ATOM     16  H15 ZIN A   1      16.163  -4.463   5.561  0.00  0.00     0.274 HD
ENDBRANCH  12  13
ENDBRANCH  11  12
ENDBRANCH  10  11
ENDBRANCH   9  10
ENDBRANCH   2   9
BRANCH   1  17
ATOM     17  C4  ZIN A   1      17.815  -0.204   7.688  0.00  0.00     0.292 C 
ATOM     18  O5  ZIN A   1      16.604  -0.087   7.674  0.00  0.00    -0.259 OA
BRANCH  17  19
ATOM     19  O3  ZIN A   1      18.595   0.806   7.249  0.00  0.00    -0.318 OA
BRANCH  19  20
ATOM     20  C2  ZIN A   1      19.478   1.404   8.200  0.00  0.00     0.174 C 
ATOM     21  C1  ZIN A   1      18.718   2.457   9.010  0.00  0.00     0.034 C 
ENDBRANCH  19  20
ENDBRANCH  17  19
ENDBRANCH   1  17
BRANCH   7  22
ATOM     22  C26 ZIN A   1      18.930  -0.999  10.531  0.00  0.00    -0.023 A 
ATOM     23  C31 ZIN A   1      18.281  -0.162  11.421  0.00  0.00     0.041 A 
ATOM     24  C30 ZIN A   1      19.014   0.608  12.307  0.00  0.00     0.024 A 
ATOM     25 Cl32 ZIN A   1      16.547  -0.091  11.440  0.00  0.00    -0.084 Cl
ATOM     26  C29 ZIN A   1      20.395   0.550  12.292  0.00  0.00     0.002 A 
ATOM     27  C28 ZIN A   1      21.043  -0.281  11.398  0.00  0.00     0.001 A 
ATOM     28  C27 ZIN A   1      20.311  -1.055  10.517  0.00  0.00     0.010 A 
ENDBRANCH   7  22
BRANCH   6  29
ATOM     29  C20 ZIN A   1      18.019  -3.994  10.877  0.00  0.00     0.291 C 
ATOM     30  O21 ZIN A   1      18.772  -4.283  11.789  0.00  0.00    -0.260 OA
BRANCH  29  31
ATOM     31  O22 ZIN A   1      16.718  -4.346  10.940  0.00  0.00    -0.323 OA
ATOM     32  C23 ZIN A   1      16.257  -5.300   9.981  0.00  0.00     0.213 C 
ENDBRANCH  29  31
ENDBRANCH   6  29
TORSDOF 11
ENDMDL
MODEL 2
REMARK VINA RESULT:      -6.2      5.459      9.252
REMARK  11 active torsions:
REMARK  status: ('A' for Active; 'I' for Inactive)
REMARK    1  A    between atoms: C2_2  and  O3_3 
REMARK    2  A    between atoms: O3_3  and  C4_4 
REMARK    3  A    between atoms: C4_4  and  C6_6 
REMARK    4  A    between atoms: C7_7  and  C8_8 
REMARK    5  A    between atoms: C8_8  and  O9_9 
REMARK    6  A    between atoms: O9_9  and  C10_10 
REMARK    7  A    between atoms: C10_10  and  C11_11 
REMARK    8  A    between atoms: C11_11  and  N12_12 
REMARK    9  A    between atoms: C19_19  and  C20_20 
REMARK   10  A    between atoms: C20_20  and  O22_22 
REMARK   11  A    between atoms: C24_24  and  C26_25 
ROOT
ATOM      1  C6  ZIN A   1      18.195   1.462  14.987  0.00  0.00     0.055 C 
ATOM      2  C7  ZIN A   1      18.960   2.224  15.789  0.00  0.00     0.046 C 
ATOM      3  N16 ZIN A   1      19.524   3.381  15.327  0.00  0.00    -0.360 N 
ATOM      4  C17 ZIN A   1      19.048   3.975  14.190  0.00  0.00     0.018 C 
ATOM      5  C18 ZIN A   1      19.382   5.417  13.907  0.00  0.00     0.069 C 
ATOM      6  C19 ZIN A   1      18.286   3.287  13.321  0.00  0.00     0.052 C 
ATOM      7  C24 ZIN A   1      17.940   1.842  13.556  0.00  0.00     0.102 C 
ATOM      8  H44 ZIN A   1      20.264   3.784  15.808  0.00  0.00     0.165 HD
ENDROOT
BRANCH   2   9
ATOM      9  C8  ZIN A   1      19.200   1.796  17.214  0.00  0.00     0.225 C 
BRANCH   9  10
ATOM     10  O9  ZIN A   1      19.048   2.922  18.081  0.00  0.00    -0.384 OA
BRANCH  10  11
ATOM     11  C10 ZIN A   1      17.740   3.052  18.641  0.00  0.00     0.195 C 
BRANCH  11  12
ATOM     12  C11 ZIN A   1      17.603   4.424  19.303  0.00  0.00     0.255 C 
BRANCH  12  13
ATOM     13  N12 ZIN A   1      18.479   4.490  20.480  0.00  0.00    -0.077 N 
ATOM     14  H13 ZIN A   1      18.406   3.630  21.003  0.00  0.00     0.274 HD
ATOM     15  H14 ZIN A   1      19.434   4.622  20.181  0.00  0.00     0.274 HD
ATOM     16  H15 ZIN A   1      18.201   5.264  21.064  0.00  0.00     0.274 HD
ENDBRANCH  12  13
ENDBRANCH  11  12
ENDBRANCH  10  11
ENDBRANCH   9  10
ENDBRANCH   2   9
BRANCH   1  17
ATOM     17  C4  ZIN A   1      17.622   0.277  15.501  0.00  0.00     0.292 C 
ATOM     18  O5  ZIN A   1      16.780   0.337  16.377  0.00  0.00    -0.259 OA
BRANCH  17  19
ATOM     19  O3  ZIN A   1      18.008  -0.923  15.018  0.00  0.00    -0.318 OA
BRANCH  19  20
ATOM     20  C2  ZIN A   1      19.317  -1.375  15.373  0.00  0.00     0.174 C 
ATOM     21  C1  ZIN A   1      19.349  -1.725  16.862  0.00  0.00     0.034 C 
ENDBRANCH  19  20
ENDBRANCH  17  19
ENDBRANCH   1  17
BRANCH   7  22
ATOM     22  C26 ZIN A   1      18.776   0.977  12.648  0.00  0.00    -0.023 A 
ATOM     23  C31 ZIN A   1      18.163   0.109  11.763  0.00  0.00     0.041 A 
ATOM     24  C30 ZIN A   1      18.930  -0.679  10.925  0.00  0.00     0.024 A 
ATOM     25 Cl32 ZIN A   1      16.431   0.022  11.691  0.00  0.00    -0.084 Cl
ATOM     26  C29 ZIN A   1      20.310  -0.609  10.982  0.00  0.00     0.002 A 
ATOM     27  C28 ZIN A   1      20.922   0.254  11.872  0.00  0.00     0.001 A 
ATOM     28  C27 ZIN A   1      20.155   1.047  12.705  0.00  0.00     0.010 A 
ENDBRANCH   7  22
BRANCH   6  29
ATOM     29  C20 ZIN A   1      17.806   3.934  12.160  0.00  0.00     0.291 C 
ATOM     30  O21 ZIN A   1      16.661   4.347  12.122  0.00  0.00    -0.260 OA
BRANCH  29  31
ATOM     31  O22 ZIN A   1      18.615   4.095  11.092  0.00  0.00    -0.323 OA
ATOM     32  C23 ZIN A   1      18.285   3.361   9.911  0.00  0.00     0.213 C 
ENDBRANCH  29  31
ENDBRANCH   6  29
TORSDOF 11
ENDMDL
MODEL 3
REMARK VINA RESULT:      -6.1      2.377      4.676
REMARK  11 active torsions:
REMARK  status: ('A' for Active; 'I' for Inactive)
REMARK    1  A    between atoms: C2_2  and  O3_3 
REMARK    2  A    between atoms: O3_3  and  C4_4 
REMARK    3  A    between atoms: C4_4  and  C6_6 
REMARK    4  A    between atoms: C7_7  and  C8_8 
REMARK    5  A    between atoms: C8_8  and  O9_9 
REMARK    6  A    between atoms: O9_9  and  C10_10 
REMARK    7  A    between atoms: C10_10  and  C11_11 
REMARK    8  A    between atoms: C11_11  and  N12_12 
REMARK    9  A    between atoms: C19_19  and  C20_20 
REMARK   10  A    between atoms: C20_20  and  O22_22 
REMARK   11  A    between atoms: C24_24  and  C26_25 
ROOT
ATOM      1  C6  ZIN A   1      18.612  -1.800   8.507  0.00  0.00     0.055 C 
ATOM      2  C7  ZIN A   1      17.693  -0.883   8.160  0.00  0.00     0.046 C 
ATOM      3  N16 ZIN A   1      17.191  -0.009   9.084  0.00  0.00    -0.360 N 
ATOM      4  C17 ZIN A   1      17.849   0.200  10.265  0.00  0.00     0.018 C 
ATOM      5  C18 ZIN A   1      17.532   1.423  11.088  0.00  0.00     0.069 C 
ATOM      6  C19 ZIN A   1      18.775  -0.671  10.701  0.00  0.00     0.052 C 
ATOM      7  C24 ZIN A   1      19.113  -1.911   9.919  0.00  0.00     0.102 C 
ATOM      8  H44 ZIN A   1      16.364   0.466   8.902  0.00  0.00     0.165 HD
ENDROOT
BRANCH   2   9
ATOM      9  C8  ZIN A   1      17.209  -0.817   6.734  0.00  0.00     0.225 C 
BRANCH   9  10
ATOM     10  O9  ZIN A   1      17.749   0.344   6.101  0.00  0.00    -0.384 OA
BRANCH  10  11
ATOM     11  C10 ZIN A   1      18.609   0.058   4.996  0.00  0.00     0.195 C 
BRANCH  11  12
ATOM     12  C11 ZIN A   1      18.020  -1.091   4.175  0.00  0.00     0.255 C 
BRANCH  12  13
ATOM     13  N12 ZIN A   1      19.033  -2.140   4.003  0.00  0.00    -0.077 N 
ATOM     14  H13 ZIN A   1      19.890  -1.728   3.664  0.00  0.00     0.274 HD
ATOM     15  H14 ZIN A   1      19.203  -2.591   4.890  0.00  0.00     0.274 HD
ATOM     16  H15 ZIN A   1      18.701  -2.822   3.338  0.00  0.00     0.274 HD
ENDBRANCH  12  13
ENDBRANCH  11  12
ENDBRANCH  10  11
ENDBRANCH   9  10
ENDBRANCH   2   9
BRANCH   1  17
ATOM     17  C4  ZIN A   1      19.115  -2.682   7.523  0.00  0.00     0.292 C 
ATOM     18  O5  ZIN A   1      20.085  -2.365   6.859  0.00  0.00    -0.259 OA
BRANCH  17  19
ATOM     19  O3  ZIN A   1      18.521  -3.877   7.321  0.00  0.00    -0.318 OA
BRANCH  19  20
ATOM     20  C2  ZIN A   1      19.330  -5.042   7.495  0.00  0.00     0.174 C 
ATOM     21  C1  ZIN A   1      18.565  -6.073   8.328  0.00  0.00     0.034 C 
ENDBRANCH  19  20
ENDBRANCH  17  19
ENDBRANCH   1  17
BRANCH   7  22
ATOM     22  C26 ZIN A   1      18.482  -3.106  10.586  0.00  0.00    -0.023 A 
ATOM     23  C31 ZIN A   1      19.258  -3.968  11.339  0.00  0.00     0.041 A 
ATOM     24  C30 ZIN A   1      18.677  -5.060  11.958  0.00  0.00     0.024 A 
ATOM     25 Cl32 ZIN A   1      20.958  -3.669  11.525  0.00  0.00    -0.084 Cl
ATOM     26  C29 ZIN A   1      17.323  -5.298  11.810  0.00  0.00     0.002 A 
ATOM     27  C28 ZIN A   1      16.549  -4.439  11.051  0.00  0.00     0.001 A 
ATOM     28  C27 ZIN A   1      17.128  -3.343  10.439  0.00  0.00     0.010 A 
ENDBRANCH   7  22
BRANCH   6  29
ATOM     29  C20 ZIN A   1      19.442  -0.419  11.922  0.00  0.00     0.291 C 
ATOM     30  O21 ZIN A   1      20.584   0.002  11.917  0.00  0.00    -0.260 OA
BRANCH  29  31
ATOM     31  O22 ZIN A   1      18.812  -0.646  13.094  0.00  0.00    -0.323 OA
ATOM     32  C23 ZIN A   1      19.517  -1.414  14.072  0.00  0.00     0.213 C 
ENDBRANCH  29  31
ENDBRANCH   6  29
TORSDOF 11
ENDMDL
MODEL 4
REMARK VINA RESULT:      -5.9      2.405      5.022
REMARK  11 active torsions:
REMARK  status: ('A' for Active; 'I' for Inactive)
REMARK    1  A    between atoms: C2_2  and  O3_3 
REMARK    2  A    between atoms: O3_3  and  C4_4 
REMARK    3  A    between atoms: C4_4  and  C6_6 
REMARK    4  A    between atoms: C7_7  and  C8_8 
REMARK    5  A    between atoms: C8_8  and  O9_9 
REMARK    6  A    between atoms: O9_9  and  C10_10 
REMARK    7  A    between atoms: C10_10  and  C11_11 
REMARK    8  A    between atoms: C11_11  and  N12_12 
REMARK    9  A    between atoms: C19_19  and  C20_20 
REMARK   10  A    between atoms: C20_20  and  O22_22 
REMARK   11  A    between atoms: C24_24  and  C26_25 
ROOT
ATOM      1  C6  ZIN A   1      19.156  -4.030   7.431  0.00  0.00     0.055 C 
ATOM      2  C7  ZIN A   1      18.433  -3.513   6.423  0.00  0.00     0.046 C 
ATOM      3  N16 ZIN A   1      17.795  -2.311   6.562  0.00  0.00    -0.360 N 
ATOM      4  C17 ZIN A   1      18.158  -1.449   7.561  0.00  0.00     0.018 C 
ATOM      5  C18 ZIN A   1      17.753   0.001   7.477  0.00  0.00     0.069 C 
ATOM      6  C19 ZIN A   1      18.869  -1.879   8.617  0.00  0.00     0.052 C 
ATOM      7  C24 ZIN A   1      19.282  -3.319   8.749  0.00  0.00     0.102 C 
ATOM      8  H44 ZIN A   1      17.082  -2.068   5.950  0.00  0.00     0.165 HD
ENDROOT
BRANCH   2   9
ATOM      9  C8  ZIN A   1      18.323  -4.267   5.123  0.00  0.00     0.225 C 
BRANCH   9  10
ATOM     10  O9  ZIN A   1      17.897  -3.377   4.090  0.00  0.00    -0.384 OA
BRANCH  10  11
ATOM     11  C10 ZIN A   1      16.959  -3.951   3.177  0.00  0.00     0.195 C 
BRANCH  11  12
ATOM     12  C11 ZIN A   1      17.585  -5.173   2.503  0.00  0.00     0.255 C 
BRANCH  12  13
ATOM     13  N12 ZIN A   1      18.705  -4.745   1.655  0.00  0.00    -0.077 N 
ATOM     14  H13 ZIN A   1      19.574  -5.063   2.059  0.00  0.00     0.274 HD
ATOM     15  H14 ZIN A   1      18.598  -5.141   0.733  0.00  0.00     0.274 HD
ATOM     16  H15 ZIN A   1      18.712  -3.739   1.590  0.00  0.00     0.274 HD
ENDBRANCH  12  13
ENDBRANCH  11  12
ENDBRANCH  10  11
ENDBRANCH   9  10
ENDBRANCH   2   9
BRANCH   1  17
ATOM     17  C4  ZIN A   1      19.809  -5.271   7.249  0.00  0.00     0.292 C 
ATOM     18  O5  ZIN A   1      21.021  -5.340   7.333  0.00  0.00    -0.259 OA
BRANCH  17  19
ATOM     19  O3  ZIN A   1      19.087  -6.380   6.983  0.00  0.00    -0.318 OA
BRANCH  19  20
ATOM     20  C2  ZIN A   1      18.499  -7.055   8.098  0.00  0.00     0.174 C 
ATOM     21  C1  ZIN A   1      17.122  -7.590   7.701  0.00  0.00     0.034 C 
ENDBRANCH  19  20
ENDBRANCH  17  19
ENDBRANCH   1  17
BRANCH   7  22
ATOM     22  C26 ZIN A   1      18.406  -3.995   9.772  0.00  0.00    -0.023 A 
ATOM     23  C31 ZIN A   1      18.908  -4.288  11.027  0.00  0.00     0.041 A 
ATOM     24  C30 ZIN A   1      18.101  -4.902  11.969  0.00  0.00     0.024 A 
ATOM     25 Cl32 ZIN A   1      20.544  -3.869  11.428  0.00  0.00    -0.084 Cl
ATOM     26  C29 ZIN A   1      16.798  -5.235  11.649  0.00  0.00     0.002 A 
ATOM     27  C28 ZIN A   1      16.299  -4.948  10.392  0.00  0.00     0.001 A 
ATOM     28  C27 ZIN A   1      17.103  -4.328   9.454  0.00  0.00     0.010 A 
ENDBRANCH   7  22
BRANCH   6  29
ATOM     29  C20 ZIN A   1      19.233  -0.959   9.627  0.00  0.00     0.291 C 
ATOM     30  O21 ZIN A   1      20.324  -0.419   9.595  0.00  0.00    -0.260 OA
BRANCH  29  31
ATOM     31  O22 ZIN A   1      18.371  -0.679  10.627  0.00  0.00    -0.323 OA
ATOM     32  C23 ZIN A   1      18.904  -0.651  11.954  0.00  0.00     0.213 C 
ENDBRANCH  29  31
ENDBRANCH   6  29
TORSDOF 11
ENDMDL
MODEL 5
REMARK VINA RESULT:      -5.9      3.101      5.665
REMARK  11 active torsions:
REMARK  status: ('A' for Active; 'I' for Inactive)
REMARK    1  A    between atoms: C2_2  and  O3_3 
REMARK    2  A    between atoms: O3_3  and  C4_4 
REMARK    3  A    between atoms: C4_4  and  C6_6 
REMARK    4  A    between atoms: C7_7  and  C8_8 
REMARK    5  A    between atoms: C8_8  and  O9_9 
REMARK    6  A    between atoms: O9_9  and  C10_10 
REMARK    7  A    between atoms: C10_10  and  C11_11 
REMARK    8  A    between atoms: C11_11  and  N12_12 
REMARK    9  A    between atoms: C19_19  and  C20_20 
REMARK   10  A    between atoms: C20_20  and  O22_22 
REMARK   11  A    between atoms: C24_24  and  C26_25 
ROOT
ATOM      1  C6  ZIN A   1      19.161  -1.463  10.398  0.00  0.00     0.055 C 
ATOM      2  C7  ZIN A   1      18.306  -1.517  11.434  0.00  0.00     0.046 C 
ATOM      3  N16 ZIN A   1      17.325  -2.469  11.485  0.00  0.00    -0.360 N 
ATOM      4  C17 ZIN A   1      17.405  -3.585  10.699  0.00  0.00     0.018 C 
ATOM      5  C18 ZIN A   1      16.567  -4.793  11.033  0.00  0.00     0.069 C 
ATOM      6  C19 ZIN A   1      18.222  -3.619   9.632  0.00  0.00     0.052 C 
ATOM      7  C24 ZIN A   1      19.065  -2.432   9.254  0.00  0.00     0.102 C 
ATOM      8  H44 ZIN A   1      16.568  -2.352  12.082  0.00  0.00     0.165 HD
ENDROOT
BRANCH   2   9
ATOM      9  C8  ZIN A   1      18.430  -0.515  12.553  0.00  0.00     0.225 C 
BRANCH   9  10
ATOM     10  O9  ZIN A   1      18.025  -1.121  13.782  0.00  0.00    -0.384 OA
BRANCH  10  11
ATOM     11  C10 ZIN A   1      18.923  -0.889  14.869  0.00  0.00     0.195 C 
BRANCH  11  12
ATOM     12  C11 ZIN A   1      18.123  -0.581  16.136  0.00  0.00     0.255 C 
BRANCH  12  13
ATOM     13  N12 ZIN A   1      17.190   0.521  15.869  0.00  0.00    -0.077 N 
ATOM     14  H13 ZIN A   1      16.282   0.293  16.248  0.00  0.00     0.274 HD
ATOM     15  H14 ZIN A   1      17.533   1.365  16.304  0.00  0.00     0.274 HD
ATOM     16  H15 ZIN A   1      17.113   0.664  14.874  0.00  0.00     0.274 HD
ENDBRANCH  12  13
ENDBRANCH  11  12
ENDBRANCH  10  11
ENDBRANCH   9  10
ENDBRANCH   2   9
BRANCH   1  17
ATOM     17  C4  ZIN A   1      20.167  -0.471  10.383  0.00  0.00     0.292 C 
ATOM     18  O5  ZIN A   1      21.207  -0.648  10.989  0.00  0.00    -0.259 OA
BRANCH  17  19
ATOM     19  O3  ZIN A   1      19.976   0.674   9.693  0.00  0.00    -0.318 OA
BRANCH  19  20
ATOM     20  C2  ZIN A   1      19.565   1.821  10.441  0.00  0.00     0.174 C 
ATOM     21  C1  ZIN A   1      18.462   2.558   9.678  0.00  0.00     0.034 C 
ENDBRANCH  19  20
ENDBRANCH  17  19
ENDBRANCH   1  17
BRANCH   7  22
ATOM     22  C26 ZIN A   1      18.450  -1.746   8.061  0.00  0.00    -0.023 A 
ATOM     23  C31 ZIN A   1      18.860  -2.081   6.783  0.00  0.00     0.041 A 
ATOM     24  C30 ZIN A   1      18.290  -1.456   5.689  0.00  0.00     0.024 A 
ATOM     25 Cl32 ZIN A   1      20.077  -3.298   6.552  0.00  0.00    -0.084 Cl
ATOM     26  C29 ZIN A   1      17.321  -0.487   5.873  0.00  0.00     0.002 A 
ATOM     27  C28 ZIN A   1      16.917  -0.148   7.151  0.00  0.00     0.001 A 
ATOM     28  C27 ZIN A   1      17.482  -0.778   8.245  0.00  0.00     0.010 A 
ENDBRANCH   7  22
BRANCH   6  29
ATOM     29  C20 ZIN A   1      18.286  -4.792   8.846  0.00  0.00     0.291 C 
ATOM     30  O21 ZIN A   1      19.184  -5.595   9.021  0.00  0.00    -0.260 OA
BRANCH  29  31
ATOM     31  O22 ZIN A   1      17.350  -5.023   7.901  0.00  0.00    -0.323 OA
ATOM     32  C23 ZIN A   1      17.103  -6.387   7.553  0.00  0.00     0.213 C 
ENDBRANCH  29  31
ENDBRANCH   6  29
TORSDOF 11
ENDMDL
MODEL 6
REMARK VINA RESULT:      -5.8      3.734      7.394
REMARK  11 active torsions:
REMARK  status: ('A' for Active; 'I' for Inactive)
REMARK    1  A    between atoms: C2_2  and  O3_3 
REMARK    2  A    between atoms: O3_3  and  C4_4 
REMARK    3  A    between atoms: C4_4  and  C6_6 
REMARK    4  A    between atoms: C7_7  and  C8_8 
REMARK    5  A    between atoms: C8_8  and  O9_9 
REMARK    6  A    between atoms: O9_9  and  C10_10 
REMARK    7  A    between atoms: C10_10  and  C11_11 
REMARK    8  A    between atoms: C11_11  and  N12_12 
REMARK    9  A    between atoms: C19_19  and  C20_20 
REMARK   10  A    between atoms: C20_20  and  O22_22 
REMARK   11  A    between atoms: C24_24  and  C26_25 
ROOT
ATOM      1  C6  ZIN A   1      18.529   0.683  11.813  0.00  0.00     0.055 C 
ATOM      2  C7  ZIN A   1      19.582   1.059  12.558  0.00  0.00     0.046 C 
ATOM      3  N16 ZIN A   1      20.056   2.341  12.505  0.00  0.00    -0.360 N 
ATOM      4  C17 ZIN A   1      19.279   3.344  11.992  0.00  0.00     0.018 C 
ATOM      5  C18 ZIN A   1      19.624   4.780  12.293  0.00  0.00     0.069 C 
ATOM      6  C19 ZIN A   1      18.213   3.064  11.223  0.00  0.00     0.052 C 
ATOM      7  C24 ZIN A   1      17.841   1.646  10.886  0.00  0.00     0.102 C 
ATOM      8  H44 ZIN A   1      20.948   2.541  12.833  0.00  0.00     0.165 HD
ENDROOT
BRANCH   2   9
ATOM      9  C8  ZIN A   1      20.250   0.056  13.463  0.00  0.00     0.225 C 
BRANCH   9  10
ATOM     10  O9  ZIN A   1      19.616   0.074  14.744  0.00  0.00    -0.384 OA
BRANCH  10  11
ATOM     11  C10 ZIN A   1      19.242  -1.218  15.226  0.00  0.00     0.195 C 
BRANCH  11  12
ATOM     12  C11 ZIN A   1      18.196  -1.066  16.332  0.00  0.00     0.255 C 
BRANCH  12  13
ATOM     13  N12 ZIN A   1      18.820  -0.464  17.517  0.00  0.00    -0.077 N 
ATOM     14  H13 ZIN A   1      18.101  -0.165  18.160  0.00  0.00     0.274 HD
ATOM     15  H14 ZIN A   1      19.413  -1.145  17.968  0.00  0.00     0.274 HD
ATOM     16  H15 ZIN A   1      19.373   0.331  17.238  0.00  0.00     0.274 HD
ENDBRANCH  12  13
ENDBRANCH  11  12
ENDBRANCH  10  11
ENDBRANCH   9  10
ENDBRANCH   2   9
BRANCH   1  17
ATOM     17  C4  ZIN A   1      18.061  -0.648  11.899  0.00  0.00     0.292 C 
ATOM     18  O5  ZIN A   1      17.029  -0.894  12.496  0.00  0.00    -0.259 OA
BRANCH  17  19
ATOM     19  O3  ZIN A   1      18.757  -1.647  11.318  0.00  0.00    -0.318 OA
BRANCH  19  20
ATOM     20  C2  ZIN A   1      18.587  -2.958  11.860  0.00  0.00     0.174 C 
ATOM     21  C1  ZIN A   1      19.859  -3.776  11.625  0.00  0.00     0.034 C 
ENDBRANCH  19  20
ENDBRANCH  17  19
ENDBRANCH   1  17
BRANCH   7  22
ATOM     22  C26 ZIN A   1      18.244   1.352   9.464  0.00  0.00    -0.023 A 
ATOM     23  C31 ZIN A   1      17.549   0.408   8.729  0.00  0.00     0.041 A 
ATOM     24  C30 ZIN A   1      17.914   0.144   7.422  0.00  0.00     0.024 A 
ATOM     25 Cl32 ZIN A   1      16.206  -0.431   9.442  0.00  0.00    -0.084 Cl
ATOM     26  C29 ZIN A   1      18.982   0.813   6.854  0.00  0.00     0.002 A 
ATOM     27  C28 ZIN A   1      19.681   1.751   7.591  0.00  0.00     0.001 A 
ATOM     28  C27 ZIN A   1      19.312   2.020   8.896  0.00  0.00     0.010 A 
ENDBRANCH   7  22
BRANCH   6  29
ATOM     29  C20 ZIN A   1      17.428   4.125  10.716  0.00  0.00     0.291 C 
ATOM     30  O21 ZIN A   1      17.808   4.754   9.746  0.00  0.00    -0.260 OA
BRANCH  29  31
ATOM     31  O22 ZIN A   1      16.256   4.440  11.307  0.00  0.00    -0.323 OA
ATOM     32  C23 ZIN A   1      16.310   5.342  12.415  0.00  0.00     0.213 C 
ENDBRANCH  29  31
ENDBRANCH   6  29
TORSDOF 11
ENDMDL
MODEL 7
REMARK VINA RESULT:      -5.8      5.910      9.089
REMARK  11 active torsions:
REMARK  status: ('A' for Active; 'I' for Inactive)
REMARK    1  A    between atoms: C2_2  and  O3_3 
REMARK    2  A    between atoms: O3_3  and  C4_4 
REMARK    3  A    between atoms: C4_4  and  C6_6 
REMARK    4  A    between atoms: C7_7  and  C8_8 
REMARK    5  A    between atoms: C8_8  and  O9_9 
REMARK    6  A    between atoms: O9_9  and  C10_10 
REMARK    7  A    between atoms: C10_10  and  C11_11 
REMARK    8  A    between atoms: C11_11  and  N12_12 
REMARK    9  A    between atoms: C19_19  and  C20_20 
REMARK   10  A    between atoms: C20_20  and  O22_22 
REMARK   11  A    between atoms: C24_24  and  C26_25 
ROOT
ATOM      1  C6  ZIN A   1      18.723   3.049  15.392  0.00  0.00     0.055 C 
ATOM      2  C7  ZIN A   1      18.103   1.861  15.280  0.00  0.00     0.046 C 
ATOM      3  N16 ZIN A   1      17.596   1.446  14.080  0.00  0.00    -0.360 N 
ATOM      4  C17 ZIN A   1      18.009   2.034  12.915  0.00  0.00     0.018 C 
ATOM      5  C18 ZIN A   1      17.769   1.333  11.602  0.00  0.00     0.069 C 
ATOM      6  C19 ZIN A   1      18.624   3.228  12.927  0.00  0.00     0.052 C 
ATOM      7  C24 ZIN A   1      18.871   3.969  14.213  0.00  0.00     0.102 C 
ATOM      8  H44 ZIN A   1      16.940   0.731  14.053  0.00  0.00     0.165 HD
ENDROOT
BRANCH   2   9
ATOM      9  C8  ZIN A   1      17.965   0.977  16.492  0.00  0.00     0.225 C 
BRANCH   9  10
ATOM     10  O9  ZIN A   1      19.035   0.031  16.516  0.00  0.00    -0.384 OA
BRANCH  10  11
ATOM     11  C10 ZIN A   1      18.619  -1.323  16.322  0.00  0.00     0.195 C 
BRANCH  11  12
ATOM     12  C11 ZIN A   1      18.652  -1.658  14.830  0.00  0.00     0.255 C 
BRANCH  12  13
ATOM     13  N12 ZIN A   1      19.956  -1.277  14.271  0.00  0.00    -0.077 N 
ATOM     14  H13 ZIN A   1      20.180  -1.885  13.497  0.00  0.00     0.274 HD
ATOM     15  H14 ZIN A   1      19.917  -0.322  13.948  0.00  0.00     0.274 HD
ATOM     16  H15 ZIN A   1      20.665  -1.363  14.982  0.00  0.00     0.274 HD
ENDBRANCH  12  13
ENDBRANCH  11  12
ENDBRANCH  10  11
ENDBRANCH   9  10
ENDBRANCH   2   9
BRANCH   1  17
ATOM     17  C4  ZIN A   1      19.242   3.442  16.646  0.00  0.00     0.292 C 
ATOM     18  O5  ZIN A   1      20.445   3.524  16.810  0.00  0.00    -0.259 OA
BRANCH  17  19
ATOM     19  O3  ZIN A   1      18.403   3.729  17.664  0.00  0.00    -0.318 OA
BRANCH  19  20
ATOM     20  C2  ZIN A   1      18.178   5.112  17.950  0.00  0.00     0.174 C 
ATOM     21  C1  ZIN A   1      16.674   5.388  17.978  0.00  0.00     0.034 C 
ENDBRANCH  19  20
ENDBRANCH  17  19
ENDBRANCH   1  17
BRANCH   7  22
ATOM     22  C26 ZIN A   1      17.884   5.102  14.331  0.00  0.00    -0.023 A 
ATOM     23  C31 ZIN A   1      18.334   6.393  14.541  0.00  0.00     0.041 A 
ATOM     24  C30 ZIN A   1      17.429   7.433  14.641  0.00  0.00     0.024 A 
ATOM     25 Cl32 ZIN A   1      20.037   6.710  14.660  0.00  0.00    -0.084 Cl
ATOM     26  C29 ZIN A   1      16.073   7.180  14.546  0.00  0.00     0.002 A 
ATOM     27  C28 ZIN A   1      15.623   5.889  14.343  0.00  0.00     0.001 A 
ATOM     28  C27 ZIN A   1      16.529   4.850  14.235  0.00  0.00     0.010 A 
ENDBRANCH   7  22
BRANCH   6  29
ATOM     29  C20 ZIN A   1      19.045   3.803  11.706  0.00  0.00     0.291 C 
ATOM     30  O21 ZIN A   1      19.995   3.334  11.107  0.00  0.00    -0.260 OA
BRANCH  29  31
ATOM     31  O22 ZIN A   1      18.392   4.872  11.203  0.00  0.00    -0.323 OA
ATOM     32  C23 ZIN A   1      17.136   4.625  10.568  0.00  0.00     0.213 C 
ENDBRANCH  29  31
ENDBRANCH   6  29
TORSDOF 11
ENDMDL
MODEL 8
REMARK VINA RESULT:      -5.7      3.157      5.865
REMARK  11 active torsions:
REMARK  status: ('A' for Active; 'I' for Inactive)
REMARK    1  A    between atoms: C2_2  and  O3_3 
REMARK    2  A    between atoms: O3_3  and  C4_4 
REMARK    3  A    between atoms: C4_4  and  C6_6 
REMARK    4  A    between atoms: C7_7  and  C8_8 
REMARK    5  A    between atoms: C8_8  and  O9_9 
REMARK    6  A    between atoms: O9_9  and  C10_10 
REMARK    7  A    between atoms: C10_10  and  C11_11 
REMARK    8  A    between atoms: C11_11  and  N12_12 
REMARK    9  A    between atoms: C19_19  and  C20_20 
REMARK   10  A    between atoms: C20_20  and  O22_22 
REMARK   11  A    between atoms: C24_24  and  C26_25 
ROOT
ATOM      1  C6  ZIN A   1      18.745  -0.627  10.828  0.00  0.00     0.055 C 
ATOM      2  C7  ZIN A   1      17.787   0.304  10.982  0.00  0.00     0.046 C 
ATOM      3  N16 ZIN A   1      17.158   0.470  12.186  0.00  0.00    -0.360 N 
ATOM      4  C17 ZIN A   1      17.715  -0.033  13.330  0.00  0.00     0.018 C 
ATOM      5  C18 ZIN A   1      17.252   0.480  14.670  0.00  0.00     0.069 C 
ATOM      6  C19 ZIN A   1      18.670  -0.977  13.275  0.00  0.00     0.052 C 
ATOM      7  C24 ZIN A   1      19.152  -1.527  11.960  0.00  0.00     0.102 C 
ATOM      8  H44 ZIN A   1      16.314   0.946  12.228  0.00  0.00     0.165 HD
ENDROOT
BRANCH   2   9
ATOM      9  C8  ZIN A   1      17.401   1.175   9.815  0.00  0.00     0.225 C 
BRANCH   9  10
ATOM     10  O9  ZIN A   1      17.435   2.547  10.212  0.00  0.00    -0.384 OA
BRANCH  10  11
ATOM     11  C10 ZIN A   1      18.718   3.161  10.074  0.00  0.00     0.195 C 
BRANCH  11  12
ATOM     12  C11 ZIN A   1      19.297   3.449  11.461  0.00  0.00     0.255 C 
BRANCH  12  13
ATOM     13  N12 ZIN A   1      20.479   2.606  11.683  0.00  0.00    -0.077 N 
ATOM     14  H13 ZIN A   1      21.286   3.040  11.259  0.00  0.00     0.274 HD
ATOM     15  H14 ZIN A   1      20.635   2.501  12.675  0.00  0.00     0.274 HD
ATOM     16  H15 ZIN A   1      20.328   1.699  11.269  0.00  0.00     0.274 HD
ENDBRANCH  12  13
ENDBRANCH  11  12
ENDBRANCH  10  11
ENDBRANCH   9  10
ENDBRANCH   2   9
BRANCH   1  17
ATOM     17  C4  ZIN A   1      19.379  -0.765   9.572  0.00  0.00     0.292 C 
ATOM     18  O5  ZIN A   1      20.440  -0.208   9.361  0.00  0.00    -0.259 OA
BRANCH  17  19
ATOM     19  O3  ZIN A   1      18.808  -1.516   8.607  0.00  0.00    -0.318 OA
BRANCH  19  20
ATOM     20  C2  ZIN A   1      19.214  -1.261   7.260  0.00  0.00     0.174 C 
ATOM     21  C1  ZIN A   1      19.416  -2.589   6.529  0.00  0.00     0.034 C 
ENDBRANCH  19  20
ENDBRANCH  17  19
ENDBRANCH   1  17
BRANCH   7  22
ATOM     22  C26 ZIN A   1      18.565  -2.899  11.751  0.00  0.00    -0.023 A 
ATOM     23  C31 ZIN A   1      19.398  -3.997  11.630  0.00  0.00     0.041 A 
ATOM     24  C30 ZIN A   1      18.858  -5.257  11.445  0.00  0.00     0.024 A 
ATOM     25 Cl32 ZIN A   1      21.119  -3.796  11.729  0.00  0.00    -0.084 Cl
ATOM     26  C29 ZIN A   1      17.487  -5.416  11.366  0.00  0.00     0.002 A 
ATOM     27  C28 ZIN A   1      16.656  -4.317  11.480  0.00  0.00     0.001 A 
ATOM     28  C27 ZIN A   1      17.194  -3.059  11.672  0.00  0.00     0.010 A 
ENDBRANCH   7  22
BRANCH   6  29
ATOM     29  C20 ZIN A   1      19.228  -1.468  14.477  0.00  0.00     0.291 C 
ATOM     30  O21 ZIN A   1      20.431  -1.631  14.568  0.00  0.00    -0.260 OA
BRANCH  29  31
ATOM     31  O22 ZIN A   1      18.428  -1.755  15.525  0.00  0.00    -0.323 OA
ATOM     32  C23 ZIN A   1      18.993  -1.611  16.831  0.00  0.00     0.213 C 
ENDBRANCH  29  31
ENDBRANCH   6  29
TORSDOF 11
ENDMDL
MODEL 9
REMARK VINA RESULT:      -5.6      4.507      7.149
REMARK  11 active torsions:
REMARK  status: ('A' for Active; 'I' for Inactive)
REMARK    1  A    between atoms: C2_2  and  O3_3 
REMARK    2  A    between atoms: O3_3  and  C4_4 
REMARK    3  A    between atoms: C4_4  and  C6_6 
REMARK    4  A    between atoms: C7_7  and  C8_8 
REMARK    5  A    between atoms: C8_8  and  O9_9 
REMARK    6  A    between atoms: O9_9  and  C10_10 
REMARK    7  A    between atoms: C10_10  and  C11_11 
REMARK    8  A    between atoms: C11_11  and  N12_12 
REMARK    9  A    between atoms: C19_19  and  C20_20 
REMARK   10  A    between atoms: C20_20  and  O22_22 
REMARK   11  A    between atoms: C24_24  and  C26_25 
ROOT
ATOM      1  C6  ZIN A   1      19.225   1.529  12.674  0.00  0.00     0.055 C 
ATOM      2  C7  ZIN A   1      18.396   1.653  11.623  0.00  0.00     0.046 C 
ATOM      3  N16 ZIN A   1      17.423   2.613  11.607  0.00  0.00    -0.360 N 
ATOM      4  C17 ZIN A   1      17.491   3.679  12.464  0.00  0.00     0.018 C 
ATOM      5  C18 ZIN A   1      16.668   4.911  12.185  0.00  0.00     0.069 C 
ATOM      6  C19 ZIN A   1      18.281   3.640  13.550  0.00  0.00     0.052 C 
ATOM      7  C24 ZIN A   1      19.107   2.426  13.874  0.00  0.00     0.102 C 
ATOM      8  H44 ZIN A   1      16.681   2.540  10.987  0.00  0.00     0.165 HD
ENDROOT
BRANCH   2   9
ATOM      9  C8  ZIN A   1      18.542   0.721  10.447  0.00  0.00     0.225 C 
BRANCH   9  10
ATOM     10  O9  ZIN A   1      19.187   1.408   9.373  0.00  0.00    -0.384 OA
BRANCH  10  11
ATOM     11  C10 ZIN A   1      18.842   0.915   8.076  0.00  0.00     0.195 C 
BRANCH  11  12
ATOM     12  C11 ZIN A   1      18.133  -0.434   8.216  0.00  0.00     0.255 C 
BRANCH  12  13
ATOM     13  N12 ZIN A   1      16.964  -0.468   7.328  0.00  0.00    -0.077 N 
ATOM     14  H13 ZIN A   1      17.145  -1.095   6.558  0.00  0.00     0.274 HD
ATOM     15  H14 ZIN A   1      16.159  -0.791   7.844  0.00  0.00     0.274 HD
ATOM     16  H15 ZIN A   1      16.785   0.459   6.972  0.00  0.00     0.274 HD
ENDBRANCH  12  13
ENDBRANCH  11  12
ENDBRANCH  10  11
ENDBRANCH   9  10
ENDBRANCH   2   9
BRANCH   1  17
ATOM     17  C4  ZIN A   1      20.225   0.529  12.653  0.00  0.00     0.292 C 
ATOM     18  O5  ZIN A   1      21.288   0.743  12.102  0.00  0.00    -0.259 OA
BRANCH  17  19
ATOM     19  O3  ZIN A   1      20.000  -0.663  13.245  0.00  0.00    -0.318 OA
BRANCH  19  20
ATOM     20  C2  ZIN A   1      19.719  -1.771  12.387  0.00  0.00     0.174 C 
ATOM     21  C1  ZIN A   1      18.308  -2.291  12.672  0.00  0.00     0.034 C 
ENDBRANCH  19  20
ENDBRANCH  17  19
ENDBRANCH   1  17
BRANCH   7  22
ATOM     22  C26 ZIN A   1      18.459   1.672  15.006  0.00  0.00    -0.023 A 
ATOM     23  C31 ZIN A   1      18.823   1.939  16.314  0.00  0.00     0.041 A 
ATOM     24  C30 ZIN A   1      18.223   1.252  17.353  0.00  0.00     0.024 A 
ATOM     25 Cl32 ZIN A   1      20.021   3.150  16.651  0.00  0.00    -0.084 Cl
ATOM     26  C29 ZIN A   1      17.269   0.288  17.084  0.00  0.00     0.002 A 
ATOM     27  C28 ZIN A   1      16.910   0.017  15.777  0.00  0.00     0.001 A 
ATOM     28  C27 ZIN A   1      17.505   0.708  14.738  0.00  0.00     0.010 A 
ENDBRANCH   7  22
BRANCH   6  29
ATOM     29  C20 ZIN A   1      18.332   4.762  14.409  0.00  0.00     0.291 C 
ATOM     30  O21 ZIN A   1      19.245   5.562  14.312  0.00  0.00    -0.260 OA
BRANCH  29  31
ATOM     31  O22 ZIN A   1      17.370   4.947  15.336  0.00  0.00    -0.323 OA
ATOM     32  C23 ZIN A   1      17.620   5.930  16.343  0.00  0.00     0.213 C 
ENDBRANCH  29  31
ENDBRANCH   6  29
TORSDOF 11
ENDMDL
