MODEL 1
REMARK VINA RESULT:      -4.2      0.000      0.000
REMARK  7 active torsions:
REMARK  status: ('A' for Active; 'I' for Inactive)
REMARK    1  A    between atoms: N1_1  and  C5_5 
REMARK    2  A    between atoms: C5_5  and  C6_6 
REMARK    3  A    between atoms: C6_6  and  C7_7 
REMARK    4  A    between atoms: C7_7  and  C8_8 
REMARK    5  A    between atoms: C8_8  and  C9_9 
REMARK    6  A    between atoms: C9_9  and  N11_10 
REMARK    7  A    between atoms: C9_9  and  C15_14 
ROOT
ATOM      1  C8  <0> d   1      18.918  -1.233  16.765  0.00  0.00     0.044 C 
ENDROOT
BRANCH   1   2
ATOM      2  C7  <0> d   1      18.368  -1.377  15.345  0.00  0.00     0.004 C 
BRANCH   2   3
ATOM      3  C6  <0> d   1      19.518  -1.283  14.340  0.00  0.00     0.027 C 
BRANCH   3   4
ATOM      4  C5  <0> d   1      19.279  -0.100  13.400  0.00  0.00     0.229 C 
BRANCH   4   5
ATOM      5  N1  <0> d   1      20.022   1.070  13.886  0.00  0.00    -0.079 N 
ATOM      6  H2  <0> d   1      19.373   1.803  14.131  0.00  0.00     0.274 HD
ATOM      7  H3  <0> d   1      20.644   1.399  13.163  0.00  0.00     0.274 HD
ATOM      8  H4  <0> d   1      20.560   0.812  14.700  0.00  0.00     0.274 HD
ENDBRANCH   4   5
ENDBRANCH   3   4
ENDBRANCH   2   3
ENDBRANCH   1   2
BRANCH   1   9
ATOM      9  C9  <0> d   1      18.233  -0.053  17.459  0.00  0.00     0.283 C 
BRANCH   9  10
ATOM     10  N11 <0> d   1      17.045   0.345  16.692  0.00  0.00    -0.065 N 
ATOM     11  H12 <0> d   1      16.262  -0.230  16.962  0.00  0.00     0.275 HD
ATOM     12  H13 <0> d   1      16.833   1.313  16.879  0.00  0.00     0.275 HD
ATOM     13  H14 <0> d   1      17.226   0.225  15.706  0.00  0.00     0.275 HD
ENDBRANCH   9  10
BRANCH   9  14
ATOM     14  C15 <0> d   1      19.191   1.107  17.540  0.00  0.00     0.204 C 
ATOM     15  O16 <0> d   1      19.865   1.272  18.543  0.00  0.00    -0.646 OA
ATOM     16  O17 <0> d   1      19.293   1.880  16.604  0.00  0.00    -0.646 OA
ENDBRANCH   9  14
ENDBRANCH   1   9
TORSDOF 7
ENDMDL
MODEL 2
REMARK VINA RESULT:      -4.1      7.870      9.498
REMARK  7 active torsions:
REMARK  status: ('A' for Active; 'I' for Inactive)
REMARK    1  A    between atoms: N1_1  and  C5_5 
REMARK    2  A    between atoms: C5_5  and  C6_6 
REMARK    3  A    between atoms: C6_6  and  C7_7 
REMARK    4  A    between atoms: C7_7  and  C8_8 
REMARK    5  A    between atoms: C8_8  and  C9_9 
REMARK    6  A    between atoms: C9_9  and  N11_10 
REMARK    7  A    between atoms: C9_9  and  C15_14 
ROOT
ATOM      1  C8  <0> d   1      18.912   0.977   7.055  0.00  0.00     0.044 C 
ENDROOT
BRANCH   1   2
ATOM      2  C7  <0> d   1      18.381   0.861   8.484  0.00  0.00     0.004 C 
BRANCH   2   3
ATOM      3  C6  <0> d   1      19.551   0.897   9.468  0.00  0.00     0.027 C 
BRANCH   3   4
ATOM      4  C5  <0> d   1      20.166  -0.500   9.583  0.00  0.00     0.229 C 
BRANCH   4   5
ATOM      5  N1  <0> d   1      21.225  -0.488  10.599  0.00  0.00    -0.079 N 
ATOM      6  H2  <0> d   1      20.826  -0.688  11.504  0.00  0.00     0.274 HD
ATOM      7  H3  <0> d   1      21.663   0.422  10.619  0.00  0.00     0.274 HD
ATOM      8  H4  <0> d   1      21.916  -1.188  10.374  0.00  0.00     0.274 HD
ENDBRANCH   4   5
ENDBRANCH   3   4
ENDBRANCH   2   3
ENDBRANCH   1   2
BRANCH   1   9
ATOM      9  C9  <0> d   1      18.266  -0.100   6.181  0.00  0.00     0.283 C 
BRANCH   9  10
ATOM     10  N11 <0> d   1      17.337  -0.898   6.993  0.00  0.00    -0.065 N 
ATOM     11  H12 <0> d   1      17.068  -0.372   7.811  0.00  0.00     0.275 HD
ATOM     12  H13 <0> d   1      16.516  -1.116   6.448  0.00  0.00     0.275 HD
ATOM     13  H14 <0> d   1      17.790  -1.754   7.278  0.00  0.00     0.275 HD
ENDBRANCH   9  10
BRANCH   9  14
ATOM     14  C15 <0> d   1      19.336  -0.997   5.615  0.00  0.00     0.204 C 
ATOM     15  O16 <0> d   1      19.921  -0.678   4.594  0.00  0.00    -0.646 OA
ATOM     16  O17 <0> d   1      19.617  -2.041   6.178  0.00  0.00    -0.646 OA
ENDBRANCH   9  14
ENDBRANCH   1   9
TORSDOF 7
ENDMDL
MODEL 3
REMARK VINA RESULT:      -4.0      7.667      9.668
REMARK  7 active torsions:
REMARK  status: ('A' for Active; 'I' for Inactive)
REMARK    1  A    between atoms: N1_1  and  C5_5 
REMARK    2  A    between atoms: C5_5  and  C6_6 
REMARK    3  A    between atoms: C6_6  and  C7_7 
REMARK    4  A    between atoms: C7_7  and  C8_8 
REMARK    5  A    between atoms: C8_8  and  C9_9 
REMARK    6  A    between atoms: C9_9  and  N11_10 
REMARK    7  A    between atoms: C9_9  and  C15_14 
ROOT
ATOM      1  C8  <0> d   1      18.864   1.184   6.606  0.00  0.00     0.044 C 
ENDROOT
BRANCH   1   2
ATOM      2  C7  <0> d   1      18.671   0.954   8.106  0.00  0.00     0.004 C 
BRANCH   2   3
ATOM      3  C6  <0> d   1      19.091   2.209   8.873  0.00  0.00     0.027 C 
BRANCH   3   4
ATOM      4  C5  <0> d   1      19.112   1.908  10.373  0.00  0.00     0.229 C 
BRANCH   4   5
ATOM      5  N1  <0> d   1      20.125   2.746  11.027  0.00  0.00    -0.079 N 
ATOM      6  H2  <0> d   1      20.681   2.179  11.649  0.00  0.00     0.274 HD
ATOM      7  H3  <0> d   1      19.669   3.476  11.555  0.00  0.00     0.274 HD
ATOM      8  H4  <0> d   1      20.722   3.161  10.327  0.00  0.00     0.274 HD
ENDBRANCH   4   5
ENDBRANCH   3   4
ENDBRANCH   2   3
ENDBRANCH   1   2
BRANCH   1   9
ATOM      9  C9  <0> d   1      18.214   0.039   5.827  0.00  0.00     0.283 C 
BRANCH   9  10
ATOM     10  N11 <0> d   1      17.132  -0.548   6.629  0.00  0.00    -0.065 N 
ATOM     11  H12 <0> d   1      17.155  -0.160   7.560  0.00  0.00     0.275 HD
ATOM     12  H13 <0> d   1      16.243  -0.340   6.199  0.00  0.00     0.275 HD
ATOM     13  H14 <0> d   1      17.255  -1.549   6.678  0.00  0.00     0.275 HD
ENDBRANCH   9  10
BRANCH   9  14
ATOM     14  C15 <0> d   1      19.248  -1.016   5.528  0.00  0.00     0.204 C 
ATOM     15  O16 <0> d   1      19.380  -1.969   6.277  0.00  0.00    -0.646 OA
ATOM     16  O17 <0> d   1      19.952  -0.916   4.538  0.00  0.00    -0.646 OA
ENDBRANCH   9  14
ENDBRANCH   1   9
TORSDOF 7
ENDMDL
MODEL 4
REMARK VINA RESULT:      -4.0      8.333     10.024
REMARK  7 active torsions:
REMARK  status: ('A' for Active; 'I' for Inactive)
REMARK    1  A    between atoms: N1_1  and  C5_5 
REMARK    2  A    between atoms: C5_5  and  C6_6 
REMARK    3  A    between atoms: C6_6  and  C7_7 
REMARK    4  A    between atoms: C7_7  and  C8_8 
REMARK    5  A    between atoms: C8_8  and  C9_9 
REMARK    6  A    between atoms: C9_9  and  N11_10 
REMARK    7  A    between atoms: C9_9  and  C15_14 
ROOT
ATOM      1  C8  <0> d   1      17.083   0.043   6.514  0.00  0.00     0.044 C 
ENDROOT
BRANCH   1   2
ATOM      2  C7  <0> d   1      17.434  -0.627   7.843  0.00  0.00     0.004 C 
BRANCH   2   3
ATOM      3  C6  <0> d   1      17.733   0.446   8.892  0.00  0.00     0.027 C 
BRANCH   3   4
ATOM      4  C5  <0> d   1      19.238   0.489   9.164  0.00  0.00     0.229 C 
BRANCH   4   5
ATOM      5  N1  <0> d   1      19.827   1.645   8.475  0.00  0.00    -0.079 N 
ATOM      6  H2  <0> d   1      20.515   1.326   7.810  0.00  0.00     0.274 HD
ATOM      7  H3  <0> d   1      20.269   2.251   9.151  0.00  0.00     0.274 HD
ATOM      8  H4  <0> d   1      19.102   2.153   7.991  0.00  0.00     0.274 HD
ENDBRANCH   4   5
ENDBRANCH   3   4
ENDBRANCH   2   3
ENDBRANCH   1   2
BRANCH   1   9
ATOM      9  C9  <0> d   1      17.727  -0.736   5.364  0.00  0.00     0.283 C 
BRANCH   9  10
ATOM     10  N11 <0> d   1      17.756  -2.167   5.698  0.00  0.00    -0.065 N 
ATOM     11  H12 <0> d   1      17.462  -2.704   4.897  0.00  0.00     0.275 HD
ATOM     12  H13 <0> d   1      18.694  -2.433   5.956  0.00  0.00     0.275 HD
ATOM     13  H14 <0> d   1      17.131  -2.345   6.471  0.00  0.00     0.275 HD
ENDBRANCH   9  10
BRANCH   9  14
ATOM     14  C15 <0> d   1      19.134  -0.242   5.148  0.00  0.00     0.204 C 
ATOM     15  O16 <0> d   1      19.966  -0.974   4.640  0.00  0.00    -0.646 OA
ATOM     16  O17 <0> d   1      19.440   0.890   5.482  0.00  0.00    -0.646 OA
ENDBRANCH   9  14
ENDBRANCH   1   9
TORSDOF 7
ENDMDL
MODEL 5
REMARK VINA RESULT:      -3.8      5.615      6.482
REMARK  7 active torsions:
REMARK  status: ('A' for Active; 'I' for Inactive)
REMARK    1  A    between atoms: N1_1  and  C5_5 
REMARK    2  A    between atoms: C5_5  and  C6_6 
REMARK    3  A    between atoms: C6_6  and  C7_7 
REMARK    4  A    between atoms: C7_7  and  C8_8 
REMARK    5  A    between atoms: C8_8  and  C9_9 
REMARK    6  A    between atoms: C9_9  and  N11_10 
REMARK    7  A    between atoms: C9_9  and  C15_14 
ROOT
ATOM      1  C8  <0> d   1      19.582  -0.167   9.557  0.00  0.00     0.044 C 
ENDROOT
BRANCH   1   2
ATOM      2  C7  <0> d   1      18.548   0.936   9.786  0.00  0.00     0.004 C 
BRANCH   2   3
ATOM      3  C6  <0> d   1      19.234   2.302   9.712  0.00  0.00     0.027 C 
BRANCH   3   4
ATOM      4  C5  <0> d   1      19.286   2.924  11.109  0.00  0.00     0.229 C 
BRANCH   4   5
ATOM      5  N1  <0> d   1      20.683   3.018  11.552  0.00  0.00    -0.079 N 
ATOM      6  H2  <0> d   1      20.913   2.213  12.115  0.00  0.00     0.274 HD
ATOM      7  H3  <0> d   1      20.807   3.858  12.098  0.00  0.00     0.274 HD
ATOM      8  H4  <0> d   1      21.290   3.049  10.746  0.00  0.00     0.274 HD
ENDBRANCH   4   5
ENDBRANCH   3   4
ENDBRANCH   2   3
ENDBRANCH   1   2
BRANCH   1   9
ATOM      9  C9  <0> d   1      20.089  -0.679  10.907  0.00  0.00     0.283 C 
BRANCH   9  10
ATOM     10  N11 <0> d   1      21.555  -0.593  10.945  0.00  0.00    -0.065 N 
ATOM     11  H12 <0> d   1      21.941  -1.509  11.116  0.00  0.00     0.275 HD
ATOM     12  H13 <0> d   1      21.894  -0.244  10.061  0.00  0.00     0.275 HD
ATOM     13  H14 <0> d   1      21.836   0.034  11.685  0.00  0.00     0.275 HD
ENDBRANCH   9  10
BRANCH   9  14
ATOM     14  C15 <0> d   1      19.664  -2.113  11.093  0.00  0.00     0.204 C 
ATOM     15  O16 <0> d   1      19.691  -2.618  12.202  0.00  0.00    -0.646 OA
ATOM     16  O17 <0> d   1      19.293  -2.767  10.134  0.00  0.00    -0.646 OA
ENDBRANCH   9  14
ENDBRANCH   1   9
TORSDOF 7
ENDMDL
MODEL 6
REMARK VINA RESULT:      -3.8      6.383      7.751
REMARK  7 active torsions:
REMARK  status: ('A' for Active; 'I' for Inactive)
REMARK    1  A    between atoms: N1_1  and  C5_5 
REMARK    2  A    between atoms: C5_5  and  C6_6 
REMARK    3  A    between atoms: C6_6  and  C7_7 
REMARK    4  A    between atoms: C7_7  and  C8_8 
REMARK    5  A    between atoms: C8_8  and  C9_9 
REMARK    6  A    between atoms: C9_9  and  N11_10 
REMARK    7  A    between atoms: C9_9  and  C15_14 
ROOT
ATOM      1  C8  <0> d   1      19.212   1.234   9.138  0.00  0.00     0.044 C 
ENDROOT
BRANCH   1   2
ATOM      2  C7  <0> d   1      19.134   1.520   7.638  0.00  0.00     0.004 C 
BRANCH   2   3
ATOM      3  C6  <0> d   1      18.257   0.465   6.962  0.00  0.00     0.027 C 
BRANCH   3   4
ATOM      4  C5  <0> d   1      19.117  -0.399   6.036  0.00  0.00     0.229 C 
BRANCH   4   5
ATOM      5  N1  <0> d   1      19.568   0.407   4.894  0.00  0.00    -0.079 N 
ATOM      6  H2  <0> d   1      19.060   0.132   4.067  0.00  0.00     0.274 HD
ATOM      7  H3  <0> d   1      20.555   0.260   4.747  0.00  0.00     0.274 HD
ATOM      8  H4  <0> d   1      19.398   1.384   5.083  0.00  0.00     0.274 HD
ENDBRANCH   4   5
ENDBRANCH   3   4
ENDBRANCH   2   3
ENDBRANCH   1   2
BRANCH   1   9
ATOM      9  C9  <0> d   1      18.990   2.532   9.917  0.00  0.00     0.283 C 
BRANCH   9  10
ATOM     10  N11 <0> d   1      20.056   2.694  10.915  0.00  0.00    -0.065 N 
ATOM     11  H12 <0> d   1      20.700   1.921  10.846  0.00  0.00     0.275 HD
ATOM     12  H13 <0> d   1      20.547   3.559  10.744  0.00  0.00     0.275 HD
ATOM     13  H14 <0> d   1      19.651   2.715  11.839  0.00  0.00     0.275 HD
ENDBRANCH   9  10
BRANCH   9  14
ATOM     14  C15 <0> d   1      17.654   2.478  10.613  0.00  0.00     0.204 C 
ATOM     15  O16 <0> d   1      17.059   3.511  10.870  0.00  0.00    -0.646 OA
ATOM     16  O17 <0> d   1      17.169   1.403  10.918  0.00  0.00    -0.646 OA
ENDBRANCH   9  14
ENDBRANCH   1   9
TORSDOF 7
ENDMDL
MODEL 7
REMARK VINA RESULT:      -3.8      4.726      5.813
REMARK  7 active torsions:
REMARK  status: ('A' for Active; 'I' for Inactive)
REMARK    1  A    between atoms: N1_1  and  C5_5 
REMARK    2  A    between atoms: C5_5  and  C6_6 
REMARK    3  A    between atoms: C6_6  and  C7_7 
REMARK    4  A    between atoms: C7_7  and  C8_8 
REMARK    5  A    between atoms: C8_8  and  C9_9 
REMARK    6  A    between atoms: C9_9  and  N11_10 
REMARK    7  A    between atoms: C9_9  and  C15_14 
ROOT
ATOM      1  C8  <0> d   1      19.329   1.618  12.529  0.00  0.00     0.044 C 
ENDROOT
BRANCH   1   2
ATOM      2  C7  <0> d   1      19.937   2.600  11.526  0.00  0.00     0.004 C 
BRANCH   2   3
ATOM      3  C6  <0> d   1      18.844   3.108  10.583  0.00  0.00     0.027 C 
BRANCH   3   4
ATOM      4  C5  <0> d   1      18.617   2.086   9.467  0.00  0.00     0.229 C 
BRANCH   4   5
ATOM      5  N1  <0> d   1      19.913   1.632   8.947  0.00  0.00    -0.079 N 
ATOM      6  H2  <0> d   1      20.629   1.796   9.639  0.00  0.00     0.274 HD
ATOM      7  H3  <0> d   1      20.136   2.142   8.105  0.00  0.00     0.274 HD
ATOM      8  H4  <0> d   1      19.866   0.645   8.740  0.00  0.00     0.274 HD
ENDBRANCH   4   5
ENDBRANCH   3   4
ENDBRANCH   2   3
ENDBRANCH   1   2
BRANCH   1   9
ATOM      9  C9  <0> d   1      20.204   0.365  12.609  0.00  0.00     0.283 C 
BRANCH   9  10
ATOM     10  N11 <0> d   1      21.560   0.683  12.142  0.00  0.00    -0.065 N 
ATOM     11  H12 <0> d   1      21.577   1.621  11.773  0.00  0.00     0.275 HD
ATOM     12  H13 <0> d   1      22.206   0.613  12.914  0.00  0.00     0.275 HD
ATOM     13  H14 <0> d   1      21.828   0.031  11.419  0.00  0.00     0.275 HD
ENDBRANCH   9  10
BRANCH   9  14
ATOM     14  C15 <0> d   1      19.614  -0.716  11.741  0.00  0.00     0.204 C 
ATOM     15  O16 <0> d   1      18.650  -1.353  12.131  0.00  0.00    -0.646 OA
ATOM     16  O17 <0> d   1      20.100  -0.954  10.649  0.00  0.00    -0.646 OA
ENDBRANCH   9  14
ENDBRANCH   1   9
TORSDOF 7
ENDMDL
MODEL 8
REMARK VINA RESULT:      -3.8      4.935      6.041
REMARK  7 active torsions:
REMARK  status: ('A' for Active; 'I' for Inactive)
REMARK    1  A    between atoms: N1_1  and  C5_5 
REMARK    2  A    between atoms: C5_5  and  C6_6 
REMARK    3  A    between atoms: C6_6  and  C7_7 
REMARK    4  A    between atoms: C7_7  and  C8_8 
REMARK    5  A    between atoms: C8_8  and  C9_9 
REMARK    6  A    between atoms: C9_9  and  N11_10 
REMARK    7  A    between atoms: C9_9  and  C15_14 
ROOT
ATOM      1  C8  <0> d   1      18.856  -1.741  12.222  0.00  0.00     0.044 C 
ENDROOT
BRANCH   1   2
ATOM      2  C7  <0> d   1      19.081  -1.354  13.685  0.00  0.00     0.004 C 
BRANCH   2   3
ATOM      3  C6  <0> d   1      19.878  -0.050  13.751  0.00  0.00     0.027 C 
BRANCH   3   4
ATOM      4  C5  <0> d   1      20.138   0.462  12.332  0.00  0.00     0.229 C 
BRANCH   4   5
ATOM      5  N1  <0> d   1      21.583   0.620  12.126  0.00  0.00    -0.079 N 
ATOM      6  H2  <0> d   1      21.863   1.551  12.398  0.00  0.00     0.274 HD
ATOM      7  H3  <0> d   1      21.802   0.475  11.152  0.00  0.00     0.274 HD
ATOM      8  H4  <0> d   1      22.079  -0.057  12.687  0.00  0.00     0.274 HD
ENDBRANCH   4   5
ENDBRANCH   3   4
ENDBRANCH   2   3
ENDBRANCH   1   2
BRANCH   1   9
ATOM      9  C9  <0> d   1      19.360  -3.167  11.988  0.00  0.00     0.283 C 
BRANCH   9  10
ATOM     10  N11 <0> d   1      20.669  -3.122  11.323  0.00  0.00    -0.065 N 
ATOM     11  H12 <0> d   1      20.590  -3.519  10.400  0.00  0.00     0.275 HD
ATOM     12  H13 <0> d   1      20.977  -2.163  11.253  0.00  0.00     0.275 HD
ATOM     13  H14 <0> d   1      21.338  -3.651  11.862  0.00  0.00     0.275 HD
ENDBRANCH   9  10
BRANCH   9  14
ATOM     14  C15 <0> d   1      18.379  -3.910  11.118  0.00  0.00     0.204 C 
ATOM     15  O16 <0> d   1      17.182  -3.714  11.244  0.00  0.00    -0.646 OA
ATOM     16  O17 <0> d   1      18.782  -4.706  10.289  0.00  0.00    -0.646 OA
ENDBRANCH   9  14
ENDBRANCH   1   9
TORSDOF 7
ENDMDL
MODEL 9
REMARK VINA RESULT:      -3.8      3.743      4.639
REMARK  7 active torsions:
REMARK  status: ('A' for Active; 'I' for Inactive)
REMARK    1  A    between atoms: N1_1  and  C5_5 
REMARK    2  A    between atoms: C5_5  and  C6_6 
REMARK    3  A    between atoms: C6_6  and  C7_7 
REMARK    4  A    between atoms: C7_7  and  C8_8 
REMARK    5  A    between atoms: C8_8  and  C9_9 
REMARK    6  A    between atoms: C9_9  and  N11_10 
REMARK    7  A    between atoms: C9_9  and  C15_14 
ROOT
ATOM      1  C8  <0> d   1      19.868  -0.062  13.734  0.00  0.00     0.044 C 
ENDROOT
BRANCH   1   2
ATOM      2  C7  <0> d   1      18.925  -1.259  13.603  0.00  0.00     0.004 C 
BRANCH   2   3
ATOM      3  C6  <0> d   1      18.902  -1.735  12.149  0.00  0.00     0.027 C 
BRANCH   3   4
ATOM      4  C5  <0> d   1      19.554  -3.116  12.053  0.00  0.00     0.229 C 
BRANCH   4   5
ATOM      5  N1  <0> d   1      20.823  -3.009  11.322  0.00  0.00    -0.079 N 
ATOM      6  H2  <0> d   1      21.346  -2.219  11.670  0.00  0.00     0.274 HD
ATOM      7  H3  <0> d   1      20.636  -2.881  10.339  0.00  0.00     0.274 HD
ATOM      8  H4  <0> d   1      21.361  -3.852  11.455  0.00  0.00     0.274 HD
ENDBRANCH   4   5
ENDBRANCH   3   4
ENDBRANCH   2   3
ENDBRANCH   1   2
BRANCH   1   9
ATOM      9  C9  <0> d   1      20.126   0.536  12.349  0.00  0.00     0.283 C 
BRANCH   9  10
ATOM     10  N11 <0> d   1      21.573   0.617  12.112  0.00  0.00    -0.065 N 
ATOM     11  H12 <0> d   1      21.781   0.282  11.183  0.00  0.00     0.275 HD
ATOM     12  H13 <0> d   1      21.876   1.576  12.199  0.00  0.00     0.275 HD
ATOM     13  H14 <0> d   1      22.058   0.048  12.791  0.00  0.00     0.275 HD
ENDBRANCH   9  10
BRANCH   9  14
ATOM     14  C15 <0> d   1      19.527   1.918  12.279  0.00  0.00     0.204 C 
ATOM     15  O16 <0> d   1      18.667   2.250  13.077  0.00  0.00    -0.646 OA
ATOM     16  O17 <0> d   1      19.903   2.702  11.426  0.00  0.00    -0.646 OA
ENDBRANCH   9  14
ENDBRANCH   1   9
TORSDOF 7
ENDMDL
