MODEL 1
REMARK VINA RESULT:      -8.4      0.000      0.000
REMARK  13 active torsions:
REMARK  status: ('A' for Active; 'I' for Inactive)
REMARK    1  A    between atoms: O2_2  and  C3_3 
REMARK    2  A    between atoms: C3_3  and  C5_5 
REMARK    3  A    between atoms: C5_5  and  C6_6 
REMARK    4  A    between atoms: C6_6  and  O7_7 
REMARK    5  A    between atoms: C6_6  and  C8_8 
REMARK    6  A    between atoms: C6_6  and  C15_15 
REMARK    7  A    between atoms: C8_8  and  C9_9 
REMARK    8  A    between atoms: C9_9  and  C10_10 
REMARK    9  A    between atoms: C10_10  and  C11_11 
REMARK   10  A    between atoms: C11_11  and  O14_14 
REMARK   11  A    between atoms: C15_15  and  O17_17 
REMARK   12  A    between atoms: O17_17  and  C18_18 
REMARK   13  A    between atoms: C20_19  and  O21_20 
ROOT
ATOM      1  C18 ZIN A   1      17.812   3.440  12.979  0.00  0.00     0.199 C 
ATOM      2  C20 ZIN A   1      17.088   4.625  12.377  0.00  0.00     0.074 C 
ATOM      3  C23 ZIN A   1      17.260   5.703  13.113  0.00  0.00     0.048 C 
ATOM      4  C24 ZIN A   1      18.117   5.394  14.306  0.00  0.00     0.158 C 
ATOM      5  C25 ZIN A   1      17.270   5.313  15.587  0.00  0.00     0.046 C 
ATOM      6  C26 ZIN A   1      17.165   6.818  15.958  0.00  0.00     0.030 C 
ATOM      7  C27 ZIN A   1      18.534   7.387  15.524  0.00  0.00     0.236 C 
ATOM      8  N28 ZIN A   1      19.127   6.424  14.562  0.00  0.00    -0.058 N 
ATOM      9  H29 ZIN A   1      19.425   6.884  13.714  0.00  0.00     0.281 HD
ATOM     10  C30 ZIN A   1      20.264   5.780  15.260  0.00  0.00     0.241 C 
ATOM     11  C31 ZIN A   1      19.760   5.168  16.562  0.00  0.00     0.067 C 
ATOM     12  C32 ZIN A   1      19.371   3.717  16.400  0.00  0.00    -0.047 A 
ATOM     13  C33 ZIN A   1      19.514   2.905  17.528  0.00  0.00     0.047 A 
ATOM     14  C34 ZIN A   1      19.149   1.573  17.421  0.00  0.00     0.105 A 
ATOM     15  C35 ZIN A   1      18.647   1.057  16.217  0.00  0.00     0.105 A 
ATOM     16  C36 ZIN A   1      18.513   1.866  15.100  0.00  0.00     0.048 A 
ATOM     17  C37 ZIN A   1      18.896   3.201  15.215  0.00  0.00    -0.039 A 
ATOM     18  C38 ZIN A   1      18.808   4.059  13.986  0.00  0.00     0.095 C 
ATOM     19  O40 ZIN A   1      18.361  -0.253  16.389  0.00  0.00    -0.323 OA
ATOM     20  C41 ZIN A   1      19.063  -0.646  17.588  0.00  0.00     0.352 C 
ATOM     21  O42 ZIN A   1      19.185   0.580  18.339  0.00  0.00    -0.323 OA
ENDROOT
BRANCH   1  22
ATOM     22  O17 ZIN A   1      18.523   2.704  11.950  0.00  0.00    -0.306 OA
BRANCH  22  23
ATOM     23  C15 ZIN A   1      17.919   1.616  11.449  0.00  0.00     0.294 C 
ATOM     24  O16 ZIN A   1      16.937   1.166  11.992  0.00  0.00    -0.262 OA
BRANCH  23  25
ATOM     25  C6  ZIN A   1      18.463   0.955  10.209  0.00  0.00     0.154 C 
BRANCH  25  26
ATOM     26  C5  ZIN A   1      19.647   0.061  10.584  0.00  0.00     0.159 C 
BRANCH  26  27
ATOM     27  C3  ZIN A   1      19.186  -1.371  10.677  0.00  0.00     0.261 C 
ATOM     28  O4  ZIN A   1      19.313  -2.108   9.727  0.00  0.00    -0.265 OA
BRANCH  27  29
ATOM     29  O2  ZIN A   1      18.635  -1.826  11.812  0.00  0.00    -0.326 OA
ATOM     30  C1  ZIN A   1      19.285  -1.453  13.056  0.00  0.00     0.213 C 
ENDBRANCH  27  29
ENDBRANCH  26  27
ENDBRANCH  25  26
BRANCH  25  31
ATOM     31  O7  ZIN A   1      17.440   0.161   9.605  0.00  0.00    -0.379 OA
ATOM     32  H48 ZIN A   1      17.030  -0.477  10.205  0.00  0.00     0.211 HD
ENDBRANCH  25  31
BRANCH  25  33
ATOM     33  C8  ZIN A   1      18.927   2.027   9.221  0.00  0.00     0.049 C 
BRANCH  33  34
ATOM     34  C9  ZIN A   1      19.728   1.369   8.095  0.00  0.00     0.006 C 
BRANCH  34  35
ATOM     35  C10 ZIN A   1      18.947   1.479   6.782  0.00  0.00     0.037 C 
BRANCH  35  36
ATOM     36  C11 ZIN A   1      18.648   0.078   6.248  0.00  0.00     0.051 C 
ATOM     37  C12 ZIN A   1      17.135  -0.099   6.103  0.00  0.00     0.045 C 
ATOM     38  C13 ZIN A   1      19.315  -0.101   4.883  0.00  0.00     0.045 C 
BRANCH  36  39
ATOM     39  O14 ZIN A   1      19.157  -0.899   7.158  0.00  0.00    -0.391 OA
ATOM     40  H61 ZIN A   1      18.907  -1.808   6.940  0.00  0.00     0.210 HD
ENDBRANCH  36  39
ENDBRANCH  35  36
ENDBRANCH  34  35
ENDBRANCH  33  34
ENDBRANCH  25  33
ENDBRANCH  23  25
ENDBRANCH  22  23
ENDBRANCH   1  22
BRANCH   2  41
ATOM     41  O21 ZIN A   1      16.360   4.581  11.232  0.00  0.00    -0.358 OA
ATOM     42  C22 ZIN A   1      16.975   5.106  10.053  0.00  0.00     0.209 C 
ENDBRANCH   2  41
TORSDOF 13
ENDMDL
MODEL 2
REMARK VINA RESULT:      -8.0      1.180      2.945
REMARK  13 active torsions:
REMARK  status: ('A' for Active; 'I' for Inactive)
REMARK    1  A    between atoms: O2_2  and  C3_3 
REMARK    2  A    between atoms: C3_3  and  C5_5 
REMARK    3  A    between atoms: C5_5  and  C6_6 
REMARK    4  A    between atoms: C6_6  and  O7_7 
REMARK    5  A    between atoms: C6_6  and  C8_8 
REMARK    6  A    between atoms: C6_6  and  C15_15 
REMARK    7  A    between atoms: C8_8  and  C9_9 
REMARK    8  A    between atoms: C9_9  and  C10_10 
REMARK    9  A    between atoms: C10_10  and  C11_11 
REMARK   10  A    between atoms: C11_11  and  O14_14 
REMARK   11  A    between atoms: C15_15  and  O17_17 
REMARK   12  A    between atoms: O17_17  and  C18_18 
REMARK   13  A    between atoms: C20_19  and  O21_20 
ROOT
ATOM      1  C18 ZIN A   1      17.843   3.423  12.752  0.00  0.00     0.199 C 
ATOM      2  C20 ZIN A   1      17.147   4.696  12.321  0.00  0.00     0.074 C 
ATOM      3  C23 ZIN A   1      17.293   5.640  13.228  0.00  0.00     0.048 C 
ATOM      4  C24 ZIN A   1      18.100   5.134  14.388  0.00  0.00     0.158 C 
ATOM      5  C25 ZIN A   1      17.202   4.855  15.604  0.00  0.00     0.046 C 
ATOM      6  C26 ZIN A   1      17.086   6.282  16.210  0.00  0.00     0.030 C 
ATOM      7  C27 ZIN A   1      18.472   6.901  15.928  0.00  0.00     0.236 C 
ATOM      8  N28 ZIN A   1      19.101   6.100  14.847  0.00  0.00    -0.058 N 
ATOM      9  H29 ZIN A   1      19.434   6.688  14.097  0.00  0.00     0.281 HD
ATOM     10  C30 ZIN A   1      20.207   5.341  15.476  0.00  0.00     0.241 C 
ATOM     11  C31 ZIN A   1      19.649   4.532  16.641  0.00  0.00     0.067 C 
ATOM     12  C32 ZIN A   1      19.263   3.130  16.231  0.00  0.00    -0.047 A 
ATOM     13  C33 ZIN A   1      19.358   2.145  17.218  0.00  0.00     0.047 A 
ATOM     14  C34 ZIN A   1      18.994   0.852  16.883  0.00  0.00     0.105 A 
ATOM     15  C35 ZIN A   1      18.539   0.541  15.593  0.00  0.00     0.105 A 
ATOM     16  C36 ZIN A   1      18.453   1.521  14.616  0.00  0.00     0.048 A 
ATOM     17  C37 ZIN A   1      18.835   2.816  14.961  0.00  0.00    -0.039 A 
ATOM     18  C38 ZIN A   1      18.799   3.862  13.884  0.00  0.00     0.095 C 
ATOM     19  O40 ZIN A   1      18.243  -0.777  15.539  0.00  0.00    -0.323 OA
ATOM     20  C41 ZIN A   1      18.895  -1.365  16.686  0.00  0.00     0.352 C 
ATOM     21  O42 ZIN A   1      18.990  -0.278  17.629  0.00  0.00    -0.323 OA
ENDROOT
BRANCH   1  22
ATOM     22  O17 ZIN A   1      18.594   2.856  11.646  0.00  0.00    -0.306 OA
BRANCH  22  23
ATOM     23  C15 ZIN A   1      18.067   1.782  11.038  0.00  0.00     0.294 C 
ATOM     24  O16 ZIN A   1      16.888   1.541  11.150  0.00  0.00    -0.262 OA
BRANCH  23  25
ATOM     25  C6  ZIN A   1      18.945   0.876  10.214  0.00  0.00     0.154 C 
BRANCH  25  26
ATOM     26  C5  ZIN A   1      18.071  -0.030   9.344  0.00  0.00     0.159 C 
BRANCH  26  27
ATOM     27  C3  ZIN A   1      18.744  -0.253   8.015  0.00  0.00     0.261 C 
ATOM     28  O4  ZIN A   1      19.622  -1.076   7.913  0.00  0.00    -0.265 OA
BRANCH  27  29
ATOM     29  O2  ZIN A   1      18.368   0.464   6.944  0.00  0.00    -0.326 OA
ATOM     30  C1  ZIN A   1      17.171   0.028   6.246  0.00  0.00     0.213 C 
ENDBRANCH  27  29
ENDBRANCH  26  27
ENDBRANCH  25  26
BRANCH  25  31
ATOM     31  O7  ZIN A   1      19.792   1.666   9.377  0.00  0.00    -0.379 OA
ATOM     32  H48 ZIN A   1      20.527   2.086   9.845  0.00  0.00     0.211 HD
ENDBRANCH  25  31
BRANCH  25  33
ATOM     33  C8  ZIN A   1      19.805   0.016  11.142  0.00  0.00     0.049 C 
BRANCH  33  34
ATOM     34  C9  ZIN A   1      18.925  -1.037  11.821  0.00  0.00     0.006 C 
BRANCH  34  35
ATOM     35  C10 ZIN A   1      19.684  -2.364  11.897  0.00  0.00     0.037 C 
BRANCH  35  36
ATOM     36  C11 ZIN A   1      19.027  -3.380  10.961  0.00  0.00     0.051 C 
ATOM     37  C12 ZIN A   1      19.303  -4.796  11.473  0.00  0.00     0.045 C 
ATOM     38  C13 ZIN A   1      17.517  -3.137  10.924  0.00  0.00     0.045 C 
BRANCH  36  39
ATOM     39  O14 ZIN A   1      19.565  -3.236   9.646  0.00  0.00    -0.391 OA
ATOM     40  H61 ZIN A   1      19.040  -3.668   8.957  0.00  0.00     0.210 HD
ENDBRANCH  36  39
ENDBRANCH  35  36
ENDBRANCH  34  35
ENDBRANCH  33  34
ENDBRANCH  25  33
ENDBRANCH  23  25
ENDBRANCH  22  23
ENDBRANCH   1  22
BRANCH   2  41
ATOM     41  O21 ZIN A   1      16.466   4.845  11.157  0.00  0.00    -0.358 OA
ATOM     42  C22 ZIN A   1      17.196   5.357  10.040  0.00  0.00     0.209 C 
ENDBRANCH   2  41
TORSDOF 13
ENDMDL
MODEL 3
REMARK VINA RESULT:      -7.8      3.664      9.310
REMARK  13 active torsions:
REMARK  status: ('A' for Active; 'I' for Inactive)
REMARK    1  A    between atoms: O2_2  and  C3_3 
REMARK    2  A    between atoms: C3_3  and  C5_5 
REMARK    3  A    between atoms: C5_5  and  C6_6 
REMARK    4  A    between atoms: C6_6  and  O7_7 
REMARK    5  A    between atoms: C6_6  and  C8_8 
REMARK    6  A    between atoms: C6_6  and  C15_15 
REMARK    7  A    between atoms: C8_8  and  C9_9 
REMARK    8  A    between atoms: C9_9  and  C10_10 
REMARK    9  A    between atoms: C10_10  and  C11_11 
REMARK   10  A    between atoms: C11_11  and  O14_14 
REMARK   11  A    between atoms: C15_15  and  O17_17 
REMARK   12  A    between atoms: O17_17  and  C18_18 
REMARK   13  A    between atoms: C20_19  and  O21_20 
ROOT
ATOM      1  C18 ZIN A   1      17.920  -3.347  10.132  0.00  0.00     0.199 C 
ATOM      2  C20 ZIN A   1      17.230  -4.658  10.442  0.00  0.00     0.074 C 
ATOM      3  C23 ZIN A   1      17.373  -5.510   9.449  0.00  0.00     0.048 C 
ATOM      4  C24 ZIN A   1      18.173  -4.893   8.338  0.00  0.00     0.158 C 
ATOM      5  C25 ZIN A   1      17.267  -4.502   7.158  0.00  0.00     0.046 C 
ATOM      6  C26 ZIN A   1      17.152  -5.865   6.420  0.00  0.00     0.030 C 
ATOM      7  C27 ZIN A   1      18.542  -6.503   6.634  0.00  0.00     0.236 C 
ATOM      8  N28 ZIN A   1      19.174  -5.807   7.784  0.00  0.00    -0.058 N 
ATOM      9  H29 ZIN A   1      19.513  -6.463   8.472  0.00  0.00     0.281 HD
ATOM     10  C30 ZIN A   1      20.275  -4.988   7.224  0.00  0.00     0.241 C 
ATOM     11  C31 ZIN A   1      19.708  -4.073   6.145  0.00  0.00     0.067 C 
ATOM     12  C32 ZIN A   1      19.320  -2.718   6.689  0.00  0.00    -0.047 A 
ATOM     13  C33 ZIN A   1      19.407  -1.642   5.801  0.00  0.00     0.047 A 
ATOM     14  C34 ZIN A   1      19.042  -0.388   6.260  0.00  0.00     0.105 A 
ATOM     15  C35 ZIN A   1      18.593  -0.204   7.577  0.00  0.00     0.105 A 
ATOM     16  C36 ZIN A   1      18.515  -1.273   8.455  0.00  0.00     0.048 A 
ATOM     17  C37 ZIN A   1      18.899  -2.528   7.986  0.00  0.00    -0.039 A 
ATOM     18  C38 ZIN A   1      18.871  -3.673   8.957  0.00  0.00     0.095 C 
ATOM     19  O40 ZIN A   1      18.294   1.102   7.758  0.00  0.00    -0.323 OA
ATOM     20  C41 ZIN A   1      18.937   1.799   6.670  0.00  0.00     0.352 C 
ATOM     21  O42 ZIN A   1      19.031   0.807   5.626  0.00  0.00    -0.323 OA
ENDROOT
BRANCH   1  22
ATOM     22  O17 ZIN A   1      18.675  -2.887  11.283  0.00  0.00    -0.306 OA
BRANCH  22  23
ATOM     23  C15 ZIN A   1      18.178  -1.839  11.959  0.00  0.00     0.294 C 
ATOM     24  O16 ZIN A   1      17.002  -1.574  11.883  0.00  0.00    -0.262 OA
BRANCH  23  25
ATOM     25  C6  ZIN A   1      19.087  -0.994  12.814  0.00  0.00     0.154 C 
BRANCH  25  26
ATOM     26  C5  ZIN A   1      18.245  -0.069  13.695  0.00  0.00     0.159 C 
BRANCH  26  27
ATOM     27  C3  ZIN A   1      18.570  -0.321  15.144  0.00  0.00     0.261 C 
ATOM     28  O4  ZIN A   1      19.342   0.404  15.725  0.00  0.00    -0.265 OA
BRANCH  27  29
ATOM     29  O2  ZIN A   1      18.001  -1.352  15.790  0.00  0.00    -0.326 OA
ATOM     30  C1  ZIN A   1      17.108  -1.029  16.888  0.00  0.00     0.213 C 
ENDBRANCH  27  29
ENDBRANCH  26  27
ENDBRANCH  25  26
BRANCH  25  31
ATOM     31  O7  ZIN A   1      19.886  -1.841  13.642  0.00  0.00    -0.379 OA
ATOM     32  H48 ZIN A   1      19.981  -1.527  14.552  0.00  0.00     0.211 HD
ENDBRANCH  25  31
BRANCH  25  33
ATOM     33  C8  ZIN A   1      19.997  -0.153  11.916  0.00  0.00     0.049 C 
BRANCH  33  34
ATOM     34  C9  ZIN A   1      19.785   1.331  12.223  0.00  0.00     0.006 C 
BRANCH  34  35
ATOM     35  C10 ZIN A   1      19.520   2.088  10.919  0.00  0.00     0.037 C 
BRANCH  35  36
ATOM     36  C11 ZIN A   1      18.111   2.682  10.953  0.00  0.00     0.051 C 
ATOM     37  C12 ZIN A   1      17.799   3.175  12.367  0.00  0.00     0.045 C 
ATOM     38  C13 ZIN A   1      18.028   3.855   9.974  0.00  0.00     0.045 C 
BRANCH  36  39
ATOM     39  O14 ZIN A   1      17.162   1.682  10.577  0.00  0.00    -0.391 OA
ATOM     40  H61 ZIN A   1      16.466   2.002   9.986  0.00  0.00     0.210 HD
ENDBRANCH  36  39
ENDBRANCH  35  36
ENDBRANCH  34  35
ENDBRANCH  33  34
ENDBRANCH  25  33
ENDBRANCH  23  25
ENDBRANCH  22  23
ENDBRANCH   1  22
BRANCH   2  41
ATOM     41  O21 ZIN A   1      16.556  -4.920  11.591  0.00  0.00    -0.358 OA
ATOM     42  C22 ZIN A   1      17.205  -5.762  12.546  0.00  0.00     0.209 C 
ENDBRANCH   2  41
TORSDOF 13
ENDMDL
MODEL 4
REMARK VINA RESULT:      -7.6      2.951      9.291
REMARK  13 active torsions:
REMARK  status: ('A' for Active; 'I' for Inactive)
REMARK    1  A    between atoms: O2_2  and  C3_3 
REMARK    2  A    between atoms: C3_3  and  C5_5 
REMARK    3  A    between atoms: C5_5  and  C6_6 
REMARK    4  A    between atoms: C6_6  and  O7_7 
REMARK    5  A    between atoms: C6_6  and  C8_8 
REMARK    6  A    between atoms: C6_6  and  C15_15 
REMARK    7  A    between atoms: C8_8  and  C9_9 
REMARK    8  A    between atoms: C9_9  and  C10_10 
REMARK    9  A    between atoms: C10_10  and  C11_11 
REMARK   10  A    between atoms: C11_11  and  O14_14 
REMARK   11  A    between atoms: C15_15  and  O17_17 
REMARK   12  A    between atoms: O17_17  and  C18_18 
REMARK   13  A    between atoms: C20_19  and  O21_20 
ROOT
ATOM      1  C18 ZIN A   1      18.446  -1.033  10.667  0.00  0.00     0.199 C 
ATOM      2  C20 ZIN A   1      17.710  -1.593  11.865  0.00  0.00     0.074 C 
ATOM      3  C23 ZIN A   1      17.569  -2.898  11.761  0.00  0.00     0.048 C 
ATOM      4  C24 ZIN A   1      18.187  -3.393  10.484  0.00  0.00     0.158 C 
ATOM      5  C25 ZIN A   1      17.106  -3.737   9.447  0.00  0.00     0.046 C 
ATOM      6  C26 ZIN A   1      16.716  -5.171   9.902  0.00  0.00     0.030 C 
ATOM      7  C27 ZIN A   1      18.052  -5.761  10.403  0.00  0.00     0.236 C 
ATOM      8  N28 ZIN A   1      18.965  -4.620  10.670  0.00  0.00    -0.058 N 
ATOM      9  H29 ZIN A   1      19.370  -4.679  11.593  0.00  0.00     0.281 HD
ATOM     10  C30 ZIN A   1      20.006  -4.660   9.616  0.00  0.00     0.241 C 
ATOM     11  C31 ZIN A   1      19.326  -4.640   8.252  0.00  0.00     0.067 C 
ATOM     12  C32 ZIN A   1      19.187  -3.240   7.702  0.00  0.00    -0.047 A 
ATOM     13  C33 ZIN A   1      19.198  -3.114   6.310  0.00  0.00     0.047 A 
ATOM     14  C34 ZIN A   1      19.053  -1.847   5.771  0.00  0.00     0.105 A 
ATOM     15  C35 ZIN A   1      18.896  -0.724   6.597  0.00  0.00     0.105 A 
ATOM     16  C36 ZIN A   1      18.892  -0.855   7.977  0.00  0.00     0.048 A 
ATOM     17  C37 ZIN A   1      19.052  -2.132   8.509  0.00  0.00    -0.039 A 
ATOM     18  C38 ZIN A   1      19.109  -2.262  10.004  0.00  0.00     0.095 C 
ATOM     19  O40 ZIN A   1      18.766   0.375   5.821  0.00  0.00    -0.323 OA
ATOM     20  C41 ZIN A   1      19.244  -0.016   4.516  0.00  0.00     0.352 C 
ATOM     21  O42 ZIN A   1      19.031  -1.443   4.480  0.00  0.00    -0.323 OA
ENDROOT
BRANCH   1  22
ATOM     22  O17 ZIN A   1      19.457  -0.082  11.093  0.00  0.00    -0.306 OA
BRANCH  22  23
ATOM     23  C15 ZIN A   1      19.235   1.212  10.809  0.00  0.00     0.294 C 
ATOM     24  O16 ZIN A   1      19.522   1.649   9.720  0.00  0.00    -0.262 OA
BRANCH  23  25
ATOM     25  C6  ZIN A   1      18.629   2.118  11.849  0.00  0.00     0.154 C 
BRANCH  25  26
ATOM     26  C5  ZIN A   1      18.902   3.577  11.476  0.00  0.00     0.159 C 
BRANCH  26  27
ATOM     27  C3  ZIN A   1      17.655   4.189  10.892  0.00  0.00     0.261 C 
ATOM     28  O4  ZIN A   1      17.578   4.383   9.702  0.00  0.00    -0.265 OA
BRANCH  27  29
ATOM     29  O2  ZIN A   1      16.630   4.517  11.694  0.00  0.00    -0.326 OA
ATOM     30  C1  ZIN A   1      16.863   5.576  12.660  0.00  0.00     0.213 C 
ENDBRANCH  27  29
ENDBRANCH  26  27
ENDBRANCH  25  26
BRANCH  25  31
ATOM     31  O7  ZIN A   1      17.219   1.898  11.909  0.00  0.00    -0.379 OA
ATOM     32  H48 ZIN A   1      16.766   2.426  12.583  0.00  0.00     0.211 HD
ENDBRANCH  25  31
BRANCH  25  33
ATOM     33  C8  ZIN A   1      19.251   1.817  13.215  0.00  0.00     0.049 C 
BRANCH  33  34
ATOM     34  C9  ZIN A   1      18.801   2.876  14.224  0.00  0.00     0.006 C 
BRANCH  34  35
ATOM     35  C10 ZIN A   1      18.870   2.294  15.638  0.00  0.00     0.037 C 
BRANCH  35  36
ATOM     36  C11 ZIN A   1      19.222   3.404  16.629  0.00  0.00     0.051 C 
ATOM     37  C12 ZIN A   1      18.283   4.593  16.417  0.00  0.00     0.045 C 
ATOM     38  C13 ZIN A   1      19.066   2.880  18.058  0.00  0.00     0.045 C 
BRANCH  36  39
ATOM     39  O14 ZIN A   1      20.573   3.820  16.419  0.00  0.00    -0.391 OA
ATOM     40  H61 ZIN A   1      20.658   4.715  16.060  0.00  0.00     0.210 HD
ENDBRANCH  36  39
ENDBRANCH  35  36
ENDBRANCH  34  35
ENDBRANCH  33  34
ENDBRANCH  25  33
ENDBRANCH  23  25
ENDBRANCH  22  23
ENDBRANCH   1  22
BRANCH   2  41
ATOM     41  O21 ZIN A   1      17.256  -0.850  12.905  0.00  0.00    -0.358 OA
ATOM     42  C22 ZIN A   1      17.914  -1.025  14.162  0.00  0.00     0.209 C 
ENDBRANCH   2  41
TORSDOF 13
ENDMDL
MODEL 5
REMARK VINA RESULT:      -7.5      3.298      9.172
REMARK  13 active torsions:
REMARK  status: ('A' for Active; 'I' for Inactive)
REMARK    1  A    between atoms: O2_2  and  C3_3 
REMARK    2  A    between atoms: C3_3  and  C5_5 
REMARK    3  A    between atoms: C5_5  and  C6_6 
REMARK    4  A    between atoms: C6_6  and  O7_7 
REMARK    5  A    between atoms: C6_6  and  C8_8 
REMARK    6  A    between atoms: C6_6  and  C15_15 
REMARK    7  A    between atoms: C8_8  and  C9_9 
REMARK    8  A    between atoms: C9_9  and  C10_10 
REMARK    9  A    between atoms: C10_10  and  C11_11 
REMARK   10  A    between atoms: C11_11  and  O14_14 
REMARK   11  A    between atoms: C15_15  and  O17_17 
REMARK   12  A    between atoms: O17_17  and  C18_18 
REMARK   13  A    between atoms: C20_19  and  O21_20 
ROOT
ATOM      1  C18 ZIN A   1      18.405  -1.549  10.422  0.00  0.00     0.199 C 
ATOM      2  C20 ZIN A   1      17.563  -2.076  11.563  0.00  0.00     0.074 C 
ATOM      3  C23 ZIN A   1      17.354  -3.370  11.434  0.00  0.00     0.048 C 
ATOM      4  C24 ZIN A   1      18.022  -3.889  10.193  0.00  0.00     0.158 C 
ATOM      5  C25 ZIN A   1      16.991  -4.160   9.085  0.00  0.00     0.046 C 
ATOM      6  C26 ZIN A   1      16.490  -5.572   9.498  0.00  0.00     0.030 C 
ATOM      7  C27 ZIN A   1      17.756  -6.244  10.074  0.00  0.00     0.236 C 
ATOM      8  N28 ZIN A   1      18.714  -5.161  10.413  0.00  0.00    -0.058 N 
ATOM      9  H29 ZIN A   1      19.055  -5.251  11.358  0.00  0.00     0.281 HD
ATOM     10  C30 ZIN A   1      19.816  -5.252   9.426  0.00  0.00     0.241 C 
ATOM     11  C31 ZIN A   1      19.226  -5.180   8.022  0.00  0.00     0.067 C 
ATOM     12  C32 ZIN A   1      19.204  -3.770   7.482  0.00  0.00    -0.047 A 
ATOM     13  C33 ZIN A   1      19.311  -3.632   6.095  0.00  0.00     0.047 A 
ATOM     14  C34 ZIN A   1      19.275  -2.354   5.563  0.00  0.00     0.105 A 
ATOM     15  C35 ZIN A   1      19.130  -1.231   6.393  0.00  0.00     0.105 A 
ATOM     16  C36 ZIN A   1      19.031  -1.374   7.768  0.00  0.00     0.048 A 
ATOM     17  C37 ZIN A   1      19.082  -2.663   8.292  0.00  0.00    -0.039 A 
ATOM     18  C38 ZIN A   1      19.036  -2.810   9.786  0.00  0.00     0.095 C 
ATOM     19  O40 ZIN A   1      19.114  -0.120   5.623  0.00  0.00    -0.323 OA
ATOM     20  C41 ZIN A   1      19.650  -0.527   4.346  0.00  0.00     0.352 C 
ATOM     21  O42 ZIN A   1      19.358  -1.938   4.279  0.00  0.00    -0.323 OA
ENDROOT
BRANCH   1  22
ATOM     22  O17 ZIN A   1      19.440  -0.663  10.922  0.00  0.00    -0.306 OA
BRANCH  22  23
ATOM     23  C15 ZIN A   1      19.221   0.657  10.807  0.00  0.00     0.294 C 
ATOM     24  O16 ZIN A   1      18.619   1.088   9.852  0.00  0.00    -0.262 OA
BRANCH  23  25
ATOM     25  C6  ZIN A   1      19.726   1.600  11.868  0.00  0.00     0.154 C 
BRANCH  25  26
ATOM     26  C5  ZIN A   1      18.766   1.589  13.060  0.00  0.00     0.159 C 
BRANCH  26  27
ATOM     27  C3  ZIN A   1      19.432   0.922  14.235  0.00  0.00     0.261 C 
ATOM     28  O4  ZIN A   1      19.630   1.547  15.251  0.00  0.00    -0.265 OA
BRANCH  27  29
ATOM     29  O2  ZIN A   1      19.805  -0.364  14.154  0.00  0.00    -0.326 OA
ATOM     30  C1  ZIN A   1      19.268  -1.270  15.154  0.00  0.00     0.213 C 
ENDBRANCH  27  29
ENDBRANCH  26  27
ENDBRANCH  25  26
BRANCH  25  31
ATOM     31  O7  ZIN A   1      21.023   1.183  12.298  0.00  0.00    -0.379 OA
ATOM     32  H48 ZIN A   1      21.018   0.390  12.853  0.00  0.00     0.211 HD
ENDBRANCH  25  31
BRANCH  25  33
ATOM     33  C8  ZIN A   1      19.810   3.016  11.294  0.00  0.00     0.049 C 
BRANCH  33  34
ATOM     34  C9  ZIN A   1      18.941   3.957  12.131  0.00  0.00     0.006 C 
BRANCH  34  35
ATOM     35  C10 ZIN A   1      19.836   4.947  12.880  0.00  0.00     0.037 C 
BRANCH  35  36
ATOM     36  C11 ZIN A   1      19.290   5.158  14.293  0.00  0.00     0.051 C 
ATOM     37  C12 ZIN A   1      19.493   6.618  14.704  0.00  0.00     0.045 C 
ATOM     38  C13 ZIN A   1      17.797   4.825  14.318  0.00  0.00     0.045 C 
BRANCH  36  39
ATOM     39  O14 ZIN A   1      19.983   4.306  15.206  0.00  0.00    -0.391 OA
ATOM     40  H61 ZIN A   1      20.740   3.845  14.816  0.00  0.00     0.210 HD
ENDBRANCH  36  39
ENDBRANCH  35  36
ENDBRANCH  34  35
ENDBRANCH  33  34
ENDBRANCH  25  33
ENDBRANCH  23  25
ENDBRANCH  22  23
ENDBRANCH   1  22
BRANCH   2  41
ATOM     41  O21 ZIN A   1      17.088  -1.317  12.583  0.00  0.00    -0.358 OA
ATOM     42  C22 ZIN A   1      16.279  -0.192  12.231  0.00  0.00     0.209 C 
ENDBRANCH   2  41
TORSDOF 13
ENDMDL
MODEL 6
REMARK VINA RESULT:      -7.5      2.335      7.894
REMARK  13 active torsions:
REMARK  status: ('A' for Active; 'I' for Inactive)
REMARK    1  A    between atoms: O2_2  and  C3_3 
REMARK    2  A    between atoms: C3_3  and  C5_5 
REMARK    3  A    between atoms: C5_5  and  C6_6 
REMARK    4  A    between atoms: C6_6  and  O7_7 
REMARK    5  A    between atoms: C6_6  and  C8_8 
REMARK    6  A    between atoms: C6_6  and  C15_15 
REMARK    7  A    between atoms: C8_8  and  C9_9 
REMARK    8  A    between atoms: C9_9  and  C10_10 
REMARK    9  A    between atoms: C10_10  and  C11_11 
REMARK   10  A    between atoms: C11_11  and  O14_14 
REMARK   11  A    between atoms: C15_15  and  O17_17 
REMARK   12  A    between atoms: O17_17  and  C18_18 
REMARK   13  A    between atoms: C20_19  and  O21_20 
ROOT
ATOM      1  C18 ZIN A   1      17.780  -0.659  11.358  0.00  0.00     0.199 C 
ATOM      2  C20 ZIN A   1      17.527  -2.037  10.785  0.00  0.00     0.074 C 
ATOM      3  C23 ZIN A   1      17.846  -2.079   9.508  0.00  0.00     0.048 C 
ATOM      4  C24 ZIN A   1      18.352  -0.742   9.048  0.00  0.00     0.158 C 
ATOM      5  C25 ZIN A   1      17.294  -0.013   8.204  0.00  0.00     0.046 C 
ATOM      6  C26 ZIN A   1      17.534  -0.667   6.814  0.00  0.00     0.030 C 
ATOM      7  C27 ZIN A   1      19.060  -0.896   6.788  0.00  0.00     0.236 C 
ATOM      8  N28 ZIN A   1      19.538  -0.849   8.194  0.00  0.00    -0.058 N 
ATOM      9  H29 ZIN A   1      20.100  -1.656   8.421  0.00  0.00     0.281 HD
ATOM     10  C30 ZIN A   1      20.310   0.408   8.332  0.00  0.00     0.241 C 
ATOM     11  C31 ZIN A   1      19.428   1.577   7.908  0.00  0.00     0.067 C 
ATOM     12  C32 ZIN A   1      18.698   2.198   9.076  0.00  0.00    -0.047 A 
ATOM     13  C33 ZIN A   1      18.406   3.560   8.974  0.00  0.00     0.047 A 
ATOM     14  C34 ZIN A   1      17.721   4.159  10.019  0.00  0.00     0.105 A 
ATOM     15  C35 ZIN A   1      17.328   3.417  11.143  0.00  0.00     0.105 A 
ATOM     16  C36 ZIN A   1      17.627   2.067  11.241  0.00  0.00     0.048 A 
ATOM     17  C37 ZIN A   1      18.328   1.479  10.191  0.00  0.00    -0.039 A 
ATOM     18  C38 ZIN A   1      18.703   0.031  10.327  0.00  0.00     0.095 C 
ATOM     19  O40 ZIN A   1      16.673   4.233  11.998  0.00  0.00    -0.323 OA
ATOM     20  C41 ZIN A   1      17.009   5.575  11.584  0.00  0.00     0.352 C 
ATOM     21  O42 ZIN A   1      17.317   5.440  10.181  0.00  0.00    -0.323 OA
ENDROOT
BRANCH   1  22
ATOM     22  O17 ZIN A   1      18.444  -0.759  12.645  0.00  0.00    -0.306 OA
BRANCH  22  23
ATOM     23  C15 ZIN A   1      17.816  -0.215  13.699  0.00  0.00     0.294 C 
ATOM     24  O16 ZIN A   1      16.636   0.037  13.636  0.00  0.00    -0.262 OA
BRANCH  23  25
ATOM     25  C6  ZIN A   1      18.582   0.081  14.963  0.00  0.00     0.154 C 
BRANCH  25  26
ATOM     26  C5  ZIN A   1      17.608   0.508  16.063  0.00  0.00     0.159 C 
BRANCH  26  27
ATOM     27  C3  ZIN A   1      17.595  -0.530  17.154  0.00  0.00     0.261 C 
ATOM     28  O4  ZIN A   1      17.141  -1.629  16.937  0.00  0.00    -0.265 OA
BRANCH  27  29
ATOM     29  O2  ZIN A   1      18.086  -0.234  18.368  0.00  0.00    -0.326 OA
ATOM     30  C1  ZIN A   1      19.467   0.210  18.429  0.00  0.00     0.213 C 
ENDBRANCH  27  29
ENDBRANCH  26  27
ENDBRANCH  25  26
BRANCH  25  31
ATOM     31  O7  ZIN A   1      19.285  -1.091  15.379  0.00  0.00    -0.379 OA
ATOM     32  H48 ZIN A   1      19.760  -1.540  14.666  0.00  0.00     0.211 HD
ENDBRANCH  25  31
BRANCH  25  33
ATOM     33  C8  ZIN A   1      19.582   1.210  14.701  0.00  0.00     0.049 C 
BRANCH  33  34
ATOM     34  C9  ZIN A   1      19.171   2.449  15.500  0.00  0.00     0.006 C 
BRANCH  34  35
ATOM     35  C10 ZIN A   1      18.772   3.568  14.536  0.00  0.00     0.037 C 
BRANCH  35  36
ATOM     36  C11 ZIN A   1      18.128   4.712  15.321  0.00  0.00     0.051 C 
ATOM     37  C12 ZIN A   1      18.308   4.464  16.820  0.00  0.00     0.045 C 
ATOM     38  C13 ZIN A   1      18.799   6.033  14.939  0.00  0.00     0.045 C 
BRANCH  36  39
ATOM     39  O14 ZIN A   1      16.735   4.778  15.012  0.00  0.00    -0.391 OA
ATOM     40  H61 ZIN A   1      16.499   4.364  14.170  0.00  0.00     0.210 HD
ENDBRANCH  36  39
ENDBRANCH  35  36
ENDBRANCH  34  35
ENDBRANCH  33  34
ENDBRANCH  25  33
ENDBRANCH  23  25
ENDBRANCH  22  23
ENDBRANCH   1  22
BRANCH   2  41
ATOM     41  O21 ZIN A   1      17.039  -3.086  11.492  0.00  0.00    -0.358 OA
ATOM     42  C22 ZIN A   1      17.948  -4.150  11.784  0.00  0.00     0.209 C 
ENDBRANCH   2  41
TORSDOF 13
ENDMDL
MODEL 7
REMARK VINA RESULT:      -7.4      3.922     10.302
REMARK  13 active torsions:
REMARK  status: ('A' for Active; 'I' for Inactive)
REMARK    1  A    between atoms: O2_2  and  C3_3 
REMARK    2  A    between atoms: C3_3  and  C5_5 
REMARK    3  A    between atoms: C5_5  and  C6_6 
REMARK    4  A    between atoms: C6_6  and  O7_7 
REMARK    5  A    between atoms: C6_6  and  C8_8 
REMARK    6  A    between atoms: C6_6  and  C15_15 
REMARK    7  A    between atoms: C8_8  and  C9_9 
REMARK    8  A    between atoms: C9_9  and  C10_10 
REMARK    9  A    between atoms: C10_10  and  C11_11 
REMARK   10  A    between atoms: C11_11  and  O14_14 
REMARK   11  A    between atoms: C15_15  and  O17_17 
REMARK   12  A    between atoms: O17_17  and  C18_18 
REMARK   13  A    between atoms: C20_19  and  O21_20 
ROOT
ATOM      1  C18 ZIN A   1      18.401  -3.337   9.706  0.00  0.00     0.199 C 
ATOM      2  C20 ZIN A   1      17.607  -4.393  10.445  0.00  0.00     0.074 C 
ATOM      3  C23 ZIN A   1      17.370  -5.431   9.669  0.00  0.00     0.048 C 
ATOM      4  C24 ZIN A   1      17.969  -5.216   8.308  0.00  0.00     0.158 C 
ATOM      5  C25 ZIN A   1      16.881  -4.880   7.275  0.00  0.00     0.046 C 
ATOM      6  C26 ZIN A   1      16.378  -6.305   6.912  0.00  0.00     0.030 C 
ATOM      7  C27 ZIN A   1      17.659  -7.164   6.988  0.00  0.00     0.236 C 
ATOM      8  N28 ZIN A   1      18.650  -6.407   7.795  0.00  0.00    -0.058 N 
ATOM      9  H29 ZIN A   1      19.035  -6.975   8.535  0.00  0.00     0.281 HD
ATOM     10  C30 ZIN A   1      19.701  -5.956   6.852  0.00  0.00     0.241 C 
ATOM     11  C31 ZIN A   1      19.045  -5.168   5.725  0.00  0.00     0.067 C 
ATOM     12  C32 ZIN A   1      19.019  -3.683   6.004  0.00  0.00    -0.047 A 
ATOM     13  C33 ZIN A   1      19.061  -2.840   4.890  0.00  0.00     0.047 A 
ATOM     14  C34 ZIN A   1      19.020  -1.473   5.108  0.00  0.00     0.105 A 
ATOM     15  C35 ZIN A   1      18.934  -0.951   6.408  0.00  0.00     0.105 A 
ATOM     16  C36 ZIN A   1      18.900  -1.793   7.508  0.00  0.00     0.048 A 
ATOM     17  C37 ZIN A   1      18.956  -3.166   7.278  0.00  0.00    -0.039 A 
ATOM     18  C38 ZIN A   1      18.980  -4.072   8.475  0.00  0.00     0.095 C 
ATOM     19  O40 ZIN A   1      18.899   0.398   6.335  0.00  0.00    -0.323 OA
ATOM     20  C41 ZIN A   1      19.366   0.725   5.009  0.00  0.00     0.352 C 
ATOM     21  O42 ZIN A   1      19.048  -0.445   4.228  0.00  0.00    -0.323 OA
ENDROOT
BRANCH   1  22
ATOM     22  O17 ZIN A   1      19.473  -2.832  10.544  0.00  0.00    -0.306 OA
BRANCH  22  23
ATOM     23  C15 ZIN A   1      19.405  -1.542  10.910  0.00  0.00     0.294 C 
ATOM     24  O16 ZIN A   1      19.917  -0.691  10.222  0.00  0.00    -0.262 OA
BRANCH  23  25
ATOM     25  C6  ZIN A   1      18.690  -1.156  12.179  0.00  0.00     0.154 C 
BRANCH  25  26
ATOM     26  C5  ZIN A   1      18.904   0.335  12.452  0.00  0.00     0.159 C 
BRANCH  26  27
ATOM     27  C3  ZIN A   1      17.568   1.021  12.575  0.00  0.00     0.261 C 
ATOM     28  O4  ZIN A   1      17.044   1.134  13.658  0.00  0.00    -0.265 OA
BRANCH  27  29
ATOM     29  O2  ZIN A   1      16.960   1.505  11.481  0.00  0.00    -0.326 OA
ATOM     30  C1  ZIN A   1      17.812   2.061  10.444  0.00  0.00     0.213 C 
ENDBRANCH  27  29
ENDBRANCH  26  27
ENDBRANCH  25  26
BRANCH  25  31
ATOM     31  O7  ZIN A   1      17.293  -1.417  12.037  0.00  0.00    -0.379 OA
ATOM     32  H48 ZIN A   1      16.726  -0.663  12.254  0.00  0.00     0.211 HD
ENDBRANCH  25  31
BRANCH  25  33
ATOM     33  C8  ZIN A   1      19.246  -1.972  13.348  0.00  0.00     0.049 C 
BRANCH  33  34
ATOM     34  C9  ZIN A   1      19.557  -1.038  14.519  0.00  0.00     0.006 C 
BRANCH  34  35
ATOM     35  C10 ZIN A   1      18.735  -1.459  15.740  0.00  0.00     0.037 C 
BRANCH  35  36
ATOM     36  C11 ZIN A   1      18.495  -0.243  16.636  0.00  0.00     0.051 C 
ATOM     37  C12 ZIN A   1      17.001  -0.128  16.947  0.00  0.00     0.045 C 
ATOM     38  C13 ZIN A   1      19.276  -0.409  17.940  0.00  0.00     0.045 C 
BRANCH  36  39
ATOM     39  O14 ZIN A   1      18.934   0.939  15.964  0.00  0.00    -0.391 OA
ATOM     40  H61 ZIN A   1      19.151   1.671  16.559  0.00  0.00     0.210 HD
ENDBRANCH  36  39
ENDBRANCH  35  36
ENDBRANCH  34  35
ENDBRANCH  33  34
ENDBRANCH  25  33
ENDBRANCH  23  25
ENDBRANCH  22  23
ENDBRANCH   1  22
BRANCH   2  41
ATOM     41  O21 ZIN A   1      17.194  -4.285  11.733  0.00  0.00    -0.358 OA
ATOM     42  C22 ZIN A   1      17.222  -5.474  12.524  0.00  0.00     0.209 C 
ENDBRANCH   2  41
TORSDOF 13
ENDMDL
MODEL 8
REMARK VINA RESULT:      -7.1      4.969      7.677
REMARK  13 active torsions:
REMARK  status: ('A' for Active; 'I' for Inactive)
REMARK    1  A    between atoms: O2_2  and  C3_3 
REMARK    2  A    between atoms: C3_3  and  C5_5 
REMARK    3  A    between atoms: C5_5  and  C6_6 
REMARK    4  A    between atoms: C6_6  and  O7_7 
REMARK    5  A    between atoms: C6_6  and  C8_8 
REMARK    6  A    between atoms: C6_6  and  C15_15 
REMARK    7  A    between atoms: C8_8  and  C9_9 
REMARK    8  A    between atoms: C9_9  and  C10_10 
REMARK    9  A    between atoms: C10_10  and  C11_11 
REMARK   10  A    between atoms: C11_11  and  O14_14 
REMARK   11  A    between atoms: C15_15  and  O17_17 
REMARK   12  A    between atoms: O17_17  and  C18_18 
REMARK   13  A    between atoms: C20_19  and  O21_20 
ROOT
ATOM      1  C18 ZIN A   1      18.714  -1.812   7.424  0.00  0.00     0.199 C 
ATOM      2  C20 ZIN A   1      18.496  -0.470   6.760  0.00  0.00     0.074 C 
ATOM      3  C23 ZIN A   1      18.561   0.506   7.642  0.00  0.00     0.048 C 
ATOM      4  C24 ZIN A   1      18.828  -0.043   9.014  0.00  0.00     0.158 C 
ATOM      5  C25 ZIN A   1      17.557  -0.011   9.877  0.00  0.00     0.046 C 
ATOM      6  C26 ZIN A   1      17.584   1.460  10.378  0.00  0.00     0.030 C 
ATOM      7  C27 ZIN A   1      19.092   1.748  10.548  0.00  0.00     0.236 C 
ATOM      8  N28 ZIN A   1      19.828   0.735   9.750  0.00  0.00    -0.058 N 
ATOM      9  H29 ZIN A   1      20.503   1.166   9.136  0.00  0.00     0.281 HD
ATOM     10  C30 ZIN A   1      20.480  -0.173  10.723  0.00  0.00     0.241 C 
ATOM     11  C31 ZIN A   1      19.417  -0.734  11.662  0.00  0.00     0.067 C 
ATOM     12  C32 ZIN A   1      18.871  -2.058  11.182  0.00  0.00    -0.047 A 
ATOM     13  C33 ZIN A   1      18.427  -2.942  12.169  0.00  0.00     0.047 A 
ATOM     14  C34 ZIN A   1      17.903  -4.158  11.765  0.00  0.00     0.105 A 
ATOM     15  C35 ZIN A   1      17.816  -4.490  10.404  0.00  0.00     0.105 A 
ATOM     16  C36 ZIN A   1      18.264  -3.612   9.430  0.00  0.00     0.048 A 
ATOM     17  C37 ZIN A   1      18.802  -2.397   9.850  0.00  0.00    -0.039 A 
ATOM     18  C38 ZIN A   1      19.342  -1.474   8.796  0.00  0.00     0.095 C 
ATOM     19  O40 ZIN A   1      17.261  -5.717  10.289  0.00  0.00    -0.323 OA
ATOM     20  C41 ZIN A   1      17.370  -6.315  11.598  0.00  0.00     0.352 C 
ATOM     21  O42 ZIN A   1      17.410  -5.185  12.495  0.00  0.00    -0.323 OA
ENDROOT
BRANCH   1  22
ATOM     22  O17 ZIN A   1      19.623  -2.625   6.637  0.00  0.00    -0.306 OA
BRANCH  22  23
ATOM     23  C15 ZIN A   1      19.401  -3.949   6.622  0.00  0.00     0.294 C 
ATOM     24  O16 ZIN A   1      20.106  -4.687   7.268  0.00  0.00    -0.262 OA
BRANCH  23  25
ATOM     25  C6  ZIN A   1      18.272  -4.514   5.799  0.00  0.00     0.154 C 
BRANCH  25  26
ATOM     26  C5  ZIN A   1      18.564  -5.980   5.471  0.00  0.00     0.159 C 
BRANCH  26  27
ATOM     27  C3  ZIN A   1      17.747  -6.869   6.372  0.00  0.00     0.261 C 
ATOM     28  O4  ZIN A   1      18.231  -7.302   7.392  0.00  0.00    -0.265 OA
BRANCH  27  29
ATOM     29  O2  ZIN A   1      16.484  -7.181   6.043  0.00  0.00    -0.326 OA
ATOM     30  C1  ZIN A   1      15.781  -8.099   6.921  0.00  0.00     0.213 C 
ENDBRANCH  27  29
ENDBRANCH  26  27
ENDBRANCH  25  26
BRANCH  25  31
ATOM     31  O7  ZIN A   1      17.053  -4.425   6.539  0.00  0.00    -0.379 OA
ATOM     32  H48 ZIN A   1      16.588  -5.269   6.634  0.00  0.00     0.211 HD
ENDBRANCH  25  31
BRANCH  25  33
ATOM     33  C8  ZIN A   1      18.139  -3.718   4.499  0.00  0.00     0.049 C 
BRANCH  33  34
ATOM     34  C9  ZIN A   1      17.714  -4.657   3.368  0.00  0.00     0.006 C 
BRANCH  34  35
ATOM     35  C10 ZIN A   1      16.345  -4.226   2.835  0.00  0.00     0.037 C 
BRANCH  35  36
ATOM     36  C11 ZIN A   1      15.323  -5.333   3.099  0.00  0.00     0.051 C 
ATOM     37  C12 ZIN A   1      14.099  -5.119   2.207  0.00  0.00     0.045 C 
ATOM     38  C13 ZIN A   1      15.952  -6.692   2.785  0.00  0.00     0.045 C 
BRANCH  36  39
ATOM     39  O14 ZIN A   1      14.926  -5.298   4.471  0.00  0.00    -0.391 OA
ATOM     40  H61 ZIN A   1      15.144  -4.470   4.923  0.00  0.00     0.210 HD
ENDBRANCH  36  39
ENDBRANCH  35  36
ENDBRANCH  34  35
ENDBRANCH  33  34
ENDBRANCH  25  33
ENDBRANCH  23  25
ENDBRANCH  22  23
ENDBRANCH   1  22
BRANCH   2  41
ATOM     41  O21 ZIN A   1      18.265  -0.296   5.434  0.00  0.00    -0.358 OA
ATOM     42  C22 ZIN A   1      19.372   0.123   4.633  0.00  0.00     0.209 C 
ENDBRANCH   2  41
TORSDOF 13
ENDMDL
MODEL 9
REMARK VINA RESULT:      -7.0      3.082      7.757
REMARK  13 active torsions:
REMARK  status: ('A' for Active; 'I' for Inactive)
REMARK    1  A    between atoms: O2_2  and  C3_3 
REMARK    2  A    between atoms: C3_3  and  C5_5 
REMARK    3  A    between atoms: C5_5  and  C6_6 
REMARK    4  A    between atoms: C6_6  and  O7_7 
REMARK    5  A    between atoms: C6_6  and  C8_8 
REMARK    6  A    between atoms: C6_6  and  C15_15 
REMARK    7  A    between atoms: C8_8  and  C9_9 
REMARK    8  A    between atoms: C9_9  and  C10_10 
REMARK    9  A    between atoms: C10_10  and  C11_11 
REMARK   10  A    between atoms: C11_11  and  O14_14 
REMARK   11  A    between atoms: C15_15  and  O17_17 
REMARK   12  A    between atoms: O17_17  and  C18_18 
REMARK   13  A    between atoms: C20_19  and  O21_20 
ROOT
ATOM      1  C18 ZIN A   1      18.091   2.931  13.011  0.00  0.00     0.199 C 
ATOM      2  C20 ZIN A   1      18.445   3.388  11.612  0.00  0.00     0.074 C 
ATOM      3  C23 ZIN A   1      18.664   2.356  10.823  0.00  0.00     0.048 C 
ATOM      4  C24 ZIN A   1      18.491   1.070  11.579  0.00  0.00     0.158 C 
ATOM      5  C25 ZIN A   1      19.853   0.430  11.895  0.00  0.00     0.046 C 
ATOM      6  C26 ZIN A   1      20.142  -0.307  10.558  0.00  0.00     0.030 C 
ATOM      7  C27 ZIN A   1      18.742  -0.764  10.094  0.00  0.00     0.236 C 
ATOM      8  N28 ZIN A   1      17.745   0.063  10.821  0.00  0.00    -0.058 N 
ATOM      9  H29 ZIN A   1      17.078   0.480  10.188  0.00  0.00     0.281 HD
ATOM     10  C30 ZIN A   1      17.083  -0.837  11.794  0.00  0.00     0.241 C 
ATOM     11  C31 ZIN A   1      18.149  -1.485  12.670  0.00  0.00     0.067 C 
ATOM     12  C32 ZIN A   1      18.393  -0.709  13.943  0.00  0.00    -0.047 A 
ATOM     13  C33 ZIN A   1      18.807  -1.450  15.053  0.00  0.00     0.047 A 
ATOM     14  C34 ZIN A   1      19.059  -0.769  16.232  0.00  0.00     0.105 A 
ATOM     15  C35 ZIN A   1      18.907   0.623  16.308  0.00  0.00     0.105 A 
ATOM     16  C36 ZIN A   1      18.490   1.352  15.205  0.00  0.00     0.048 A 
ATOM     17  C37 ZIN A   1      18.227   0.655  14.028  0.00  0.00    -0.039 A 
ATOM     18  C38 ZIN A   1      17.717   1.439  12.853  0.00  0.00     0.095 C 
ATOM     19  O40 ZIN A   1      19.225   1.030  17.557  0.00  0.00    -0.323 OA
ATOM     20  C41 ZIN A   1      19.190  -0.162  18.371  0.00  0.00     0.352 C 
ATOM     21  O42 ZIN A   1      19.462  -1.229  17.440  0.00  0.00    -0.323 OA
ENDROOT
BRANCH   1  22
ATOM     22  O17 ZIN A   1      16.961   3.685  13.520  0.00  0.00    -0.306 OA
BRANCH  22  23
ATOM     23  C15 ZIN A   1      17.202   4.544  14.523  0.00  0.00     0.294 C 
ATOM     24  O16 ZIN A   1      17.861   4.193  15.473  0.00  0.00    -0.262 OA
BRANCH  23  25
ATOM     25  C6  ZIN A   1      16.651   5.945  14.465  0.00  0.00     0.154 C 
BRANCH  25  26
ATOM     26  C5  ZIN A   1      17.174   6.749  15.658  0.00  0.00     0.159 C 
BRANCH  26  27
ATOM     27  C3  ZIN A   1      18.456   7.441  15.274  0.00  0.00     0.261 C 
ATOM     28  O4  ZIN A   1      18.420   8.516  14.723  0.00  0.00    -0.265 OA
BRANCH  27  29
ATOM     29  O2  ZIN A   1      19.637   6.864  15.543  0.00  0.00    -0.326 OA
ATOM     30  C1  ZIN A   1      20.379   6.324  14.417  0.00  0.00     0.213 C 
ENDBRANCH  27  29
ENDBRANCH  26  27
ENDBRANCH  25  26
BRANCH  25  31
ATOM     31  O7  ZIN A   1      17.067   6.571  13.250  0.00  0.00    -0.379 OA
ATOM     32  H48 ZIN A   1      18.023   6.543  13.101  0.00  0.00     0.211 HD
ENDBRANCH  25  31
BRANCH  25  33
ATOM     33  C8  ZIN A   1      15.122   5.896  14.516  0.00  0.00     0.049 C 
BRANCH  33  34
ATOM     34  C9  ZIN A   1      14.605   7.033  15.399  0.00  0.00     0.006 C 
BRANCH  34  35
ATOM     35  C10 ZIN A   1      13.478   6.512  16.294  0.00  0.00     0.037 C 
BRANCH  35  36
ATOM     36  C11 ZIN A   1      13.926   6.556  17.756  0.00  0.00     0.051 C 
ATOM     37  C12 ZIN A   1      14.598   7.901  18.042  0.00  0.00     0.045 C 
ATOM     38  C13 ZIN A   1      12.709   6.389  18.667  0.00  0.00     0.045 C 
BRANCH  36  39
ATOM     39  O14 ZIN A   1      14.854   5.498  18.002  0.00  0.00    -0.391 OA
ATOM     40  H61 ZIN A   1      15.778   5.784  18.032  0.00  0.00     0.210 HD
ENDBRANCH  36  39
ENDBRANCH  35  36
ENDBRANCH  34  35
ENDBRANCH  33  34
ENDBRANCH  25  33
ENDBRANCH  23  25
ENDBRANCH  22  23
ENDBRANCH   1  22
BRANCH   2  41
ATOM     41  O21 ZIN A   1      18.524   4.685  11.223  0.00  0.00    -0.358 OA
ATOM     42  C22 ZIN A   1      17.569   5.133  10.259  0.00  0.00     0.209 C 
ENDBRANCH   2  41
TORSDOF 13
ENDMDL
