MODEL 1
REMARK VINA RESULT:      -8.2      0.000      0.000
REMARK  7 active torsions:
REMARK  status: ('A' for Active; 'I' for Inactive)
REMARK    1  A    between atoms: C5_5  and  O7_6 
REMARK    2  A    between atoms: C10_9  and  C11_10 
REMARK    3  A    between atoms: C22_20  and  C24_21 
REMARK    4  A    between atoms: C24_21  and  C27_23 
REMARK    5  A    between atoms: C27_23  and  C28_24 
REMARK    6  A    between atoms: C28_24  and  C29_25 
REMARK    7  A    between atoms: C29_25  and  C30_26 
ROOT
ATOM      1  C11 ZIN A   1      19.296   2.441  14.275  0.00  0.00     0.004 C 
ATOM      2  C12 ZIN A   1      19.354   1.125  14.483  0.00  0.00    -0.075 C 
ATOM      3  C13 ZIN A   1      18.735   0.465  15.707  0.00  0.00     0.034 C 
ATOM      4  C14 ZIN A   1      17.853  -0.714  15.297  0.00  0.00     0.005 C 
ATOM      5  C15 ZIN A   1      18.574  -1.648  14.310  0.00  0.00     0.010 C 
ATOM      6  C16 ZIN A   1      18.943  -0.830  13.094  0.00  0.00    -0.033 C 
ATOM      7  C17 ZIN A   1      17.714  -0.055  12.614  0.00  0.00     0.016 C 
ATOM      8  C18 ZIN A   1      20.029   0.189  13.525  0.00  0.00     0.023 C 
ATOM      9  C20 ZIN A   1      20.447   0.770  12.173  0.00  0.00     0.010 C 
ATOM     10  C21 ZIN A   1      20.513  -0.490  11.263  0.00  0.00     0.006 C 
ATOM     11  C22 ZIN A   1      19.582  -1.541  11.912  0.00  0.00    -0.002 C 
ENDROOT
BRANCH   1  12
ATOM     12  C10 ZIN A   1      18.623   3.306  15.246  0.00  0.00     0.008 C 
ATOM     13  C9  ZIN A   1      18.081   4.475  14.845  0.00  0.00    -0.050 C 
ATOM     14  C2  ZIN A   1      18.148   4.923  13.439  0.00  0.00    -0.061 C 
ATOM     15  C8  ZIN A   1      17.373   5.400  15.821  0.00  0.00     0.070 C 
ATOM     16  C1  ZIN A   1      19.264   4.804  12.720  0.00  0.00     0.019 C 
ATOM     17  C3  ZIN A   1      16.884   5.519  12.851  0.00  0.00     0.041 C 
ATOM     18  C4  ZIN A   1      16.318   6.532  13.852  0.00  0.00     0.036 C 
ATOM     19  C5  ZIN A   1      16.049   5.843  15.191  0.00  0.00     0.122 C 
BRANCH  19  20
ATOM     20  O7  ZIN A   1      15.388   6.754  16.070  0.00  0.00    -0.395 OA
ATOM     21  H39 ZIN A   1      15.335   7.659  15.734  0.00  0.00     0.210 HD
ENDBRANCH  19  20
ENDBRANCH   1  12
BRANCH  11  22
ATOM     22  C24 ZIN A   1      18.510  -1.987  10.916  0.00  0.00    -0.014 C 
ATOM     23  C26 ZIN A   1      18.246  -3.484  11.086  0.00  0.00     0.010 C 
BRANCH  22  24
ATOM     24  C27 ZIN A   1      18.994  -1.714   9.490  0.00  0.00     0.005 C 
BRANCH  24  25
ATOM     25  C28 ZIN A   1      17.825  -1.204   8.643  0.00  0.00     0.001 C 
BRANCH  25  26
ATOM     26  C29 ZIN A   1      17.589   0.278   8.941  0.00  0.00     0.004 C 
BRANCH  26  27
ATOM     27  C30 ZIN A   1      18.853   1.072   8.602  0.00  0.00    -0.023 C 
ATOM     28  C31 ZIN A   1      18.930   1.286   7.089  0.00  0.00     0.009 C 
ATOM     29  C32 ZIN A   1      18.807   2.430   9.306  0.00  0.00     0.009 C 
ENDBRANCH  26  27
ENDBRANCH  25  26
ENDBRANCH  24  25
ENDBRANCH  22  24
ENDBRANCH  11  22
TORSDOF 7
ENDMDL
MODEL 2
REMARK VINA RESULT:      -8.0      3.613      8.367
REMARK  7 active torsions:
REMARK  status: ('A' for Active; 'I' for Inactive)
REMARK    1  A    between atoms: C5_5  and  O7_6 
REMARK    2  A    between atoms: C10_9  and  C11_10 
REMARK    3  A    between atoms: C22_20  and  C24_21 
REMARK    4  A    between atoms: C24_21  and  C27_23 
REMARK    5  A    between atoms: C27_23  and  C28_24 
REMARK    6  A    between atoms: C28_24  and  C29_25 
REMARK    7  A    between atoms: C29_25  and  C30_26 
ROOT
ATOM      1  C11 ZIN A   1      19.310  -1.834   9.630  0.00  0.00     0.004 C 
ATOM      2  C12 ZIN A   1      19.506  -0.693   8.967  0.00  0.00    -0.075 C 
ATOM      3  C13 ZIN A   1      19.368  -0.595   7.455  0.00  0.00     0.034 C 
ATOM      4  C14 ZIN A   1      18.468   0.578   7.070  0.00  0.00     0.005 C 
ATOM      5  C15 ZIN A   1      18.868   1.869   7.804  0.00  0.00     0.010 C 
ATOM      6  C16 ZIN A   1      18.764   1.601   9.288  0.00  0.00    -0.033 C 
ATOM      7  C17 ZIN A   1      17.405   0.970   9.594  0.00  0.00     0.016 C 
ATOM      8  C18 ZIN A   1      19.874   0.585   9.660  0.00  0.00     0.023 C 
ATOM      9  C20 ZIN A   1      19.784   0.592  11.188  0.00  0.00     0.010 C 
ATOM     10  C21 ZIN A   1      19.612   2.102  11.515  0.00  0.00     0.006 C 
ATOM     11  C22 ZIN A   1      19.011   2.754  10.248  0.00  0.00    -0.002 C 
ENDROOT
BRANCH   1  12
ATOM     12  C10 ZIN A   1      18.952  -3.052   8.899  0.00  0.00     0.008 C 
ATOM     13  C9  ZIN A   1      18.657  -4.181   9.576  0.00  0.00    -0.050 C 
ATOM     14  C2  ZIN A   1      18.688  -4.236  11.052  0.00  0.00    -0.061 C 
ATOM     15  C8  ZIN A   1      18.281  -5.465   8.856  0.00  0.00     0.070 C 
ATOM     16  C1  ZIN A   1      19.672  -3.670  11.752  0.00  0.00     0.019 C 
ATOM     17  C3  ZIN A   1      17.545  -4.962  11.733  0.00  0.00     0.041 C 
ATOM     18  C4  ZIN A   1      17.328  -6.299  11.017  0.00  0.00     0.036 C 
ATOM     19  C5  ZIN A   1      17.040  -6.052   9.536  0.00  0.00     0.122 C 
BRANCH  19  20
ATOM     20  O7  ZIN A   1      16.695  -7.288   8.906  0.00  0.00    -0.395 OA
ATOM     21  H39 ZIN A   1      17.381  -7.966   8.967  0.00  0.00     0.210 HD
ENDBRANCH  19  20
ENDBRANCH   1  12
BRANCH  11  22
ATOM     22  C24 ZIN A   1      17.694   3.456  10.586  0.00  0.00    -0.014 C 
ATOM     23  C26 ZIN A   1      17.685   4.852   9.959  0.00  0.00     0.010 C 
BRANCH  22  24
ATOM     24  C27 ZIN A   1      17.559   3.580  12.105  0.00  0.00     0.005 C 
BRANCH  24  25
ATOM     25  C28 ZIN A   1      16.823   4.878  12.448  0.00  0.00     0.001 C 
BRANCH  25  26
ATOM     26  C29 ZIN A   1      17.522   5.564  13.623  0.00  0.00     0.004 C 
BRANCH  26  27
ATOM     27  C30 ZIN A   1      18.735   4.733  14.049  0.00  0.00    -0.023 C 
ATOM     28  C31 ZIN A   1      20.004   5.578  13.910  0.00  0.00     0.009 C 
ATOM     29  C32 ZIN A   1      18.570   4.298  15.506  0.00  0.00     0.009 C 
ENDBRANCH  26  27
ENDBRANCH  25  26
ENDBRANCH  24  25
ENDBRANCH  22  24
ENDBRANCH  11  22
TORSDOF 7
ENDMDL
MODEL 3
REMARK VINA RESULT:      -7.9      3.556      8.462
REMARK  7 active torsions:
REMARK  status: ('A' for Active; 'I' for Inactive)
REMARK    1  A    between atoms: C5_5  and  O7_6 
REMARK    2  A    between atoms: C10_9  and  C11_10 
REMARK    3  A    between atoms: C22_20  and  C24_21 
REMARK    4  A    between atoms: C24_21  and  C27_23 
REMARK    5  A    between atoms: C27_23  and  C28_24 
REMARK    6  A    between atoms: C28_24  and  C29_25 
REMARK    7  A    between atoms: C29_25  and  C30_26 
ROOT
ATOM      1  C11 ZIN A   1      19.157  -2.066   9.389  0.00  0.00     0.004 C 
ATOM      2  C12 ZIN A   1      19.433  -0.811   9.033  0.00  0.00    -0.075 C 
ATOM      3  C13 ZIN A   1      19.079  -0.256   7.662  0.00  0.00     0.034 C 
ATOM      4  C14 ZIN A   1      18.335   1.072   7.792  0.00  0.00     0.005 C 
ATOM      5  C15 ZIN A   1      19.053   2.036   8.752  0.00  0.00     0.010 C 
ATOM      6  C16 ZIN A   1      19.140   1.356  10.100  0.00  0.00    -0.033 C 
ATOM      7  C17 ZIN A   1      17.759   0.821  10.486  0.00  0.00     0.016 C 
ATOM      8  C18 ZIN A   1      20.110   0.156   9.959  0.00  0.00     0.023 C 
ATOM      9  C20 ZIN A   1      20.263  -0.277  11.418  0.00  0.00     0.010 C 
ATOM     10  C21 ZIN A   1      20.396   1.079  12.167  0.00  0.00     0.006 C 
ATOM     11  C22 ZIN A   1      19.720   2.139  11.267  0.00  0.00    -0.002 C 
ENDROOT
BRANCH   1  12
ATOM     12  C10 ZIN A   1      18.494  -2.966   8.443  0.00  0.00     0.008 C 
ATOM     13  C9  ZIN A   1      18.212  -4.234   8.804  0.00  0.00    -0.050 C 
ATOM     14  C2  ZIN A   1      18.558  -4.760  10.141  0.00  0.00    -0.061 C 
ATOM     15  C8  ZIN A   1      17.524  -5.199   7.853  0.00  0.00     0.070 C 
ATOM     16  C1  ZIN A   1      19.736  -4.500  10.710  0.00  0.00     0.019 C 
ATOM     17  C3  ZIN A   1      17.508  -5.602  10.838  0.00  0.00     0.041 C 
ATOM     18  C4  ZIN A   1      16.968  -6.626   9.834  0.00  0.00     0.036 C 
ATOM     19  C5  ZIN A   1      16.397  -5.904   8.614  0.00  0.00     0.122 C 
BRANCH  19  20
ATOM     20  O7  ZIN A   1      15.766  -6.853   7.752  0.00  0.00    -0.395 OA
ATOM     21  H39 ZIN A   1      15.702  -6.568   6.830  0.00  0.00     0.210 HD
ENDBRANCH  19  20
ENDBRANCH   1  12
BRANCH  11  22
ATOM     22  C24 ZIN A   1      18.606   2.855  12.034  0.00  0.00    -0.014 C 
ATOM     23  C26 ZIN A   1      18.569   4.328  11.623  0.00  0.00     0.010 C 
BRANCH  22  24
ATOM     24  C27 ZIN A   1      18.876   2.752  13.537  0.00  0.00     0.005 C 
BRANCH  24  25
ATOM     25  C28 ZIN A   1      17.790   1.895  14.192  0.00  0.00     0.001 C 
BRANCH  25  26
ATOM     26  C29 ZIN A   1      18.412   1.046  15.303  0.00  0.00     0.004 C 
BRANCH  26  27
ATOM     27  C30 ZIN A   1      17.853  -0.376  15.230  0.00  0.00    -0.023 C 
ATOM     28  C31 ZIN A   1      18.952  -1.333  14.763  0.00  0.00     0.009 C 
ATOM     29  C32 ZIN A   1      17.361  -0.803  16.614  0.00  0.00     0.009 C 
ENDBRANCH  26  27
ENDBRANCH  25  26
ENDBRANCH  24  25
ENDBRANCH  22  24
ENDBRANCH  11  22
TORSDOF 7
ENDMDL
MODEL 4
REMARK VINA RESULT:      -7.9      3.411      5.956
REMARK  7 active torsions:
REMARK  status: ('A' for Active; 'I' for Inactive)
REMARK    1  A    between atoms: C5_5  and  O7_6 
REMARK    2  A    between atoms: C10_9  and  C11_10 
REMARK    3  A    between atoms: C22_20  and  C24_21 
REMARK    4  A    between atoms: C24_21  and  C27_23 
REMARK    5  A    between atoms: C27_23  and  C28_24 
REMARK    6  A    between atoms: C28_24  and  C29_25 
REMARK    7  A    between atoms: C29_25  and  C30_26 
ROOT
ATOM      1  C11 ZIN A   1      19.860  -3.597  11.293  0.00  0.00     0.004 C 
ATOM      2  C12 ZIN A   1      19.012  -4.578  10.981  0.00  0.00    -0.075 C 
ATOM      3  C13 ZIN A   1      17.809  -4.922  11.847  0.00  0.00     0.034 C 
ATOM      4  C14 ZIN A   1      16.539  -4.999  11.002  0.00  0.00     0.005 C 
ATOM      5  C15 ZIN A   1      16.742  -5.860   9.744  0.00  0.00     0.010 C 
ATOM      6  C16 ZIN A   1      17.862  -5.239   8.941  0.00  0.00    -0.033 C 
ATOM      7  C17 ZIN A   1      17.595  -3.742   8.775  0.00  0.00     0.016 C 
ATOM      8  C18 ZIN A   1      19.173  -5.418   9.749  0.00  0.00     0.023 C 
ATOM      9  C20 ZIN A   1      20.216  -4.954   8.729  0.00  0.00     0.010 C 
ATOM     10  C21 ZIN A   1      19.719  -5.604   7.408  0.00  0.00     0.006 C 
ATOM     11  C22 ZIN A   1      18.201  -5.843   7.588  0.00  0.00    -0.002 C 
ENDROOT
BRANCH   1  12
ATOM     12  C10 ZIN A   1      19.652  -2.810  12.510  0.00  0.00     0.008 C 
ATOM     13  C9  ZIN A   1      19.132  -1.567  12.428  0.00  0.00    -0.050 C 
ATOM     14  C2  ZIN A   1      18.764  -0.960  11.132  0.00  0.00    -0.061 C 
ATOM     15  C8  ZIN A   1      18.900  -0.719  13.667  0.00  0.00     0.070 C 
ATOM     16  C1  ZIN A   1      19.550  -1.068  10.062  0.00  0.00     0.019 C 
ATOM     17  C3  ZIN A   1      17.446  -0.213  11.078  0.00  0.00     0.041 C 
ATOM     18  C4  ZIN A   1      17.363   0.709  12.298  0.00  0.00     0.036 C 
ATOM     19  C5  ZIN A   1      17.495  -0.114  13.580  0.00  0.00     0.122 C 
BRANCH  19  20
ATOM     20  O7  ZIN A   1      17.271   0.729  14.712  0.00  0.00    -0.395 OA
ATOM     21  H39 ZIN A   1      16.565   0.423  15.298  0.00  0.00     0.210 HD
ENDBRANCH  19  20
ENDBRANCH   1  12
BRANCH  11  22
ATOM     22  C24 ZIN A   1      17.418  -5.137   6.479  0.00  0.00    -0.014 C 
ATOM     23  C26 ZIN A   1      16.416  -6.115   5.861  0.00  0.00     0.010 C 
BRANCH  22  24
ATOM     24  C27 ZIN A   1      18.388  -4.652   5.399  0.00  0.00     0.005 C 
BRANCH  24  25
ATOM     25  C28 ZIN A   1      18.179  -3.154   5.163  0.00  0.00     0.001 C 
BRANCH  25  26
ATOM     26  C29 ZIN A   1      19.286  -2.368   5.868  0.00  0.00     0.004 C 
BRANCH  26  27
ATOM     27  C30 ZIN A   1      18.963  -0.873   5.813  0.00  0.00    -0.023 C 
ATOM     28  C31 ZIN A   1      18.571  -0.489   4.385  0.00  0.00     0.009 C 
ATOM     29  C32 ZIN A   1      17.802  -0.567   6.761  0.00  0.00     0.009 C 
ENDBRANCH  26  27
ENDBRANCH  25  26
ENDBRANCH  24  25
ENDBRANCH  22  24
ENDBRANCH  11  22
TORSDOF 7
ENDMDL
MODEL 5
REMARK VINA RESULT:      -7.6      4.231      9.217
REMARK  7 active torsions:
REMARK  status: ('A' for Active; 'I' for Inactive)
REMARK    1  A    between atoms: C5_5  and  O7_6 
REMARK    2  A    between atoms: C10_9  and  C11_10 
REMARK    3  A    between atoms: C22_20  and  C24_21 
REMARK    4  A    between atoms: C24_21  and  C27_23 
REMARK    5  A    between atoms: C27_23  and  C28_24 
REMARK    6  A    between atoms: C28_24  and  C29_25 
REMARK    7  A    between atoms: C29_25  and  C30_26 
ROOT
ATOM      1  C11 ZIN A   1      18.651  -1.407   7.370  0.00  0.00     0.004 C 
ATOM      2  C12 ZIN A   1      19.177  -0.303   7.901  0.00  0.00    -0.075 C 
ATOM      3  C13 ZIN A   1      19.245   1.014   7.142  0.00  0.00     0.034 C 
ATOM      4  C14 ZIN A   1      18.685   2.155   7.989  0.00  0.00     0.005 C 
ATOM      5  C15 ZIN A   1      19.278   2.155   9.408  0.00  0.00     0.010 C 
ATOM      6  C16 ZIN A   1      18.941   0.825  10.043  0.00  0.00    -0.033 C 
ATOM      7  C17 ZIN A   1      17.448   0.544   9.866  0.00  0.00     0.016 C 
ATOM      8  C18 ZIN A   1      19.740  -0.269   9.290  0.00  0.00     0.023 C 
ATOM      9  C20 ZIN A   1      19.474  -1.491  10.172  0.00  0.00     0.010 C 
ATOM     10  C21 ZIN A   1      19.611  -0.915  11.610  0.00  0.00     0.006 C 
ATOM     11  C22 ZIN A   1      19.327   0.601  11.497  0.00  0.00    -0.002 C 
ENDROOT
BRANCH   1  12
ATOM     12  C10 ZIN A   1      18.116  -1.380   6.006  0.00  0.00     0.008 C 
ATOM     13  C9  ZIN A   1      18.105  -2.507   5.265  0.00  0.00    -0.050 C 
ATOM     14  C2  ZIN A   1      18.628  -3.788   5.784  0.00  0.00    -0.061 C 
ATOM     15  C8  ZIN A   1      17.558  -2.521   3.847  0.00  0.00     0.070 C 
ATOM     16  C1  ZIN A   1      19.766  -3.848   6.475  0.00  0.00     0.019 C 
ATOM     17  C3  ZIN A   1      17.804  -5.028   5.499  0.00  0.00     0.041 C 
ATOM     18  C4  ZIN A   1      17.410  -5.015   4.019  0.00  0.00     0.036 C 
ATOM     19  C5  ZIN A   1      16.637  -3.736   3.698  0.00  0.00     0.122 C 
BRANCH  19  20
ATOM     20  O7  ZIN A   1      16.148  -3.798   2.357  0.00  0.00    -0.395 OA
ATOM     21  H39 ZIN A   1      15.473  -3.137   2.153  0.00  0.00     0.210 HD
ENDBRANCH  19  20
ENDBRANCH   1  12
BRANCH  11  22
ATOM     22  C24 ZIN A   1      18.173   0.995  12.420  0.00  0.00    -0.014 C 
ATOM     23  C26 ZIN A   1      18.612   2.151  13.322  0.00  0.00     0.010 C 
BRANCH  22  24
ATOM     24  C27 ZIN A   1      17.780  -0.205  13.285  0.00  0.00     0.005 C 
BRANCH  24  25
ATOM     25  C28 ZIN A   1      17.926   0.163  14.764  0.00  0.00     0.001 C 
BRANCH  25  26
ATOM     26  C29 ZIN A   1      18.624  -0.979  15.506  0.00  0.00     0.004 C 
BRANCH  26  27
ATOM     27  C30 ZIN A   1      18.145  -1.009  16.959  0.00  0.00    -0.023 C 
ATOM     28  C31 ZIN A   1      19.208  -0.377  17.860  0.00  0.00     0.009 C 
ATOM     29  C32 ZIN A   1      16.839  -0.222  17.083  0.00  0.00     0.009 C 
ENDBRANCH  26  27
ENDBRANCH  25  26
ENDBRANCH  24  25
ENDBRANCH  22  24
ENDBRANCH  11  22
TORSDOF 7
ENDMDL
MODEL 6
REMARK VINA RESULT:      -7.4      5.141     10.152
REMARK  7 active torsions:
REMARK  status: ('A' for Active; 'I' for Inactive)
REMARK    1  A    between atoms: C5_5  and  O7_6 
REMARK    2  A    between atoms: C10_9  and  C11_10 
REMARK    3  A    between atoms: C22_20  and  C24_21 
REMARK    4  A    between atoms: C24_21  and  C27_23 
REMARK    5  A    between atoms: C27_23  and  C28_24 
REMARK    6  A    between atoms: C28_24  and  C29_25 
REMARK    7  A    between atoms: C29_25  and  C30_26 
ROOT
ATOM      1  C11 ZIN A   1      18.589  -2.808   5.883  0.00  0.00     0.004 C 
ATOM      2  C12 ZIN A   1      19.121  -1.633   6.222  0.00  0.00    -0.075 C 
ATOM      3  C13 ZIN A   1      19.460  -0.565   5.193  0.00  0.00     0.034 C 
ATOM      4  C14 ZIN A   1      18.876   0.786   5.605  0.00  0.00     0.005 C 
ATOM      5  C15 ZIN A   1      19.198   1.124   7.070  0.00  0.00     0.010 C 
ATOM      6  C16 ZIN A   1      18.618   0.024   7.930  0.00  0.00    -0.033 C 
ATOM      7  C17 ZIN A   1      17.160  -0.214   7.531  0.00  0.00     0.016 C 
ATOM      8  C18 ZIN A   1      19.423  -1.269   7.645  0.00  0.00     0.023 C 
ATOM      9  C20 ZIN A   1      18.877  -2.204   8.727  0.00  0.00     0.010 C 
ATOM     10  C21 ZIN A   1      18.810  -1.282   9.977  0.00  0.00     0.006 C 
ATOM     11  C22 ZIN A   1      18.708   0.166   9.441  0.00  0.00    -0.002 C 
ENDROOT
BRANCH   1  12
ATOM     12  C10 ZIN A   1      18.316  -3.108   4.475  0.00  0.00     0.008 C 
ATOM     13  C9  ZIN A   1      17.902  -4.341   4.118  0.00  0.00    -0.050 C 
ATOM     14  C2  ZIN A   1      17.715  -5.420   5.111  0.00  0.00    -0.061 C 
ATOM     15  C8  ZIN A   1      17.607  -4.693   2.669  0.00  0.00     0.070 C 
ATOM     16  C1  ZIN A   1      18.598  -5.630   6.088  0.00  0.00     0.019 C 
ATOM     17  C3  ZIN A   1      16.469  -6.271   4.969  0.00  0.00     0.041 C 
ATOM     18  C4  ZIN A   1      16.330  -6.682   3.500  0.00  0.00     0.036 C 
ATOM     19  C5  ZIN A   1      16.267  -5.435   2.617  0.00  0.00     0.122 C 
BRANCH  19  20
ATOM     20  O7  ZIN A   1      15.991  -5.819   1.269  0.00  0.00    -0.395 OA
ATOM     21  H39 ZIN A   1      15.493  -6.644   1.188  0.00  0.00     0.210 HD
ENDBRANCH  19  20
ENDBRANCH   1  12
BRANCH  11  22
ATOM     22  C24 ZIN A   1      17.452   0.847   9.988  0.00  0.00    -0.014 C 
ATOM     23  C26 ZIN A   1      17.789   2.282  10.401  0.00  0.00     0.010 C 
BRANCH  22  24
ATOM     24  C27 ZIN A   1      16.942   0.073  11.206  0.00  0.00     0.005 C 
BRANCH  24  25
ATOM     25  C28 ZIN A   1      17.384   0.787  12.486  0.00  0.00     0.001 C 
BRANCH  25  26
ATOM     26  C29 ZIN A   1      17.627  -0.246  13.588  0.00  0.00     0.004 C 
BRANCH  26  27
ATOM     27  C30 ZIN A   1      19.026  -0.045  14.174  0.00  0.00    -0.023 C 
ATOM     28  C31 ZIN A   1      19.571  -1.388  14.665  0.00  0.00     0.009 C 
ATOM     29  C32 ZIN A   1      19.955   0.518  13.096  0.00  0.00     0.009 C 
ENDBRANCH  26  27
ENDBRANCH  25  26
ENDBRANCH  24  25
ENDBRANCH  22  24
ENDBRANCH  11  22
TORSDOF 7
ENDMDL
MODEL 7
REMARK VINA RESULT:      -7.2      2.337      4.796
REMARK  7 active torsions:
REMARK  status: ('A' for Active; 'I' for Inactive)
REMARK    1  A    between atoms: C5_5  and  O7_6 
REMARK    2  A    between atoms: C10_9  and  C11_10 
REMARK    3  A    between atoms: C22_20  and  C24_21 
REMARK    4  A    between atoms: C24_21  and  C27_23 
REMARK    5  A    between atoms: C27_23  and  C28_24 
REMARK    6  A    between atoms: C28_24  and  C29_25 
REMARK    7  A    between atoms: C29_25  and  C30_26 
ROOT
ATOM      1  C11 ZIN A   1      18.489   2.417  11.999  0.00  0.00     0.004 C 
ATOM      2  C12 ZIN A   1      18.206   1.974  10.774  0.00  0.00    -0.075 C 
ATOM      3  C13 ZIN A   1      18.516   2.783   9.523  0.00  0.00     0.034 C 
ATOM      4  C14 ZIN A   1      19.269   1.932   8.502  0.00  0.00     0.005 C 
ATOM      5  C15 ZIN A   1      18.588   0.571   8.282  0.00  0.00     0.010 C 
ATOM      6  C16 ZIN A   1      18.544  -0.138   9.616  0.00  0.00    -0.033 C 
ATOM      7  C17 ZIN A   1      19.934  -0.103  10.253  0.00  0.00     0.016 C 
ATOM      8  C18 ZIN A   1      17.564   0.641  10.530  0.00  0.00     0.023 C 
ATOM      9  C20 ZIN A   1      17.460  -0.304  11.729  0.00  0.00     0.010 C 
ATOM     10  C21 ZIN A   1      17.357  -1.703  11.057  0.00  0.00     0.006 C 
ATOM     11  C22 ZIN A   1      18.006  -1.560   9.660  0.00  0.00    -0.002 C 
ENDROOT
BRANCH   1  12
ATOM     12  C10 ZIN A   1      19.116   3.728  12.177  0.00  0.00     0.008 C 
ATOM     13  C9  ZIN A   1      19.190   4.279  13.406  0.00  0.00    -0.050 C 
ATOM     14  C2  ZIN A   1      18.646   3.599  14.600  0.00  0.00    -0.061 C 
ATOM     15  C8  ZIN A   1      19.833   5.637  13.633  0.00  0.00     0.070 C 
ATOM     16  C1  ZIN A   1      17.463   2.984  14.575  0.00  0.00     0.019 C 
ATOM     17  C3  ZIN A   1      19.500   3.627  15.851  0.00  0.00     0.041 C 
ATOM     18  C4  ZIN A   1      19.995   5.062  16.065  0.00  0.00     0.036 C 
ATOM     19  C5  ZIN A   1      20.775   5.529  14.836  0.00  0.00     0.122 C 
BRANCH  19  20
ATOM     20  O7  ZIN A   1      21.356   6.808  15.099  0.00  0.00    -0.395 OA
ATOM     21  H39 ZIN A   1      22.088   6.786  15.730  0.00  0.00     0.210 HD
ENDBRANCH  19  20
ENDBRANCH   1  12
BRANCH  11  22
ATOM     22  C24 ZIN A   1      19.148  -2.566   9.500  0.00  0.00    -0.014 C 
ATOM     23  C26 ZIN A   1      19.012  -3.283   8.156  0.00  0.00     0.010 C 
BRANCH  22  24
ATOM     24  C27 ZIN A   1      19.085  -3.592  10.634  0.00  0.00     0.005 C 
BRANCH  24  25
ATOM     25  C28 ZIN A   1      18.952  -4.997  10.043  0.00  0.00     0.001 C 
BRANCH  25  26
ATOM     26  C29 ZIN A   1      17.730  -5.691  10.650  0.00  0.00     0.004 C 
BRANCH  26  27
ATOM     27  C30 ZIN A   1      16.937  -6.387   9.541  0.00  0.00    -0.023 C 
ATOM     28  C31 ZIN A   1      15.885  -5.424   8.986  0.00  0.00     0.009 C 
ATOM     29  C32 ZIN A   1      17.888  -6.804   8.418  0.00  0.00     0.009 C 
ENDBRANCH  26  27
ENDBRANCH  25  26
ENDBRANCH  24  25
ENDBRANCH  22  24
ENDBRANCH  11  22
TORSDOF 7
ENDMDL
MODEL 8
REMARK VINA RESULT:      -7.1      2.809      5.415
REMARK  7 active torsions:
REMARK  status: ('A' for Active; 'I' for Inactive)
REMARK    1  A    between atoms: C5_5  and  O7_6 
REMARK    2  A    between atoms: C10_9  and  C11_10 
REMARK    3  A    between atoms: C22_20  and  C24_21 
REMARK    4  A    between atoms: C24_21  and  C27_23 
REMARK    5  A    between atoms: C27_23  and  C28_24 
REMARK    6  A    between atoms: C28_24  and  C29_25 
REMARK    7  A    between atoms: C29_25  and  C30_26 
ROOT
ATOM      1  C11 ZIN A   1      18.065  -0.399  13.787  0.00  0.00     0.004 C 
ATOM      2  C12 ZIN A   1      17.492  -0.437  12.584  0.00  0.00    -0.075 C 
ATOM      3  C13 ZIN A   1      17.051   0.821  11.850  0.00  0.00     0.034 C 
ATOM      4  C14 ZIN A   1      17.587   0.828  10.420  0.00  0.00     0.005 C 
ATOM      5  C15 ZIN A   1      17.320  -0.507   9.704  0.00  0.00     0.010 C 
ATOM      6  C16 ZIN A   1      17.996  -1.596  10.505  0.00  0.00    -0.033 C 
ATOM      7  C17 ZIN A   1      19.442  -1.189  10.793  0.00  0.00     0.016 C 
ATOM      8  C18 ZIN A   1      17.243  -1.723  11.854  0.00  0.00     0.023 C 
ATOM      9  C20 ZIN A   1      17.886  -2.983  12.436  0.00  0.00     0.010 C 
ATOM     10  C21 ZIN A   1      17.969  -3.929  11.205  0.00  0.00     0.006 C 
ATOM     11  C22 ZIN A   1      17.972  -3.015   9.957  0.00  0.00    -0.002 C 
ENDROOT
BRANCH   1  12
ATOM     12  C10 ZIN A   1      18.284   0.888  14.453  0.00  0.00     0.008 C 
ATOM     13  C9  ZIN A   1      18.242   0.966  15.799  0.00  0.00    -0.050 C 
ATOM     14  C2  ZIN A   1      17.973  -0.218  16.641  0.00  0.00    -0.061 C 
ATOM     15  C8  ZIN A   1      18.464   2.281  16.527  0.00  0.00     0.070 C 
ATOM     16  C1  ZIN A   1      17.025  -1.100  16.324  0.00  0.00     0.019 C 
ATOM     17  C3  ZIN A   1      18.832  -0.386  17.878  0.00  0.00     0.041 C 
ATOM     18  C4  ZIN A   1      18.890   0.958  18.611  0.00  0.00     0.036 C 
ATOM     19  C5  ZIN A   1      19.445   2.034  17.677  0.00  0.00     0.122 C 
BRANCH  19  20
ATOM     20  O7  ZIN A   1      19.633   3.248  18.408  0.00  0.00    -0.395 OA
ATOM     21  H39 ZIN A   1      19.255   4.028  17.980  0.00  0.00     0.210 HD
ENDBRANCH  19  20
ENDBRANCH   1  12
BRANCH  11  22
ATOM     22  C24 ZIN A   1      19.218  -3.279   9.109  0.00  0.00    -0.014 C 
ATOM     23  C26 ZIN A   1      18.927  -2.921   7.650  0.00  0.00     0.010 C 
BRANCH  22  24
ATOM     24  C27 ZIN A   1      19.596  -4.759   9.206  0.00  0.00     0.005 C 
BRANCH  24  25
ATOM     25  C28 ZIN A   1      18.773  -5.562   8.195  0.00  0.00     0.001 C 
BRANCH  25  26
ATOM     26  C29 ZIN A   1      18.279  -6.852   8.852  0.00  0.00     0.004 C 
BRANCH  26  27
ATOM     27  C30 ZIN A   1      16.765  -6.973   8.662  0.00  0.00    -0.023 C 
ATOM     28  C31 ZIN A   1      16.203  -5.632   8.184  0.00  0.00     0.009 C 
ATOM     29  C32 ZIN A   1      16.465  -8.051   7.620  0.00  0.00     0.009 C 
ENDBRANCH  26  27
ENDBRANCH  25  26
ENDBRANCH  24  25
ENDBRANCH  22  24
ENDBRANCH  11  22
TORSDOF 7
ENDMDL
MODEL 9
REMARK VINA RESULT:      -7.0      1.631      2.972
REMARK  7 active torsions:
REMARK  status: ('A' for Active; 'I' for Inactive)
REMARK    1  A    between atoms: C5_5  and  O7_6 
REMARK    2  A    between atoms: C10_9  and  C11_10 
REMARK    3  A    between atoms: C22_20  and  C24_21 
REMARK    4  A    between atoms: C24_21  and  C27_23 
REMARK    5  A    between atoms: C27_23  and  C28_24 
REMARK    6  A    between atoms: C28_24  and  C29_25 
REMARK    7  A    between atoms: C29_25  and  C30_26 
ROOT
ATOM      1  C11 ZIN A   1      19.199   2.236  14.087  0.00  0.00     0.004 C 
ATOM      2  C12 ZIN A   1      19.348   0.964  14.458  0.00  0.00    -0.075 C 
ATOM      3  C13 ZIN A   1      18.938   0.463  15.835  0.00  0.00     0.034 C 
ATOM      4  C14 ZIN A   1      18.067  -0.786  15.717  0.00  0.00     0.005 C 
ATOM      5  C15 ZIN A   1      18.687  -1.827  14.770  0.00  0.00     0.010 C 
ATOM      6  C16 ZIN A   1      18.843  -1.175  13.415  0.00  0.00    -0.033 C 
ATOM      7  C17 ZIN A   1      17.523  -0.510  13.019  0.00  0.00     0.016 C 
ATOM      8  C18 ZIN A   1      19.928  -0.075  13.545  0.00  0.00     0.023 C 
ATOM      9  C20 ZIN A   1      20.125   0.324  12.081  0.00  0.00     0.010 C 
ATOM     10  C21 ZIN A   1      20.125  -1.047  11.348  0.00  0.00     0.006 C 
ATOM     11  C22 ZIN A   1      19.345  -2.025  12.259  0.00  0.00    -0.002 C 
ENDROOT
BRANCH   1  12
ATOM     12  C10 ZIN A   1      18.626   3.209  15.021  0.00  0.00     0.008 C 
ATOM     13  C9  ZIN A   1      18.070   4.345  14.553  0.00  0.00    -0.050 C 
ATOM     14  C2  ZIN A   1      18.022   4.653  13.109  0.00  0.00    -0.061 C 
ATOM     15  C8  ZIN A   1      17.465   5.379  15.489  0.00  0.00     0.070 C 
ATOM     16  C1  ZIN A   1      19.070   4.438  12.313  0.00  0.00     0.019 C 
ATOM     17  C3  ZIN A   1      16.721   5.220  12.574  0.00  0.00     0.041 C 
ATOM     18  C4  ZIN A   1      16.260   6.339  13.514  0.00  0.00     0.036 C 
ATOM     19  C5  ZIN A   1      16.098   5.790  14.932  0.00  0.00     0.122 C 
BRANCH  19  20
ATOM     20  O7  ZIN A   1      15.530   6.799  15.770  0.00  0.00    -0.395 OA
ATOM     21  H39 ZIN A   1      14.952   6.454  16.464  0.00  0.00     0.210 HD
ENDBRANCH  19  20
ENDBRANCH   1  12
BRANCH  11  22
ATOM     22  C24 ZIN A   1      18.167  -2.636  11.497  0.00  0.00    -0.014 C 
ATOM     23  C26 ZIN A   1      17.881  -4.037  12.038  0.00  0.00     0.010 C 
BRANCH  22  24
ATOM     24  C27 ZIN A   1      18.515  -2.725  10.009  0.00  0.00     0.005 C 
BRANCH  24  25
ATOM     25  C28 ZIN A   1      19.023  -4.133   9.688  0.00  0.00     0.001 C 
BRANCH  25  26
ATOM     26  C29 ZIN A   1      18.235  -4.701   8.506  0.00  0.00     0.004 C 
BRANCH  26  27
ATOM     27  C30 ZIN A   1      17.417  -5.908   8.972  0.00  0.00    -0.023 C 
ATOM     28  C31 ZIN A   1      15.941  -5.514   9.072  0.00  0.00     0.009 C 
ATOM     29  C32 ZIN A   1      17.572  -7.049   7.966  0.00  0.00     0.009 C 
ENDBRANCH  26  27
ENDBRANCH  25  26
ENDBRANCH  24  25
ENDBRANCH  22  24
ENDBRANCH  11  22
TORSDOF 7
ENDMDL
