MODEL 1
REMARK VINA RESULT:      -6.3      0.000      0.000
REMARK  5 active torsions:
REMARK  status: ('A' for Active; 'I' for Inactive)
REMARK    1  A    between atoms: C2_2  and  O3_3 
REMARK    2  A    between atoms: O3_3  and  C4_4 
REMARK    3  A    between atoms: C4_4  and  C6_6 
REMARK    4  A    between atoms: N10_10  and  C11_11 
REMARK    5  A    between atoms: C11_11  and  C14_13 
ROOT
ATOM      1  C6  <0> d   1      19.763   1.266  11.809  0.00  0.00     0.130 A 
ATOM      2  C7  <0> d   1      20.912   0.588  12.110  0.00  0.00     0.153 A 
ATOM      3  N8  <0> d   1      20.955  -0.500  11.340  0.00  0.00    -0.253 NA
ATOM      4  C9  <0> d   1      19.895  -0.541  10.574  0.00  0.00     0.210 A 
ATOM      5  N10 <0> d   1      19.121   0.529  10.832  0.00  0.00    -0.326 N 
ENDROOT
BRANCH   5   6
ATOM      6  C11 <0> d   1      17.846   0.857  10.190  0.00  0.00     0.120 C 
ATOM      7  C13 <0> d   1      16.768  -0.115  10.671  0.00  0.00     0.038 C 
BRANCH   6   8
ATOM      8  C14 <0> d   1      17.993   0.743   8.694  0.00  0.00    -0.035 A 
ATOM      9  C19 <0> d   1      18.908   1.537   8.027  0.00  0.00     0.009 A 
ATOM     10  C18 <0> d   1      19.045   1.430   6.656  0.00  0.00     0.001 A 
ATOM     11  C17 <0> d   1      18.263   0.535   5.950  0.00  0.00     0.000 A 
ATOM     12  C16 <0> d   1      17.344  -0.254   6.616  0.00  0.00     0.001 A 
ATOM     13  C15 <0> d   1      17.209  -0.150   7.988  0.00  0.00     0.009 A 
ENDBRANCH   6   8
ENDBRANCH   5   6
BRANCH   1  14
ATOM     14  C4  <0> d   1      19.300   2.521  12.411  0.00  0.00     0.311 C 
ATOM     15  O5  <0> d   1      18.736   2.508  13.487  0.00  0.00    -0.258 OA
BRANCH  14  16
ATOM     16  O3  <0> d   1      19.500   3.690  11.769  0.00  0.00    -0.317 OA
BRANCH  16  17
ATOM     17  C2  <0> d   1      18.367   4.593  11.674  0.00  0.00     0.175 C 
ATOM     18  C1  <0> d   1      17.681   4.411  10.318  0.00  0.00     0.034 C 
ENDBRANCH  16  17
ENDBRANCH  14  16
ENDBRANCH   1  14
TORSDOF 5
ENDMDL
MODEL 2
REMARK VINA RESULT:      -6.2      1.731      2.233
REMARK  5 active torsions:
REMARK  status: ('A' for Active; 'I' for Inactive)
REMARK    1  A    between atoms: C2_2  and  O3_3 
REMARK    2  A    between atoms: O3_3  and  C4_4 
REMARK    3  A    between atoms: C4_4  and  C6_6 
REMARK    4  A    between atoms: N10_10  and  C11_11 
REMARK    5  A    between atoms: C11_11  and  C14_13 
ROOT
ATOM      1  C6  <0> d   1      18.548   0.268  11.111  0.00  0.00     0.130 A 
ATOM      2  C7  <0> d   1      19.692   0.453  11.838  0.00  0.00     0.153 A 
ATOM      3  N8  <0> d   1      20.658  -0.267  11.267  0.00  0.00    -0.253 NA
ATOM      4  C9  <0> d   1      20.181  -0.894  10.222  0.00  0.00     0.210 A 
ATOM      5  N10 <0> d   1      18.876  -0.600  10.086  0.00  0.00    -0.326 N 
ENDROOT
BRANCH   5   6
ATOM      6  C11 <0> d   1      17.975  -1.097   9.044  0.00  0.00     0.120 C 
ATOM      7  C13 <0> d   1      17.974  -2.626   9.057  0.00  0.00     0.038 C 
BRANCH   6   8
ATOM      8  C14 <0> d   1      18.445  -0.606   7.698  0.00  0.00    -0.035 A 
ATOM      9  C19 <0> d   1      18.829  -1.514   6.728  0.00  0.00     0.009 A 
ATOM     10  C18 <0> d   1      19.256  -1.064   5.493  0.00  0.00     0.001 A 
ATOM     11  C17 <0> d   1      19.307   0.292   5.230  0.00  0.00     0.000 A 
ATOM     12  C16 <0> d   1      18.928   1.199   6.201  0.00  0.00     0.001 A 
ATOM     13  C15 <0> d   1      18.496   0.750   7.436  0.00  0.00     0.009 A 
ENDBRANCH   6   8
ENDBRANCH   5   6
BRANCH   1  14
ATOM     14  C4  <0> d   1      17.235   0.865  11.372  0.00  0.00     0.311 C 
ATOM     15  O5  <0> d   1      16.262   0.152  11.524  0.00  0.00    -0.258 OA
BRANCH  14  16
ATOM     16  O3  <0> d   1      17.106   2.206  11.443  0.00  0.00    -0.317 OA
BRANCH  16  17
ATOM     17  C2  <0> d   1      17.718   2.984  10.382  0.00  0.00     0.175 C 
ATOM     18  C1  <0> d   1      17.370   4.463  10.567  0.00  0.00     0.034 C 
ENDBRANCH  16  17
ENDBRANCH  14  16
ENDBRANCH   1  14
TORSDOF 5
ENDMDL
MODEL 3
REMARK VINA RESULT:      -6.2      2.091      4.253
REMARK  5 active torsions:
REMARK  status: ('A' for Active; 'I' for Inactive)
REMARK    1  A    between atoms: C2_2  and  O3_3 
REMARK    2  A    between atoms: O3_3  and  C4_4 
REMARK    3  A    between atoms: C4_4  and  C6_6 
REMARK    4  A    between atoms: N10_10  and  C11_11 
REMARK    5  A    between atoms: C11_11  and  C14_13 
ROOT
ATOM      1  C6  <0> d   1      18.410  -0.332  11.392  0.00  0.00     0.130 A 
ATOM      2  C7  <0> d   1      19.256  -1.381  11.624  0.00  0.00     0.153 A 
ATOM      3  N8  <0> d   1      20.234  -1.321  10.720  0.00  0.00    -0.253 NA
ATOM      4  C9  <0> d   1      20.047  -0.292   9.934  0.00  0.00     0.210 A 
ATOM      5  N10 <0> d   1      18.925   0.350  10.306  0.00  0.00    -0.326 N 
ENDROOT
BRANCH   5   6
ATOM      6  C11 <0> d   1      18.362   1.551   9.684  0.00  0.00     0.120 C 
ATOM      7  C13 <0> d   1      19.120   1.860   8.392  0.00  0.00     0.038 C 
BRANCH   6   8
ATOM      8  C14 <0> d   1      18.493   2.716  10.633  0.00  0.00    -0.035 A 
ATOM      9  C19 <0> d   1      17.396   3.516  10.899  0.00  0.00     0.009 A 
ATOM     10  C18 <0> d   1      17.515   4.582  11.771  0.00  0.00     0.001 A 
ATOM     11  C17 <0> d   1      18.731   4.852  12.372  0.00  0.00     0.000 A 
ATOM     12  C16 <0> d   1      19.827   4.055  12.101  0.00  0.00     0.001 A 
ATOM     13  C15 <0> d   1      19.708   2.987  11.232  0.00  0.00     0.009 A 
ENDBRANCH   6   8
ENDBRANCH   5   6
BRANCH   1  14
ATOM     14  C4  <0> d   1      17.194  -0.001  12.142  0.00  0.00     0.311 C 
ATOM     15  O5  <0> d   1      16.134   0.124  11.559  0.00  0.00    -0.258 OA
BRANCH  14  16
ATOM     16  O3  <0> d   1      17.251   0.166  13.479  0.00  0.00    -0.317 OA
BRANCH  16  17
ATOM     17  C2  <0> d   1      17.789   1.423  13.965  0.00  0.00     0.175 C 
ATOM     18  C1  <0> d   1      19.172   1.186  14.574  0.00  0.00     0.034 C 
ENDBRANCH  16  17
ENDBRANCH  14  16
ENDBRANCH   1  14
TORSDOF 5
ENDMDL
MODEL 4
REMARK VINA RESULT:      -6.2      3.420      5.934
REMARK  5 active torsions:
REMARK  status: ('A' for Active; 'I' for Inactive)
REMARK    1  A    between atoms: C2_2  and  O3_3 
REMARK    2  A    between atoms: O3_3  and  C4_4 
REMARK    3  A    between atoms: C4_4  and  C6_6 
REMARK    4  A    between atoms: N10_10  and  C11_11 
REMARK    5  A    between atoms: C11_11  and  C14_13 
ROOT
ATOM      1  C6  <0> d   1      17.763  -1.225  11.214  0.00  0.00     0.130 A 
ATOM      2  C7  <0> d   1      17.838  -2.485  10.686  0.00  0.00     0.153 A 
ATOM      3  N8  <0> d   1      18.790  -3.146  11.344  0.00  0.00    -0.253 NA
ATOM      4  C9  <0> d   1      19.317  -2.368  12.256  0.00  0.00     0.210 A 
ATOM      5  N10 <0> d   1      18.718  -1.164  12.211  0.00  0.00    -0.326 N 
ENDROOT
BRANCH   5   6
ATOM      6  C11 <0> d   1      19.015  -0.012  13.064  0.00  0.00     0.120 C 
ATOM      7  C13 <0> d   1      20.514   0.286  13.016  0.00  0.00     0.038 C 
BRANCH   6   8
ATOM      8  C14 <0> d   1      18.609  -0.319  14.483  0.00  0.00    -0.035 A 
ATOM      9  C19 <0> d   1      17.492   0.286  15.029  0.00  0.00     0.009 A 
ATOM     10  C18 <0> d   1      17.119   0.001  16.329  0.00  0.00     0.001 A 
ATOM     11  C17 <0> d   1      17.865  -0.883  17.085  0.00  0.00     0.000 A 
ATOM     12  C16 <0> d   1      18.985  -1.484  16.541  0.00  0.00     0.001 A 
ATOM     13  C15 <0> d   1      19.357  -1.202  15.239  0.00  0.00     0.009 A 
ENDBRANCH   6   8
ENDBRANCH   5   6
BRANCH   1  14
ATOM     14  C4  <0> d   1      16.855  -0.151  10.799  0.00  0.00     0.311 C 
ATOM     15  O5  <0> d   1      15.898   0.138  11.491  0.00  0.00    -0.258 OA
BRANCH  14  16
ATOM     16  O3  <0> d   1      17.081   0.517   9.649  0.00  0.00    -0.317 OA
BRANCH  16  17
ATOM     17  C2  <0> d   1      18.403   1.088   9.468  0.00  0.00     0.175 C 
ATOM     18  C1  <0> d   1      18.407   2.535   9.964  0.00  0.00     0.034 C 
ENDBRANCH  16  17
ENDBRANCH  14  16
ENDBRANCH   1  14
TORSDOF 5
ENDMDL
MODEL 5
REMARK VINA RESULT:      -6.1      3.624      5.467
REMARK  5 active torsions:
REMARK  status: ('A' for Active; 'I' for Inactive)
REMARK    1  A    between atoms: C2_2  and  O3_3 
REMARK    2  A    between atoms: O3_3  and  C4_4 
REMARK    3  A    between atoms: C4_4  and  C6_6 
REMARK    4  A    between atoms: N10_10  and  C11_11 
REMARK    5  A    between atoms: C11_11  and  C14_13 
ROOT
ATOM      1  C6  <0> d   1      18.558  -2.957   7.893  0.00  0.00     0.130 A 
ATOM      2  C7  <0> d   1      19.582  -3.610   7.264  0.00  0.00     0.153 A 
ATOM      3  N8  <0> d   1      19.936  -2.884   6.203  0.00  0.00    -0.253 NA
ATOM      4  C9  <0> d   1      19.189  -1.812   6.133  0.00  0.00     0.210 A 
ATOM      5  N10 <0> d   1      18.315  -1.814   7.155  0.00  0.00    -0.326 N 
ENDROOT
BRANCH   5   6
ATOM      6  C11 <0> d   1      17.304  -0.793   7.439  0.00  0.00     0.120 C 
ATOM      7  C13 <0> d   1      16.847  -0.149   6.128  0.00  0.00     0.038 C 
BRANCH   6   8
ATOM      8  C14 <0> d   1      17.895   0.264   8.337  0.00  0.00    -0.035 A 
ATOM      9  C19 <0> d   1      18.848   1.137   7.843  0.00  0.00     0.009 A 
ATOM     10  C18 <0> d   1      19.387   2.108   8.666  0.00  0.00     0.001 A 
ATOM     11  C17 <0> d   1      18.981   2.202   9.983  0.00  0.00     0.000 A 
ATOM     12  C16 <0> d   1      18.033   1.326  10.479  0.00  0.00     0.001 A 
ATOM     13  C15 <0> d   1      17.490   0.357   9.655  0.00  0.00     0.009 A 
ENDBRANCH   6   8
ENDBRANCH   5   6
BRANCH   1  14
ATOM     14  C4  <0> d   1      17.854  -3.387   9.105  0.00  0.00     0.311 C 
ATOM     15  O5  <0> d   1      16.970  -4.219   9.033  0.00  0.00    -0.258 OA
BRANCH  14  16
ATOM     16  O3  <0> d   1      18.187  -2.860  10.302  0.00  0.00    -0.317 OA
BRANCH  16  17
ATOM     17  C2  <0> d   1      18.578  -3.790  11.346  0.00  0.00     0.175 C 
ATOM     18  C1  <0> d   1      20.105  -3.860  11.422  0.00  0.00     0.034 C 
ENDBRANCH  16  17
ENDBRANCH  14  16
ENDBRANCH   1  14
TORSDOF 5
ENDMDL
MODEL 6
REMARK VINA RESULT:      -6.1      3.132      5.845
REMARK  5 active torsions:
REMARK  status: ('A' for Active; 'I' for Inactive)
REMARK    1  A    between atoms: C2_2  and  O3_3 
REMARK    2  A    between atoms: O3_3  and  C4_4 
REMARK    3  A    between atoms: C4_4  and  C6_6 
REMARK    4  A    between atoms: N10_10  and  C11_11 
REMARK    5  A    between atoms: C11_11  and  C14_13 
ROOT
ATOM      1  C6  <0> d   1      17.623   0.877  11.307  0.00  0.00     0.130 A 
ATOM      2  C7  <0> d   1      16.897  -0.004  10.554  0.00  0.00     0.153 A 
ATOM      3  N8  <0> d   1      16.952  -1.193  11.154  0.00  0.00    -0.253 NA
ATOM      4  C9  <0> d   1      17.675  -1.106  12.242  0.00  0.00     0.210 A 
ATOM      5  N10 <0> d   1      18.119   0.157  12.377  0.00  0.00    -0.326 N 
ENDROOT
BRANCH   5   6
ATOM      6  C11 <0> d   1      18.960   0.674  13.459  0.00  0.00     0.120 C 
ATOM      7  C13 <0> d   1      20.426   0.348  13.166  0.00  0.00     0.038 C 
BRANCH   6   8
ATOM      8  C14 <0> d   1      18.554   0.031  14.761  0.00  0.00    -0.035 A 
ATOM      9  C19 <0> d   1      17.454   0.504  15.451  0.00  0.00     0.009 A 
ATOM     10  C18 <0> d   1      17.079  -0.088  16.644  0.00  0.00     0.001 A 
ATOM     11  C17 <0> d   1      17.809  -1.147  17.149  0.00  0.00     0.000 A 
ATOM     12  C16 <0> d   1      18.912  -1.617  16.461  0.00  0.00     0.001 A 
ATOM     13  C15 <0> d   1      19.285  -1.028  15.267  0.00  0.00     0.009 A 
ENDBRANCH   6   8
ENDBRANCH   5   6
BRANCH   1  14
ATOM     14  C4  <0> d   1      17.839   2.300  11.029  0.00  0.00     0.311 C 
ATOM     15  O5  <0> d   1      17.029   3.124  11.407  0.00  0.00    -0.258 OA
BRANCH  14  16
ATOM     16  O3  <0> d   1      18.937   2.696  10.352  0.00  0.00    -0.317 OA
BRANCH  16  17
ATOM     17  C2  <0> d   1      18.822   2.796   8.908  0.00  0.00     0.175 C 
ATOM     18  C1  <0> d   1      19.494   1.585   8.258  0.00  0.00     0.034 C 
ENDBRANCH  16  17
ENDBRANCH  14  16
ENDBRANCH   1  14
TORSDOF 5
ENDMDL
MODEL 7
REMARK VINA RESULT:      -6.1      3.034      4.856
REMARK  5 active torsions:
REMARK  status: ('A' for Active; 'I' for Inactive)
REMARK    1  A    between atoms: C2_2  and  O3_3 
REMARK    2  A    between atoms: O3_3  and  C4_4 
REMARK    3  A    between atoms: C4_4  and  C6_6 
REMARK    4  A    between atoms: N10_10  and  C11_11 
REMARK    5  A    between atoms: C11_11  and  C14_13 
ROOT
ATOM      1  C6  <0> d   1      18.369   0.547  11.411  0.00  0.00     0.130 A 
ATOM      2  C7  <0> d   1      19.228   1.583  11.171  0.00  0.00     0.153 A 
ATOM      3  N8  <0> d   1      20.168   1.561  12.115  0.00  0.00    -0.253 NA
ATOM      4  C9  <0> d   1      19.944   0.566  12.936  0.00  0.00     0.210 A 
ATOM      5  N10 <0> d   1      18.836  -0.089  12.546  0.00  0.00    -0.326 N 
ENDROOT
BRANCH   5   6
ATOM      6  C11 <0> d   1      18.244  -1.261  13.194  0.00  0.00     0.120 C 
ATOM      7  C13 <0> d   1      18.844  -1.430  14.591  0.00  0.00     0.038 C 
BRANCH   6   8
ATOM      8  C14 <0> d   1      18.535  -2.491  12.371  0.00  0.00    -0.035 A 
ATOM      9  C19 <0> d   1      19.843  -2.850  12.105  0.00  0.00     0.009 A 
ATOM     10  C18 <0> d   1      20.110  -3.980  11.353  0.00  0.00     0.001 A 
ATOM     11  C17 <0> d   1      19.069  -4.745  10.862  0.00  0.00     0.000 A 
ATOM     12  C16 <0> d   1      17.761  -4.383  11.124  0.00  0.00     0.001 A 
ATOM     13  C15 <0> d   1      17.494  -3.256  11.879  0.00  0.00     0.009 A 
ENDBRANCH   6   8
ENDBRANCH   5   6
BRANCH   1  14
ATOM     14  C4  <0> d   1      17.184   0.187  10.626  0.00  0.00     0.311 C 
ATOM     15  O5  <0> d   1      16.100   0.092  11.169  0.00  0.00    -0.258 OA
BRANCH  14  16
ATOM     16  O3  <0> d   1      17.297  -0.039   9.301  0.00  0.00    -0.317 OA
BRANCH  16  17
ATOM     17  C2  <0> d   1      17.751  -1.356   8.893  0.00  0.00     0.175 C 
ATOM     18  C1  <0> d   1      19.228  -1.288   8.499  0.00  0.00     0.034 C 
ENDBRANCH  16  17
ENDBRANCH  14  16
ENDBRANCH   1  14
TORSDOF 5
ENDMDL
MODEL 8
REMARK VINA RESULT:      -6.0      3.454      6.230
REMARK  5 active torsions:
REMARK  status: ('A' for Active; 'I' for Inactive)
REMARK    1  A    between atoms: C2_2  and  O3_3 
REMARK    2  A    between atoms: O3_3  and  C4_4 
REMARK    3  A    between atoms: C4_4  and  C6_6 
REMARK    4  A    between atoms: N10_10  and  C11_11 
REMARK    5  A    between atoms: C11_11  and  C14_13 
ROOT
ATOM      1  C6  <0> d   1      18.441   0.606  12.042  0.00  0.00     0.130 A 
ATOM      2  C7  <0> d   1      19.444  -0.128  11.470  0.00  0.00     0.153 A 
ATOM      3  N8  <0> d   1      20.445  -0.201  12.347  0.00  0.00    -0.253 NA
ATOM      4  C9  <0> d   1      20.125   0.448  13.437  0.00  0.00     0.210 A 
ATOM      5  N10 <0> d   1      18.894   0.971  13.295  0.00  0.00    -0.326 N 
ENDROOT
BRANCH   5   6
ATOM      6  C11 <0> d   1      18.167   1.769  14.285  0.00  0.00     0.120 C 
ATOM      7  C13 <0> d   1      18.783   3.167  14.365  0.00  0.00     0.038 C 
BRANCH   6   8
ATOM      8  C14 <0> d   1      18.261   1.102  15.634  0.00  0.00    -0.035 A 
ATOM      9  C19 <0> d   1      17.513  -0.031  15.897  0.00  0.00     0.009 A 
ATOM     10  C18 <0> d   1      17.602  -0.645  17.133  0.00  0.00     0.001 A 
ATOM     11  C17 <0> d   1      18.431  -0.122  18.107  0.00  0.00     0.000 A 
ATOM     12  C16 <0> d   1      19.174   1.013  17.846  0.00  0.00     0.001 A 
ATOM     13  C15 <0> d   1      19.089   1.626  16.609  0.00  0.00     0.009 A 
ENDBRANCH   6   8
ENDBRANCH   5   6
BRANCH   1  14
ATOM     14  C4  <0> d   1      17.147   0.943  11.442  0.00  0.00     0.311 C 
ATOM     15  O5  <0> d   1      16.269   0.104  11.376  0.00  0.00    -0.258 OA
BRANCH  14  16
ATOM     16  O3  <0> d   1      16.930   2.185  10.962  0.00  0.00    -0.317 OA
BRANCH  16  17
ATOM     17  C2  <0> d   1      18.034   2.829  10.275  0.00  0.00     0.175 C 
ATOM     18  C1  <0> d   1      17.846   4.347  10.316  0.00  0.00     0.034 C 
ENDBRANCH  16  17
ENDBRANCH  14  16
ENDBRANCH   1  14
TORSDOF 5
ENDMDL
MODEL 9
REMARK VINA RESULT:      -6.0      2.113      4.574
REMARK  5 active torsions:
REMARK  status: ('A' for Active; 'I' for Inactive)
REMARK    1  A    between atoms: C2_2  and  O3_3 
REMARK    2  A    between atoms: O3_3  and  C4_4 
REMARK    3  A    between atoms: C4_4  and  C6_6 
REMARK    4  A    between atoms: N10_10  and  C11_11 
REMARK    5  A    between atoms: C11_11  and  C14_13 
ROOT
ATOM      1  C6  <0> d   1      18.691  -0.290  11.064  0.00  0.00     0.130 A 
ATOM      2  C7  <0> d   1      17.732  -1.263  10.995  0.00  0.00     0.153 A 
ATOM      3  N8  <0> d   1      16.760  -0.938  11.847  0.00  0.00    -0.253 NA
ATOM      4  C9  <0> d   1      17.058   0.186  12.448  0.00  0.00     0.210 A 
ATOM      5  N10 <0> d   1      18.248   0.625  12.002  0.00  0.00    -0.326 N 
ENDROOT
BRANCH   5   6
ATOM      6  C11 <0> d   1      18.939   1.846  12.421  0.00  0.00     0.120 C 
ATOM      7  C13 <0> d   1      18.868   1.975  13.944  0.00  0.00     0.038 C 
BRANCH   6   8
ATOM      8  C14 <0> d   1      18.278   3.041  11.784  0.00  0.00    -0.035 A 
ATOM      9  C19 <0> d   1      18.496   3.321  10.448  0.00  0.00     0.009 A 
ATOM     10  C18 <0> d   1      17.886   4.416   9.863  0.00  0.00     0.001 A 
ATOM     11  C17 <0> d   1      17.065   5.234  10.616  0.00  0.00     0.000 A 
ATOM     12  C16 <0> d   1      16.851   4.957  11.953  0.00  0.00     0.001 A 
ATOM     13  C15 <0> d   1      17.458   3.861  12.537  0.00  0.00     0.009 A 
ENDBRANCH   6   8
ENDBRANCH   5   6
BRANCH   1  14
ATOM     14  C4  <0> d   1      19.942  -0.232  10.302  0.00  0.00     0.311 C 
ATOM     15  O5  <0> d   1      20.952  -0.740  10.750  0.00  0.00    -0.258 OA
BRANCH  14  16
ATOM     16  O3  <0> d   1      19.973   0.385   9.103  0.00  0.00    -0.317 OA
BRANCH  16  17
ATOM     17  C2  <0> d   1      19.292  -0.275   8.004  0.00  0.00     0.175 C 
ATOM     18  C1  <0> d   1      18.642   0.775   7.101  0.00  0.00     0.034 C 
ENDBRANCH  16  17
ENDBRANCH  14  16
ENDBRANCH   1  14
TORSDOF 5
ENDMDL
