MODEL 1
REMARK VINA RESULT:      -8.5      0.000      0.000
REMARK  9 active torsions:
REMARK  status: ('A' for Active; 'I' for Inactive)
REMARK    1  A    between atoms: C2_2  and  C3_3 
REMARK    2  A    between atoms: C3_3  and  C4_4 
REMARK    3  A    between atoms: C4_4  and  O6_6 
REMARK    4  A    between atoms: O6_6  and  C7_7 
REMARK    5  A    between atoms: C7_7  and  C8_8 
REMARK    6  A    between atoms: C8_8  and  C10_10 
REMARK    7  A    between atoms: C10_10  and  O11_11 
REMARK    8  A    between atoms: O11_11  and  C12_12 
REMARK    9  A    between atoms: C35_32  and  O37_33 
ROOT
ATOM      1  C7  ZIN A   1      18.396  -3.393   9.276  0.00  0.00     0.140 C 
ATOM      2  C15 ZIN A   1      19.088  -4.073  10.483  0.00  0.00     0.048 C 
ATOM      3  C16 ZIN A   1      19.543  -2.929  11.429  0.00  0.00     0.009 C 
ATOM      4  C17 ZIN A   1      18.595  -1.783  11.063  0.00  0.00     0.005 C 
ATOM      5  C19 ZIN A   1      19.078  -0.387  11.413  0.00  0.00     0.037 C 
ATOM      6  C21 ZIN A   1      19.237  -0.257  12.929  0.00  0.00     0.050 C 
ATOM      7  C22 ZIN A   1      19.761   1.140  13.276  0.00  0.00     0.201 C 
ATOM      8  F24 ZIN A   1      19.797   1.300  14.666  0.00  0.00    -0.245 F 
ATOM      9  C25 ZIN A   1      18.819   2.160  12.666  0.00  0.00    -0.027 A 
ATOM     10  C26 ZIN A   1      18.327   3.122  13.436  0.00  0.00     0.061 A 
ATOM     11  C27 ZIN A   1      17.394   4.117  12.885  0.00  0.00     0.172 A 
ATOM     12  O28 ZIN A   1      16.972   5.024  13.578  0.00  0.00    -0.289 OA
ATOM     13  C29 ZIN A   1      16.985   3.992  11.476  0.00  0.00     0.052 A 
ATOM     14  C30 ZIN A   1      17.493   3.028  10.724  0.00  0.00    -0.006 A 
ATOM     15  C31 ZIN A   1      18.490   2.032  11.208  0.00  0.00     0.039 A 
ATOM     16  C32 ZIN A   1      19.783   2.243  10.417  0.00  0.00     0.028 C 
ATOM     17  C33 ZIN A   1      18.026   0.607  10.897  0.00  0.00     0.147 C 
ATOM     18  F34 ZIN A   1      16.820   0.361  11.563  0.00  0.00    -0.238 F 
ATOM     19  C35 ZIN A   1      17.786   0.470   9.397  0.00  0.00     0.160 C 
ATOM     20  C38 ZIN A   1      17.438  -0.975   9.007  0.00  0.00     0.048 C 
ATOM     21  C39 ZIN A   1      18.550  -1.894   9.514  0.00  0.00     0.002 C 
ATOM     22  C40 ZIN A   1      19.902  -1.411   8.989  0.00  0.00     0.019 C 
ENDROOT
BRANCH   1  23
ATOM     23  O6  ZIN A   1      16.991  -3.754   9.232  0.00  0.00    -0.301 OA
BRANCH  23  24
ATOM     24  C4  ZIN A   1      16.636  -4.900   9.834  0.00  0.00     0.260 C 
ATOM     25  O5  ZIN A   1      16.262  -4.886  10.984  0.00  0.00    -0.265 OA
BRANCH  24  26
ATOM     26  C3  ZIN A   1      16.704  -6.202   9.080  0.00  0.00     0.111 C 
BRANCH  26  27
ATOM     27  C2  ZIN A   1      15.891  -6.086   7.789  0.00  0.00     0.005 C 
ATOM     28  C1  ZIN A   1      14.397  -6.137   8.120  0.00  0.00     0.005 C 
ENDBRANCH  26  27
ENDBRANCH  24  26
ENDBRANCH  23  24
ENDBRANCH   1  23
BRANCH   1  29
ATOM     29  C8  ZIN A   1      19.076  -3.789   7.990  0.00  0.00     0.186 C 
ATOM     30  O9  ZIN A   1      20.063  -4.483   8.019  0.00  0.00    -0.292 OA
BRANCH  29  31
ATOM     31  C10 ZIN A   1      18.524  -3.317   6.670  0.00  0.00     0.260 C 
BRANCH  31  32
ATOM     32  O11 ZIN A   1      19.569  -2.644   5.921  0.00  0.00    -0.314 OA
BRANCH  32  33
ATOM     33  C12 ZIN A   1      19.223  -1.527   5.261  0.00  0.00     0.255 C 
ATOM     34  C13 ZIN A   1      17.823  -0.983   5.383  0.00  0.00     0.126 C 
ATOM     35  O14 ZIN A   1      20.033  -0.960   4.566  0.00  0.00    -0.266 OA
ENDBRANCH  32  33
ENDBRANCH  31  32
ENDBRANCH  29  31
ENDBRANCH   1  29
BRANCH  19  36
ATOM     36  O37 ZIN A   1      18.967   0.868   8.698  0.00  0.00    -0.392 OA
ATOM     37  H65 ZIN A   1      18.958   0.651   7.755  0.00  0.00     0.210 HD
ENDBRANCH  19  36
TORSDOF 9
ENDMDL
MODEL 2
REMARK VINA RESULT:      -8.3      2.544      8.566
REMARK  9 active torsions:
REMARK  status: ('A' for Active; 'I' for Inactive)
REMARK    1  A    between atoms: C2_2  and  C3_3 
REMARK    2  A    between atoms: C3_3  and  C4_4 
REMARK    3  A    between atoms: C4_4  and  O6_6 
REMARK    4  A    between atoms: O6_6  and  C7_7 
REMARK    5  A    between atoms: C7_7  and  C8_8 
REMARK    6  A    between atoms: C8_8  and  C10_10 
REMARK    7  A    between atoms: C10_10  and  O11_11 
REMARK    8  A    between atoms: O11_11  and  C12_12 
REMARK    9  A    between atoms: C35_32  and  O37_33 
ROOT
ATOM      1  C7  ZIN A   1      18.356   3.410  13.189  0.00  0.00     0.140 C 
ATOM      2  C15 ZIN A   1      19.042   4.116  11.994  0.00  0.00     0.048 C 
ATOM      3  C16 ZIN A   1      19.504   2.993  11.026  0.00  0.00     0.009 C 
ATOM      4  C17 ZIN A   1      18.563   1.834  11.372  0.00  0.00     0.005 C 
ATOM      5  C19 ZIN A   1      19.054   0.448  10.995  0.00  0.00     0.037 C 
ATOM      6  C21 ZIN A   1      19.212   0.347   9.477  0.00  0.00     0.050 C 
ATOM      7  C22 ZIN A   1      19.745  -1.040   9.103  0.00  0.00     0.201 C 
ATOM      8  F24 ZIN A   1      19.780  -1.174   7.711  0.00  0.00    -0.245 F 
ATOM      9  C25 ZIN A   1      18.809  -2.077   9.695  0.00  0.00    -0.027 A 
ATOM     10  C26 ZIN A   1      18.322  -3.027   8.908  0.00  0.00     0.061 A 
ATOM     11  C27 ZIN A   1      17.396  -4.038   9.440  0.00  0.00     0.172 A 
ATOM     12  O28 ZIN A   1      16.978  -4.934   8.731  0.00  0.00    -0.289 OA
ATOM     13  C29 ZIN A   1      16.987  -3.942  10.851  0.00  0.00     0.052 A 
ATOM     14  C30 ZIN A   1      17.490  -2.989  11.621  0.00  0.00    -0.006 A 
ATOM     15  C31 ZIN A   1      18.481  -1.978  11.155  0.00  0.00     0.039 A 
ATOM     16  C32 ZIN A   1      19.776  -2.196  11.941  0.00  0.00     0.028 C 
ATOM     17  C33 ZIN A   1      18.009  -0.562  11.493  0.00  0.00     0.147 C 
ATOM     18  F34 ZIN A   1      16.801  -0.310  10.833  0.00  0.00    -0.238 F 
ATOM     19  C35 ZIN A   1      17.769  -0.454  12.996  0.00  0.00     0.160 C 
ATOM     20  C38 ZIN A   1      17.412   0.981  13.413  0.00  0.00     0.048 C 
ATOM     21  C39 ZIN A   1      18.518   1.916  12.922  0.00  0.00     0.002 C 
ATOM     22  C40 ZIN A   1      19.874   1.432  13.437  0.00  0.00     0.019 C 
ENDROOT
BRANCH   1  23
ATOM     23  O6  ZIN A   1      16.948   3.761  13.240  0.00  0.00    -0.301 OA
BRANCH  23  24
ATOM     24  C4  ZIN A   1      16.578   4.889  12.614  0.00  0.00     0.260 C 
ATOM     25  O5  ZIN A   1      16.220   4.848  11.460  0.00  0.00    -0.265 OA
BRANCH  24  26
ATOM     26  C3  ZIN A   1      16.608   6.204  13.348  0.00  0.00     0.111 C 
BRANCH  26  27
ATOM     27  C2  ZIN A   1      16.052   6.013  14.760  0.00  0.00     0.005 C 
ATOM     28  C1  ZIN A   1      14.528   6.145  14.731  0.00  0.00     0.005 C 
ENDBRANCH  26  27
ENDBRANCH  24  26
ENDBRANCH  23  24
ENDBRANCH   1  23
BRANCH   1  29
ATOM     29  C8  ZIN A   1      19.035   3.785  14.481  0.00  0.00     0.186 C 
ATOM     30  O9  ZIN A   1      19.999   4.511  14.467  0.00  0.00    -0.292 OA
BRANCH  29  31
ATOM     31  C10 ZIN A   1      18.509   3.254  15.790  0.00  0.00     0.260 C 
BRANCH  31  32
ATOM     32  O11 ZIN A   1      19.616   2.767  16.593  0.00  0.00    -0.314 OA
BRANCH  32  33
ATOM     33  C12 ZIN A   1      19.353   1.768  17.451  0.00  0.00     0.255 C 
ATOM     34  C13 ZIN A   1      18.591   0.554  16.983  0.00  0.00     0.126 C 
ATOM     35  O14 ZIN A   1      19.725   1.843  18.598  0.00  0.00    -0.266 OA
ENDBRANCH  32  33
ENDBRANCH  31  32
ENDBRANCH  29  31
ENDBRANCH   1  29
BRANCH  19  36
ATOM     36  O37 ZIN A   1      18.953  -0.858  13.686  0.00  0.00    -0.392 OA
ATOM     37  H65 ZIN A   1      19.317  -1.702  13.382  0.00  0.00     0.210 HD
ENDBRANCH  19  36
TORSDOF 9
ENDMDL
MODEL 3
REMARK VINA RESULT:      -8.2      1.614      2.089
REMARK  9 active torsions:
REMARK  status: ('A' for Active; 'I' for Inactive)
REMARK    1  A    between atoms: C2_2  and  C3_3 
REMARK    2  A    between atoms: C3_3  and  C4_4 
REMARK    3  A    between atoms: C4_4  and  O6_6 
REMARK    4  A    between atoms: O6_6  and  C7_7 
REMARK    5  A    between atoms: C7_7  and  C8_8 
REMARK    6  A    between atoms: C8_8  and  C10_10 
REMARK    7  A    between atoms: C10_10  and  O11_11 
REMARK    8  A    between atoms: O11_11  and  C12_12 
REMARK    9  A    between atoms: C35_32  and  O37_33 
ROOT
ATOM      1  C7  ZIN A   1      18.083  -4.749   9.166  0.00  0.00     0.140 C 
ATOM      2  C15 ZIN A   1      17.593  -5.390  10.488  0.00  0.00     0.048 C 
ATOM      3  C16 ZIN A   1      17.711  -4.291  11.579  0.00  0.00     0.009 C 
ATOM      4  C17 ZIN A   1      17.653  -2.993  10.766  0.00  0.00     0.005 C 
ATOM      5  C19 ZIN A   1      18.245  -1.766  11.436  0.00  0.00     0.037 C 
ATOM      6  C21 ZIN A   1      17.458  -1.436  12.706  0.00  0.00     0.050 C 
ATOM      7  C22 ZIN A   1      18.083  -0.221  13.399  0.00  0.00     0.201 C 
ATOM      8  F24 ZIN A   1      17.298   0.153  14.495  0.00  0.00    -0.245 F 
ATOM      9  C25 ZIN A   1      18.137   0.915  12.395  0.00  0.00    -0.027 A 
ATOM     10  C26 ZIN A   1      17.633   2.095  12.732  0.00  0.00     0.061 A 
ATOM     11  C27 ZIN A   1      17.648   3.215  11.779  0.00  0.00     0.172 A 
ATOM     12  O28 ZIN A   1      17.223   4.309  12.098  0.00  0.00    -0.289 OA
ATOM     13  C29 ZIN A   1      18.192   2.982  10.431  0.00  0.00     0.052 A 
ATOM     14  C30 ZIN A   1      18.697   1.799  10.117  0.00  0.00    -0.006 A 
ATOM     15  C31 ZIN A   1      18.768   0.648  11.061  0.00  0.00     0.039 A 
ATOM     16  C32 ZIN A   1      20.245   0.327  11.298  0.00  0.00     0.028 C 
ATOM     17  C33 ZIN A   1      18.155  -0.606  10.432  0.00  0.00     0.147 C 
ATOM     18  F34 ZIN A   1      16.804  -0.367  10.153  0.00  0.00    -0.238 F 
ATOM     19  C35 ZIN A   1      18.871  -0.916   9.122  0.00  0.00     0.160 C 
ATOM     20  C38 ZIN A   1      18.383  -2.237   8.505  0.00  0.00     0.048 C 
ATOM     21  C39 ZIN A   1      18.546  -3.345   9.546  0.00  0.00     0.002 C 
ATOM     22  C40 ZIN A   1      19.992  -3.382  10.042  0.00  0.00     0.019 C 
ENDROOT
BRANCH   1  23
ATOM     23  O6  ZIN A   1      16.994  -4.677   8.208  0.00  0.00    -0.301 OA
BRANCH  23  24
ATOM     24  C4  ZIN A   1      16.232  -5.773   8.068  0.00  0.00     0.260 C 
ATOM     25  O5  ZIN A   1      16.660  -6.733   7.473  0.00  0.00    -0.265 OA
BRANCH  24  26
ATOM     26  C3  ZIN A   1      14.843  -5.805   8.651  0.00  0.00     0.111 C 
BRANCH  26  27
ATOM     27  C2  ZIN A   1      13.876  -6.410   7.631  0.00  0.00     0.005 C 
ATOM     28  C1  ZIN A   1      12.437  -6.087   8.039  0.00  0.00     0.005 C 
ENDBRANCH  26  27
ENDBRANCH  24  26
ENDBRANCH  23  24
ENDBRANCH   1  23
BRANCH   1  29
ATOM     29  C8  ZIN A   1      19.231  -5.539   8.593  0.00  0.00     0.186 C 
ATOM     30  O9  ZIN A   1      19.536  -6.600   9.080  0.00  0.00    -0.292 OA
BRANCH  29  31
ATOM     31  C10 ZIN A   1      19.997  -5.004   7.410  0.00  0.00     0.260 C 
BRANCH  31  32
ATOM     32  O11 ZIN A   1      19.230  -5.225   6.197  0.00  0.00    -0.314 OA
BRANCH  32  33
ATOM     33  C12 ZIN A   1      18.900  -4.139   5.479  0.00  0.00     0.255 C 
ATOM     34  C13 ZIN A   1      17.598  -4.104   4.722  0.00  0.00     0.126 C 
ATOM     35  O14 ZIN A   1      19.650  -3.192   5.437  0.00  0.00    -0.266 OA
ENDBRANCH  32  33
ENDBRANCH  31  32
ENDBRANCH  29  31
ENDBRANCH   1  29
BRANCH  19  36
ATOM     36  O37 ZIN A   1      20.275  -1.011   9.370  0.00  0.00    -0.392 OA
ATOM     37  H65 ZIN A   1      20.498  -1.257  10.279  0.00  0.00     0.210 HD
ENDBRANCH  19  36
TORSDOF 9
ENDMDL
MODEL 4
REMARK VINA RESULT:      -8.0      2.518      8.566
REMARK  9 active torsions:
REMARK  status: ('A' for Active; 'I' for Inactive)
REMARK    1  A    between atoms: C2_2  and  C3_3 
REMARK    2  A    between atoms: C3_3  and  C4_4 
REMARK    3  A    between atoms: C4_4  and  O6_6 
REMARK    4  A    between atoms: O6_6  and  C7_7 
REMARK    5  A    between atoms: C7_7  and  C8_8 
REMARK    6  A    between atoms: C8_8  and  C10_10 
REMARK    7  A    between atoms: C10_10  and  O11_11 
REMARK    8  A    between atoms: O11_11  and  C12_12 
REMARK    9  A    between atoms: C35_32  and  O37_33 
ROOT
ATOM      1  C7  ZIN A   1      18.311   3.320  12.364  0.00  0.00     0.140 C 
ATOM      2  C15 ZIN A   1      18.873   3.940  11.060  0.00  0.00     0.048 C 
ATOM      3  C16 ZIN A   1      19.279   2.750  10.148  0.00  0.00     0.009 C 
ATOM      4  C17 ZIN A   1      18.402   1.605  10.668  0.00  0.00     0.005 C 
ATOM      5  C19 ZIN A   1      18.896   0.203  10.361  0.00  0.00     0.037 C 
ATOM      6  C21 ZIN A   1      18.925  -0.019   8.848  0.00  0.00     0.050 C 
ATOM      7  C22 ZIN A   1      19.460  -1.422   8.541  0.00  0.00     0.201 C 
ATOM      8  F24 ZIN A   1      19.379  -1.668   7.166  0.00  0.00    -0.245 F 
ATOM      9  C25 ZIN A   1      18.607  -2.425   9.294  0.00  0.00    -0.027 A 
ATOM     10  C26 ZIN A   1      18.080  -3.445   8.631  0.00  0.00     0.061 A 
ATOM     11  C27 ZIN A   1      17.230  -4.427   9.323  0.00  0.00     0.172 A 
ATOM     12  O28 ZIN A   1      16.777  -5.386   8.727  0.00  0.00    -0.289 OA
ATOM     13  C29 ZIN A   1      16.942  -4.224  10.752  0.00  0.00     0.052 A 
ATOM     14  C30 ZIN A   1      17.484  -3.201  11.396  0.00  0.00    -0.006 A 
ATOM     15  C31 ZIN A   1      18.404  -2.213  10.765  0.00  0.00     0.039 A 
ATOM     16  C32 ZIN A   1      19.767  -2.340  11.448  0.00  0.00     0.028 C 
ATOM     17  C33 ZIN A   1      17.925  -0.783  11.029  0.00  0.00     0.147 C 
ATOM     18  F34 ZIN A   1      16.658  -0.610  10.460  0.00  0.00    -0.238 F 
ATOM     19  C35 ZIN A   1      17.813  -0.557  12.533  0.00  0.00     0.160 C 
ATOM     20  C38 ZIN A   1      17.456   0.901  12.864  0.00  0.00     0.048 C 
ATOM     21  C39 ZIN A   1      18.490   1.813  12.204  0.00  0.00     0.002 C 
ATOM     22  C40 ZIN A   1      19.898   1.399  12.635  0.00  0.00     0.019 C 
ENDROOT
BRANCH   1  23
ATOM     23  O6  ZIN A   1      16.905   3.647  12.511  0.00  0.00    -0.301 OA
BRANCH  23  24
ATOM     24  C4  ZIN A   1      16.497   4.825  12.014  0.00  0.00     0.260 C 
ATOM     25  O5  ZIN A   1      16.102   4.894  10.874  0.00  0.00    -0.265 OA
BRANCH  24  26
ATOM     26  C3  ZIN A   1      16.532   6.060  12.875  0.00  0.00     0.111 C 
BRANCH  26  27
ATOM     27  C2  ZIN A   1      15.972   5.732  14.261  0.00  0.00     0.005 C 
ATOM     28  C1  ZIN A   1      15.585   7.029  14.975  0.00  0.00     0.005 C 
ENDBRANCH  26  27
ENDBRANCH  24  26
ENDBRANCH  23  24
ENDBRANCH   1  23
BRANCH   1  29
ATOM     29  C8  ZIN A   1      19.089   3.813  13.557  0.00  0.00     0.186 C 
ATOM     30  O9  ZIN A   1      19.006   3.234  14.613  0.00  0.00    -0.292 OA
BRANCH  29  31
ATOM     31  C10 ZIN A   1      19.970   5.029  13.431  0.00  0.00     0.260 C 
BRANCH  31  32
ATOM     32  O11 ZIN A   1      20.318   5.513  14.754  0.00  0.00    -0.314 OA
BRANCH  32  33
ATOM     33  C12 ZIN A   1      19.491   6.413  15.311  0.00  0.00     0.255 C 
ATOM     34  C13 ZIN A   1      18.852   6.124  16.645  0.00  0.00     0.126 C 
ATOM     35  O14 ZIN A   1      19.258   7.453  14.741  0.00  0.00    -0.266 OA
ENDBRANCH  32  33
ENDBRANCH  31  32
ENDBRANCH  29  31
ENDBRANCH   1  29
BRANCH  19  36
ATOM     36  O37 ZIN A   1      19.063  -0.880  13.147  0.00  0.00    -0.392 OA
ATOM     37  H65 ZIN A   1      19.806  -0.922  12.528  0.00  0.00     0.210 HD
ENDBRANCH  19  36
TORSDOF 9
ENDMDL
MODEL 5
REMARK VINA RESULT:      -8.0      3.005      8.288
REMARK  9 active torsions:
REMARK  status: ('A' for Active; 'I' for Inactive)
REMARK    1  A    between atoms: C2_2  and  C3_3 
REMARK    2  A    between atoms: C3_3  and  C4_4 
REMARK    3  A    between atoms: C4_4  and  O6_6 
REMARK    4  A    between atoms: O6_6  and  C7_7 
REMARK    5  A    between atoms: C7_7  and  C8_8 
REMARK    6  A    between atoms: C8_8  and  C10_10 
REMARK    7  A    between atoms: C10_10  and  O11_11 
REMARK    8  A    between atoms: O11_11  and  C12_12 
REMARK    9  A    between atoms: C35_32  and  O37_33 
ROOT
ATOM      1  C7  ZIN A   1      18.992  -0.343  11.916  0.00  0.00     0.140 C 
ATOM      2  C15 ZIN A   1      19.717   0.497  10.835  0.00  0.00     0.048 C 
ATOM      3  C16 ZIN A   1      19.979  -0.458   9.639  0.00  0.00     0.009 C 
ATOM      4  C17 ZIN A   1      18.904  -1.536   9.819  0.00  0.00     0.005 C 
ATOM      5  C19 ZIN A   1      19.185  -2.868   9.149  0.00  0.00     0.037 C 
ATOM      6  C21 ZIN A   1      19.262  -2.681   7.633  0.00  0.00     0.050 C 
ATOM      7  C22 ZIN A   1      19.584  -4.022   6.963  0.00  0.00     0.201 C 
ATOM      8  F24 ZIN A   1      19.541  -3.877   5.572  0.00  0.00    -0.245 F 
ATOM      9  C25 ZIN A   1      18.541  -5.030   7.407  0.00  0.00    -0.027 A 
ATOM     10  C26 ZIN A   1      17.896  -5.734   6.486  0.00  0.00     0.061 A 
ATOM     11  C27 ZIN A   1      16.864  -6.707   6.876  0.00  0.00     0.172 A 
ATOM     12  O28 ZIN A   1      16.298  -7.383   6.038  0.00  0.00    -0.289 OA
ATOM     13  C29 ZIN A   1      16.533  -6.845   8.304  0.00  0.00     0.052 A 
ATOM     14  C30 ZIN A   1      17.194  -6.137   9.207  0.00  0.00    -0.006 A 
ATOM     15  C31 ZIN A   1      18.293  -5.186   8.877  0.00  0.00     0.039 A 
ATOM     16  C32 ZIN A   1      19.579  -5.717   9.515  0.00  0.00     0.028 C 
ATOM     17  C33 ZIN A   1      18.034  -3.818   9.514  0.00  0.00     0.147 C 
ATOM     18  F34 ZIN A   1      16.844  -3.290   9.000  0.00  0.00    -0.238 F 
ATOM     19  C35 ZIN A   1      17.876  -3.985  11.022  0.00  0.00     0.160 C 
ATOM     20  C38 ZIN A   1      17.737  -2.629  11.733  0.00  0.00     0.048 C 
ATOM     21  C39 ZIN A   1      18.938  -1.761  11.355  0.00  0.00     0.002 C 
ATOM     22  C40 ZIN A   1      20.236  -2.505  11.673  0.00  0.00     0.019 C 
ENDROOT
BRANCH   1  23
ATOM     23  O6  ZIN A   1      17.650   0.165  12.132  0.00  0.00    -0.301 OA
BRANCH  23  24
ATOM     24  C4  ZIN A   1      17.451   1.475  11.916  0.00  0.00     0.260 C 
ATOM     25  O5  ZIN A   1      16.944   1.846  10.884  0.00  0.00    -0.265 OA
BRANCH  24  26
ATOM     26  C3  ZIN A   1      17.859   2.481  12.960  0.00  0.00     0.111 C 
BRANCH  26  27
ATOM     27  C2  ZIN A   1      18.078   3.843  12.297  0.00  0.00     0.005 C 
ATOM     28  C1  ZIN A   1      19.573   4.170  12.285  0.00  0.00     0.005 C 
ENDBRANCH  26  27
ENDBRANCH  24  26
ENDBRANCH  23  24
ENDBRANCH   1  23
BRANCH   1  29
ATOM     29  C8  ZIN A   1      19.771  -0.322  13.206  0.00  0.00     0.186 C 
ATOM     30  O9  ZIN A   1      20.836   0.245  13.259  0.00  0.00    -0.292 OA
BRANCH  29  31
ATOM     31  C10 ZIN A   1      19.221  -1.009  14.429  0.00  0.00     0.260 C 
BRANCH  31  32
ATOM     32  O11 ZIN A   1      19.129  -0.054  15.519  0.00  0.00    -0.314 OA
BRANCH  32  33
ATOM     33  C12 ZIN A   1      18.623  -0.502  16.680  0.00  0.00     0.255 C 
ATOM     34  C13 ZIN A   1      17.167  -0.882  16.771  0.00  0.00     0.126 C 
ATOM     35  O14 ZIN A   1      19.335  -0.597  17.652  0.00  0.00    -0.266 OA
ENDBRANCH  32  33
ENDBRANCH  31  32
ENDBRANCH  29  31
ENDBRANCH   1  29
BRANCH  19  36
ATOM     36  O37 ZIN A   1      19.022  -4.664  11.538  0.00  0.00    -0.392 OA
ATOM     37  H65 ZIN A   1      19.641  -4.964  10.857  0.00  0.00     0.210 HD
ENDBRANCH  19  36
TORSDOF 9
ENDMDL
MODEL 6
REMARK VINA RESULT:      -7.6      2.443      4.165
REMARK  9 active torsions:
REMARK  status: ('A' for Active; 'I' for Inactive)
REMARK    1  A    between atoms: C2_2  and  C3_3 
REMARK    2  A    between atoms: C3_3  and  C4_4 
REMARK    3  A    between atoms: C4_4  and  O6_6 
REMARK    4  A    between atoms: O6_6  and  C7_7 
REMARK    5  A    between atoms: C7_7  and  C8_8 
REMARK    6  A    between atoms: C8_8  and  C10_10 
REMARK    7  A    between atoms: C10_10  and  O11_11 
REMARK    8  A    between atoms: O11_11  and  C12_12 
REMARK    9  A    between atoms: C35_32  and  O37_33 
ROOT
ATOM      1  C7  ZIN A   1      19.041   0.161  11.307  0.00  0.00     0.140 C 
ATOM      2  C15 ZIN A   1      19.707  -0.719  12.394  0.00  0.00     0.048 C 
ATOM      3  C16 ZIN A   1      19.949   0.203  13.619  0.00  0.00     0.009 C 
ATOM      4  C17 ZIN A   1      18.907   1.311  13.426  0.00  0.00     0.005 C 
ATOM      5  C19 ZIN A   1      19.195   2.621  14.135  0.00  0.00     0.037 C 
ATOM      6  C21 ZIN A   1      19.214   2.400  15.649  0.00  0.00     0.050 C 
ATOM      7  C22 ZIN A   1      19.543   3.717  16.360  0.00  0.00     0.201 C 
ATOM      8  F24 ZIN A   1      19.448   3.543  17.745  0.00  0.00    -0.245 F 
ATOM      9  C25 ZIN A   1      18.542   4.760  15.902  0.00  0.00    -0.027 A 
ATOM     10  C26 ZIN A   1      17.881   5.460  16.815  0.00  0.00     0.061 A 
ATOM     11  C27 ZIN A   1      16.887   6.466  16.411  0.00  0.00     0.172 A 
ATOM     12  O28 ZIN A   1      16.308   7.138  17.244  0.00  0.00    -0.289 OA
ATOM     13  C29 ZIN A   1      16.610   6.643  14.975  0.00  0.00     0.052 A 
ATOM     14  C30 ZIN A   1      17.286   5.938  14.081  0.00  0.00    -0.006 A 
ATOM     15  C31 ZIN A   1      18.349   4.954  14.427  0.00  0.00     0.039 A 
ATOM     16  C32 ZIN A   1      19.669   5.467  13.847  0.00  0.00     0.028 C 
ATOM     17  C33 ZIN A   1      18.081   3.607  13.751  0.00  0.00     0.147 C 
ATOM     18  F34 ZIN A   1      16.861   3.097  14.212  0.00  0.00    -0.238 F 
ATOM     19  C35 ZIN A   1      17.980   3.810  12.243  0.00  0.00     0.160 C 
ATOM     20  C38 ZIN A   1      17.835   2.473  11.498  0.00  0.00     0.048 C 
ATOM     21  C39 ZIN A   1      19.001   1.568  11.897  0.00  0.00     0.002 C 
ATOM     22  C40 ZIN A   1      20.326   2.286  11.642  0.00  0.00     0.019 C 
ENDROOT
BRANCH   1  23
ATOM     23  O6  ZIN A   1      17.696  -0.308  11.033  0.00  0.00    -0.301 OA
BRANCH  23  24
ATOM     24  C4  ZIN A   1      17.445  -1.608  11.259  0.00  0.00     0.260 C 
ATOM     25  O5  ZIN A   1      16.910  -1.949  12.287  0.00  0.00    -0.265 OA
BRANCH  24  26
ATOM     26  C3  ZIN A   1      17.832  -2.640  10.232  0.00  0.00     0.111 C 
BRANCH  26  27
ATOM     27  C2  ZIN A   1      18.149  -3.962  10.932  0.00  0.00     0.005 C 
ATOM     28  C1  ZIN A   1      19.664  -4.100  11.099  0.00  0.00     0.005 C 
ENDBRANCH  26  27
ENDBRANCH  24  26
ENDBRANCH  23  24
ENDBRANCH   1  23
BRANCH   1  29
ATOM     29  C8  ZIN A   1      19.865   0.149  10.045  0.00  0.00     0.186 C 
ATOM     30  O9  ZIN A   1      20.931  -0.417  10.025  0.00  0.00    -0.292 OA
BRANCH  29  31
ATOM     31  C10 ZIN A   1      19.357   0.844   8.808  0.00  0.00     0.260 C 
BRANCH  31  32
ATOM     32  O11 ZIN A   1      19.145  -0.135   7.757  0.00  0.00    -0.314 OA
BRANCH  32  33
ATOM     33  C12 ZIN A   1      17.941  -0.140   7.163  0.00  0.00     0.255 C 
ATOM     34  C13 ZIN A   1      17.839  -0.014   5.665  0.00  0.00     0.126 C 
ATOM     35  O14 ZIN A   1      16.938  -0.244   7.831  0.00  0.00    -0.266 OA
ENDBRANCH  32  33
ENDBRANCH  31  32
ENDBRANCH  29  31
ENDBRANCH   1  29
BRANCH  19  36
ATOM     36  O37 ZIN A   1      19.160   4.472  11.783  0.00  0.00    -0.392 OA
ATOM     37  H65 ZIN A   1      19.980   4.115  12.152  0.00  0.00     0.210 HD
ENDBRANCH  19  36
TORSDOF 9
ENDMDL
MODEL 7
REMARK VINA RESULT:      -7.5      2.665      8.066
REMARK  9 active torsions:
REMARK  status: ('A' for Active; 'I' for Inactive)
REMARK    1  A    between atoms: C2_2  and  C3_3 
REMARK    2  A    between atoms: C3_3  and  C4_4 
REMARK    3  A    between atoms: C4_4  and  O6_6 
REMARK    4  A    between atoms: O6_6  and  C7_7 
REMARK    5  A    between atoms: C7_7  and  C8_8 
REMARK    6  A    between atoms: C8_8  and  C10_10 
REMARK    7  A    between atoms: C10_10  and  O11_11 
REMARK    8  A    between atoms: O11_11  and  C12_12 
REMARK    9  A    between atoms: C35_32  and  O37_33 
ROOT
ATOM      1  C7  ZIN A   1      18.708   2.063  10.718  0.00  0.00     0.140 C 
ATOM      2  C15 ZIN A   1      19.459   2.542   9.451  0.00  0.00     0.048 C 
ATOM      3  C16 ZIN A   1      19.771   1.268   8.619  0.00  0.00     0.009 C 
ATOM      4  C17 ZIN A   1      18.703   0.277   9.095  0.00  0.00     0.005 C 
ATOM      5  C19 ZIN A   1      19.022  -1.192   8.881  0.00  0.00     0.037 C 
ATOM      6  C21 ZIN A   1      19.148  -1.484   7.384  0.00  0.00     0.050 C 
ATOM      7  C22 ZIN A   1      19.507  -2.958   7.174  0.00  0.00     0.201 C 
ATOM      8  F24 ZIN A   1      19.509  -3.254   5.806  0.00  0.00    -0.245 F 
ATOM      9  C25 ZIN A   1      18.462  -3.801   7.880  0.00  0.00    -0.027 A 
ATOM     10  C26 ZIN A   1      17.856  -4.770   7.206  0.00  0.00     0.061 A 
ATOM     11  C27 ZIN A   1      16.823  -5.596   7.851  0.00  0.00     0.172 A 
ATOM     12  O28 ZIN A   1      16.293  -6.511   7.249  0.00  0.00    -0.289 OA
ATOM     13  C29 ZIN A   1      16.446  -5.291   9.241  0.00  0.00     0.052 A 
ATOM     14  C30 ZIN A   1      17.069  -4.323   9.897  0.00  0.00    -0.006 A 
ATOM     15  C31 ZIN A   1      18.166  -3.498   9.319  0.00  0.00     0.039 A 
ATOM     16  C32 ZIN A   1      19.436  -3.777  10.126  0.00  0.00     0.028 C 
ATOM     17  C33 ZIN A   1      17.870  -2.006   9.491  0.00  0.00     0.147 C 
ATOM     18  F34 ZIN A   1      16.692  -1.689   8.805  0.00  0.00    -0.238 F 
ATOM     19  C35 ZIN A   1      17.664  -1.699  10.971  0.00  0.00     0.160 C 
ATOM     20  C38 ZIN A   1      17.486  -0.193  11.220  0.00  0.00     0.048 C 
ATOM     21  C39 ZIN A   1      18.689   0.540  10.625  0.00  0.00     0.002 C 
ATOM     22  C40 ZIN A   1      19.984  -0.040  11.195  0.00  0.00     0.019 C 
ENDROOT
BRANCH   1  23
ATOM     23  O6  ZIN A   1      17.353   2.584  10.728  0.00  0.00    -0.301 OA
BRANCH  23  24
ATOM     24  C4  ZIN A   1      17.211   3.917  10.660  0.00  0.00     0.260 C 
ATOM     25  O5  ZIN A   1      17.680   4.527   9.729  0.00  0.00    -0.265 OA
BRANCH  24  26
ATOM     26  C3  ZIN A   1      16.468   4.652  11.745  0.00  0.00     0.111 C 
BRANCH  26  27
ATOM     27  C2  ZIN A   1      17.437   5.569  12.495  0.00  0.00     0.005 C 
ATOM     28  C1  ZIN A   1      16.719   6.201  13.690  0.00  0.00     0.005 C 
ENDBRANCH  26  27
ENDBRANCH  24  26
ENDBRANCH  23  24
ENDBRANCH   1  23
BRANCH   1  29
ATOM     29  C8  ZIN A   1      19.443   2.500  11.959  0.00  0.00     0.186 C 
ATOM     30  O9  ZIN A   1      20.510   3.057  11.864  0.00  0.00    -0.292 OA
BRANCH  29  31
ATOM     31  C10 ZIN A   1      18.846   2.242  13.319  0.00  0.00     0.260 C 
BRANCH  31  32
ATOM     32  O11 ZIN A   1      19.672   1.288  14.037  0.00  0.00    -0.314 OA
BRANCH  32  33
ATOM     33  C12 ZIN A   1      19.105   0.651  15.074  0.00  0.00     0.255 C 
ATOM     34  C13 ZIN A   1      18.444  -0.687  14.867  0.00  0.00     0.126 C 
ATOM     35  O14 ZIN A   1      19.124   1.153  16.174  0.00  0.00    -0.266 OA
ENDBRANCH  32  33
ENDBRANCH  31  32
ENDBRANCH  29  31
ENDBRANCH   1  29
BRANCH  19  36
ATOM     36  O37 ZIN A   1      18.801  -2.160  11.704  0.00  0.00    -0.392 OA
ATOM     37  H65 ZIN A   1      19.046  -1.591  12.448  0.00  0.00     0.210 HD
ENDBRANCH  19  36
TORSDOF 9
ENDMDL
MODEL 8
REMARK VINA RESULT:      -7.2      2.971      7.990
REMARK  9 active torsions:
REMARK  status: ('A' for Active; 'I' for Inactive)
REMARK    1  A    between atoms: C2_2  and  C3_3 
REMARK    2  A    between atoms: C3_3  and  C4_4 
REMARK    3  A    between atoms: C4_4  and  O6_6 
REMARK    4  A    between atoms: O6_6  and  C7_7 
REMARK    5  A    between atoms: C7_7  and  C8_8 
REMARK    6  A    between atoms: C8_8  and  C10_10 
REMARK    7  A    between atoms: C10_10  and  O11_11 
REMARK    8  A    between atoms: O11_11  and  C12_12 
REMARK    9  A    between atoms: C35_32  and  O37_33 
ROOT
ATOM      1  C7  ZIN A   1      19.173   0.068  11.976  0.00  0.00     0.140 C 
ATOM      2  C15 ZIN A   1      20.617   0.108  11.415  0.00  0.00     0.048 C 
ATOM      3  C16 ZIN A   1      20.876  -1.281  10.771  0.00  0.00     0.009 C 
ATOM      4  C17 ZIN A   1      19.463  -1.779  10.449  0.00  0.00     0.005 C 
ATOM      5  C19 ZIN A   1      19.311  -3.281  10.292  0.00  0.00     0.037 C 
ATOM      6  C21 ZIN A   1      20.147  -3.767   9.107  0.00  0.00     0.050 C 
ATOM      7  C22 ZIN A   1      20.021  -5.289   8.975  0.00  0.00     0.201 C 
ATOM      8  F24 ZIN A   1      20.691  -5.721   7.825  0.00  0.00    -0.245 F 
ATOM      9  C25 ZIN A   1      18.547  -5.631   8.870  0.00  0.00    -0.027 A 
ATOM     10  C26 ZIN A   1      18.135  -6.399   7.871  0.00  0.00     0.061 A 
ATOM     11  C27 ZIN A   1      16.711  -6.736   7.724  0.00  0.00     0.172 A 
ATOM     12  O28 ZIN A   1      16.335  -7.473   6.832  0.00  0.00    -0.289 OA
ATOM     13  C29 ZIN A   1      15.751  -6.162   8.682  0.00  0.00     0.052 A 
ATOM     14  C30 ZIN A   1      16.185  -5.403   9.676  0.00  0.00    -0.006 A 
ATOM     15  C31 ZIN A   1      17.620  -5.081   9.914  0.00  0.00     0.039 A 
ATOM     16  C32 ZIN A   1      18.019  -5.689  11.260  0.00  0.00     0.028 C 
ATOM     17  C33 ZIN A   1      17.821  -3.570  10.051  0.00  0.00     0.147 C 
ATOM     18  F34 ZIN A   1      17.436  -2.945   8.860  0.00  0.00    -0.238 F 
ATOM     19  C35 ZIN A   1      16.939  -3.044  11.179  0.00  0.00     0.160 C 
ATOM     20  C38 ZIN A   1      17.190  -1.551  11.448  0.00  0.00     0.048 C 
ATOM     21  C39 ZIN A   1      18.681  -1.354  11.721  0.00  0.00     0.002 C 
ATOM     22  C40 ZIN A   1      19.128  -2.278  12.854  0.00  0.00     0.019 C 
ENDROOT
BRANCH   1  23
ATOM     23  O6  ZIN A   1      18.335   1.024  11.276  0.00  0.00    -0.301 OA
BRANCH  23  24
ATOM     24  C4  ZIN A   1      18.949   2.073  10.707  0.00  0.00     0.260 C 
ATOM     25  O5  ZIN A   1      19.652   2.795  11.374  0.00  0.00    -0.265 OA
BRANCH  24  26
ATOM     26  C3  ZIN A   1      18.761   2.352   9.239  0.00  0.00     0.111 C 
BRANCH  26  27
ATOM     27  C2  ZIN A   1      18.927   1.053   8.447  0.00  0.00     0.005 C 
ATOM     28  C1  ZIN A   1      18.967   1.369   6.951  0.00  0.00     0.005 C 
ENDBRANCH  26  27
ENDBRANCH  24  26
ENDBRANCH  23  24
ENDBRANCH   1  23
BRANCH   1  29
ATOM     29  C8  ZIN A   1      19.177   0.362  13.454  0.00  0.00     0.186 C 
ATOM     30  O9  ZIN A   1      20.223   0.437  14.052  0.00  0.00    -0.292 OA
BRANCH  29  31
ATOM     31  C10 ZIN A   1      17.874   0.561  14.185  0.00  0.00     0.260 C 
BRANCH  31  32
ATOM     32  O11 ZIN A   1      18.145   0.957  15.555  0.00  0.00    -0.314 OA
BRANCH  32  33
ATOM     33  C12 ZIN A   1      17.759   0.109  16.522  0.00  0.00     0.255 C 
ATOM     34  C13 ZIN A   1      17.913  -1.378  16.326  0.00  0.00     0.126 C 
ATOM     35  O14 ZIN A   1      17.286   0.537  17.549  0.00  0.00    -0.266 OA
ENDBRANCH  32  33
ENDBRANCH  31  32
ENDBRANCH  29  31
ENDBRANCH   1  29
BRANCH  19  36
ATOM     36  O37 ZIN A   1      17.216  -3.783  12.370  0.00  0.00    -0.392 OA
ATOM     37  H65 ZIN A   1      16.549  -3.678  13.063  0.00  0.00     0.210 HD
ENDBRANCH  19  36
TORSDOF 9
ENDMDL
MODEL 9
REMARK VINA RESULT:      -7.1      1.895      3.454
REMARK  9 active torsions:
REMARK  status: ('A' for Active; 'I' for Inactive)
REMARK    1  A    between atoms: C2_2  and  C3_3 
REMARK    2  A    between atoms: C3_3  and  C4_4 
REMARK    3  A    between atoms: C4_4  and  O6_6 
REMARK    4  A    between atoms: O6_6  and  C7_7 
REMARK    5  A    between atoms: C7_7  and  C8_8 
REMARK    6  A    between atoms: C8_8  and  C10_10 
REMARK    7  A    between atoms: C10_10  and  O11_11 
REMARK    8  A    between atoms: O11_11  and  C12_12 
REMARK    9  A    between atoms: C35_32  and  O37_33 
ROOT
ATOM      1  C7  ZIN A   1      18.344  -3.487   9.086  0.00  0.00     0.140 C 
ATOM      2  C15 ZIN A   1      17.258  -4.067  10.025  0.00  0.00     0.048 C 
ATOM      3  C16 ZIN A   1      17.253  -3.174  11.295  0.00  0.00     0.009 C 
ATOM      4  C17 ZIN A   1      17.836  -1.851  10.786  0.00  0.00     0.005 C 
ATOM      5  C19 ZIN A   1      18.442  -0.945  11.843  0.00  0.00     0.037 C 
ATOM      6  C21 ZIN A   1      17.362  -0.509  12.835  0.00  0.00     0.050 C 
ATOM      7  C22 ZIN A   1      17.986   0.374  13.922  0.00  0.00     0.201 C 
ATOM      8  F24 ZIN A   1      16.982   0.867  14.763  0.00  0.00    -0.245 F 
ATOM      9  C25 ZIN A   1      18.696   1.527  13.239  0.00  0.00    -0.027 A 
ATOM     10  C26 ZIN A   1      18.431   2.767  13.629  0.00  0.00     0.061 A 
ATOM     11  C27 ZIN A   1      19.084   3.912  12.977  0.00  0.00     0.172 A 
ATOM     12  O28 ZIN A   1      18.873   5.048  13.359  0.00  0.00    -0.289 OA
ATOM     13  C29 ZIN A   1      20.001   3.652  11.855  0.00  0.00     0.052 A 
ATOM     14  C30 ZIN A   1      20.256   2.407  11.486  0.00  0.00    -0.006 A 
ATOM     15  C31 ZIN A   1      19.676   1.206  12.150  0.00  0.00     0.039 A 
ATOM     16  C32 ZIN A   1      20.827   0.414  12.775  0.00  0.00     0.028 C 
ATOM     17  C33 ZIN A   1      19.029   0.277  11.119  0.00  0.00     0.147 C 
ATOM     18  F34 ZIN A   1      17.986   0.956  10.479  0.00  0.00    -0.238 F 
ATOM     19  C35 ZIN A   1      20.066  -0.114  10.070  0.00  0.00     0.160 C 
ATOM     20  C38 ZIN A   1      19.509  -1.146   9.077  0.00  0.00     0.048 C 
ATOM     21  C39 ZIN A   1      18.987  -2.345   9.869  0.00  0.00     0.002 C 
ATOM     22  C40 ZIN A   1      20.089  -2.885  10.781  0.00  0.00     0.019 C 
ENDROOT
BRANCH   1  23
ATOM     23  O6  ZIN A   1      17.738  -2.983   7.867  0.00  0.00    -0.301 OA
BRANCH  23  24
ATOM     24  C4  ZIN A   1      18.136  -3.539   6.712  0.00  0.00     0.260 C 
ATOM     25  O5  ZIN A   1      17.648  -4.582   6.345  0.00  0.00    -0.265 OA
BRANCH  24  26
ATOM     26  C3  ZIN A   1      19.191  -2.865   5.874  0.00  0.00     0.111 C 
BRANCH  26  27
ATOM     27  C2  ZIN A   1      18.650  -1.534   5.348  0.00  0.00     0.005 C 
ATOM     28  C1  ZIN A   1      17.494  -1.799   4.381  0.00  0.00     0.005 C 
ENDBRANCH  26  27
ENDBRANCH  24  26
ENDBRANCH  23  24
ENDBRANCH   1  23
BRANCH   1  29
ATOM     29  C8  ZIN A   1      19.373  -4.539   8.760  0.00  0.00     0.186 C 
ATOM     30  O9  ZIN A   1      20.356  -4.245   8.124  0.00  0.00    -0.292 OA
BRANCH  29  31
ATOM     31  C10 ZIN A   1      19.174  -5.957   9.230  0.00  0.00     0.260 C 
BRANCH  31  32
ATOM     32  O11 ZIN A   1      19.257  -6.858   8.094  0.00  0.00    -0.314 OA
BRANCH  32  33
ATOM     33  C12 ZIN A   1      18.112  -7.421   7.678  0.00  0.00     0.255 C 
ATOM     34  C13 ZIN A   1      16.852  -7.253   8.488  0.00  0.00     0.126 C 
ATOM     35  O14 ZIN A   1      18.091  -8.065   6.655  0.00  0.00    -0.266 OA
ENDBRANCH  32  33
ENDBRANCH  31  32
ENDBRANCH  29  31
ENDBRANCH   1  29
BRANCH  19  36
ATOM     36  O37 ZIN A   1      21.206  -0.671  10.728  0.00  0.00    -0.392 OA
ATOM     37  H65 ZIN A   1      20.994  -1.382  11.349  0.00  0.00     0.210 HD
ENDBRANCH  19  36
TORSDOF 9
ENDMDL
