MODEL 1
REMARK VINA RESULT:      -2.4      0.000      0.000
REMARK  3 active torsions:
REMARK  status: ('A' for Active; 'I' for Inactive)
REMARK    1  A    between atoms: N1_1  and  C5_5 
REMARK    2  A    between atoms: C5_5  and  C6_6 
REMARK    3  A    between atoms: C6_6  and  S7_7 
ROOT
ATOM      1  N1  <0> d   1      21.595   0.589  12.154  0.00  0.00    -0.079 N 
ATOM      2  H2  <0> d   1      22.044   0.156  12.947  0.00  0.00     0.274 HD
ATOM      3  H3  <0> d   1      21.925   1.539  12.059  0.00  0.00     0.274 HD
ATOM      4  H4  <0> d   1      21.819   0.071  11.317  0.00  0.00     0.274 HD
ENDROOT
BRANCH   1   5
ATOM      5  C5  <0> d   1      20.141   0.592  12.354  0.00  0.00     0.239 C 
BRANCH   5   6
ATOM      6  C6  <0> d   1      19.831   0.494  13.849  0.00  0.00     0.098 C 
BRANCH   6   7
ATOM      7  S7  <0> d   1      19.359  -1.209  14.258  0.00  0.00    -0.181 SA
ATOM      8  H12 <0> d   1      19.389  -1.217  15.603  0.00  0.00     0.101 HD
ENDBRANCH   6   7
ENDBRANCH   5   6
ENDBRANCH   1   5
TORSDOF 3
ENDMDL
MODEL 2
REMARK VINA RESULT:      -2.3      2.792      3.069
REMARK  3 active torsions:
REMARK  status: ('A' for Active; 'I' for Inactive)
REMARK    1  A    between atoms: N1_1  and  C5_5 
REMARK    2  A    between atoms: C5_5  and  C6_6 
REMARK    3  A    between atoms: C6_6  and  S7_7 
ROOT
ATOM      1  N1  <0> d   1      21.608   0.646  12.180  0.00  0.00    -0.079 N 
ATOM      2  H2  <0> d   1      22.229   0.254  11.487  0.00  0.00     0.274 HD
ATOM      3  H3  <0> d   1      21.839   0.272  13.088  0.00  0.00     0.274 HD
ATOM      4  H4  <0> d   1      21.711   1.650  12.194  0.00  0.00     0.274 HD
ENDROOT
BRANCH   1   5
ATOM      5  C5  <0> d   1      20.220   0.300  11.846  0.00  0.00     0.239 C 
BRANCH   5   6
ATOM      6  C6  <0> d   1      20.208  -0.884  10.877  0.00  0.00     0.098 C 
BRANCH   6   7
ATOM      7  S7  <0> d   1      19.783  -0.301   9.214  0.00  0.00    -0.181 SA
ATOM      8  H12 <0> d   1      18.480  -0.615   9.107  0.00  0.00     0.101 HD
ENDBRANCH   6   7
ENDBRANCH   5   6
ENDBRANCH   1   5
TORSDOF 3
ENDMDL
MODEL 3
REMARK VINA RESULT:      -2.3      2.988      3.107
REMARK  3 active torsions:
REMARK  status: ('A' for Active; 'I' for Inactive)
REMARK    1  A    between atoms: N1_1  and  C5_5 
REMARK    2  A    between atoms: C5_5  and  C6_6 
REMARK    3  A    between atoms: C6_6  and  S7_7 
ROOT
ATOM      1  N1  <0> d   1      21.588   0.606  12.149  0.00  0.00    -0.079 N 
ATOM      2  H2  <0> d   1      21.699   0.759  13.140  0.00  0.00     0.274 HD
ATOM      3  H3  <0> d   1      22.124   1.294  11.641  0.00  0.00     0.274 HD
ATOM      4  H4  <0> d   1      21.918  -0.318  11.912  0.00  0.00     0.274 HD
ENDROOT
BRANCH   1   5
ATOM      5  C5  <0> d   1      20.170   0.727  11.789  0.00  0.00     0.239 C 
BRANCH   5   6
ATOM      6  C6  <0> d   1      19.776   2.205  11.757  0.00  0.00     0.098 C 
BRANCH   6   7
ATOM      7  S7  <0> d   1      18.929   2.571  10.196  0.00  0.00    -0.181 SA
ATOM      8  H12 <0> d   1      17.877   3.313  10.588  0.00  0.00     0.101 HD
ENDBRANCH   6   7
ENDBRANCH   5   6
ENDBRANCH   1   5
TORSDOF 3
ENDMDL
MODEL 4
REMARK VINA RESULT:      -2.2      2.639      2.639
REMARK  3 active torsions:
REMARK  status: ('A' for Active; 'I' for Inactive)
REMARK    1  A    between atoms: N1_1  and  C5_5 
REMARK    2  A    between atoms: C5_5  and  C6_6 
REMARK    3  A    between atoms: C6_6  and  S7_7 
ROOT
ATOM      1  N1  <0> d   1      21.564  -0.609  10.944  0.00  0.00    -0.079 N 
ATOM      2  H2  <0> d   1      21.978  -0.031  10.228  0.00  0.00     0.274 HD
ATOM      3  H3  <0> d   1      21.959  -1.537  10.895  0.00  0.00     0.274 HD
ATOM      4  H4  <0> d   1      21.756  -0.210  11.850  0.00  0.00     0.274 HD
ENDROOT
BRANCH   1   5
ATOM      5  C5  <0> d   1      20.113  -0.682  10.737  0.00  0.00     0.239 C 
BRANCH   5   6
ATOM      6  C6  <0> d   1      19.486  -1.558  11.824  0.00  0.00     0.098 C 
BRANCH   6   7
ATOM      7  S7  <0> d   1      19.861  -3.300  11.489  0.00  0.00    -0.181 SA
ATOM      8  H12 <0> d   1      20.006  -3.821  12.720  0.00  0.00     0.101 HD
ENDBRANCH   6   7
ENDBRANCH   5   6
ENDBRANCH   1   5
TORSDOF 3
ENDMDL
MODEL 5
REMARK VINA RESULT:      -1.9      2.639      2.847
REMARK  3 active torsions:
REMARK  status: ('A' for Active; 'I' for Inactive)
REMARK    1  A    between atoms: N1_1  and  C5_5 
REMARK    2  A    between atoms: C5_5  and  C6_6 
REMARK    3  A    between atoms: C6_6  and  S7_7 
ROOT
ATOM      1  N1  <0> d   1      20.895   3.188  11.654  0.00  0.00    -0.079 N 
ATOM      2  H2  <0> d   1      21.351   3.929  11.143  0.00  0.00     0.274 HD
ATOM      3  H3  <0> d   1      21.430   2.337  11.562  0.00  0.00     0.274 HD
ATOM      4  H4  <0> d   1      20.833   3.441  12.630  0.00  0.00     0.274 HD
ENDROOT
BRANCH   1   5
ATOM      5  C5  <0> d   1      19.545   2.979  11.116  0.00  0.00     0.239 C 
BRANCH   5   6
ATOM      6  C6  <0> d   1      19.174   1.498  11.227  0.00  0.00     0.098 C 
BRANCH   6   7
ATOM      7  S7  <0> d   1      20.466   0.619  12.147  0.00  0.00    -0.181 SA
ATOM      8  H12 <0> d   1      21.447   0.482  11.236  0.00  0.00     0.101 HD
ENDBRANCH   6   7
ENDBRANCH   5   6
ENDBRANCH   1   5
TORSDOF 3
ENDMDL
MODEL 6
REMARK VINA RESULT:      -1.9      4.084      4.177
REMARK  3 active torsions:
REMARK  status: ('A' for Active; 'I' for Inactive)
REMARK    1  A    between atoms: N1_1  and  C5_5 
REMARK    2  A    between atoms: C5_5  and  C6_6 
REMARK    3  A    between atoms: C6_6  and  S7_7 
ROOT
ATOM      1  N1  <0> d   1      20.838   3.264  11.654  0.00  0.00    -0.079 N 
ATOM      2  H2  <0> d   1      21.456   2.891  12.358  0.00  0.00     0.274 HD
ATOM      3  H3  <0> d   1      20.543   4.191  11.922  0.00  0.00     0.274 HD
ATOM      4  H4  <0> d   1      21.324   3.309  10.770  0.00  0.00     0.274 HD
ENDROOT
BRANCH   1   5
ATOM      5  C5  <0> d   1      19.662   2.395  11.523  0.00  0.00     0.239 C 
BRANCH   5   6
ATOM      6  C6  <0> d   1      18.405   3.173  11.921  0.00  0.00     0.098 C 
BRANCH   6   7
ATOM      7  S7  <0> d   1      17.772   4.075  10.481  0.00  0.00    -0.181 SA
ATOM      8  H12 <0> d   1      16.698   4.717  10.975  0.00  0.00     0.101 HD
ENDBRANCH   6   7
ENDBRANCH   5   6
ENDBRANCH   1   5
TORSDOF 3
ENDMDL
MODEL 7
REMARK VINA RESULT:      -1.8      5.725      5.812
REMARK  3 active torsions:
REMARK  status: ('A' for Active; 'I' for Inactive)
REMARK    1  A    between atoms: N1_1  and  C5_5 
REMARK    2  A    between atoms: C5_5  and  C6_6 
REMARK    3  A    between atoms: C6_6  and  S7_7 
ROOT
ATOM      1  N1  <0> d   1      17.333   5.396   9.817  0.00  0.00    -0.079 N 
ATOM      2  H2  <0> d   1      16.535   5.691   9.274  0.00  0.00     0.274 HD
ATOM      3  H3  <0> d   1      17.794   4.630   9.348  0.00  0.00     0.274 HD
ATOM      4  H4  <0> d   1      17.977   6.167   9.914  0.00  0.00     0.274 HD
ENDROOT
BRANCH   1   5
ATOM      5  C5  <0> d   1      16.888   4.959  11.146  0.00  0.00     0.239 C 
BRANCH   5   6
ATOM      6  C6  <0> d   1      17.449   3.566  11.441  0.00  0.00     0.098 C 
BRANCH   6   7
ATOM      7  S7  <0> d   1      18.506   3.038  10.065  0.00  0.00    -0.181 SA
ATOM      8  H12 <0> d   1      18.795   4.195   9.444  0.00  0.00     0.101 HD
ENDBRANCH   6   7
ENDBRANCH   5   6
ENDBRANCH   1   5
TORSDOF 3
ENDMDL
MODEL 8
REMARK VINA RESULT:      -1.8      8.050      8.375
REMARK  3 active torsions:
REMARK  status: ('A' for Active; 'I' for Inactive)
REMARK    1  A    between atoms: N1_1  and  C5_5 
REMARK    2  A    between atoms: C5_5  and  C6_6 
REMARK    3  A    between atoms: C6_6  and  S7_7 
ROOT
ATOM      1  N1  <0> d   1      16.887  -0.312   6.197  0.00  0.00    -0.079 N 
ATOM      2  H2  <0> d   1      16.822  -0.630   7.152  0.00  0.00     0.274 HD
ATOM      3  H3  <0> d   1      16.808  -1.103   5.574  0.00  0.00     0.274 HD
ATOM      4  H4  <0> d   1      16.140   0.340   6.008  0.00  0.00     0.274 HD
ENDROOT
BRANCH   1   5
ATOM      5  C5  <0> d   1      18.181   0.350   5.986  0.00  0.00     0.239 C 
BRANCH   5   6
ATOM      6  C6  <0> d   1      18.787  -0.122   4.663  0.00  0.00     0.098 C 
BRANCH   6   7
ATOM      7  S7  <0> d   1      19.020  -1.920   4.712  0.00  0.00    -0.181 SA
ATOM      8  H12 <0> d   1      20.118  -2.104   3.957  0.00  0.00     0.101 HD
ENDBRANCH   6   7
ENDBRANCH   5   6
ENDBRANCH   1   5
TORSDOF 3
ENDMDL
MODEL 9
REMARK VINA RESULT:      -1.7      3.915      4.142
REMARK  3 active torsions:
REMARK  status: ('A' for Active; 'I' for Inactive)
REMARK    1  A    between atoms: N1_1  and  C5_5 
REMARK    2  A    between atoms: C5_5  and  C6_6 
REMARK    3  A    between atoms: C6_6  and  S7_7 
ROOT
ATOM      1  N1  <0> d   1      17.395   1.037  15.269  0.00  0.00    -0.079 N 
ATOM      2  H2  <0> d   1      17.191   0.270  14.646  0.00  0.00     0.274 HD
ATOM      3  H3  <0> d   1      17.114   1.905  14.838  0.00  0.00     0.274 HD
ATOM      4  H4  <0> d   1      16.887   0.911  16.133  0.00  0.00     0.274 HD
ENDROOT
BRANCH   1   5
ATOM      5  C5  <0> d   1      18.835   1.073  15.549  0.00  0.00     0.239 C 
BRANCH   5   6
ATOM      6  C6  <0> d   1      19.069   1.649  16.948  0.00  0.00     0.098 C 
BRANCH   6   7
ATOM      7  S7  <0> d   1      19.200   0.295  18.146  0.00  0.00    -0.181 SA
ATOM      8  H12 <0> d   1      20.522   0.048  18.181  0.00  0.00     0.101 HD
ENDBRANCH   6   7
ENDBRANCH   5   6
ENDBRANCH   1   5
TORSDOF 3
ENDMDL
