MODEL 1
REMARK VINA RESULT:      -7.0      0.000      0.000
REMARK  3 active torsions:
REMARK  status: ('A' for Active; 'I' for Inactive)
REMARK    1  A    between atoms: C2_2  and  C3_3 
REMARK    2  A    between atoms: C11_11  and  C13_12 
REMARK    3  A    between atoms: C13_12  and  N14_13 
ROOT
ATOM      1  C3  ZIN A   1      18.283  -1.302  10.606  0.00  0.00    -0.021 A 
ATOM      2  C4  ZIN A   1      19.009  -2.046   9.748  0.00  0.00     0.012 A 
ATOM      3  C5  ZIN A   1      19.140  -3.547   9.789  0.00  0.00     0.068 C 
ATOM      4  N6  ZIN A   1      19.608  -1.224   8.832  0.00  0.00    -0.362 N 
ATOM      5  C7  ZIN A   1      19.288   0.051   9.070  0.00  0.00     0.024 A 
ATOM      6  C8  ZIN A   1      18.448   0.076  10.177  0.00  0.00     0.041 A 
ATOM      7  C9  ZIN A   1      17.911   1.329  10.717  0.00  0.00     0.167 C 
ATOM      8  O10 ZIN A   1      17.027   1.354  11.549  0.00  0.00    -0.292 OA
ATOM      9  C11 ZIN A   1      18.542   2.596  10.158  0.00  0.00     0.087 C 
ATOM     10  C21 ZIN A   1      18.713   2.424   8.645  0.00  0.00     0.020 C 
ATOM     11  C22 ZIN A   1      19.701   1.299   8.333  0.00  0.00     0.059 C 
ATOM     12  H31 ZIN A   1      20.184  -1.524   8.111  0.00  0.00     0.165 HD
ENDROOT
BRANCH   9  13
ATOM     13  C13 ZIN A   1      17.633   3.793  10.442  0.00  0.00     0.247 C 
BRANCH  13  14
ATOM     14  N14 ZIN A   1      17.655   4.094  11.880  0.00  0.00    -0.066 N 
ATOM     15  H15 ZIN A   1      17.425   3.262  12.401  0.00  0.00     0.280 HD
ATOM     16  C20 ZIN A   1      18.996   4.558  12.263  0.00  0.00     0.261 C 
ATOM     17  C19 ZIN A   1      19.016   4.870  13.762  0.00  0.00     0.195 C 
ATOM     18  O18 ZIN A   1      18.018   5.853  14.051  0.00  0.00    -0.388 OA
ATOM     19  C17 ZIN A   1      16.696   5.456  13.674  0.00  0.00     0.195 C 
ATOM     20  C16 ZIN A   1      16.671   5.146  12.175  0.00  0.00     0.261 C 
ENDBRANCH  13  14
ENDBRANCH   9  13
BRANCH   1  21
ATOM     21  C2  ZIN A   1      17.462  -1.798  11.769  0.00  0.00     0.037 C 
ATOM     22  C1  ZIN A   1      18.268  -1.654  13.061  0.00  0.00     0.010 C 
ENDBRANCH   1  21
TORSDOF 3
ENDMDL
MODEL 2
REMARK VINA RESULT:      -6.9      2.565      7.233
REMARK  3 active torsions:
REMARK  status: ('A' for Active; 'I' for Inactive)
REMARK    1  A    between atoms: C2_2  and  C3_3 
REMARK    2  A    between atoms: C11_11  and  C13_12 
REMARK    3  A    between atoms: C13_12  and  N14_13 
ROOT
ATOM      1  C3  ZIN A   1      18.700   1.920  11.374  0.00  0.00    -0.021 A 
ATOM      2  C4  ZIN A   1      19.288   2.716  12.290  0.00  0.00     0.012 A 
ATOM      3  C5  ZIN A   1      19.471   4.207  12.163  0.00  0.00     0.068 C 
ATOM      4  N6  ZIN A   1      19.694   1.956  13.354  0.00  0.00    -0.362 N 
ATOM      5  C7  ZIN A   1      19.381   0.672  13.156  0.00  0.00     0.024 A 
ATOM      6  C8  ZIN A   1      18.746   0.577  11.923  0.00  0.00     0.041 A 
ATOM      7  C9  ZIN A   1      18.272  -0.704  11.390  0.00  0.00     0.167 C 
ATOM      8  O10 ZIN A   1      17.545  -0.777  10.421  0.00  0.00    -0.292 OA
ATOM      9  C11 ZIN A   1      18.758  -1.935  12.141  0.00  0.00     0.087 C 
ATOM     10  C21 ZIN A   1      18.668  -1.651  13.645  0.00  0.00     0.020 C 
ATOM     11  C22 ZIN A   1      19.622  -0.523  14.043  0.00  0.00     0.059 C 
ATOM     12  H31 ZIN A   1      20.145   2.300  14.140  0.00  0.00     0.165 HD
ENDROOT
BRANCH   9  13
ATOM     13  C13 ZIN A   1      17.875  -3.135  11.790  0.00  0.00     0.247 C 
BRANCH  13  14
ATOM     14  N14 ZIN A   1      18.330  -3.722  10.522  0.00  0.00    -0.066 N 
ATOM     15  H15 ZIN A   1      18.672  -2.991   9.917  0.00  0.00     0.280 HD
ATOM     16  C20 ZIN A   1      19.408  -4.685  10.787  0.00  0.00     0.261 C 
ATOM     17  C19 ZIN A   1      19.880  -5.294   9.464  0.00  0.00     0.195 C 
ATOM     18  O18 ZIN A   1      18.770  -5.915   8.810  0.00  0.00    -0.388 OA
ATOM     19  C17 ZIN A   1      17.684  -5.022   8.551  0.00  0.00     0.195 C 
ATOM     20  C16 ZIN A   1      17.207  -4.411   9.872  0.00  0.00     0.261 C 
ENDBRANCH  13  14
ENDBRANCH   9  13
BRANCH   1  21
ATOM     21  C2  ZIN A   1      18.109   2.340  10.052  0.00  0.00     0.037 C 
ATOM     22  C1  ZIN A   1      19.113   2.059   8.932  0.00  0.00     0.010 C 
ENDBRANCH   1  21
TORSDOF 3
ENDMDL
MODEL 3
REMARK VINA RESULT:      -6.7      2.919      6.812
REMARK  3 active torsions:
REMARK  status: ('A' for Active; 'I' for Inactive)
REMARK    1  A    between atoms: C2_2  and  C3_3 
REMARK    2  A    between atoms: C11_11  and  C13_12 
REMARK    3  A    between atoms: C13_12  and  N14_13 
ROOT
ATOM      1  C3  ZIN A   1      18.595   2.582  11.082  0.00  0.00    -0.021 A 
ATOM      2  C4  ZIN A   1      19.570   2.860  11.971  0.00  0.00     0.012 A 
ATOM      3  C5  ZIN A   1      19.672   4.121  12.790  0.00  0.00     0.068 C 
ATOM      4  N6  ZIN A   1      20.454   1.815  12.012  0.00  0.00    -0.362 N 
ATOM      5  C7  ZIN A   1      20.077   0.852  11.167  0.00  0.00     0.024 A 
ATOM      6  C8  ZIN A   1      18.905   1.269  10.547  0.00  0.00     0.041 A 
ATOM      7  C9  ZIN A   1      18.220   0.445   9.546  0.00  0.00     0.167 C 
ATOM      8  O10 ZIN A   1      17.102   0.700   9.147  0.00  0.00    -0.292 OA
ATOM      9  C11 ZIN A   1      19.012  -0.754   9.045  0.00  0.00     0.087 C 
ATOM     10  C21 ZIN A   1      19.696  -1.417  10.246  0.00  0.00     0.020 C 
ATOM     11  C22 ZIN A   1      20.727  -0.476  10.873  0.00  0.00     0.059 C 
ATOM     12  H31 ZIN A   1      21.243   1.779  12.576  0.00  0.00     0.165 HD
ENDROOT
BRANCH   9  13
ATOM     13  C13 ZIN A   1      18.066  -1.753   8.374  0.00  0.00     0.247 C 
BRANCH  13  14
ATOM     14  N14 ZIN A   1      18.205  -1.654   6.915  0.00  0.00    -0.066 N 
ATOM     15  H15 ZIN A   1      17.302  -1.475   6.503  0.00  0.00     0.280 HD
ATOM     16  C20 ZIN A   1      19.123  -0.555   6.584  0.00  0.00     0.261 C 
ATOM     17  C19 ZIN A   1      19.265  -0.454   5.063  0.00  0.00     0.195 C 
ATOM     18  O18 ZIN A   1      19.735  -1.703   4.550  0.00  0.00    -0.388 OA
ATOM     19  C17 ZIN A   1      18.886  -2.810   4.867  0.00  0.00     0.195 C 
ATOM     20  C16 ZIN A   1      18.743  -2.916   6.388  0.00  0.00     0.261 C 
ENDBRANCH  13  14
ENDBRANCH   9  13
BRANCH   1  21
ATOM     21  C2  ZIN A   1      17.419   3.454  10.722  0.00  0.00     0.037 C 
ATOM     22  C1  ZIN A   1      17.869   4.536   9.738  0.00  0.00     0.010 C 
ENDBRANCH   1  21
TORSDOF 3
ENDMDL
MODEL 4
REMARK VINA RESULT:      -6.6      2.841      4.786
REMARK  3 active torsions:
REMARK  status: ('A' for Active; 'I' for Inactive)
REMARK    1  A    between atoms: C2_2  and  C3_3 
REMARK    2  A    between atoms: C11_11  and  C13_12 
REMARK    3  A    between atoms: C13_12  and  N14_13 
ROOT
ATOM      1  C3  ZIN A   1      18.668   0.689   9.376  0.00  0.00    -0.021 A 
ATOM      2  C4  ZIN A   1      18.201   0.010   8.309  0.00  0.00     0.012 A 
ATOM      3  C5  ZIN A   1      18.165   0.526   6.893  0.00  0.00     0.068 C 
ATOM      4  N6  ZIN A   1      17.764  -1.223   8.714  0.00  0.00    -0.362 N 
ATOM      5  C7  ZIN A   1      17.937  -1.369  10.031  0.00  0.00     0.024 A 
ATOM      6  C8  ZIN A   1      18.509  -0.198  10.514  0.00  0.00     0.041 A 
ATOM      7  C9  ZIN A   1      18.829  -0.019  11.934  0.00  0.00     0.167 C 
ATOM      8  O10 ZIN A   1      19.505   0.905  12.338  0.00  0.00    -0.292 OA
ATOM      9  C11 ZIN A   1      18.252  -1.076  12.864  0.00  0.00     0.087 C 
ATOM     10  C21 ZIN A   1      18.431  -2.449  12.206  0.00  0.00     0.020 C 
ATOM     11  C22 ZIN A   1      17.613  -2.545  10.917  0.00  0.00     0.059 C 
ATOM     12  H31 ZIN A   1      17.382  -1.895   8.128  0.00  0.00     0.165 HD
ENDROOT
BRANCH   9  13
ATOM     13  C13 ZIN A   1      18.994  -1.045  14.203  0.00  0.00     0.247 C 
BRANCH  13  14
ATOM     14  N14 ZIN A   1      18.266  -0.186  15.146  0.00  0.00    -0.066 N 
ATOM     15  H15 ZIN A   1      17.531   0.303  14.657  0.00  0.00     0.280 HD
ATOM     16  C20 ZIN A   1      17.682  -1.012  16.211  0.00  0.00     0.261 C 
ATOM     17  C19 ZIN A   1      16.923  -0.114  17.192  0.00  0.00     0.195 C 
ATOM     18  O18 ZIN A   1      17.819   0.867  17.720  0.00  0.00    -0.388 OA
ATOM     19  C17 ZIN A   1      18.433   1.683  16.718  0.00  0.00     0.195 C 
ATOM     20  C16 ZIN A   1      19.195   0.789  15.736  0.00  0.00     0.261 C 
ENDBRANCH  13  14
ENDBRANCH   9  13
BRANCH   1  21
ATOM     21  C2  ZIN A   1      19.245   2.081   9.385  0.00  0.00     0.037 C 
ATOM     22  C1  ZIN A   1      18.201   3.062   9.923  0.00  0.00     0.010 C 
ENDBRANCH   1  21
TORSDOF 3
ENDMDL
MODEL 5
REMARK VINA RESULT:      -6.6      3.115      4.543
REMARK  3 active torsions:
REMARK  status: ('A' for Active; 'I' for Inactive)
REMARK    1  A    between atoms: C2_2  and  C3_3 
REMARK    2  A    between atoms: C11_11  and  C13_12 
REMARK    3  A    between atoms: C13_12  and  N14_13 
ROOT
ATOM      1  C3  ZIN A   1      18.188   0.721   9.304  0.00  0.00    -0.021 A 
ATOM      2  C4  ZIN A   1      18.909   1.455   8.433  0.00  0.00     0.012 A 
ATOM      3  C5  ZIN A   1      18.946   1.251   6.940  0.00  0.00     0.068 C 
ATOM      4  N6  ZIN A   1      19.603   2.416   9.118  0.00  0.00    -0.362 N 
ATOM      5  C7  ZIN A   1      19.350   2.329  10.427  0.00  0.00     0.024 A 
ATOM      6  C8  ZIN A   1      18.458   1.280  10.616  0.00  0.00     0.041 A 
ATOM      7  C9  ZIN A   1      17.972   0.904  11.948  0.00  0.00     0.167 C 
ATOM      8  O10 ZIN A   1      17.050   0.131  12.110  0.00  0.00    -0.292 OA
ATOM      9  C11 ZIN A   1      18.707   1.554  13.111  0.00  0.00     0.087 C 
ATOM     10  C21 ZIN A   1      18.943   3.030  12.769  0.00  0.00     0.020 C 
ATOM     11  C22 ZIN A   1      19.875   3.167  11.564  0.00  0.00     0.059 C 
ATOM     12  H31 ZIN A   1      20.195   3.067   8.711  0.00  0.00     0.165 HD
ENDROOT
BRANCH   9  13
ATOM     13  C13 ZIN A   1      17.860   1.448  14.381  0.00  0.00     0.247 C 
BRANCH  13  14
ATOM     14  N14 ZIN A   1      18.640   0.788  15.436  0.00  0.00    -0.066 N 
ATOM     15  H15 ZIN A   1      19.613   0.761  15.168  0.00  0.00     0.280 HD
ATOM     16  C20 ZIN A   1      18.498   1.536  16.692  0.00  0.00     0.261 C 
ATOM     17  C19 ZIN A   1      19.312   0.845  17.789  0.00  0.00     0.195 C 
ATOM     18  O18 ZIN A   1      18.864  -0.505  17.929  0.00  0.00    -0.388 OA
ATOM     19  C17 ZIN A   1      18.962  -1.269  16.723  0.00  0.00     0.195 C 
ATOM     20  C16 ZIN A   1      18.146  -0.584  15.624  0.00  0.00     0.261 C 
ENDBRANCH  13  14
ENDBRANCH   9  13
BRANCH   1  21
ATOM     21  C2  ZIN A   1      17.280  -0.438   8.981  0.00  0.00     0.037 C 
ATOM     22  C1  ZIN A   1      18.055  -1.750   9.130  0.00  0.00     0.010 C 
ENDBRANCH   1  21
TORSDOF 3
ENDMDL
MODEL 6
REMARK VINA RESULT:      -6.5      2.702      6.078
REMARK  3 active torsions:
REMARK  status: ('A' for Active; 'I' for Inactive)
REMARK    1  A    between atoms: C2_2  and  C3_3 
REMARK    2  A    between atoms: C11_11  and  C13_12 
REMARK    3  A    between atoms: C13_12  and  N14_13 
ROOT
ATOM      1  C3  ZIN A   1      19.163   1.263  13.478  0.00  0.00    -0.021 A 
ATOM      2  C4  ZIN A   1      18.592   2.188  14.276  0.00  0.00     0.012 A 
ATOM      3  C5  ZIN A   1      18.630   2.184  15.783  0.00  0.00     0.068 C 
ATOM      4  N6  ZIN A   1      17.973   3.132  13.502  0.00  0.00    -0.362 N 
ATOM      5  C7  ZIN A   1      18.127   2.847  12.206  0.00  0.00     0.024 A 
ATOM      6  C8  ZIN A   1      18.874   1.678  12.117  0.00  0.00     0.041 A 
ATOM      7  C9  ZIN A   1      19.224   1.077  10.827  0.00  0.00     0.167 C 
ATOM      8  O10 ZIN A   1      20.035   0.179  10.725  0.00  0.00    -0.292 OA
ATOM      9  C11 ZIN A   1      18.495   1.659   9.624  0.00  0.00     0.087 C 
ATOM     10  C21 ZIN A   1      18.458   3.184   9.774  0.00  0.00     0.020 C 
ATOM     11  C22 ZIN A   1      17.630   3.592  10.993  0.00  0.00     0.059 C 
ATOM     12  H31 ZIN A   1      17.490   3.900  13.846  0.00  0.00     0.165 HD
ENDROOT
BRANCH   9  13
ATOM     13  C13 ZIN A   1      19.238   1.284   8.340  0.00  0.00     0.247 C 
BRANCH  13  14
ATOM     14  N14 ZIN A   1      18.515   0.205   7.654  0.00  0.00    -0.066 N 
ATOM     15  H15 ZIN A   1      17.621   0.064   8.098  0.00  0.00     0.280 HD
ATOM     16  C20 ZIN A   1      18.312   0.569   6.245  0.00  0.00     0.261 C 
ATOM     17  C19 ZIN A   1      17.558  -0.557   5.533  0.00  0.00     0.195 C 
ATOM     18  O18 ZIN A   1      18.301  -1.773   5.659  0.00  0.00    -0.388 OA
ATOM     19  C17 ZIN A   1      18.545  -2.158   7.015  0.00  0.00     0.195 C 
ATOM     20  C16 ZIN A   1      19.301  -1.035   7.730  0.00  0.00     0.261 C 
ENDBRANCH  13  14
ENDBRANCH   9  13
BRANCH   1  21
ATOM     21  C2  ZIN A   1      19.946   0.050  13.910  0.00  0.00     0.037 C 
ATOM     22  C1  ZIN A   1      19.007  -1.154  14.010  0.00  0.00     0.010 C 
ENDBRANCH   1  21
TORSDOF 3
ENDMDL
MODEL 7
REMARK VINA RESULT:      -6.5      3.024      4.476
REMARK  3 active torsions:
REMARK  status: ('A' for Active; 'I' for Inactive)
REMARK    1  A    between atoms: C2_2  and  C3_3 
REMARK    2  A    between atoms: C11_11  and  C13_12 
REMARK    3  A    between atoms: C13_12  and  N14_13 
ROOT
ATOM      1  C3  ZIN A   1      18.552  -0.589   7.107  0.00  0.00    -0.021 A 
ATOM      2  C4  ZIN A   1      18.969   0.312   6.194  0.00  0.00     0.012 A 
ATOM      3  C5  ZIN A   1      19.242   0.020   4.741  0.00  0.00     0.068 C 
ATOM      4  N6  ZIN A   1      19.106   1.534   6.796  0.00  0.00    -0.362 N 
ATOM      5  C7  ZIN A   1      18.784   1.456   8.090  0.00  0.00     0.024 A 
ATOM      6  C8  ZIN A   1      18.420   0.140   8.355  0.00  0.00     0.041 A 
ATOM      7  C9  ZIN A   1      18.011  -0.297   9.694  0.00  0.00     0.167 C 
ATOM      8  O10 ZIN A   1      17.504  -1.381   9.898  0.00  0.00    -0.292 OA
ATOM      9  C11 ZIN A   1      18.271   0.706  10.809  0.00  0.00     0.087 C 
ATOM     10  C21 ZIN A   1      17.879   2.099  10.306  0.00  0.00     0.020 C 
ATOM     11  C22 ZIN A   1      18.777   2.532   9.145  0.00  0.00     0.059 C 
ATOM     12  H31 ZIN A   1      19.396   2.343   6.346  0.00  0.00     0.165 HD
ENDROOT
BRANCH   9  13
ATOM     13  C13 ZIN A   1      17.429   0.344  12.034  0.00  0.00     0.247 C 
BRANCH  13  14
ATOM     14  N14 ZIN A   1      18.306   0.197  13.204  0.00  0.00    -0.066 N 
ATOM     15  H15 ZIN A   1      19.151   0.729  13.060  0.00  0.00     0.280 HD
ATOM     16  C20 ZIN A   1      17.612   0.691  14.402  0.00  0.00     0.261 C 
ATOM     17  C19 ZIN A   1      18.529   0.537  15.618  0.00  0.00     0.195 C 
ATOM     18  O18 ZIN A   1      18.901  -0.837  15.756  0.00  0.00    -0.388 OA
ATOM     19  C17 ZIN A   1      19.559  -1.371  14.605  0.00  0.00     0.195 C 
ATOM     20  C16 ZIN A   1      18.645  -1.222  13.385  0.00  0.00     0.261 C 
ENDBRANCH  13  14
ENDBRANCH   9  13
BRANCH   1  21
ATOM     21  C2  ZIN A   1      18.274  -2.052   6.877  0.00  0.00     0.037 C 
ATOM     22  C1  ZIN A   1      19.538  -2.864   7.168  0.00  0.00     0.010 C 
ENDBRANCH   1  21
TORSDOF 3
ENDMDL
MODEL 8
REMARK VINA RESULT:      -6.4      2.531      7.072
REMARK  3 active torsions:
REMARK  status: ('A' for Active; 'I' for Inactive)
REMARK    1  A    between atoms: C2_2  and  C3_3 
REMARK    2  A    between atoms: C11_11  and  C13_12 
REMARK    3  A    between atoms: C13_12  and  N14_13 
ROOT
ATOM      1  C3  ZIN A   1      18.404   3.729  12.656  0.00  0.00    -0.021 A 
ATOM      2  C4  ZIN A   1      18.954   4.285  13.754  0.00  0.00     0.012 A 
ATOM      3  C5  ZIN A   1      19.198   5.759  13.958  0.00  0.00     0.068 C 
ATOM      4  N6  ZIN A   1      19.258   3.300  14.655  0.00  0.00    -0.362 N 
ATOM      5  C7  ZIN A   1      18.915   2.103  14.171  0.00  0.00     0.024 A 
ATOM      6  C8  ZIN A   1      18.364   2.300  12.910  0.00  0.00     0.041 A 
ATOM      7  C9  ZIN A   1      17.883   1.184  12.090  0.00  0.00     0.167 C 
ATOM      8  O10 ZIN A   1      17.224   1.351  11.084  0.00  0.00    -0.292 OA
ATOM      9  C11 ZIN A   1      18.272  -0.200  12.591  0.00  0.00     0.087 C 
ATOM     10  C21 ZIN A   1      18.088  -0.232  14.112  0.00  0.00     0.020 C 
ATOM     11  C22 ZIN A   1      19.050   0.739  14.798  0.00  0.00     0.059 C 
ATOM     12  H31 ZIN A   1      19.665   3.450  15.523  0.00  0.00     0.165 HD
ENDROOT
BRANCH   9  13
ATOM     13  C13 ZIN A   1      17.374  -1.254  11.940  0.00  0.00     0.247 C 
BRANCH  13  14
ATOM     14  N14 ZIN A   1      18.080  -2.542  11.903  0.00  0.00    -0.066 N 
ATOM     15  H15 ZIN A   1      18.049  -2.969  12.817  0.00  0.00     0.280 HD
ATOM     16  C20 ZIN A   1      17.435  -3.428  10.925  0.00  0.00     0.261 C 
ATOM     17  C19 ZIN A   1      18.173  -4.769  10.889  0.00  0.00     0.195 C 
ATOM     18  O18 ZIN A   1      19.547  -4.541  10.565  0.00  0.00    -0.388 OA
ATOM     19  C17 ZIN A   1      20.214  -3.665  11.478  0.00  0.00     0.195 C 
ATOM     20  C16 ZIN A   1      19.481  -2.321  11.514  0.00  0.00     0.261 C 
ENDBRANCH  13  14
ENDBRANCH   9  13
BRANCH   1  21
ATOM     21  C2  ZIN A   1      17.921   4.444  11.420  0.00  0.00     0.037 C 
ATOM     22  C1  ZIN A   1      16.521   5.007  11.671  0.00  0.00     0.010 C 
ENDBRANCH   1  21
TORSDOF 3
ENDMDL
MODEL 9
REMARK VINA RESULT:      -6.3      4.491      8.356
REMARK  3 active torsions:
REMARK  status: ('A' for Active; 'I' for Inactive)
REMARK    1  A    between atoms: C2_2  and  C3_3 
REMARK    2  A    between atoms: C11_11  and  C13_12 
REMARK    3  A    between atoms: C13_12  and  N14_13 
ROOT
ATOM      1  C3  ZIN A   1      18.687   0.149   8.696  0.00  0.00    -0.021 A 
ATOM      2  C4  ZIN A   1      18.890   1.458   8.446  0.00  0.00     0.012 A 
ATOM      3  C5  ZIN A   1      18.969   2.544   9.489  0.00  0.00     0.068 C 
ATOM      4  N6  ZIN A   1      19.013   1.645   7.096  0.00  0.00    -0.362 N 
ATOM      5  C7  ZIN A   1      18.897   0.482   6.450  0.00  0.00     0.024 A 
ATOM      6  C8  ZIN A   1      18.693  -0.510   7.403  0.00  0.00     0.041 A 
ATOM      7  C9  ZIN A   1      18.518  -1.918   7.032  0.00  0.00     0.167 C 
ATOM      8  O10 ZIN A   1      18.539  -2.815   7.851  0.00  0.00    -0.292 OA
ATOM      9  C11 ZIN A   1      18.306  -2.174   5.547  0.00  0.00     0.087 C 
ATOM     10  C21 ZIN A   1      19.281  -1.291   4.761  0.00  0.00     0.020 C 
ATOM     11  C22 ZIN A   1      18.966   0.191   4.973  0.00  0.00     0.059 C 
ATOM     12  H31 ZIN A   1      19.163   2.503   6.667  0.00  0.00     0.165 HD
ENDROOT
BRANCH   9  13
ATOM     13  C13 ZIN A   1      18.577  -3.647   5.234  0.00  0.00     0.247 C 
BRANCH  13  14
ATOM     14  N14 ZIN A   1      17.366  -4.434   5.502  0.00  0.00    -0.066 N 
ATOM     15  H15 ZIN A   1      16.770  -3.928   6.140  0.00  0.00     0.280 HD
ATOM     16  C20 ZIN A   1      16.647  -4.674   4.243  0.00  0.00     0.261 C 
ATOM     17  C19 ZIN A   1      15.386  -5.495   4.527  0.00  0.00     0.195 C 
ATOM     18  O18 ZIN A   1      15.756  -6.721   5.162  0.00  0.00    -0.388 OA
ATOM     19  C17 ZIN A   1      16.480  -6.540   6.382  0.00  0.00     0.195 C 
ATOM     20  C16 ZIN A   1      17.744  -5.722   6.103  0.00  0.00     0.261 C 
ENDBRANCH  13  14
ENDBRANCH   9  13
BRANCH   1  21
ATOM     21  C2  ZIN A   1      18.500  -0.500  10.044  0.00  0.00     0.037 C 
ATOM     22  C1  ZIN A   1      19.858  -0.950  10.586  0.00  0.00     0.010 C 
ENDBRANCH   1  21
TORSDOF 3
ENDMDL
