MODEL 1
REMARK VINA RESULT:      -6.6      0.000      0.000
REMARK  6 active torsions:
REMARK  status: ('A' for Active; 'I' for Inactive)
REMARK    1  A    between atoms: O2_2  and  C3_3 
REMARK    2  A    between atoms: C3_3  and  C5_5 
REMARK    3  A    between atoms: C11_11  and  C12_12 
REMARK    4  A    between atoms: C12_12  and  O14_14 
REMARK    5  A    between atoms: C16_16  and  C17_17 
REMARK    6  A    between atoms: C22_22  and  N23_23 
ROOT
ATOM      1  C5  ZIN A   1      18.314   1.330  14.769  0.00  0.00     0.052 C 
ATOM      2  C6  ZIN A   1      18.976   2.193  15.558  0.00  0.00     0.018 C 
ATOM      3  C7  ZIN A   1      19.209   1.851  17.008  0.00  0.00     0.069 C 
ATOM      4  N8  ZIN A   1      19.442   3.381  15.062  0.00  0.00    -0.362 N 
ATOM      5  C9  ZIN A   1      18.950   3.878  13.886  0.00  0.00     0.018 C 
ATOM      6  C10 ZIN A   1      19.154   5.332  13.549  0.00  0.00     0.069 C 
ATOM      7  C11 ZIN A   1      18.287   3.084  13.027  0.00  0.00     0.052 C 
ATOM      8  C16 ZIN A   1      18.072   1.624  13.316  0.00  0.00     0.103 C 
ATOM      9  H32 ZIN A   1      20.124   3.872  15.546  0.00  0.00     0.165 HD
ENDROOT
BRANCH   8  10
ATOM     10  C17 ZIN A   1      19.016   0.807  12.471  0.00  0.00    -0.012 A 
ATOM     11  C22 ZIN A   1      18.528  -0.220  11.685  0.00  0.00     0.110 A 
ATOM     12  C21 ZIN A   1      19.392  -0.966  10.906  0.00  0.00     0.037 A 
ATOM     13  C20 ZIN A   1      20.747  -0.691  10.921  0.00  0.00     0.002 A 
ATOM     14  C19 ZIN A   1      21.236   0.332  11.711  0.00  0.00     0.001 A 
ATOM     15  C18 ZIN A   1      20.371   1.081  12.486  0.00  0.00     0.011 A 
BRANCH  11  16
ATOM     16  N23 ZIN A   1      17.076  -0.514  11.669  0.00  0.00    -0.115 N 
ATOM     17  O24 ZIN A   1      16.659  -1.547  12.161  0.00  0.00    -0.532 OA
ATOM     18  O25 ZIN A   1      16.301   0.278  11.163  0.00  0.00    -0.532 OA
ENDBRANCH  11  16
ENDBRANCH   8  10
BRANCH   1  19
ATOM     19  C3  ZIN A   1      17.840   0.116  15.318  0.00  0.00     0.291 C 
ATOM     20  O4  ZIN A   1      16.773   0.088  15.901  0.00  0.00    -0.260 OA
BRANCH  19  21
ATOM     21  O2  ZIN A   1      18.570  -1.012  15.194  0.00  0.00    -0.323 OA
ATOM     22  C1  ZIN A   1      18.959  -1.670  16.402  0.00  0.00     0.213 C 
ENDBRANCH  19  21
ENDBRANCH   1  19
BRANCH   7  23
ATOM     23  C12 ZIN A   1      17.786   3.633  11.825  0.00  0.00     0.291 C 
ATOM     24  O13 ZIN A   1      16.614   3.953  11.743  0.00  0.00    -0.260 OA
BRANCH  23  25
ATOM     25  O14 ZIN A   1      18.607   3.804  10.767  0.00  0.00    -0.323 OA
ATOM     26  C15 ZIN A   1      18.462   2.890   9.679  0.00  0.00     0.213 C 
ENDBRANCH  23  25
ENDBRANCH   7  23
TORSDOF 6
ENDMDL
MODEL 2
REMARK VINA RESULT:      -6.2      3.177      7.124
REMARK  6 active torsions:
REMARK  status: ('A' for Active; 'I' for Inactive)
REMARK    1  A    between atoms: O2_2  and  C3_3 
REMARK    2  A    between atoms: C3_3  and  C5_5 
REMARK    3  A    between atoms: C11_11  and  C12_12 
REMARK    4  A    between atoms: C12_12  and  O14_14 
REMARK    5  A    between atoms: C16_16  and  C17_17 
REMARK    6  A    between atoms: C22_22  and  N23_23 
ROOT
ATOM      1  C5  ZIN A   1      18.358  -1.336   8.050  0.00  0.00     0.052 C 
ATOM      2  C6  ZIN A   1      19.103  -1.985   7.139  0.00  0.00     0.018 C 
ATOM      3  C7  ZIN A   1      19.250  -1.413   5.751  0.00  0.00     0.069 C 
ATOM      4  N8  ZIN A   1      19.731  -3.159   7.455  0.00  0.00    -0.362 N 
ATOM      5  C9  ZIN A   1      19.340  -3.878   8.551  0.00  0.00     0.018 C 
ATOM      6  C10 ZIN A   1      19.738  -5.326   8.673  0.00  0.00     0.069 C 
ATOM      7  C11 ZIN A   1      18.604  -3.307   9.521  0.00  0.00     0.052 C 
ATOM      8  C16 ZIN A   1      18.196  -1.862   9.447  0.00  0.00     0.103 C 
ATOM      9  H32 ZIN A   1      20.457  -3.483   6.899  0.00  0.00     0.165 HD
ENDROOT
BRANCH   8  10
ATOM     10  C17 ZIN A   1      19.049  -1.056  10.392  0.00  0.00    -0.012 A 
ATOM     11  C22 ZIN A   1      18.476  -0.444  11.492  0.00  0.00     0.110 A 
ATOM     12  C21 ZIN A   1      19.259   0.291  12.361  0.00  0.00     0.037 A 
ATOM     13  C20 ZIN A   1      20.615   0.421  12.127  0.00  0.00     0.002 A 
ATOM     14  C19 ZIN A   1      21.188  -0.186  11.025  0.00  0.00     0.001 A 
ATOM     15  C18 ZIN A   1      20.405  -0.925  10.158  0.00  0.00     0.011 A 
BRANCH  11  16
ATOM     16  N23 ZIN A   1      17.023  -0.584  11.742  0.00  0.00    -0.115 N 
ATOM     17  O24 ZIN A   1      16.607  -1.511  12.414  0.00  0.00    -0.532 OA
ATOM     18  O25 ZIN A   1      16.244   0.227  11.275  0.00  0.00    -0.532 OA
ENDBRANCH  11  16
ENDBRANCH   8  10
BRANCH   1  19
ATOM     19  C3  ZIN A   1      17.716  -0.129   7.685  0.00  0.00     0.291 C 
ATOM     20  O4  ZIN A   1      16.842  -0.137   6.840  0.00  0.00    -0.260 OA
BRANCH  19  21
ATOM     21  O2  ZIN A   1      18.073   1.030   8.276  0.00  0.00    -0.323 OA
ATOM     22  C1  ZIN A   1      19.245   1.679   7.777  0.00  0.00     0.213 C 
ENDBRANCH  19  21
ENDBRANCH   1  19
BRANCH   7  23
ATOM     23  C12 ZIN A   1      18.211  -4.082  10.636  0.00  0.00     0.291 C 
ATOM     24  O13 ZIN A   1      19.046  -4.480  11.427  0.00  0.00    -0.260 OA
BRANCH  23  25
ATOM     25  O14 ZIN A   1      16.907  -4.381  10.824  0.00  0.00    -0.323 OA
ATOM     26  C15 ZIN A   1      16.320  -5.318   9.919  0.00  0.00     0.213 C 
ENDBRANCH  23  25
ENDBRANCH   7  23
TORSDOF 6
ENDMDL
MODEL 3
REMARK VINA RESULT:      -6.2      5.165      8.221
REMARK  6 active torsions:
REMARK  status: ('A' for Active; 'I' for Inactive)
REMARK    1  A    between atoms: O2_2  and  C3_3 
REMARK    2  A    between atoms: C3_3  and  C5_5 
REMARK    3  A    between atoms: C11_11  and  C12_12 
REMARK    4  A    between atoms: C12_12  and  O14_14 
REMARK    5  A    between atoms: C16_16  and  C17_17 
REMARK    6  A    between atoms: C22_22  and  N23_23 
ROOT
ATOM      1  C5  ZIN A   1      18.474  -2.442   7.956  0.00  0.00     0.052 C 
ATOM      2  C6  ZIN A   1      17.785  -1.368   8.375  0.00  0.00     0.018 C 
ATOM      3  C7  ZIN A   1      17.423  -0.283   7.392  0.00  0.00     0.069 C 
ATOM      4  N8  ZIN A   1      17.405  -1.246   9.685  0.00  0.00    -0.362 N 
ATOM      5  C9  ZIN A   1      18.008  -2.002  10.652  0.00  0.00     0.018 C 
ATOM      6  C10 ZIN A   1      17.887  -1.598  12.097  0.00  0.00     0.069 C 
ATOM      7  C11 ZIN A   1      18.707  -3.104  10.327  0.00  0.00     0.052 C 
ATOM      8  C16 ZIN A   1      18.843  -3.553   8.898  0.00  0.00     0.103 C 
ATOM      9  H32 ZIN A   1      16.705  -0.619   9.928  0.00  0.00     0.165 HD
ENDROOT
BRANCH   8  10
ATOM     10  C17 ZIN A   1      17.940  -4.736   8.662  0.00  0.00    -0.012 A 
ATOM     11  C22 ZIN A   1      18.473  -5.941   8.241  0.00  0.00     0.110 A 
ATOM     12  C21 ZIN A   1      17.645  -7.027   8.029  0.00  0.00     0.037 A 
ATOM     13  C20 ZIN A   1      16.283  -6.908   8.230  0.00  0.00     0.002 A 
ATOM     14  C19 ZIN A   1      15.748  -5.702   8.646  0.00  0.00     0.001 A 
ATOM     15  C18 ZIN A   1      16.577  -4.617   8.862  0.00  0.00     0.011 A 
BRANCH  11  16
ATOM     16  N23 ZIN A   1      19.933  -6.068   8.026  0.00  0.00    -0.115 N 
ATOM     17  O24 ZIN A   1      20.646  -6.481   8.922  0.00  0.00    -0.532 OA
ATOM     18  O25 ZIN A   1      20.419  -5.759   6.953  0.00  0.00    -0.532 OA
ENDBRANCH  11  16
ENDBRANCH   8  10
BRANCH   1  19
ATOM     19  C3  ZIN A   1      18.857  -2.531   6.597  0.00  0.00     0.291 C 
ATOM     20  O4  ZIN A   1      20.006  -2.302   6.273  0.00  0.00    -0.260 OA
BRANCH  19  21
ATOM     21  O2  ZIN A   1      17.947  -2.871   5.661  0.00  0.00    -0.323 OA
ATOM     22  C1  ZIN A   1      18.168  -4.093   4.953  0.00  0.00     0.213 C 
ENDBRANCH  19  21
ENDBRANCH   1  19
BRANCH   7  23
ATOM     23  C12 ZIN A   1      19.324  -3.858  11.351  0.00  0.00     0.291 C 
ATOM     24  O13 ZIN A   1      20.280  -3.404  11.951  0.00  0.00    -0.260 OA
BRANCH  23  25
ATOM     25  O14 ZIN A   1      18.851  -5.084  11.665  0.00  0.00    -0.323 OA
ATOM     26  C15 ZIN A   1      17.549  -5.146  12.252  0.00  0.00     0.213 C 
ENDBRANCH  23  25
ENDBRANCH   7  23
TORSDOF 6
ENDMDL
MODEL 4
REMARK VINA RESULT:      -6.1      6.041      9.301
REMARK  6 active torsions:
REMARK  status: ('A' for Active; 'I' for Inactive)
REMARK    1  A    between atoms: O2_2  and  C3_3 
REMARK    2  A    between atoms: C3_3  and  C5_5 
REMARK    3  A    between atoms: C11_11  and  C12_12 
REMARK    4  A    between atoms: C12_12  and  O14_14 
REMARK    5  A    between atoms: C16_16  and  C17_17 
REMARK    6  A    between atoms: C22_22  and  N23_23 
ROOT
ATOM      1  C5  ZIN A   1      18.463  -2.223   6.273  0.00  0.00     0.052 C 
ATOM      2  C6  ZIN A   1      18.956  -1.859   5.077  0.00  0.00     0.018 C 
ATOM      3  C7  ZIN A   1      19.485  -0.461   4.883  0.00  0.00     0.069 C 
ATOM      4  N8  ZIN A   1      18.985  -2.743   4.032  0.00  0.00    -0.362 N 
ATOM      5  C9  ZIN A   1      18.206  -3.867   4.057  0.00  0.00     0.018 C 
ATOM      6  C10 ZIN A   1      17.934  -4.613   2.778  0.00  0.00     0.069 C 
ATOM      7  C11 ZIN A   1      17.682  -4.315   5.212  0.00  0.00     0.052 C 
ATOM      8  C16 ZIN A   1      17.939  -3.610   6.515  0.00  0.00     0.103 C 
ATOM      9  H32 ZIN A   1      19.561  -2.571   3.270  0.00  0.00     0.165 HD
ENDROOT
BRANCH   8  10
ATOM     10  C17 ZIN A   1      18.945  -4.397   7.315  0.00  0.00    -0.012 A 
ATOM     11  C22 ZIN A   1      18.653  -4.776   8.613  0.00  0.00     0.110 A 
ATOM     12  C21 ZIN A   1      19.572  -5.502   9.345  0.00  0.00     0.037 A 
ATOM     13  C20 ZIN A   1      20.789  -5.843   8.783  0.00  0.00     0.002 A 
ATOM     14  C19 ZIN A   1      21.084  -5.459   7.488  0.00  0.00     0.001 A 
ATOM     15  C18 ZIN A   1      20.161  -4.737   6.754  0.00  0.00     0.011 A 
BRANCH  11  16
ATOM     16  N23 ZIN A   1      17.349  -4.411   9.214  0.00  0.00    -0.115 N 
ATOM     17  O24 ZIN A   1      16.355  -5.067   8.957  0.00  0.00    -0.532 OA
ATOM     18  O25 ZIN A   1      17.271  -3.455   9.964  0.00  0.00    -0.532 OA
ENDBRANCH  11  16
ENDBRANCH   8  10
BRANCH   1  19
ATOM     19  C3  ZIN A   1      18.441  -1.281   7.328  0.00  0.00     0.291 C 
ATOM     20  O4  ZIN A   1      17.431  -0.641   7.550  0.00  0.00    -0.260 OA
BRANCH  19  21
ATOM     21  O2  ZIN A   1      19.540  -1.093   8.087  0.00  0.00    -0.323 OA
ATOM     22  C1  ZIN A   1      19.336  -0.609   9.417  0.00  0.00     0.213 C 
ENDBRANCH  19  21
ENDBRANCH   1  19
BRANCH   7  23
ATOM     23  C12 ZIN A   1      16.875  -5.476   5.200  0.00  0.00     0.291 C 
ATOM     24  O13 ZIN A   1      15.664  -5.376   5.147  0.00  0.00    -0.260 OA
BRANCH  23  25
ATOM     25  O14 ZIN A   1      17.450  -6.698   5.247  0.00  0.00    -0.323 OA
ATOM     26  C15 ZIN A   1      17.191  -7.492   6.406  0.00  0.00     0.213 C 
ENDBRANCH  23  25
ENDBRANCH   7  23
TORSDOF 6
ENDMDL
MODEL 5
REMARK VINA RESULT:      -6.0      2.818      5.514
REMARK  6 active torsions:
REMARK  status: ('A' for Active; 'I' for Inactive)
REMARK    1  A    between atoms: O2_2  and  C3_3 
REMARK    2  A    between atoms: C3_3  and  C5_5 
REMARK    3  A    between atoms: C11_11  and  C12_12 
REMARK    4  A    between atoms: C12_12  and  O14_14 
REMARK    5  A    between atoms: C16_16  and  C17_17 
REMARK    6  A    between atoms: C22_22  and  N23_23 
ROOT
ATOM      1  C5  ZIN A   1      18.617   2.935  15.511  0.00  0.00     0.052 C 
ATOM      2  C6  ZIN A   1      18.032   1.745  15.292  0.00  0.00     0.018 C 
ATOM      3  C7  ZIN A   1      17.762   0.821  16.452  0.00  0.00     0.069 C 
ATOM      4  N8  ZIN A   1      17.677   1.361  14.026  0.00  0.00    -0.362 N 
ATOM      5  C9  ZIN A   1      18.218   1.989  12.938  0.00  0.00     0.018 C 
ATOM      6  C10 ZIN A   1      18.147   1.328  11.586  0.00  0.00     0.069 C 
ATOM      7  C11 ZIN A   1      18.811   3.190  13.060  0.00  0.00     0.052 C 
ATOM      8  C16 ZIN A   1      18.892   3.892  14.387  0.00  0.00     0.103 C 
ATOM      9  H32 ZIN A   1      17.039   0.641  13.901  0.00  0.00     0.165 HD
ENDROOT
BRANCH   8  10
ATOM     10  C17 ZIN A   1      17.883   5.011  14.419  0.00  0.00    -0.012 A 
ATOM     11  C22 ZIN A   1      18.267   6.279  14.816  0.00  0.00     0.110 A 
ATOM     12  C21 ZIN A   1      17.344   7.306  14.840  0.00  0.00     0.037 A 
ATOM     13  C20 ZIN A   1      16.032   7.065  14.475  0.00  0.00     0.002 A 
ATOM     14  C19 ZIN A   1      15.646   5.796  14.084  0.00  0.00     0.001 A 
ATOM     15  C18 ZIN A   1      16.571   4.770  14.056  0.00  0.00     0.011 A 
BRANCH  11  16
ATOM     16  N23 ZIN A   1      19.673   6.537  15.206  0.00  0.00    -0.115 N 
ATOM     17  O24 ZIN A   1      20.008   6.442  16.373  0.00  0.00    -0.532 OA
ATOM     18  O25 ZIN A   1      20.492   6.846  14.359  0.00  0.00    -0.532 OA
ENDBRANCH  11  16
ENDBRANCH   8  10
BRANCH   1  19
ATOM     19  C3  ZIN A   1      18.978   3.294  16.831  0.00  0.00     0.291 C 
ATOM     20  O4  ZIN A   1      20.072   2.991  17.267  0.00  0.00    -0.260 OA
BRANCH  19  21
ATOM     21  O2  ZIN A   1      18.108   3.974  17.606  0.00  0.00    -0.323 OA
ATOM     22  C1  ZIN A   1      18.014   3.580  18.977  0.00  0.00     0.213 C 
ENDBRANCH  19  21
ENDBRANCH   1  19
BRANCH   7  23
ATOM     23  C12 ZIN A   1      19.366   3.806  11.915  0.00  0.00     0.291 C 
ATOM     24  O13 ZIN A   1      20.436   3.427  11.477  0.00  0.00    -0.260 OA
BRANCH  23  25
ATOM     25  O14 ZIN A   1      18.708   4.816  11.307  0.00  0.00    -0.323 OA
ATOM     26  C15 ZIN A   1      17.728   4.457  10.331  0.00  0.00     0.213 C 
ENDBRANCH  23  25
ENDBRANCH   7  23
TORSDOF 6
ENDMDL
MODEL 6
REMARK VINA RESULT:      -5.7      4.507      7.523
REMARK  6 active torsions:
REMARK  status: ('A' for Active; 'I' for Inactive)
REMARK    1  A    between atoms: O2_2  and  C3_3 
REMARK    2  A    between atoms: C3_3  and  C5_5 
REMARK    3  A    between atoms: C11_11  and  C12_12 
REMARK    4  A    between atoms: C12_12  and  O14_14 
REMARK    5  A    between atoms: C16_16  and  C17_17 
REMARK    6  A    between atoms: C22_22  and  N23_23 
ROOT
ATOM      1  C5  ZIN A   1      19.257  -3.553   7.437  0.00  0.00     0.052 C 
ATOM      2  C6  ZIN A   1      18.597  -3.164   6.333  0.00  0.00     0.018 C 
ATOM      3  C7  ZIN A   1      18.815  -3.901   5.035  0.00  0.00     0.069 C 
ATOM      4  N8  ZIN A   1      17.727  -2.108   6.371  0.00  0.00    -0.362 N 
ATOM      5  C9  ZIN A   1      17.775  -1.212   7.404  0.00  0.00     0.018 C 
ATOM      6  C10 ZIN A   1      17.118   0.135   7.253  0.00  0.00     0.069 C 
ATOM      7  C11 ZIN A   1      18.401  -1.520   8.553  0.00  0.00     0.052 C 
ATOM      8  C16 ZIN A   1      19.059  -2.858   8.753  0.00  0.00     0.103 C 
ATOM      9  H32 ZIN A   1      17.074  -1.993   5.662  0.00  0.00     0.165 HD
ENDROOT
BRANCH   8  10
ATOM     10  C17 ZIN A   1      18.194  -3.707   9.648  0.00  0.00    -0.012 A 
ATOM     11  C22 ZIN A   1      18.540  -3.890  10.975  0.00  0.00     0.110 A 
ATOM     12  C21 ZIN A   1      17.744  -4.664  11.797  0.00  0.00     0.037 A 
ATOM     13  C20 ZIN A   1      16.606  -5.265  11.291  0.00  0.00     0.002 A 
ATOM     14  C19 ZIN A   1      16.263  -5.088   9.964  0.00  0.00     0.001 A 
ATOM     15  C18 ZIN A   1      17.057  -4.309   9.143  0.00  0.00     0.011 A 
BRANCH  11  16
ATOM     16  N23 ZIN A   1      19.759  -3.246  11.516  0.00  0.00    -0.115 N 
ATOM     17  O24 ZIN A   1      20.846  -3.772  11.359  0.00  0.00    -0.532 OA
ATOM     18  O25 ZIN A   1      19.673  -2.192  12.120  0.00  0.00    -0.532 OA
ENDBRANCH  11  16
ENDBRANCH   8  10
BRANCH   1  19
ATOM     19  C3  ZIN A   1      20.154  -4.644   7.358  0.00  0.00     0.291 C 
ATOM     20  O4  ZIN A   1      21.294  -4.467   6.973  0.00  0.00    -0.260 OA
BRANCH  19  21
ATOM     21  O2  ZIN A   1      19.744  -5.881   7.710  0.00  0.00    -0.323 OA
ATOM     22  C1  ZIN A   1      20.238  -6.401   8.947  0.00  0.00     0.213 C 
ENDBRANCH  19  21
ENDBRANCH   1  19
BRANCH   7  23
ATOM     23  C12 ZIN A   1      18.438  -0.568   9.597  0.00  0.00     0.291 C 
ATOM     24  O13 ZIN A   1      19.418   0.139   9.744  0.00  0.00    -0.260 OA
BRANCH  23  25
ATOM     25  O14 ZIN A   1      17.384  -0.441  10.432  0.00  0.00    -0.323 OA
ATOM     26  C15 ZIN A   1      17.407   0.659  11.344  0.00  0.00     0.213 C 
ENDBRANCH  23  25
ENDBRANCH   7  23
TORSDOF 6
ENDMDL
MODEL 7
REMARK VINA RESULT:      -5.7      3.104      5.385
REMARK  6 active torsions:
REMARK  status: ('A' for Active; 'I' for Inactive)
REMARK    1  A    between atoms: O2_2  and  C3_3 
REMARK    2  A    between atoms: C3_3  and  C5_5 
REMARK    3  A    between atoms: C11_11  and  C12_12 
REMARK    4  A    between atoms: C12_12  and  O14_14 
REMARK    5  A    between atoms: C16_16  and  C17_17 
REMARK    6  A    between atoms: C22_22  and  N23_23 
ROOT
ATOM      1  C5  ZIN A   1      18.485   2.406  16.768  0.00  0.00     0.052 C 
ATOM      2  C6  ZIN A   1      18.941   2.031  17.975  0.00  0.00     0.018 C 
ATOM      3  C7  ZIN A   1      19.483   0.638  18.167  0.00  0.00     0.069 C 
ATOM      4  N8  ZIN A   1      18.921   2.899  19.033  0.00  0.00    -0.362 N 
ATOM      5  C9  ZIN A   1      18.127   4.013  18.997  0.00  0.00     0.018 C 
ATOM      6  C10 ZIN A   1      17.798   4.735  20.277  0.00  0.00     0.069 C 
ATOM      7  C11 ZIN A   1      17.637   4.471  17.831  0.00  0.00     0.052 C 
ATOM      8  C16 ZIN A   1      17.950   3.789  16.528  0.00  0.00     0.103 C 
ATOM      9  H32 ZIN A   1      19.471   2.724  19.813  0.00  0.00     0.165 HD
ENDROOT
BRANCH   8  10
ATOM     10  C17 ZIN A   1      18.971   4.603  15.775  0.00  0.00    -0.012 A 
ATOM     11  C22 ZIN A   1      18.730   4.976  14.466  0.00  0.00     0.110 A 
ATOM     12  C21 ZIN A   1      19.664   5.726  13.778  0.00  0.00     0.037 A 
ATOM     13  C20 ZIN A   1      20.845   6.096  14.395  0.00  0.00     0.002 A 
ATOM     14  C19 ZIN A   1      21.089   5.718  15.702  0.00  0.00     0.001 A 
ATOM     15  C18 ZIN A   1      20.152   4.972  16.392  0.00  0.00     0.011 A 
BRANCH  11  16
ATOM     16  N23 ZIN A   1      17.465   4.579  13.805  0.00  0.00    -0.115 N 
ATOM     17  O24 ZIN A   1      16.452   5.227  13.992  0.00  0.00    -0.532 OA
ATOM     18  O25 ZIN A   1      17.440   3.604  13.075  0.00  0.00    -0.532 OA
ENDBRANCH  11  16
ENDBRANCH   8  10
BRANCH   1  19
ATOM     19  C3  ZIN A   1      18.514   1.480  15.699  0.00  0.00     0.291 C 
ATOM     20  O4  ZIN A   1      17.541   0.788  15.468  0.00  0.00    -0.260 OA
BRANCH  19  21
ATOM     21  O2  ZIN A   1      19.621   1.365  14.936  0.00  0.00    -0.323 OA
ATOM     22  C1  ZIN A   1      19.550   0.477  13.819  0.00  0.00     0.213 C 
ENDBRANCH  19  21
ENDBRANCH   1  19
BRANCH   7  23
ATOM     23  C12 ZIN A   1      16.813   5.620  17.832  0.00  0.00     0.291 C 
ATOM     24  O13 ZIN A   1      15.602   5.502  17.848  0.00  0.00    -0.260 OA
BRANCH  23  25
ATOM     25  O14 ZIN A   1      17.371   6.850  17.814  0.00  0.00    -0.323 OA
ATOM     26  C15 ZIN A   1      17.148   7.646  16.649  0.00  0.00     0.213 C 
ENDBRANCH  23  25
ENDBRANCH   7  23
TORSDOF 6
ENDMDL
MODEL 8
REMARK VINA RESULT:      -5.5      2.434      4.989
REMARK  6 active torsions:
REMARK  status: ('A' for Active; 'I' for Inactive)
REMARK    1  A    between atoms: O2_2  and  C3_3 
REMARK    2  A    between atoms: C3_3  and  C5_5 
REMARK    3  A    between atoms: C11_11  and  C12_12 
REMARK    4  A    between atoms: C12_12  and  O14_14 
REMARK    5  A    between atoms: C16_16  and  C17_17 
REMARK    6  A    between atoms: C22_22  and  N23_23 
ROOT
ATOM      1  C5  ZIN A   1      19.252   3.412  15.793  0.00  0.00     0.052 C 
ATOM      2  C6  ZIN A   1      18.630   2.817  16.825  0.00  0.00     0.018 C 
ATOM      3  C7  ZIN A   1      18.808   3.365  18.219  0.00  0.00     0.069 C 
ATOM      4  N8  ZIN A   1      17.836   1.720  16.627  0.00  0.00    -0.362 N 
ATOM      5  C9  ZIN A   1      17.938   0.994  15.472  0.00  0.00     0.018 C 
ATOM      6  C10 ZIN A   1      17.377  -0.403  15.419  0.00  0.00     0.069 C 
ATOM      7  C11 ZIN A   1      18.531   1.514  14.383  0.00  0.00     0.052 C 
ATOM      8  C16 ZIN A   1      19.092   2.909  14.387  0.00  0.00     0.103 C 
ATOM      9  H32 ZIN A   1      17.199   1.456  17.310  0.00  0.00     0.165 HD
ENDROOT
BRANCH   8  10
ATOM     10  C17 ZIN A   1      18.162   3.819  13.627  0.00  0.00    -0.012 A 
ATOM     11  C22 ZIN A   1      18.440   4.153  12.314  0.00  0.00     0.110 A 
ATOM     12  C21 ZIN A   1      17.585   4.984  11.616  0.00  0.00     0.037 A 
ATOM     13  C20 ZIN A   1      16.456   5.490  12.233  0.00  0.00     0.002 A 
ATOM     14  C19 ZIN A   1      16.180   5.161  13.547  0.00  0.00     0.001 A 
ATOM     15  C18 ZIN A   1      17.034   4.326  14.244  0.00  0.00     0.011 A 
BRANCH  11  16
ATOM     16  N23 ZIN A   1      19.650   3.611  11.654  0.00  0.00    -0.115 N 
ATOM     17  O24 ZIN A   1      19.541   2.787  10.764  0.00  0.00    -0.532 OA
ATOM     18  O25 ZIN A   1      20.754   3.990  12.002  0.00  0.00    -0.532 OA
ENDBRANCH  11  16
ENDBRANCH   8  10
BRANCH   1  19
ATOM     19  C3  ZIN A   1      20.072   4.539  16.036  0.00  0.00     0.291 C 
ATOM     20  O4  ZIN A   1      21.234   4.388  16.358  0.00  0.00    -0.260 OA
BRANCH  19  21
ATOM     21  O2  ZIN A   1      19.563   5.783  15.909  0.00  0.00    -0.323 OA
ATOM     22  C1  ZIN A   1      20.028   6.566  14.808  0.00  0.00     0.213 C 
ENDBRANCH  19  21
ENDBRANCH   1  19
BRANCH   7  23
ATOM     23  C12 ZIN A   1      18.625   0.732  13.208  0.00  0.00     0.291 C 
ATOM     24  O13 ZIN A   1      19.658   0.145  12.948  0.00  0.00    -0.260 OA
BRANCH  23  25
ATOM     25  O14 ZIN A   1      17.566   0.637  12.375  0.00  0.00    -0.323 OA
ATOM     26  C15 ZIN A   1      17.364  -0.619  11.725  0.00  0.00     0.213 C 
ENDBRANCH  23  25
ENDBRANCH   7  23
TORSDOF 6
ENDMDL
MODEL 9
REMARK VINA RESULT:      -5.2      8.863     12.046
REMARK  6 active torsions:
REMARK  status: ('A' for Active; 'I' for Inactive)
REMARK    1  A    between atoms: O2_2  and  C3_3 
REMARK    2  A    between atoms: C3_3  and  C5_5 
REMARK    3  A    between atoms: C11_11  and  C12_12 
REMARK    4  A    between atoms: C12_12  and  O14_14 
REMARK    5  A    between atoms: C16_16  and  C17_17 
REMARK    6  A    between atoms: C22_22  and  N23_23 
ROOT
ATOM      1  C5  ZIN A   1      17.612  -6.312   3.286  0.00  0.00     0.052 C 
ATOM      2  C6  ZIN A   1      17.520  -5.240   2.481  0.00  0.00     0.018 C 
ATOM      3  C7  ZIN A   1      17.383  -5.434   0.992  0.00  0.00     0.069 C 
ATOM      4  N8  ZIN A   1      17.547  -3.972   2.997  0.00  0.00    -0.362 N 
ATOM      5  C9  ZIN A   1      18.023  -3.751   4.260  0.00  0.00     0.018 C 
ATOM      6  C10 ZIN A   1      18.423  -2.359   4.673  0.00  0.00     0.069 C 
ATOM      7  C11 ZIN A   1      18.136  -4.763   5.139  0.00  0.00     0.052 C 
ATOM      8  C16 ZIN A   1      17.735  -6.165   4.775  0.00  0.00     0.103 C 
ATOM      9  H32 ZIN A   1      17.228  -3.227   2.464  0.00  0.00     0.165 HD
ENDROOT
BRANCH   8  10
ATOM     10  C17 ZIN A   1      16.415  -6.489   5.426  0.00  0.00    -0.012 A 
ATOM     11  C22 ZIN A   1      16.351  -7.439   6.428  0.00  0.00     0.110 A 
ATOM     12  C21 ZIN A   1      15.141  -7.732   7.028  0.00  0.00     0.037 A 
ATOM     13  C20 ZIN A   1      13.992  -7.081   6.620  0.00  0.00     0.002 A 
ATOM     14  C19 ZIN A   1      14.054  -6.135   5.614  0.00  0.00     0.001 A 
ATOM     15  C18 ZIN A   1      15.265  -5.839   5.017  0.00  0.00     0.011 A 
BRANCH  11  16
ATOM     16  N23 ZIN A   1      17.583  -8.137   6.865  0.00  0.00    -0.115 N 
ATOM     17  O24 ZIN A   1      17.905  -9.188   6.341  0.00  0.00    -0.532 OA
ATOM     18  O25 ZIN A   1      18.271  -7.659   7.748  0.00  0.00    -0.532 OA
ENDBRANCH  11  16
ENDBRANCH   8  10
BRANCH   1  19
ATOM     19  C3  ZIN A   1      17.588  -7.607   2.717  0.00  0.00     0.291 C 
ATOM     20  O4  ZIN A   1      18.626  -8.221   2.560  0.00  0.00    -0.260 OA
BRANCH  19  21
ATOM     21  O2  ZIN A   1      16.414  -8.161   2.350  0.00  0.00    -0.323 OA
ATOM     22  C1  ZIN A   1      15.930  -9.245   3.147  0.00  0.00     0.213 C 
ENDBRANCH  19  21
ENDBRANCH   1  19
BRANCH   7  23
ATOM     23  C12 ZIN A   1      18.638  -4.499   6.435  0.00  0.00     0.291 C 
ATOM     24  O13 ZIN A   1      19.830  -4.604   6.659  0.00  0.00    -0.260 OA
BRANCH  23  25
ATOM     25  O14 ZIN A   1      17.795  -4.131   7.423  0.00  0.00    -0.323 OA
ATOM     26  C15 ZIN A   1      18.343  -3.344   8.483  0.00  0.00     0.213 C 
ENDBRANCH  23  25
ENDBRANCH   7  23
TORSDOF 6
ENDMDL
