MODEL 1
REMARK VINA RESULT:      -7.0      0.000      0.000
REMARK  6 active torsions:
REMARK  status: ('A' for Active; 'I' for Inactive)
REMARK    1  A    between atoms: C7_7  and  C8_8 
REMARK    2  A    between atoms: C8_8  and  O10_9 
REMARK    3  A    between atoms: C8_8  and  C16_15 
REMARK    4  A    between atoms: O10_9  and  C11_10 
REMARK    5  A    between atoms: C11_10  and  C12_11 
REMARK    6  A    between atoms: C12_11  and  N13_12 
ROOT
ATOM      1  C8  ZIN A   1      18.211   0.521  10.217  0.00  0.00     0.188 C 
ENDROOT
BRANCH   1   2
ATOM      2  C7  ZIN A   1      18.452   1.913  10.739  0.00  0.00    -0.019 A 
ATOM      3  C2  ZIN A   1      19.535   2.164  11.563  0.00  0.00    -0.053 A 
ATOM      4  C1  ZIN A   1      20.476   1.046  11.933  0.00  0.00     0.049 C 
ATOM      5  C3  ZIN A   1      19.758   3.442  12.042  0.00  0.00     0.007 A 
ATOM      6  C4  ZIN A   1      18.895   4.467  11.702  0.00  0.00     0.001 A 
ATOM      7  C5  ZIN A   1      17.810   4.215  10.884  0.00  0.00     0.001 A 
ATOM      8  C6  ZIN A   1      17.588   2.938  10.404  0.00  0.00     0.011 A 
ENDBRANCH   1   2
BRANCH   1   9
ATOM      9  O10 ZIN A   1      16.962   0.036  10.714  0.00  0.00    -0.375 OA
BRANCH   9  10
ATOM     10  C11 ZIN A   1      17.081  -0.801  11.866  0.00  0.00     0.199 C 
BRANCH  10  11
ATOM     11  C12 ZIN A   1      17.560  -2.190  11.439  0.00  0.00     0.297 C 
BRANCH  11  12
ATOM     12  N13 ZIN A   1      18.513  -2.707  12.430  0.00  0.00     0.082 N 
ATOM     13  C14 ZIN A   1      19.780  -3.089  11.792  0.00  0.00     0.309 C 
ATOM     14  C15 ZIN A   1      18.737  -1.730  13.504  0.00  0.00     0.309 C 
ENDBRANCH  11  12
ENDBRANCH  10  11
ENDBRANCH   9  10
ENDBRANCH   1   9
BRANCH   1  15
ATOM     15  C16 ZIN A   1      18.175   0.549   8.711  0.00  0.00    -0.025 A 
ATOM     16  C21 ZIN A   1      17.194  -0.145   8.029  0.00  0.00     0.010 A 
ATOM     17  C20 ZIN A   1      17.158  -0.114   6.647  0.00  0.00     0.001 A 
ATOM     18  C19 ZIN A   1      18.109   0.604   5.947  0.00  0.00     0.000 A 
ATOM     19  C18 ZIN A   1      19.094   1.293   6.628  0.00  0.00     0.001 A 
ATOM     20  C17 ZIN A   1      19.128   1.267   8.010  0.00  0.00     0.010 A 
ENDBRANCH   1  15
TORSDOF 6
ENDMDL
MODEL 2
REMARK VINA RESULT:      -6.7      2.783      5.645
REMARK  6 active torsions:
REMARK  status: ('A' for Active; 'I' for Inactive)
REMARK    1  A    between atoms: C7_7  and  C8_8 
REMARK    2  A    between atoms: C8_8  and  O10_9 
REMARK    3  A    between atoms: C8_8  and  C16_15 
REMARK    4  A    between atoms: O10_9  and  C11_10 
REMARK    5  A    between atoms: C11_10  and  C12_11 
REMARK    6  A    between atoms: C12_11  and  N13_12 
ROOT
ATOM      1  C8  ZIN A   1      18.985  -0.887  12.497  0.00  0.00     0.188 C 
ENDROOT
BRANCH   1   2
ATOM      2  C7  ZIN A   1      18.699  -0.812  13.974  0.00  0.00    -0.019 A 
ATOM      3  C2  ZIN A   1      17.786   0.109  14.455  0.00  0.00    -0.053 A 
ATOM      4  C1  ZIN A   1      17.074   1.034  13.501  0.00  0.00     0.049 C 
ATOM      5  C3  ZIN A   1      17.522   0.177  15.811  0.00  0.00     0.007 A 
ATOM      6  C4  ZIN A   1      18.174  -0.671  16.685  0.00  0.00     0.001 A 
ATOM      7  C5  ZIN A   1      19.091  -1.587  16.205  0.00  0.00     0.001 A 
ATOM      8  C6  ZIN A   1      19.354  -1.657  14.850  0.00  0.00     0.011 A 
ENDBRANCH   1   2
BRANCH   1   9
ATOM      9  O10 ZIN A   1      20.328  -0.466  12.251  0.00  0.00    -0.375 OA
BRANCH   9  10
ATOM     10  C11 ZIN A   1      20.446   0.906  11.868  0.00  0.00     0.199 C 
BRANCH  10  11
ATOM     11  C12 ZIN A   1      19.504   1.190  10.696  0.00  0.00     0.297 C 
BRANCH  11  12
ATOM     12  N13 ZIN A   1      19.309   2.640  10.565  0.00  0.00     0.082 N 
ATOM     13  C14 ZIN A   1      17.888   2.967  10.391  0.00  0.00     0.309 C 
ATOM     14  C15 ZIN A   1      19.877   3.355  11.716  0.00  0.00     0.309 C 
ENDBRANCH  11  12
ENDBRANCH  10  11
ENDBRANCH   9  10
ENDBRANCH   1   9
BRANCH   1  15
ATOM     15  C16 ZIN A   1      18.809  -2.307  12.023  0.00  0.00    -0.025 A 
ATOM     16  C21 ZIN A   1      19.916  -3.089  11.754  0.00  0.00     0.010 A 
ATOM     17  C20 ZIN A   1      19.753  -4.393  11.325  0.00  0.00     0.001 A 
ATOM     18  C19 ZIN A   1      18.484  -4.912  11.156  0.00  0.00     0.000 A 
ATOM     19  C18 ZIN A   1      17.376  -4.128  11.419  0.00  0.00     0.001 A 
ATOM     20  C17 ZIN A   1      17.538  -2.826  11.853  0.00  0.00     0.010 A 
ENDBRANCH   1  15
TORSDOF 6
ENDMDL
MODEL 3
REMARK VINA RESULT:      -6.6      1.580      4.599
REMARK  6 active torsions:
REMARK  status: ('A' for Active; 'I' for Inactive)
REMARK    1  A    between atoms: C7_7  and  C8_8 
REMARK    2  A    between atoms: C8_8  and  O10_9 
REMARK    3  A    between atoms: C8_8  and  C16_15 
REMARK    4  A    between atoms: O10_9  and  C11_10 
REMARK    5  A    between atoms: C11_10  and  C12_11 
REMARK    6  A    between atoms: C12_11  and  N13_12 
ROOT
ATOM      1  C8  ZIN A   1      18.711   1.729  11.378  0.00  0.00     0.188 C 
ENDROOT
BRANCH   1   2
ATOM      2  C7  ZIN A   1      18.549   1.286   9.946  0.00  0.00    -0.019 A 
ATOM      3  C2  ZIN A   1      17.553   0.387   9.609  0.00  0.00    -0.053 A 
ATOM      4  C1  ZIN A   1      16.627  -0.146  10.672  0.00  0.00     0.049 C 
ATOM      5  C3  ZIN A   1      17.404  -0.018   8.296  0.00  0.00     0.007 A 
ATOM      6  C4  ZIN A   1      18.253   0.471   7.321  0.00  0.00     0.001 A 
ATOM      7  C5  ZIN A   1      19.252   1.364   7.659  0.00  0.00     0.001 A 
ATOM      8  C6  ZIN A   1      19.401   1.771   8.972  0.00  0.00     0.011 A 
ENDBRANCH   1   2
BRANCH   1   9
ATOM      9  O10 ZIN A   1      20.100   1.775  11.707  0.00  0.00    -0.375 OA
BRANCH   9  10
ATOM     10  C11 ZIN A   1      20.574   0.615  12.394  0.00  0.00     0.199 C 
BRANCH  10  11
ATOM     11  C12 ZIN A   1      19.813   0.458  13.712  0.00  0.00     0.297 C 
BRANCH  11  12
ATOM     12  N13 ZIN A   1      19.627  -0.970  14.003  0.00  0.00     0.082 N 
ATOM     13  C14 ZIN A   1      18.634  -1.165  15.069  0.00  0.00     0.309 C 
ATOM     14  C15 ZIN A   1      19.251  -1.710  12.791  0.00  0.00     0.309 C 
ENDBRANCH  11  12
ENDBRANCH  10  11
ENDBRANCH   9  10
ENDBRANCH   1   9
BRANCH   1  15
ATOM     15  C16 ZIN A   1      18.106   3.098  11.551  0.00  0.00    -0.025 A 
ATOM     16  C21 ZIN A   1      17.745   3.839  10.442  0.00  0.00     0.010 A 
ATOM     17  C20 ZIN A   1      17.185   5.093  10.601  0.00  0.00     0.001 A 
ATOM     18  C19 ZIN A   1      16.996   5.610  11.869  0.00  0.00     0.000 A 
ATOM     19  C18 ZIN A   1      17.362   4.871  12.978  0.00  0.00     0.001 A 
ATOM     20  C17 ZIN A   1      17.917   3.615  12.820  0.00  0.00     0.010 A 
ENDBRANCH   1  15
TORSDOF 6
ENDMDL
MODEL 4
REMARK VINA RESULT:      -6.6      2.070      4.608
REMARK  6 active torsions:
REMARK  status: ('A' for Active; 'I' for Inactive)
REMARK    1  A    between atoms: C7_7  and  C8_8 
REMARK    2  A    between atoms: C8_8  and  O10_9 
REMARK    3  A    between atoms: C8_8  and  C16_15 
REMARK    4  A    between atoms: O10_9  and  C11_10 
REMARK    5  A    between atoms: C11_10  and  C12_11 
REMARK    6  A    between atoms: C12_11  and  N13_12 
ROOT
ATOM      1  C8  ZIN A   1      18.454   1.052  10.319  0.00  0.00     0.188 C 
ENDROOT
BRANCH   1   2
ATOM      2  C7  ZIN A   1      18.746  -0.278  10.964  0.00  0.00    -0.019 A 
ATOM      3  C2  ZIN A   1      17.845  -0.825  11.859  0.00  0.00    -0.053 A 
ATOM      4  C1  ZIN A   1      16.568  -0.093  12.185  0.00  0.00     0.049 C 
ATOM      5  C3  ZIN A   1      18.112  -2.046  12.451  0.00  0.00     0.007 A 
ATOM      6  C4  ZIN A   1      19.283  -2.716  12.151  0.00  0.00     0.001 A 
ATOM      7  C5  ZIN A   1      20.186  -2.167  11.261  0.00  0.00     0.001 A 
ATOM      8  C6  ZIN A   1      19.919  -0.947  10.669  0.00  0.00     0.011 A 
ENDBRANCH   1   2
BRANCH   1   9
ATOM      9  O10 ZIN A   1      19.523   1.959  10.593  0.00  0.00    -0.375 OA
BRANCH   9  10
ATOM     10  C11 ZIN A   1      19.320   2.761  11.759  0.00  0.00     0.199 C 
BRANCH  10  11
ATOM     11  C12 ZIN A   1      17.856   3.201  11.825  0.00  0.00     0.297 C 
BRANCH  11  12
ATOM     12  N13 ZIN A   1      17.762   4.638  11.534  0.00  0.00     0.082 N 
ATOM     13  C14 ZIN A   1      17.585   4.874  10.095  0.00  0.00     0.309 C 
ATOM     14  C15 ZIN A   1      16.680   5.263  12.308  0.00  0.00     0.309 C 
ENDBRANCH  11  12
ENDBRANCH  10  11
ENDBRANCH   9  10
ENDBRANCH   1   9
BRANCH   1  15
ATOM     15  C16 ZIN A   1      18.320   0.868   8.829  0.00  0.00    -0.025 A 
ATOM     16  C21 ZIN A   1      17.372  -0.000   8.322  0.00  0.00     0.010 A 
ATOM     17  C20 ZIN A   1      17.246  -0.165   6.955  0.00  0.00     0.001 A 
ATOM     18  C19 ZIN A   1      18.073   0.533   6.096  0.00  0.00     0.000 A 
ATOM     19  C18 ZIN A   1      19.025   1.398   6.603  0.00  0.00     0.001 A 
ATOM     20  C17 ZIN A   1      19.148   1.566   7.969  0.00  0.00     0.010 A 
ENDBRANCH   1  15
TORSDOF 6
ENDMDL
MODEL 5
REMARK VINA RESULT:      -6.6      2.382      5.457
REMARK  6 active torsions:
REMARK  status: ('A' for Active; 'I' for Inactive)
REMARK    1  A    between atoms: C7_7  and  C8_8 
REMARK    2  A    between atoms: C8_8  and  O10_9 
REMARK    3  A    between atoms: C8_8  and  C16_15 
REMARK    4  A    between atoms: O10_9  and  C11_10 
REMARK    5  A    between atoms: C11_10  and  C12_11 
REMARK    6  A    between atoms: C12_11  and  N13_12 
ROOT
ATOM      1  C8  ZIN A   1      18.838  -1.584  11.310  0.00  0.00     0.188 C 
ENDROOT
BRANCH   1   2
ATOM      2  C7  ZIN A   1      18.654  -1.168  12.746  0.00  0.00    -0.019 A 
ATOM      3  C2  ZIN A   1      17.687  -0.235  13.077  0.00  0.00    -0.053 A 
ATOM      4  C1  ZIN A   1      16.815   0.360  12.001  0.00  0.00     0.049 C 
ATOM      5  C3  ZIN A   1      17.517   0.146  14.395  0.00  0.00     0.007 A 
ATOM      6  C4  ZIN A   1      18.317  -0.400  15.381  0.00  0.00     0.001 A 
ATOM      7  C5  ZIN A   1      19.286  -1.328  15.050  0.00  0.00     0.001 A 
ATOM      8  C6  ZIN A   1      19.456  -1.710  13.732  0.00  0.00     0.011 A 
ENDBRANCH   1   2
BRANCH   1   9
ATOM      9  O10 ZIN A   1      20.206  -1.410  10.936  0.00  0.00    -0.375 OA
BRANCH   9  10
ATOM     10  C11 ZIN A   1      20.448  -0.244  10.145  0.00  0.00     0.199 C 
BRANCH  10  11
ATOM     11  C12 ZIN A   1      19.738  -0.387   8.797  0.00  0.00     0.297 C 
BRANCH  11  12
ATOM     12  N13 ZIN A   1      18.882   0.784   8.567  0.00  0.00     0.082 N 
ATOM     13  C14 ZIN A   1      19.187   1.855   9.525  0.00  0.00     0.309 C 
ATOM     14  C15 ZIN A   1      19.006   1.264   7.184  0.00  0.00     0.309 C 
ENDBRANCH  11  12
ENDBRANCH  10  11
ENDBRANCH   9  10
ENDBRANCH   1   9
BRANCH   1  15
ATOM     15  C16 ZIN A   1      18.456  -3.033  11.154  0.00  0.00    -0.025 A 
ATOM     16  C21 ZIN A   1      19.374  -3.942  10.664  0.00  0.00     0.010 A 
ATOM     17  C20 ZIN A   1      19.024  -5.273  10.527  0.00  0.00     0.001 A 
ATOM     18  C19 ZIN A   1      17.754  -5.692  10.871  0.00  0.00     0.000 A 
ATOM     19  C18 ZIN A   1      16.833  -4.783  11.357  0.00  0.00     0.001 A 
ATOM     20  C17 ZIN A   1      17.183  -3.453  11.498  0.00  0.00     0.010 A 
ENDBRANCH   1  15
TORSDOF 6
ENDMDL
MODEL 6
REMARK VINA RESULT:      -6.6      1.952      4.504
REMARK  6 active torsions:
REMARK  status: ('A' for Active; 'I' for Inactive)
REMARK    1  A    between atoms: C7_7  and  C8_8 
REMARK    2  A    between atoms: C8_8  and  O10_9 
REMARK    3  A    between atoms: C8_8  and  C16_15 
REMARK    4  A    between atoms: O10_9  and  C11_10 
REMARK    5  A    between atoms: C11_10  and  C12_11 
REMARK    6  A    between atoms: C12_11  and  N13_12 
ROOT
ATOM      1  C8  ZIN A   1      18.465   1.076  10.086  0.00  0.00     0.188 C 
ENDROOT
BRANCH   1   2
ATOM      2  C7  ZIN A   1      18.714  -0.232  10.792  0.00  0.00    -0.019 A 
ATOM      3  C2  ZIN A   1      17.787  -0.716  11.697  0.00  0.00    -0.053 A 
ATOM      4  C1  ZIN A   1      16.525   0.061  11.972  0.00  0.00     0.049 C 
ATOM      5  C3  ZIN A   1      18.014  -1.917  12.344  0.00  0.00     0.007 A 
ATOM      6  C4  ZIN A   1      19.171  -2.629  12.092  0.00  0.00     0.001 A 
ATOM      7  C5  ZIN A   1      20.100  -2.142  11.192  0.00  0.00     0.001 A 
ATOM      8  C6  ZIN A   1      19.873  -0.943  10.544  0.00  0.00     0.011 A 
ENDBRANCH   1   2
BRANCH   1   9
ATOM      9  O10 ZIN A   1      19.577   1.948  10.294  0.00  0.00    -0.375 OA
BRANCH   9  10
ATOM     10  C11 ZIN A   1      19.285   3.074  11.125  0.00  0.00     0.199 C 
BRANCH  10  11
ATOM     11  C12 ZIN A   1      17.791   3.396  11.038  0.00  0.00     0.297 C 
BRANCH  11  12
ATOM     12  N13 ZIN A   1      17.290   3.758  12.370  0.00  0.00     0.082 N 
ATOM     13  C14 ZIN A   1      18.087   3.117  13.425  0.00  0.00     0.309 C 
ATOM     14  C15 ZIN A   1      17.262   5.217  12.544  0.00  0.00     0.309 C 
ENDBRANCH  11  12
ENDBRANCH  10  11
ENDBRANCH   9  10
ENDBRANCH   1   9
BRANCH   1  15
ATOM     15  C16 ZIN A   1      18.293   0.824   8.610  0.00  0.00    -0.025 A 
ATOM     16  C21 ZIN A   1      19.126   1.448   7.701  0.00  0.00     0.010 A 
ATOM     17  C20 ZIN A   1      18.971   1.212   6.347  0.00  0.00     0.001 A 
ATOM     18  C19 ZIN A   1      17.979   0.360   5.903  0.00  0.00     0.000 A 
ATOM     19  C18 ZIN A   1      17.143  -0.261   6.812  0.00  0.00     0.001 A 
ATOM     20  C17 ZIN A   1      17.299  -0.029   8.165  0.00  0.00     0.010 A 
ENDBRANCH   1  15
TORSDOF 6
ENDMDL
MODEL 7
REMARK VINA RESULT:      -6.4      2.251      5.163
REMARK  6 active torsions:
REMARK  status: ('A' for Active; 'I' for Inactive)
REMARK    1  A    between atoms: C7_7  and  C8_8 
REMARK    2  A    between atoms: C8_8  and  O10_9 
REMARK    3  A    between atoms: C8_8  and  C16_15 
REMARK    4  A    between atoms: O10_9  and  C11_10 
REMARK    5  A    between atoms: C11_10  and  C12_11 
REMARK    6  A    between atoms: C12_11  and  N13_12 
ROOT
ATOM      1  C8  ZIN A   1      18.666  -0.761  12.294  0.00  0.00     0.188 C 
ENDROOT
BRANCH   1   2
ATOM      2  C7  ZIN A   1      18.781   0.630  11.726  0.00  0.00    -0.019 A 
ATOM      3  C2  ZIN A   1      17.899   1.052  10.748  0.00  0.00    -0.053 A 
ATOM      4  C1  ZIN A   1      16.821   0.123  10.254  0.00  0.00     0.049 C 
ATOM      5  C3  ZIN A   1      18.003   2.329  10.227  0.00  0.00     0.007 A 
ATOM      6  C4  ZIN A   1      18.992   3.181  10.681  0.00  0.00     0.001 A 
ATOM      7  C5  ZIN A   1      19.877   2.758  11.655  0.00  0.00     0.001 A 
ATOM      8  C6  ZIN A   1      19.773   1.482  12.176  0.00  0.00     0.011 A 
ENDBRANCH   1   2
BRANCH   1   9
ATOM      9  O10 ZIN A   1      19.846  -1.502  11.978  0.00  0.00    -0.375 OA
BRANCH   9  10
ATOM     10  C11 ZIN A   1      19.665  -2.467  10.939  0.00  0.00     0.199 C 
BRANCH  10  11
ATOM     11  C12 ZIN A   1      19.552  -3.863  11.554  0.00  0.00     0.297 C 
BRANCH  11  12
ATOM     12  N13 ZIN A   1      18.439  -4.587  10.927  0.00  0.00     0.082 N 
ATOM     13  C14 ZIN A   1      17.539  -5.151  11.942  0.00  0.00     0.309 C 
ATOM     14  C15 ZIN A   1      17.704  -3.720   9.996  0.00  0.00     0.309 C 
ENDBRANCH  11  12
ENDBRANCH  10  11
ENDBRANCH   9  10
ENDBRANCH   1   9
BRANCH   1  15
ATOM     15  C16 ZIN A   1      18.509  -0.680  13.791  0.00  0.00    -0.025 A 
ATOM     16  C21 ZIN A   1      19.315  -1.445  14.613  0.00  0.00     0.010 A 
ATOM     17  C20 ZIN A   1      19.174  -1.367  15.986  0.00  0.00     0.001 A 
ATOM     18  C19 ZIN A   1      18.222  -0.531  16.536  0.00  0.00     0.000 A 
ATOM     19  C18 ZIN A   1      17.412   0.230  15.715  0.00  0.00     0.001 A 
ATOM     20  C17 ZIN A   1      17.555   0.156  14.342  0.00  0.00     0.010 A 
ENDBRANCH   1  15
TORSDOF 6
ENDMDL
MODEL 8
REMARK VINA RESULT:      -6.3      2.762      6.477
REMARK  6 active torsions:
REMARK  status: ('A' for Active; 'I' for Inactive)
REMARK    1  A    between atoms: C7_7  and  C8_8 
REMARK    2  A    between atoms: C8_8  and  O10_9 
REMARK    3  A    between atoms: C8_8  and  C16_15 
REMARK    4  A    between atoms: O10_9  and  C11_10 
REMARK    5  A    between atoms: C11_10  and  C12_11 
REMARK    6  A    between atoms: C12_11  and  N13_12 
ROOT
ATOM      1  C8  ZIN A   1      19.309  -1.517  12.038  0.00  0.00     0.188 C 
ENDROOT
BRANCH   1   2
ATOM      2  C7  ZIN A   1      18.707  -2.860  11.712  0.00  0.00    -0.019 A 
ATOM      3  C2  ZIN A   1      19.526  -3.961  11.539  0.00  0.00    -0.053 A 
ATOM      4  C1  ZIN A   1      21.020  -3.819  11.681  0.00  0.00     0.049 C 
ATOM      5  C3  ZIN A   1      18.974  -5.193  11.241  0.00  0.00     0.007 A 
ATOM      6  C4  ZIN A   1      17.605  -5.323  11.111  0.00  0.00     0.001 A 
ATOM      7  C5  ZIN A   1      16.787  -4.222  11.279  0.00  0.00     0.001 A 
ATOM      8  C6  ZIN A   1      17.337  -2.990  11.577  0.00  0.00     0.011 A 
ENDBRANCH   1   2
BRANCH   1   9
ATOM      9  O10 ZIN A   1      18.987  -0.588  11.002  0.00  0.00    -0.375 OA
BRANCH   9  10
ATOM     10  C11 ZIN A   1      20.064  -0.332  10.097  0.00  0.00     0.199 C 
BRANCH  10  11
ATOM     11  C12 ZIN A   1      19.538  -0.352   8.660  0.00  0.00     0.297 C 
BRANCH  11  12
ATOM     12  N13 ZIN A   1      18.243  -1.045   8.622  0.00  0.00     0.082 N 
ATOM     13  C14 ZIN A   1      17.240  -0.245   7.905  0.00  0.00     0.309 C 
ATOM     14  C15 ZIN A   1      18.377  -2.380   8.024  0.00  0.00     0.309 C 
ENDBRANCH  11  12
ENDBRANCH  10  11
ENDBRANCH   9  10
ENDBRANCH   1   9
BRANCH   1  15
ATOM     15  C16 ZIN A   1      18.751  -1.023  13.348  0.00  0.00    -0.025 A 
ATOM     16  C21 ZIN A   1      19.062  -1.679  14.523  0.00  0.00     0.010 A 
ATOM     17  C20 ZIN A   1      18.555  -1.222  15.726  0.00  0.00     0.001 A 
ATOM     18  C19 ZIN A   1      17.730  -0.113  15.751  0.00  0.00     0.000 A 
ATOM     19  C18 ZIN A   1      17.414   0.540  14.575  0.00  0.00     0.001 A 
ATOM     20  C17 ZIN A   1      17.925   0.086  13.373  0.00  0.00     0.010 A 
ENDBRANCH   1  15
TORSDOF 6
ENDMDL
MODEL 9
REMARK VINA RESULT:      -6.2      1.914      4.925
REMARK  6 active torsions:
REMARK  status: ('A' for Active; 'I' for Inactive)
REMARK    1  A    between atoms: C7_7  and  C8_8 
REMARK    2  A    between atoms: C8_8  and  O10_9 
REMARK    3  A    between atoms: C8_8  and  C16_15 
REMARK    4  A    between atoms: O10_9  and  C11_10 
REMARK    5  A    between atoms: C11_10  and  C12_11 
REMARK    6  A    between atoms: C12_11  and  N13_12 
ROOT
ATOM      1  C8  ZIN A   1      19.119   2.184  10.442  0.00  0.00     0.188 C 
ENDROOT
BRANCH   1   2
ATOM      2  C7  ZIN A   1      18.676   0.890  11.075  0.00  0.00    -0.019 A 
ATOM      3  C2  ZIN A   1      19.575   0.137  11.809  0.00  0.00    -0.053 A 
ATOM      4  C1  ZIN A   1      20.995   0.614  11.980  0.00  0.00     0.049 C 
ATOM      5  C3  ZIN A   1      19.169  -1.049  12.392  0.00  0.00     0.007 A 
ATOM      6  C4  ZIN A   1      17.867  -1.485  12.235  0.00  0.00     0.001 A 
ATOM      7  C5  ZIN A   1      16.971  -0.736  11.497  0.00  0.00     0.001 A 
ATOM      8  C6  ZIN A   1      17.376   0.451  10.915  0.00  0.00     0.011 A 
ENDBRANCH   1   2
BRANCH   1   9
ATOM      9  O10 ZIN A   1      18.797   2.166   9.050  0.00  0.00    -0.375 OA
BRANCH   9  10
ATOM     10  C11 ZIN A   1      19.455   1.131   8.315  0.00  0.00     0.199 C 
BRANCH  10  11
ATOM     11  C12 ZIN A   1      18.539   0.644   7.190  0.00  0.00     0.297 C 
BRANCH  11  12
ATOM     12  N13 ZIN A   1      18.591  -0.822   7.117  0.00  0.00     0.082 N 
ATOM     13  C14 ZIN A   1      19.249  -1.264   5.881  0.00  0.00     0.309 C 
ATOM     14  C15 ZIN A   1      19.256  -1.386   8.299  0.00  0.00     0.309 C 
ENDBRANCH  11  12
ENDBRANCH  10  11
ENDBRANCH   9  10
ENDBRANCH   1   9
BRANCH   1  15
ATOM     15  C16 ZIN A   1      18.411   3.336  11.107  0.00  0.00    -0.025 A 
ATOM     16  C21 ZIN A   1      17.521   4.109  10.386  0.00  0.00     0.010 A 
ATOM     17  C20 ZIN A   1      16.867   5.163  10.998  0.00  0.00     0.001 A 
ATOM     18  C19 ZIN A   1      17.112   5.449  12.328  0.00  0.00     0.000 A 
ATOM     19  C18 ZIN A   1      18.006   4.679  13.047  0.00  0.00     0.001 A 
ATOM     20  C17 ZIN A   1      18.656   3.623  12.437  0.00  0.00     0.010 A 
ENDBRANCH   1  15
TORSDOF 6
ENDMDL
