MODEL 1
REMARK VINA RESULT:      -8.4      0.000      0.000
REMARK  8 active torsions:
REMARK  status: ('A' for Active; 'I' for Inactive)
REMARK    1  A    between atoms: C2_2  and  C4_4 
REMARK    2  A    between atoms: C4_4  and  O5_5 
REMARK    3  A    between atoms: O5_5  and  C6_6 
REMARK    4  A    between atoms: C6_6  and  C7_7 
REMARK    5  A    between atoms: C7_7  and  N8_8 
REMARK    6  A    between atoms: N11_11  and  C13_13 
REMARK    7  A    between atoms: C13_13  and  C15_14 
REMARK    8  A    between atoms: C13_13  and  C21_20 
ROOT
ATOM      1  N8  <0> d   1      18.724  -0.219  14.821  0.00  0.00     0.093 N 
ATOM      2  C9  <0> d   1      17.528   0.317  14.154  0.00  0.00     0.300 C 
ATOM      3  C10 <0> d   1      17.951   1.357  13.115  0.00  0.00     0.266 C 
ATOM      4  N11 <0> d   1      18.843   0.732  12.129  0.00  0.00    -0.055 N 
ATOM      5  H12 <0> d   1      18.362  -0.033  11.678  0.00  0.00     0.281 HD
ATOM      6  C28 <0> d   1      20.043   0.223  12.807  0.00  0.00     0.266 C 
ATOM      7  C29 <0> d   1      19.638  -0.827  13.843  0.00  0.00     0.300 C 
ENDROOT
BRANCH   4   8
ATOM      8  C13 <0> d   1      19.234   1.726  11.122  0.00  0.00     0.254 C 
BRANCH   8   9
ATOM      9  C15 <0> d   1      18.571   3.043  11.432  0.00  0.00    -0.023 A 
ATOM     10  C20 <0> d   1      19.113   3.882  12.388  0.00  0.00     0.009 A 
ATOM     11  C19 <0> d   1      18.508   5.092  12.670  0.00  0.00     0.001 A 
ATOM     12  C18 <0> d   1      17.354   5.459  12.002  0.00  0.00     0.000 A 
ATOM     13  C17 <0> d   1      16.809   4.618  11.051  0.00  0.00     0.001 A 
ATOM     14  C16 <0> d   1      17.417   3.410  10.766  0.00  0.00     0.009 A 
ENDBRANCH   8   9
BRANCH   8  15
ATOM     15  C21 <0> d   1      18.801   1.255   9.757  0.00  0.00    -0.023 A 
ATOM     16  C27 <0> d   1      17.792   0.317   9.638  0.00  0.00     0.011 A 
ATOM     17  C26 <0> d   1      17.391  -0.111   8.387  0.00  0.00     0.024 A 
ATOM     18  C24 <0> d   1      18.008   0.389   7.254  0.00  0.00     0.034 A 
ATOM     19  C23 <0> d   1      19.022   1.323   7.374  0.00  0.00     0.024 A 
ATOM     20 Cl25 <0> d   1      17.510  -0.155   5.683  0.00  0.00    -0.084 Cl
ATOM     21  C22 <0> d   1      19.417   1.755   8.626  0.00  0.00     0.011 A 
ENDBRANCH   8  15
ENDBRANCH   4   8
BRANCH   1  22
ATOM     22  C7  <0> d   1      18.356  -1.182  15.867  0.00  0.00     0.298 C 
BRANCH  22  23
ATOM     23  C6  <0> d   1      17.195  -0.622  16.691  0.00  0.00     0.198 C 
BRANCH  23  24
ATOM     24  O5  <0> d   1      17.675  -0.206  17.970  0.00  0.00    -0.379 OA
BRANCH  24  25
ATOM     25  C4  <0> d   1      17.732   1.213  18.137  0.00  0.00     0.280 C 
BRANCH  25  26
ATOM     26  C2  <0> d   1      19.160   1.635  18.366  0.00  0.00     0.197 C 
ATOM     27  O1  <0> d   1      20.036   0.793  18.469  0.00  0.00    -0.646 OA
ATOM     28  O3  <0> d   1      19.440   2.819  18.446  0.00  0.00    -0.646 OA
ENDBRANCH  25  26
ENDBRANCH  24  25
ENDBRANCH  23  24
ENDBRANCH  22  23
ENDBRANCH   1  22
TORSDOF 8
ENDMDL
MODEL 2
REMARK VINA RESULT:      -8.2      5.642      8.979
REMARK  8 active torsions:
REMARK  status: ('A' for Active; 'I' for Inactive)
REMARK    1  A    between atoms: C2_2  and  C4_4 
REMARK    2  A    between atoms: C4_4  and  O5_5 
REMARK    3  A    between atoms: O5_5  and  C6_6 
REMARK    4  A    between atoms: C6_6  and  C7_7 
REMARK    5  A    between atoms: C7_7  and  N8_8 
REMARK    6  A    between atoms: N11_11  and  C13_13 
REMARK    7  A    between atoms: C13_13  and  C15_14 
REMARK    8  A    between atoms: C13_13  and  C21_20 
ROOT
ATOM      1  N8  <0> d   1      19.010  -0.131   7.374  0.00  0.00     0.093 N 
ATOM      2  C9  <0> d   1      17.826  -0.835   7.887  0.00  0.00     0.300 C 
ATOM      3  C10 <0> d   1      18.247  -1.785   9.010  0.00  0.00     0.266 C 
ATOM      4  N11 <0> d   1      18.885  -1.016  10.088  0.00  0.00    -0.055 N 
ATOM      5  H12 <0> d   1      18.234  -0.329  10.440  0.00  0.00     0.281 HD
ATOM      6  C28 <0> d   1      20.078  -0.337   9.567  0.00  0.00     0.266 C 
ATOM      7  C29 <0> d   1      19.672   0.625   8.448  0.00  0.00     0.300 C 
ENDROOT
BRANCH   4   8
ATOM      8  C13 <0> d   1      19.273  -1.925  11.175  0.00  0.00     0.254 C 
BRANCH   8   9
ATOM      9  C15 <0> d   1      18.628  -3.269  10.959  0.00  0.00    -0.023 A 
ATOM     10  C20 <0> d   1      17.330  -3.488  11.380  0.00  0.00     0.009 A 
ATOM     11  C19 <0> d   1      16.736  -4.719  11.179  0.00  0.00     0.001 A 
ATOM     12  C18 <0> d   1      17.444  -5.736  10.563  0.00  0.00     0.000 A 
ATOM     13  C17 <0> d   1      18.744  -5.518  10.147  0.00  0.00     0.001 A 
ATOM     14  C16 <0> d   1      19.336  -4.285  10.345  0.00  0.00     0.009 A 
ENDBRANCH   8   9
BRANCH   8  15
ATOM     15  C21 <0> d   1      18.818  -1.354  12.493  0.00  0.00    -0.023 A 
ATOM     16  C27 <0> d   1      19.349  -1.837  13.675  0.00  0.00     0.011 A 
ATOM     17  C26 <0> d   1      18.936  -1.310  14.884  0.00  0.00     0.024 A 
ATOM     18  C24 <0> d   1      17.983  -0.308  14.912  0.00  0.00     0.034 A 
ATOM     19  C23 <0> d   1      17.447   0.171  13.729  0.00  0.00     0.024 A 
ATOM     20 Cl25 <0> d   1      17.458   0.349  16.431  0.00  0.00    -0.084 Cl
ATOM     21  C22 <0> d   1      17.866  -0.353  12.521  0.00  0.00     0.011 A 
ENDBRANCH   8  15
ENDBRANCH   4   8
BRANCH   1  22
ATOM     22  C7  <0> d   1      18.654   0.750   6.254  0.00  0.00     0.298 C 
BRANCH  22  23
ATOM     23  C6  <0> d   1      18.542  -0.076   4.971  0.00  0.00     0.198 C 
BRANCH  23  24
ATOM     24  O5  <0> d   1      19.620  -1.010   4.910  0.00  0.00    -0.379 OA
BRANCH  24  25
ATOM     25  C4  <0> d   1      19.238  -2.310   4.455  0.00  0.00     0.280 C 
BRANCH  25  26
ATOM     26  C2  <0> d   1      19.196  -3.261   5.624  0.00  0.00     0.197 C 
ATOM     27  O1  <0> d   1      20.201  -3.457   6.286  0.00  0.00    -0.646 OA
ATOM     28  O3  <0> d   1      18.157  -3.830   5.909  0.00  0.00    -0.646 OA
ENDBRANCH  25  26
ENDBRANCH  24  25
ENDBRANCH  23  24
ENDBRANCH  22  23
ENDBRANCH   1  22
TORSDOF 8
ENDMDL
MODEL 3
REMARK VINA RESULT:      -8.2      2.772      4.002
REMARK  8 active torsions:
REMARK  status: ('A' for Active; 'I' for Inactive)
REMARK    1  A    between atoms: C2_2  and  C4_4 
REMARK    2  A    between atoms: C4_4  and  O5_5 
REMARK    3  A    between atoms: O5_5  and  C6_6 
REMARK    4  A    between atoms: C6_6  and  C7_7 
REMARK    5  A    between atoms: C7_7  and  N8_8 
REMARK    6  A    between atoms: N11_11  and  C13_13 
REMARK    7  A    between atoms: C13_13  and  C15_14 
REMARK    8  A    between atoms: C13_13  and  C21_20 
ROOT
ATOM      1  N8  <0> d   1      18.974   0.026  15.941  0.00  0.00     0.093 N 
ATOM      2  C9  <0> d   1      18.963   1.112  14.949  0.00  0.00     0.300 C 
ATOM      3  C10 <0> d   1      19.637   0.629  13.663  0.00  0.00     0.266 C 
ATOM      4  N11 <0> d   1      18.915  -0.540  13.141  0.00  0.00    -0.055 N 
ATOM      5  H12 <0> d   1      17.956  -0.287  12.956  0.00  0.00     0.281 HD
ATOM      6  C28 <0> d   1      18.954  -1.623  14.132  0.00  0.00     0.266 C 
ATOM      7  C29 <0> d   1      18.276  -1.160  15.422  0.00  0.00     0.300 C 
ENDROOT
BRANCH   4   8
ATOM      8  C13 <0> d   1      19.551  -0.992  11.896  0.00  0.00     0.254 C 
BRANCH   8   9
ATOM      9  C15 <0> d   1      19.253  -0.008  10.795  0.00  0.00    -0.023 A 
ATOM     10  C20 <0> d   1      19.933  -0.088   9.594  0.00  0.00     0.009 A 
ATOM     11  C19 <0> d   1      19.657   0.812   8.581  0.00  0.00     0.001 A 
ATOM     12  C18 <0> d   1      18.706   1.797   8.773  0.00  0.00     0.000 A 
ATOM     13  C17 <0> d   1      18.030   1.881   9.976  0.00  0.00     0.001 A 
ATOM     14  C16 <0> d   1      18.304   0.978  10.986  0.00  0.00     0.009 A 
ENDBRANCH   8   9
BRANCH   8  15
ATOM     15  C21 <0> d   1      19.010  -2.347  11.519  0.00  0.00    -0.023 A 
ATOM     16  C27 <0> d   1      17.650  -2.523  11.342  0.00  0.00     0.011 A 
ATOM     17  C26 <0> d   1      17.154  -3.764  10.992  0.00  0.00     0.024 A 
ATOM     18  C24 <0> d   1      18.017  -4.833  10.830  0.00  0.00     0.034 A 
ATOM     19  C23 <0> d   1      19.377  -4.658  11.013  0.00  0.00     0.024 A 
ATOM     20 Cl25 <0> d   1      17.393  -6.394  10.397  0.00  0.00    -0.084 Cl
ATOM     21  C22 <0> d   1      19.872  -3.415  11.357  0.00  0.00     0.011 A 
ENDBRANCH   8  15
ENDBRANCH   4   8
BRANCH   1  22
ATOM     22  C7  <0> d   1      18.385   0.469  17.212  0.00  0.00     0.298 C 
BRANCH  22  23
ATOM     23  C6  <0> d   1      19.471   0.513  18.289  0.00  0.00     0.198 C 
BRANCH  23  24
ATOM     24  O5  <0> d   1      19.823   1.871  18.556  0.00  0.00    -0.379 OA
BRANCH  24  25
ATOM     25  C4  <0> d   1      18.758   2.800  18.346  0.00  0.00     0.280 C 
BRANCH  25  26
ATOM     26  C2  <0> d   1      19.208   3.872  17.386  0.00  0.00     0.197 C 
ATOM     27  O1  <0> d   1      18.532   4.874  17.231  0.00  0.00    -0.646 OA
ATOM     28  O3  <0> d   1      20.250   3.737  16.769  0.00  0.00    -0.646 OA
ENDBRANCH  25  26
ENDBRANCH  24  25
ENDBRANCH  23  24
ENDBRANCH  22  23
ENDBRANCH   1  22
TORSDOF 8
ENDMDL
MODEL 4
REMARK VINA RESULT:      -7.8      2.137      4.310
REMARK  8 active torsions:
REMARK  status: ('A' for Active; 'I' for Inactive)
REMARK    1  A    between atoms: C2_2  and  C4_4 
REMARK    2  A    between atoms: C4_4  and  O5_5 
REMARK    3  A    between atoms: O5_5  and  C6_6 
REMARK    4  A    between atoms: C6_6  and  C7_7 
REMARK    5  A    between atoms: C7_7  and  N8_8 
REMARK    6  A    between atoms: N11_11  and  C13_13 
REMARK    7  A    between atoms: C13_13  and  C15_14 
REMARK    8  A    between atoms: C13_13  and  C21_20 
ROOT
ATOM      1  N8  <0> d   1      18.671   1.826  14.522  0.00  0.00     0.093 N 
ATOM      2  C9  <0> d   1      19.517   0.655  14.245  0.00  0.00     0.300 C 
ATOM      3  C10 <0> d   1      18.794  -0.272  13.266  0.00  0.00     0.266 C 
ATOM      4  N11 <0> d   1      18.513   0.455  12.020  0.00  0.00    -0.055 N 
ATOM      5  H12 <0> d   1      19.380   0.778  11.616  0.00  0.00     0.281 HD
ATOM      6  C28 <0> d   1      17.649   1.608  12.308  0.00  0.00     0.266 C 
ATOM      7  C29 <0> d   1      18.362   2.550  13.280  0.00  0.00     0.300 C 
ENDROOT
BRANCH   4   8
ATOM      8  C13 <0> d   1      17.836  -0.440  11.073  0.00  0.00     0.254 C 
BRANCH   8   9
ATOM      9  C15 <0> d   1      18.308  -1.853  11.293  0.00  0.00    -0.023 A 
ATOM     10  C20 <0> d   1      19.654  -2.155  11.201  0.00  0.00     0.009 A 
ATOM     11  C19 <0> d   1      20.088  -3.451  11.408  0.00  0.00     0.001 A 
ATOM     12  C18 <0> d   1      19.174  -4.448  11.697  0.00  0.00     0.000 A 
ATOM     13  C17 <0> d   1      17.828  -4.147  11.784  0.00  0.00     0.001 A 
ATOM     14  C16 <0> d   1      17.395  -2.850  11.581  0.00  0.00     0.009 A 
ENDBRANCH   8   9
BRANCH   8  15
ATOM     15  C21 <0> d   1      18.159  -0.016   9.663  0.00  0.00    -0.023 A 
ATOM     16  C27 <0> d   1      19.147   0.924   9.433  0.00  0.00     0.011 A 
ATOM     17  C26 <0> d   1      19.447   1.309   8.141  0.00  0.00     0.024 A 
ATOM     18  C24 <0> d   1      18.750   0.763   7.077  0.00  0.00     0.034 A 
ATOM     19  C23 <0> d   1      17.757  -0.172   7.308  0.00  0.00     0.024 A 
ATOM     20 Cl25 <0> d   1      19.121   1.253   5.453  0.00  0.00    -0.084 Cl
ATOM     21  C22 <0> d   1      17.463  -0.561   8.601  0.00  0.00     0.011 A 
ENDBRANCH   8  15
ENDBRANCH   4   8
BRANCH   1  22
ATOM     22  C7  <0> d   1      19.308   2.714  15.504  0.00  0.00     0.298 C 
BRANCH  22  23
ATOM     23  C6  <0> d   1      18.722   2.443  16.891  0.00  0.00     0.198 C 
BRANCH  23  24
ATOM     24  O5  <0> d   1      19.581   1.555  17.606  0.00  0.00    -0.379 OA
BRANCH  24  25
ATOM     25  C4  <0> d   1      18.890   0.551  18.353  0.00  0.00     0.280 C 
BRANCH  25  26
ATOM     26  C2  <0> d   1      18.523  -0.591  17.440  0.00  0.00     0.197 C 
ATOM     27  O1  <0> d   1      17.370  -0.729  17.069  0.00  0.00    -0.646 OA
ATOM     28  O3  <0> d   1      19.381  -1.374  17.071  0.00  0.00    -0.646 OA
ENDBRANCH  25  26
ENDBRANCH  24  25
ENDBRANCH  23  24
ENDBRANCH  22  23
ENDBRANCH   1  22
TORSDOF 8
ENDMDL
MODEL 5
REMARK VINA RESULT:      -7.8      5.114      8.188
REMARK  8 active torsions:
REMARK  status: ('A' for Active; 'I' for Inactive)
REMARK    1  A    between atoms: C2_2  and  C4_4 
REMARK    2  A    between atoms: C4_4  and  O5_5 
REMARK    3  A    between atoms: O5_5  and  C6_6 
REMARK    4  A    between atoms: C6_6  and  C7_7 
REMARK    5  A    between atoms: C7_7  and  N8_8 
REMARK    6  A    between atoms: N11_11  and  C13_13 
REMARK    7  A    between atoms: C13_13  and  C15_14 
REMARK    8  A    between atoms: C13_13  and  C21_20 
ROOT
ATOM      1  N8  <0> d   1      18.403   0.199   6.642  0.00  0.00     0.093 N 
ATOM      2  C9  <0> d   1      17.409  -0.095   7.684  0.00  0.00     0.300 C 
ATOM      3  C10 <0> d   1      18.054   0.069   9.062  0.00  0.00     0.266 C 
ATOM      4  N11 <0> d   1      18.552   1.444   9.210  0.00  0.00    -0.055 N 
ATOM      5  H12 <0> d   1      17.784   2.091   9.108  0.00  0.00     0.281 HD
ATOM      6  C28 <0> d   1      19.561   1.714   8.178  0.00  0.00     0.266 C 
ATOM      7  C29 <0> d   1      18.927   1.565   6.793  0.00  0.00     0.300 C 
ENDROOT
BRANCH   4   8
ATOM      8  C13 <0> d   1      19.155   1.605  10.540  0.00  0.00     0.254 C 
BRANCH   8   9
ATOM      9  C15 <0> d   1      18.876   0.380  11.370  0.00  0.00    -0.023 A 
ATOM     10  C20 <0> d   1      17.635   0.210  11.955  0.00  0.00     0.009 A 
ATOM     11  C19 <0> d   1      17.376  -0.916  12.713  0.00  0.00     0.001 A 
ATOM     12  C18 <0> d   1      18.362  -1.869  12.894  0.00  0.00     0.000 A 
ATOM     13  C17 <0> d   1      19.604  -1.696  12.314  0.00  0.00     0.001 A 
ATOM     14  C16 <0> d   1      19.861  -0.572  11.552  0.00  0.00     0.009 A 
ENDBRANCH   8   9
BRANCH   8  15
ATOM     15  C21 <0> d   1      18.565   2.816  11.215  0.00  0.00    -0.023 A 
ATOM     16  C27 <0> d   1      17.551   3.526  10.597  0.00  0.00     0.011 A 
ATOM     17  C26 <0> d   1      17.006   4.633  11.218  0.00  0.00     0.024 A 
ATOM     18  C24 <0> d   1      17.482   5.038  12.453  0.00  0.00     0.034 A 
ATOM     19  C23 <0> d   1      18.500   4.331  13.067  0.00  0.00     0.024 A 
ATOM     20 Cl25 <0> d   1      16.802   6.434  13.230  0.00  0.00    -0.084 Cl
ATOM     21  C22 <0> d   1      19.040   3.221  12.448  0.00  0.00     0.011 A 
ENDBRANCH   8  15
ENDBRANCH   4   8
BRANCH   1  22
ATOM     22  C7  <0> d   1      17.836  -0.002   5.302  0.00  0.00     0.298 C 
BRANCH  22  23
ATOM     23  C6  <0> d   1      18.950  -0.393   4.330  0.00  0.00     0.198 C 
BRANCH  23  24
ATOM     24  O5  <0> d   1      19.788  -1.378   4.936  0.00  0.00    -0.379 OA
BRANCH  24  25
ATOM     25  C4  <0> d   1      19.264  -2.706   4.873  0.00  0.00     0.280 C 
BRANCH  25  26
ATOM     26  C2  <0> d   1      19.407  -3.367   6.220  0.00  0.00     0.197 C 
ATOM     27  O1  <0> d   1      18.490  -3.322   7.021  0.00  0.00    -0.646 OA
ATOM     28  O3  <0> d   1      20.439  -3.950   6.506  0.00  0.00    -0.646 OA
ENDBRANCH  25  26
ENDBRANCH  24  25
ENDBRANCH  23  24
ENDBRANCH  22  23
ENDBRANCH   1  22
TORSDOF 8
ENDMDL
MODEL 6
REMARK VINA RESULT:      -7.8      5.415      7.921
REMARK  8 active torsions:
REMARK  status: ('A' for Active; 'I' for Inactive)
REMARK    1  A    between atoms: C2_2  and  C4_4 
REMARK    2  A    between atoms: C4_4  and  O5_5 
REMARK    3  A    between atoms: O5_5  and  C6_6 
REMARK    4  A    between atoms: C6_6  and  C7_7 
REMARK    5  A    between atoms: C7_7  and  N8_8 
REMARK    6  A    between atoms: N11_11  and  C13_13 
REMARK    7  A    between atoms: C13_13  and  C15_14 
REMARK    8  A    between atoms: C13_13  and  C21_20 
ROOT
ATOM      1  N8  <0> d   1      18.562  -2.948   9.038  0.00  0.00     0.093 N 
ATOM      2  C9  <0> d   1      19.265  -1.659   8.964  0.00  0.00     0.300 C 
ATOM      3  C10 <0> d   1      18.523  -0.628   9.817  0.00  0.00     0.266 C 
ATOM      4  N11 <0> d   1      18.464  -1.094  11.209  0.00  0.00    -0.055 N 
ATOM      5  H12 <0> d   1      19.401  -1.224  11.560  0.00  0.00     0.281 HD
ATOM      6  C28 <0> d   1      17.738  -2.370  11.269  0.00  0.00     0.266 C 
ATOM      7  C29 <0> d   1      18.474  -3.416  10.429  0.00  0.00     0.300 C 
ENDROOT
BRANCH   4   8
ATOM      8  C13 <0> d   1      17.767  -0.096  12.031  0.00  0.00     0.254 C 
BRANCH   8   9
ATOM      9  C15 <0> d   1      18.177   1.287  11.595  0.00  0.00    -0.023 A 
ATOM     10  C20 <0> d   1      19.472   1.722  11.804  0.00  0.00     0.009 A 
ATOM     11  C19 <0> d   1      19.850   2.989  11.401  0.00  0.00     0.001 A 
ATOM     12  C18 <0> d   1      18.929   3.824  10.795  0.00  0.00     0.000 A 
ATOM     13  C17 <0> d   1      17.632   3.391  10.591  0.00  0.00     0.001 A 
ATOM     14  C16 <0> d   1      17.256   2.122  10.991  0.00  0.00     0.009 A 
ENDBRANCH   8   9
BRANCH   8  15
ATOM     15  C21 <0> d   1      18.132  -0.295  13.480  0.00  0.00    -0.023 A 
ATOM     16  C27 <0> d   1      17.472   0.418  14.463  0.00  0.00     0.011 A 
ATOM     17  C26 <0> d   1      17.802   0.231  15.791  0.00  0.00     0.024 A 
ATOM     18  C24 <0> d   1      18.801  -0.660  16.137  0.00  0.00     0.034 A 
ATOM     19  C23 <0> d   1      19.466  -1.369  15.152  0.00  0.00     0.024 A 
ATOM     20 Cl25 <0> d   1      19.222  -0.890  17.806  0.00  0.00    -0.084 Cl
ATOM     21  C22 <0> d   1      19.130  -1.186  13.824  0.00  0.00     0.011 A 
ENDBRANCH   8  15
ENDBRANCH   4   8
BRANCH   1  22
ATOM     22  C7  <0> d   1      19.213  -3.952   8.185  0.00  0.00     0.298 C 
BRANCH  22  23
ATOM     23  C6  <0> d   1      18.598  -3.910   6.785  0.00  0.00     0.198 C 
BRANCH  23  24
ATOM     24  O5  <0> d   1      19.565  -3.426   5.853  0.00  0.00    -0.379 OA
BRANCH  24  25
ATOM     25  C4  <0> d   1      19.001  -2.760   4.721  0.00  0.00     0.280 C 
BRANCH  25  26
ATOM     26  C2  <0> d   1      19.044  -1.270   4.941  0.00  0.00     0.197 C 
ATOM     27  O1  <0> d   1      20.025  -0.632   4.600  0.00  0.00    -0.646 OA
ATOM     28  O3  <0> d   1      18.097  -0.703   5.458  0.00  0.00    -0.646 OA
ENDBRANCH  25  26
ENDBRANCH  24  25
ENDBRANCH  23  24
ENDBRANCH  22  23
ENDBRANCH   1  22
TORSDOF 8
ENDMDL
MODEL 7
REMARK VINA RESULT:      -7.7      2.754      4.399
REMARK  8 active torsions:
REMARK  status: ('A' for Active; 'I' for Inactive)
REMARK    1  A    between atoms: C2_2  and  C4_4 
REMARK    2  A    between atoms: C4_4  and  O5_5 
REMARK    3  A    between atoms: O5_5  and  C6_6 
REMARK    4  A    between atoms: C6_6  and  C7_7 
REMARK    5  A    between atoms: C7_7  and  N8_8 
REMARK    6  A    between atoms: N11_11  and  C13_13 
REMARK    7  A    between atoms: C13_13  and  C15_14 
REMARK    8  A    between atoms: C13_13  and  C21_20 
ROOT
ATOM      1  N8  <0> d   1      19.032   2.464  14.174  0.00  0.00     0.093 N 
ATOM      2  C9  <0> d   1      18.358   2.702  12.890  0.00  0.00     0.300 C 
ATOM      3  C10 <0> d   1      18.984   1.809  11.816  0.00  0.00     0.266 C 
ATOM      4  N11 <0> d   1      18.844   0.400  12.208  0.00  0.00    -0.055 N 
ATOM      5  H12 <0> d   1      17.866   0.177  12.316  0.00  0.00     0.281 HD
ATOM      6  C28 <0> d   1      19.542   0.173  13.480  0.00  0.00     0.266 C 
ATOM      7  C29 <0> d   1      18.921   1.052  14.568  0.00  0.00     0.300 C 
ENDROOT
BRANCH   4   8
ATOM      8  C13 <0> d   1      19.429  -0.458  11.168  0.00  0.00     0.254 C 
BRANCH   8   9
ATOM      9  C15 <0> d   1      18.977   0.018   9.813  0.00  0.00    -0.023 A 
ATOM     10  C20 <0> d   1      19.773   0.880   9.081  0.00  0.00     0.009 A 
ATOM     11  C19 <0> d   1      19.361   1.313   7.835  0.00  0.00     0.001 A 
ATOM     12  C18 <0> d   1      18.147   0.890   7.323  0.00  0.00     0.000 A 
ATOM     13  C17 <0> d   1      17.349   0.033   8.057  0.00  0.00     0.001 A 
ATOM     14  C16 <0> d   1      17.764  -0.403   9.301  0.00  0.00     0.009 A 
ENDBRANCH   8   9
BRANCH   8  15
ATOM     15  C21 <0> d   1      18.978  -1.880  11.379  0.00  0.00    -0.023 A 
ATOM     16  C27 <0> d   1      19.892  -2.914  11.296  0.00  0.00     0.011 A 
ATOM     17  C26 <0> d   1      19.480  -4.218  11.494  0.00  0.00     0.024 A 
ATOM     18  C24 <0> d   1      18.151  -4.490  11.764  0.00  0.00     0.034 A 
ATOM     19  C23 <0> d   1      17.235  -3.455  11.841  0.00  0.00     0.024 A 
ATOM     20 Cl25 <0> d   1      17.631  -6.128  12.006  0.00  0.00    -0.084 Cl
ATOM     21  C22 <0> d   1      17.650  -2.151  11.648  0.00  0.00     0.011 A 
ENDBRANCH   8  15
ENDBRANCH   4   8
BRANCH   1  22
ATOM     22  C7  <0> d   1      18.496   3.345  15.221  0.00  0.00     0.298 C 
BRANCH  22  23
ATOM     23  C6  <0> d   1      19.652   3.977  15.998  0.00  0.00     0.198 C 
BRANCH  23  24
ATOM     24  O5  <0> d   1      19.857   3.259  17.215  0.00  0.00    -0.379 OA
BRANCH  24  25
ATOM     25  C4  <0> d   1      18.648   2.831  17.848  0.00  0.00     0.280 C 
BRANCH  25  26
ATOM     26  C2  <0> d   1      18.844   1.453  18.426  0.00  0.00     0.197 C 
ATOM     27  O1  <0> d   1      17.892   0.840  18.877  0.00  0.00    -0.646 OA
ATOM     28  O3  <0> d   1      19.954   0.951  18.440  0.00  0.00    -0.646 OA
ENDBRANCH  25  26
ENDBRANCH  24  25
ENDBRANCH  23  24
ENDBRANCH  22  23
ENDBRANCH   1  22
TORSDOF 8
ENDMDL
MODEL 8
REMARK VINA RESULT:      -7.6      5.326      7.822
REMARK  8 active torsions:
REMARK  status: ('A' for Active; 'I' for Inactive)
REMARK    1  A    between atoms: C2_2  and  C4_4 
REMARK    2  A    between atoms: C4_4  and  O5_5 
REMARK    3  A    between atoms: O5_5  and  C6_6 
REMARK    4  A    between atoms: C6_6  and  C7_7 
REMARK    5  A    between atoms: C7_7  and  N8_8 
REMARK    6  A    between atoms: N11_11  and  C13_13 
REMARK    7  A    between atoms: C13_13  and  C15_14 
REMARK    8  A    between atoms: C13_13  and  C21_20 
ROOT
ATOM      1  N8  <0> d   1      18.533  -3.216   9.616  0.00  0.00     0.093 N 
ATOM      2  C9  <0> d   1      19.505  -2.128   9.803  0.00  0.00     0.300 C 
ATOM      3  C10 <0> d   1      18.826  -0.960  10.521  0.00  0.00     0.266 C 
ATOM      4  N11 <0> d   1      18.316  -1.414  11.822  0.00  0.00    -0.055 N 
ATOM      5  H12 <0> d   1      19.082  -1.764  12.379  0.00  0.00     0.281 HD
ATOM      6  C28 <0> d   1      17.330  -2.483  11.618  0.00  0.00     0.266 C 
ATOM      7  C29 <0> d   1      17.997  -3.664  10.910  0.00  0.00     0.300 C 
ENDROOT
BRANCH   4   8
ATOM      8  C13 <0> d   1      17.680  -0.287  12.518  0.00  0.00     0.254 C 
BRANCH   8   9
ATOM      9  C15 <0> d   1      18.151   1.008  11.912  0.00  0.00    -0.023 A 
ATOM     10  C20 <0> d   1      17.323   1.713  11.058  0.00  0.00     0.009 A 
ATOM     11  C19 <0> d   1      17.753   2.905  10.505  0.00  0.00     0.001 A 
ATOM     12  C18 <0> d   1      19.015   3.387  10.798  0.00  0.00     0.000 A 
ATOM     13  C17 <0> d   1      19.845   2.680  11.648  0.00  0.00     0.001 A 
ATOM     14  C16 <0> d   1      19.413   1.490  12.204  0.00  0.00     0.009 A 
ENDBRANCH   8   9
BRANCH   8  15
ATOM     15  C21 <0> d   1      18.054  -0.324  13.978  0.00  0.00    -0.023 A 
ATOM     16  C27 <0> d   1      18.895  -1.315  14.451  0.00  0.00     0.011 A 
ATOM     17  C26 <0> d   1      19.242  -1.346  15.788  0.00  0.00     0.024 A 
ATOM     18  C24 <0> d   1      18.738  -0.393  16.656  0.00  0.00     0.034 A 
ATOM     19  C23 <0> d   1      17.892   0.594  16.183  0.00  0.00     0.024 A 
ATOM     20 Cl25 <0> d   1      19.168  -0.436  18.337  0.00  0.00    -0.084 Cl
ATOM     21  C22 <0> d   1      17.551   0.628  14.845  0.00  0.00     0.011 A 
ENDBRANCH   8  15
ENDBRANCH   4   8
BRANCH   1  22
ATOM     22  C7  <0> d   1      19.134  -4.336   8.879  0.00  0.00     0.298 C 
BRANCH  22  23
ATOM     23  C6  <0> d   1      18.662  -4.301   7.424  0.00  0.00     0.198 C 
BRANCH  23  24
ATOM     24  O5  <0> d   1      19.396  -3.307   6.709  0.00  0.00    -0.379 OA
BRANCH  24  25
ATOM     25  C4  <0> d   1      18.591  -2.491   5.855  0.00  0.00     0.280 C 
BRANCH  25  26
ATOM     26  C2  <0> d   1      19.271  -1.163   5.642  0.00  0.00     0.197 C 
ATOM     27  O1  <0> d   1      19.162  -0.281   6.475  0.00  0.00    -0.646 OA
ATOM     28  O3  <0> d   1      19.934  -0.974   4.636  0.00  0.00    -0.646 OA
ENDBRANCH  25  26
ENDBRANCH  24  25
ENDBRANCH  23  24
ENDBRANCH  22  23
ENDBRANCH   1  22
TORSDOF 8
ENDMDL
MODEL 9
REMARK VINA RESULT:      -7.3      5.130      7.490
REMARK  8 active torsions:
REMARK  status: ('A' for Active; 'I' for Inactive)
REMARK    1  A    between atoms: C2_2  and  C4_4 
REMARK    2  A    between atoms: C4_4  and  O5_5 
REMARK    3  A    between atoms: O5_5  and  C6_6 
REMARK    4  A    between atoms: C6_6  and  C7_7 
REMARK    5  A    between atoms: C7_7  and  N8_8 
REMARK    6  A    between atoms: N11_11  and  C13_13 
REMARK    7  A    between atoms: C13_13  and  C15_14 
REMARK    8  A    between atoms: C13_13  and  C21_20 
ROOT
ATOM      1  N8  <0> d   1      19.137  -4.015  10.086  0.00  0.00     0.093 N 
ATOM      2  C9  <0> d   1      18.719  -4.104  11.493  0.00  0.00     0.300 C 
ATOM      3  C10 <0> d   1      19.331  -2.942  12.278  0.00  0.00     0.266 C 
ATOM      4  N11 <0> d   1      18.885  -1.668  11.696  0.00  0.00    -0.055 N 
ATOM      5  H12 <0> d   1      17.878  -1.618  11.732  0.00  0.00     0.281 HD
ATOM      6  C28 <0> d   1      19.330  -1.585  10.299  0.00  0.00     0.266 C 
ATOM      7  C29 <0> d   1      18.718  -2.735   9.497  0.00  0.00     0.300 C 
ENDROOT
BRANCH   4   8
ATOM      8  C13 <0> d   1      19.459  -0.553  12.461  0.00  0.00     0.254 C 
BRANCH   8   9
ATOM      9  C15 <0> d   1      18.971  -0.617  13.884  0.00  0.00    -0.023 A 
ATOM     10  C20 <0> d   1      19.679  -1.342  14.826  0.00  0.00     0.009 A 
ATOM     11  C19 <0> d   1      19.234  -1.397  16.133  0.00  0.00     0.001 A 
ATOM     12  C18 <0> d   1      18.076  -0.735  16.498  0.00  0.00     0.000 A 
ATOM     13  C17 <0> d   1      17.366  -0.015  15.555  0.00  0.00     0.001 A 
ATOM     14  C16 <0> d   1      17.813   0.043  14.249  0.00  0.00     0.009 A 
ENDBRANCH   8   9
BRANCH   8  15
ATOM     15  C21 <0> d   1      19.032   0.752  11.841  0.00  0.00    -0.023 A 
ATOM     16  C27 <0> d   1      17.771   0.874  11.287  0.00  0.00     0.011 A 
ATOM     17  C26 <0> d   1      17.377   2.073  10.723  0.00  0.00     0.024 A 
ATOM     18  C24 <0> d   1      18.249   3.147  10.703  0.00  0.00     0.034 A 
ATOM     19  C23 <0> d   1      19.512   3.023  11.252  0.00  0.00     0.024 A 
ATOM     20 Cl25 <0> d   1      17.757   4.651   9.989  0.00  0.00    -0.084 Cl
ATOM     21  C22 <0> d   1      19.903   1.826  11.821  0.00  0.00     0.011 A 
ENDBRANCH   8  15
ENDBRANCH   4   8
BRANCH   1  22
ATOM     22  C7  <0> d   1      18.614  -5.148   9.310  0.00  0.00     0.298 C 
BRANCH  22  23
ATOM     23  C6  <0> d   1      17.502  -4.659   8.380  0.00  0.00     0.198 C 
BRANCH  23  24
ATOM     24  O5  <0> d   1      17.630  -5.294   7.108  0.00  0.00    -0.379 OA
BRANCH  24  25
ATOM     25  C4  <0> d   1      18.961  -5.291   6.587  0.00  0.00     0.280 C 
BRANCH  25  26
ATOM     26  C2  <0> d   1      19.228  -3.977   5.899  0.00  0.00     0.197 C 
ATOM     27  O1  <0> d   1      18.553  -3.642   4.942  0.00  0.00    -0.646 OA
ATOM     28  O3  <0> d   1      20.118  -3.248   6.303  0.00  0.00    -0.646 OA
ENDBRANCH  25  26
ENDBRANCH  24  25
ENDBRANCH  23  24
ENDBRANCH  22  23
ENDBRANCH   1  22
TORSDOF 8
ENDMDL
