MODEL 1
REMARK VINA RESULT:      -7.1      0.000      0.000
REMARK  0 active torsions:
REMARK  status: ('A' for Active; 'I' for Inactive)
ROOT
ATOM      1  C1  ZIN A   1      19.172  -0.120   5.114  0.00  0.00     0.136 A 
ATOM      2  C2  ZIN A   1      18.486  -1.227   5.622  0.00  0.00     0.136 A 
ATOM      3  N3  ZIN A   1      18.027  -1.224   6.853  0.00  0.00    -0.257 NA
ATOM      4  C4  ZIN A   1      18.220  -0.153   7.629  0.00  0.00     0.085 A 
ATOM      5  C5  ZIN A   1      17.746  -0.121   8.952  0.00  0.00     0.042 A 
ATOM      6  C6  ZIN A   1      17.956   0.982   9.720  0.00  0.00    -0.043 A 
ATOM      7  C7  ZIN A   1      18.636   2.092   9.209  0.00  0.00    -0.043 A 
ATOM      8  C8  ZIN A   1      19.108   2.095   7.933  0.00  0.00     0.042 A 
ATOM      9  C9  ZIN A   1      18.913   0.971   7.113  0.00  0.00     0.085 A 
ATOM     10  N10 ZIN A   1      19.371   0.944   5.857  0.00  0.00    -0.257 NA
ATOM     11  C11 ZIN A   1      18.708   3.157  10.295  0.00  0.00     0.045 C 
ATOM     12  C13 ZIN A   1      17.470   2.832  11.179  0.00  0.00     0.022 C 
ATOM     13  C14 ZIN A   1      17.561   1.279  11.160  0.00  0.00     0.045 C 
ATOM     14  C16 ZIN A   1      18.755   0.912  12.061  0.00  0.00     0.241 C 
ATOM     15  N17 ZIN A   1      19.994   1.388  11.434  0.00  0.00    -0.074 N 
ATOM     16  H18 ZIN A   1      20.773   1.179  12.040  0.00  0.00     0.277 HD
ATOM     17  H19 ZIN A   1      20.123   0.912  10.553  0.00  0.00     0.277 HD
ATOM     18  C20 ZIN A   1      19.955   2.849  11.145  0.00  0.00     0.241 C 
ENDROOT
TORSDOF 0
ENDMDL
MODEL 2
REMARK VINA RESULT:      -6.8      3.882      7.667
REMARK  0 active torsions:
REMARK  status: ('A' for Active; 'I' for Inactive)
ROOT
ATOM      1  C1  ZIN A   1      19.271   0.094  18.238  0.00  0.00     0.136 A 
ATOM      2  C2  ZIN A   1      19.258   1.446  17.887  0.00  0.00     0.136 A 
ATOM      3  N3  ZIN A   1      19.048   1.814  16.643  0.00  0.00    -0.257 NA
ATOM      4  C4  ZIN A   1      18.847   0.886  15.703  0.00  0.00     0.085 A 
ATOM      5  C5  ZIN A   1      18.625   1.246  14.363  0.00  0.00     0.042 A 
ATOM      6  C6  ZIN A   1      18.422   0.280  13.427  0.00  0.00    -0.043 A 
ATOM      7  C7  ZIN A   1      18.427  -1.072  13.779  0.00  0.00    -0.043 A 
ATOM      8  C8  ZIN A   1      18.639  -1.457  15.067  0.00  0.00     0.042 A 
ATOM      9  C9  ZIN A   1      18.856  -0.487  16.060  0.00  0.00     0.085 A 
ATOM     10  N10 ZIN A   1      19.073  -0.836  17.332  0.00  0.00    -0.257 NA
ATOM     11  C11 ZIN A   1      18.171  -1.899  12.527  0.00  0.00     0.045 C 
ATOM     12  C13 ZIN A   1      17.376  -0.917  11.621  0.00  0.00     0.022 C 
ATOM     13  C14 ZIN A   1      18.166   0.388  11.930  0.00  0.00     0.045 C 
ATOM     14  C16 ZIN A   1      19.520   0.246  11.208  0.00  0.00     0.241 C 
ATOM     15  N17 ZIN A   1      20.286  -0.837  11.835  0.00  0.00    -0.074 N 
ATOM     16  H18 ZIN A   1      21.158  -0.954  11.341  0.00  0.00     0.277 HD
ATOM     17  H19 ZIN A   1      20.479  -0.593  12.795  0.00  0.00     0.277 HD
ATOM     18  C20 ZIN A   1      19.536  -2.124  11.849  0.00  0.00     0.241 C 
ENDROOT
TORSDOF 0
ENDMDL
MODEL 3
REMARK VINA RESULT:      -6.7      4.260      6.934
REMARK  0 active torsions:
REMARK  status: ('A' for Active; 'I' for Inactive)
ROOT
ATOM      1  C1  ZIN A   1      17.723   2.902  11.430  0.00  0.00     0.136 A 
ATOM      2  C2  ZIN A   1      18.436   3.898  12.101  0.00  0.00     0.136 A 
ATOM      3  N3  ZIN A   1      18.866   3.704  13.328  0.00  0.00    -0.257 NA
ATOM      4  C4  ZIN A   1      18.616   2.543  13.941  0.00  0.00     0.085 A 
ATOM      5  C5  ZIN A   1      19.057   2.306  15.255  0.00  0.00     0.042 A 
ATOM      6  C6  ZIN A   1      18.789   1.115  15.854  0.00  0.00    -0.043 A 
ATOM      7  C7  ZIN A   1      18.082   0.116  15.180  0.00  0.00    -0.043 A 
ATOM      8  C8  ZIN A   1      17.640   0.311  13.908  0.00  0.00     0.042 A 
ATOM      9  C9  ZIN A   1      17.895   1.531  13.259  0.00  0.00     0.085 A 
ATOM     10  N10 ZIN A   1      17.467   1.752  12.011  0.00  0.00    -0.257 NA
ATOM     11  C11 ZIN A   1      17.946  -1.088  16.103  0.00  0.00     0.045 C 
ATOM     12  C13 ZIN A   1      19.174  -0.940  17.046  0.00  0.00     0.022 C 
ATOM     13  C14 ZIN A   1      19.139   0.603  17.245  0.00  0.00     0.045 C 
ATOM     14  C16 ZIN A   1      17.938   0.887  18.168  0.00  0.00     0.241 C 
ATOM     15  N17 ZIN A   1      16.699   0.552  17.457  0.00  0.00    -0.074 N 
ATOM     16  H18 ZIN A   1      15.914   0.704  18.072  0.00  0.00     0.277 HD
ATOM     17  H19 ZIN A   1      16.607   1.152  16.650  0.00  0.00     0.277 HD
ATOM     18  C20 ZIN A   1      16.691  -0.854  16.965  0.00  0.00     0.241 C 
ENDROOT
TORSDOF 0
ENDMDL
MODEL 4
REMARK VINA RESULT:      -6.6      1.157      2.350
REMARK  0 active torsions:
REMARK  status: ('A' for Active; 'I' for Inactive)
ROOT
ATOM      1  C1  ZIN A   1      19.228  -1.536   5.743  0.00  0.00     0.136 A 
ATOM      2  C2  ZIN A   1      19.052  -0.282   5.152  0.00  0.00     0.136 A 
ATOM      3  N3  ZIN A   1      19.008   0.806   5.888  0.00  0.00    -0.257 NA
ATOM      4  C4  ZIN A   1      19.130   0.712   7.216  0.00  0.00     0.085 A 
ATOM      5  C5  ZIN A   1      19.081   1.856   8.032  0.00  0.00     0.042 A 
ATOM      6  C6  ZIN A   1      19.209   1.731   9.380  0.00  0.00    -0.043 A 
ATOM      7  C7  ZIN A   1      19.392   0.477   9.970  0.00  0.00    -0.043 A 
ATOM      8  C8  ZIN A   1      19.443  -0.651   9.211  0.00  0.00     0.042 A 
ATOM      9  C9  ZIN A   1      19.311  -0.560   7.815  0.00  0.00     0.085 A 
ATOM     10  N10 ZIN A   1      19.352  -1.652   7.045  0.00  0.00    -0.257 NA
ATOM     11  C11 ZIN A   1      19.504   0.663  11.477  0.00  0.00     0.045 C 
ATOM     12  C13 ZIN A   1      20.034   2.120  11.607  0.00  0.00     0.022 C 
ATOM     13  C14 ZIN A   1      19.191   2.784  10.480  0.00  0.00     0.045 C 
ATOM     14  C16 ZIN A   1      17.752   2.874  11.023  0.00  0.00     0.241 C 
ATOM     15  N17 ZIN A   1      17.211   1.518  11.174  0.00  0.00    -0.074 N 
ATOM     16  H18 ZIN A   1      16.281   1.575  11.562  0.00  0.00     0.277 HD
ATOM     17  H19 ZIN A   1      17.164   1.077  10.268  0.00  0.00     0.277 HD
ATOM     18  C20 ZIN A   1      18.069   0.661  12.038  0.00  0.00     0.241 C 
ENDROOT
TORSDOF 0
ENDMDL
MODEL 5
REMARK VINA RESULT:      -6.6      3.822      6.075
REMARK  0 active torsions:
REMARK  status: ('A' for Active; 'I' for Inactive)
ROOT
ATOM      1  C1  ZIN A   1      19.119   1.154  10.760  0.00  0.00     0.136 A 
ATOM      2  C2  ZIN A   1      19.999   0.069  10.778  0.00  0.00     0.136 A 
ATOM      3  N3  ZIN A   1      20.089  -0.704  11.836  0.00  0.00    -0.257 NA
ATOM      4  C4  ZIN A   1      19.334  -0.449  12.909  0.00  0.00     0.085 A 
ATOM      5  C5  ZIN A   1      19.412  -1.253  14.060  0.00  0.00     0.042 A 
ATOM      6  C6  ZIN A   1      18.630  -0.970  15.137  0.00  0.00    -0.043 A 
ATOM      7  C7  ZIN A   1      17.745   0.111  15.117  0.00  0.00    -0.043 A 
ATOM      8  C8  ZIN A   1      17.645   0.910  14.020  0.00  0.00     0.042 A 
ATOM      9  C9  ZIN A   1      18.439   0.651  12.891  0.00  0.00     0.085 A 
ATOM     10  N10 ZIN A   1      18.366   1.423  11.802  0.00  0.00    -0.257 NA
ATOM     11  C11 ZIN A   1      17.017   0.165  16.453  0.00  0.00     0.045 C 
ATOM     12  C13 ZIN A   1      17.067  -1.314  16.933  0.00  0.00     0.022 C 
ATOM     13  C14 ZIN A   1      18.517  -1.662  16.488  0.00  0.00     0.045 C 
ATOM     14  C16 ZIN A   1      19.451  -0.931  17.472  0.00  0.00     0.241 C 
ATOM     15  N17 ZIN A   1      19.314   0.517  17.276  0.00  0.00    -0.074 N 
ATOM     16  H18 ZIN A   1      19.899   0.998  17.943  0.00  0.00     0.277 HD
ATOM     17  H19 ZIN A   1      19.614   0.754  16.342  0.00  0.00     0.277 HD
ATOM     18  C20 ZIN A   1      17.904   0.976  17.416  0.00  0.00     0.241 C 
ENDROOT
TORSDOF 0
ENDMDL
MODEL 6
REMARK VINA RESULT:      -6.5      3.527      5.625
REMARK  0 active torsions:
REMARK  status: ('A' for Active; 'I' for Inactive)
ROOT
ATOM      1  C1  ZIN A   1      19.401  -0.137   4.734  0.00  0.00     0.136 A 
ATOM      2  C2  ZIN A   1      18.898   0.633   5.786  0.00  0.00     0.136 A 
ATOM      3  N3  ZIN A   1      18.606   0.079   6.941  0.00  0.00    -0.257 NA
ATOM      4  C4  ZIN A   1      18.789  -1.234   7.111  0.00  0.00     0.085 A 
ATOM      5  C5  ZIN A   1      18.480  -1.858   8.333  0.00  0.00     0.042 A 
ATOM      6  C6  ZIN A   1      18.677  -3.196   8.478  0.00  0.00    -0.043 A 
ATOM      7  C7  ZIN A   1      19.186  -3.964   7.427  0.00  0.00    -0.043 A 
ATOM      8  C8  ZIN A   1      19.495  -3.394   6.231  0.00  0.00     0.042 A 
ATOM      9  C9  ZIN A   1      19.302  -2.015   6.044  0.00  0.00     0.085 A 
ATOM     10  N10 ZIN A   1      19.591  -1.428   4.878  0.00  0.00    -0.257 NA
ATOM     11  C11 ZIN A   1      19.295  -5.410   7.893  0.00  0.00     0.045 C 
ATOM     12  C13 ZIN A   1      19.447  -5.265   9.434  0.00  0.00     0.022 C 
ATOM     13  C14 ZIN A   1      18.430  -4.111   9.669  0.00  0.00     0.045 C 
ATOM     14  C16 ZIN A   1      17.031  -4.737   9.501  0.00  0.00     0.241 C 
ATOM     15  N17 ZIN A   1      16.853  -5.142   8.102  0.00  0.00    -0.074 N 
ATOM     16  H18 ZIN A   1      15.951  -5.583   7.998  0.00  0.00     0.277 HD
ATOM     17  H19 ZIN A   1      16.890  -4.324   7.513  0.00  0.00     0.277 HD
ATOM     18  C20 ZIN A   1      17.925  -6.068   7.641  0.00  0.00     0.241 C 
ENDROOT
TORSDOF 0
ENDMDL
MODEL 7
REMARK VINA RESULT:      -6.5      2.912      3.901
REMARK  0 active torsions:
REMARK  status: ('A' for Active; 'I' for Inactive)
ROOT
ATOM      1  C1  ZIN A   1      18.875   0.375   5.896  0.00  0.00     0.136 A 
ATOM      2  C2  ZIN A   1      19.258  -0.825   5.292  0.00  0.00     0.136 A 
ATOM      3  N3  ZIN A   1      19.299  -1.941   5.985  0.00  0.00    -0.257 NA
ATOM      4  C4  ZIN A   1      18.972  -1.928   7.281  0.00  0.00     0.085 A 
ATOM      5  C5  ZIN A   1      19.010  -3.103   8.051  0.00  0.00     0.042 A 
ATOM      6  C6  ZIN A   1      18.672  -3.061   9.368  0.00  0.00    -0.043 A 
ATOM      7  C7  ZIN A   1      18.282  -1.861   9.970  0.00  0.00    -0.043 A 
ATOM      8  C8  ZIN A   1      18.233  -0.705   9.255  0.00  0.00     0.042 A 
ATOM      9  C9  ZIN A   1      18.580  -0.710   7.893  0.00  0.00     0.085 A 
ATOM     10  N10 ZIN A   1      18.548   0.412   7.167  0.00  0.00    -0.257 NA
ATOM     11  C11 ZIN A   1      17.965  -2.135  11.434  0.00  0.00     0.045 C 
ATOM     12  C13 ZIN A   1      17.567  -3.639  11.425  0.00  0.00     0.022 C 
ATOM     13  C14 ZIN A   1      18.629  -4.164  10.417  0.00  0.00     0.045 C 
ATOM     14  C16 ZIN A   1      19.973  -4.150  11.170  0.00  0.00     0.241 C 
ATOM     15  N17 ZIN A   1      20.350  -2.760  11.454  0.00  0.00    -0.074 N 
ATOM     16  H18 ZIN A   1      21.213  -2.752  11.977  0.00  0.00     0.277 HD
ATOM     17  H19 ZIN A   1      20.488  -2.270  10.582  0.00  0.00     0.277 HD
ATOM     18  C20 ZIN A   1      19.293  -2.031  12.208  0.00  0.00     0.241 C 
ENDROOT
TORSDOF 0
ENDMDL
MODEL 8
REMARK VINA RESULT:      -6.4      4.084      7.662
REMARK  0 active torsions:
REMARK  status: ('A' for Active; 'I' for Inactive)
ROOT
ATOM      1  C1  ZIN A   1      18.999   1.633  18.162  0.00  0.00     0.136 A 
ATOM      2  C2  ZIN A   1      18.787   0.294  18.502  0.00  0.00     0.136 A 
ATOM      3  N3  ZIN A   1      18.732  -0.633  17.573  0.00  0.00    -0.257 NA
ATOM      4  C4  ZIN A   1      18.877  -0.293  16.288  0.00  0.00     0.085 A 
ATOM      5  C5  ZIN A   1      18.817  -1.260  15.270  0.00  0.00     0.042 A 
ATOM      6  C6  ZIN A   1      18.969  -0.886  13.971  0.00  0.00    -0.043 A 
ATOM      7  C7  ZIN A   1      19.189   0.453  13.632  0.00  0.00    -0.043 A 
ATOM      8  C8  ZIN A   1      19.252   1.415  14.591  0.00  0.00     0.042 A 
ATOM      9  C9  ZIN A   1      19.095   1.065  15.943  0.00  0.00     0.085 A 
ATOM     10  N10 ZIN A   1      19.147   1.990  16.907  0.00  0.00    -0.257 NA
ATOM     11  C11 ZIN A   1      19.321   0.552  12.118  0.00  0.00     0.045 C 
ATOM     12  C13 ZIN A   1      19.822  -0.866  11.721  0.00  0.00     0.022 C 
ATOM     13  C14 ZIN A   1      18.947  -1.711  12.692  0.00  0.00     0.045 C 
ATOM     14  C16 ZIN A   1      17.515  -1.661  12.125  0.00  0.00     0.241 C 
ATOM     15  N17 ZIN A   1      17.006  -0.289  12.226  0.00  0.00    -0.074 N 
ATOM     16  H18 ZIN A   1      16.082  -0.248  11.824  0.00  0.00     0.277 HD
ATOM     17  H19 ZIN A   1      16.954  -0.026  13.200  0.00  0.00     0.277 HD
ATOM     18  C20 ZIN A   1      17.896   0.696  11.551  0.00  0.00     0.241 C 
ENDROOT
TORSDOF 0
ENDMDL
MODEL 9
REMARK VINA RESULT:      -6.3      3.870      7.534
REMARK  0 active torsions:
REMARK  status: ('A' for Active; 'I' for Inactive)
ROOT
ATOM      1  C1  ZIN A   1      19.245   0.597  18.186  0.00  0.00     0.136 A 
ATOM      2  C2  ZIN A   1      19.251   1.989  18.299  0.00  0.00     0.136 A 
ATOM      3  N3  ZIN A   1      19.112   2.749  17.237  0.00  0.00    -0.257 NA
ATOM      4  C4  ZIN A   1      18.964   2.184  16.034  0.00  0.00     0.085 A 
ATOM      5  C5  ZIN A   1      18.818   2.969  14.877  0.00  0.00     0.042 A 
ATOM      6  C6  ZIN A   1      18.669   2.368  13.666  0.00  0.00    -0.043 A 
ATOM      7  C7  ZIN A   1      18.656   0.975  13.554  0.00  0.00    -0.043 A 
ATOM      8  C8  ZIN A   1      18.795   0.185  14.652  0.00  0.00     0.042 A 
ATOM      9  C9  ZIN A   1      18.955   0.771  15.919  0.00  0.00     0.085 A 
ATOM     10  N10 ZIN A   1      19.099   0.019  17.016  0.00  0.00    -0.257 NA
ATOM     11  C11 ZIN A   1      18.471   0.609  12.087  0.00  0.00     0.045 C 
ATOM     12  C13 ZIN A   1      17.728   1.849  11.513  0.00  0.00     0.022 C 
ATOM     13  C14 ZIN A   1      18.498   2.966  12.276  0.00  0.00     0.045 C 
ATOM     14  C16 ZIN A   1      19.891   3.045  11.622  0.00  0.00     0.241 C 
ATOM     15  N17 ZIN A   1      20.621   1.802  11.897  0.00  0.00    -0.074 N 
ATOM     16  H18 ZIN A   1      21.519   1.838  11.440  0.00  0.00     0.277 HD
ATOM     17  H19 ZIN A   1      20.760   1.713  12.893  0.00  0.00     0.277 HD
ATOM     18  C20 ZIN A   1      19.873   0.595  11.447  0.00  0.00     0.241 C 
ENDROOT
TORSDOF 0
ENDMDL
