MODEL 1
REMARK VINA RESULT:      -6.1      0.000      0.000
REMARK  9 active torsions:
REMARK  status: ('A' for Active; 'I' for Inactive)
REMARK    1  A    between atoms: N1_1  and  C2_2 
REMARK    2  A    between atoms: N6_6  and  C7_7 
REMARK    3  A    between atoms: C7_7  and  C8_8 
REMARK    4  A    between atoms: C8_8  and  C10_9 
REMARK    5  A    between atoms: C8_8  and  O12_11 
REMARK    6  A    between atoms: C10_9  and  O11_10 
REMARK    7  A    between atoms: O12_11  and  C13_12 
REMARK    8  A    between atoms: C13_12  and  P14_13 
REMARK    9  A    between atoms: P14_13  and  O17_16 
ROOT
ATOM      1  C7  ZIN A   1      18.084  -0.163   9.580  0.00  0.00     0.167 C 
ENDROOT
BRANCH   1   2
ATOM      2  N6  ZIN A   1      17.976   1.218  10.055  0.00  0.00    -0.306 N 
ATOM      3  C4  ZIN A   1      17.290   1.487  11.182  0.00  0.00     0.350 A 
ATOM      4  N3  ZIN A   1      17.175   2.734  11.636  0.00  0.00    -0.177 NA
ATOM      5  O5  ZIN A   1      16.764   0.574  11.795  0.00  0.00    -0.244 OA
ATOM      6  C2  ZIN A   1      17.737   3.745  10.988  0.00  0.00     0.128 A 
ATOM      7  C19 ZIN A   1      18.459   3.499   9.802  0.00  0.00     0.067 A 
ATOM      8  C18 ZIN A   1      18.571   2.225   9.355  0.00  0.00     0.099 A 
BRANCH   6   9
ATOM      9  N1  ZIN A   1      17.612   5.029  11.466  0.00  0.00    -0.384 N 
ATOM     10  H20 ZIN A   1      17.688   5.782  10.860  0.00  0.00     0.157 HD
ATOM     11  H21 ZIN A   1      17.443   5.180  12.410  0.00  0.00     0.157 HD
ENDBRANCH   6   9
ENDBRANCH   1   2
BRANCH   1  12
ATOM     12  C8  ZIN A   1      19.552  -0.495   9.305  0.00  0.00     0.164 C 
BRANCH  12  13
ATOM     13  C10 ZIN A   1      20.173  -1.131  10.550  0.00  0.00     0.197 C 
BRANCH  13  14
ATOM     14  O11 ZIN A   1      21.478  -0.589  10.763  0.00  0.00    -0.398 OA
ATOM     15  H26 ZIN A   1      22.102  -0.773  10.048  0.00  0.00     0.209 HD
ENDBRANCH  13  14
ENDBRANCH  12  13
BRANCH  12  16
ATOM     16  O12 ZIN A   1      19.636  -1.410   8.211  0.00  0.00    -0.370 OA
BRANCH  16  17
ATOM     17  C13 ZIN A   1      19.014  -0.942   7.012  0.00  0.00     0.303 C 
BRANCH  17  18
ATOM     18  P14 ZIN A   1      19.147  -2.221   5.720  0.00  0.00     0.271 P 
ATOM     19  O15 ZIN A   1      20.091  -3.345   6.203  0.00  0.00    -0.645 OA
ATOM     20  O16 ZIN A   1      19.714  -1.591   4.428  0.00  0.00    -0.645 OA
BRANCH  18  21
ATOM     21  O17 ZIN A   1      17.690  -2.837   5.422  0.00  0.00    -0.321 OA
ATOM     22  H29 ZIN A   1      17.218  -2.401   4.700  0.00  0.00     0.221 HD
ENDBRANCH  18  21
ENDBRANCH  17  18
ENDBRANCH  16  17
ENDBRANCH  12  16
ENDBRANCH   1  12
TORSDOF 9
ENDMDL
MODEL 2
REMARK VINA RESULT:      -5.8      4.146      5.366
REMARK  9 active torsions:
REMARK  status: ('A' for Active; 'I' for Inactive)
REMARK    1  A    between atoms: N1_1  and  C2_2 
REMARK    2  A    between atoms: N6_6  and  C7_7 
REMARK    3  A    between atoms: C7_7  and  C8_8 
REMARK    4  A    between atoms: C8_8  and  C10_9 
REMARK    5  A    between atoms: C8_8  and  O12_11 
REMARK    6  A    between atoms: C10_9  and  O11_10 
REMARK    7  A    between atoms: O12_11  and  C13_12 
REMARK    8  A    between atoms: C13_12  and  P14_13 
REMARK    9  A    between atoms: P14_13  and  O17_16 
ROOT
ATOM      1  C7  ZIN A   1      17.978   1.181  14.768  0.00  0.00     0.167 C 
ENDROOT
BRANCH   1   2
ATOM      2  N6  ZIN A   1      18.654   2.419  15.161  0.00  0.00    -0.306 N 
ATOM      3  C4  ZIN A   1      19.300   2.484  16.340  0.00  0.00     0.350 A 
ATOM      4  N3  ZIN A   1      19.922   3.599  16.722  0.00  0.00    -0.177 NA
ATOM      5  O5  ZIN A   1      19.314   1.508  17.071  0.00  0.00    -0.244 OA
ATOM      6  C2  ZIN A   1      19.921   4.675  15.948  0.00  0.00     0.128 A 
ATOM      7  C19 ZIN A   1      19.250   4.641  14.708  0.00  0.00     0.067 A 
ATOM      8  C18 ZIN A   1      18.625   3.500  14.331  0.00  0.00     0.099 A 
BRANCH   6   9
ATOM      9  N1  ZIN A   1      20.567   5.820  16.353  0.00  0.00    -0.384 N 
ATOM     10  H20 ZIN A   1      21.287   6.186  15.817  0.00  0.00     0.157 HD
ATOM     11  H21 ZIN A   1      20.299   6.264  17.173  0.00  0.00     0.157 HD
ENDBRANCH   6   9
ENDBRANCH   1   2
BRANCH   1  12
ATOM     12  C8  ZIN A   1      18.920   0.336  13.909  0.00  0.00     0.164 C 
BRANCH  12  13
ATOM     13  C10 ZIN A   1      18.897  -1.113  14.400  0.00  0.00     0.197 C 
BRANCH  13  14
ATOM     14  O11 ZIN A   1      20.154  -1.732  14.118  0.00  0.00    -0.398 OA
ATOM     15  H26 ZIN A   1      20.649  -1.311  13.402  0.00  0.00     0.209 HD
ENDBRANCH  13  14
ENDBRANCH  12  13
BRANCH  12  16
ATOM     16  O12 ZIN A   1      18.492   0.383  12.546  0.00  0.00    -0.370 OA
BRANCH  16  17
ATOM     17  C13 ZIN A   1      19.481   0.881  11.643  0.00  0.00     0.303 C 
BRANCH  17  18
ATOM     18  P14 ZIN A   1      20.168  -0.501  10.672  0.00  0.00     0.271 P 
ATOM     19  O15 ZIN A   1      19.918  -0.247   9.168  0.00  0.00    -0.645 OA
ATOM     20  O16 ZIN A   1      19.482  -1.818  11.094  0.00  0.00    -0.645 OA
BRANCH  18  21
ATOM     21  O17 ZIN A   1      21.751  -0.610  10.941  0.00  0.00    -0.321 OA
ATOM     22  H29 ZIN A   1      22.297  -0.351  10.186  0.00  0.00     0.221 HD
ENDBRANCH  18  21
ENDBRANCH  17  18
ENDBRANCH  16  17
ENDBRANCH  12  16
ENDBRANCH   1  12
TORSDOF 9
ENDMDL
MODEL 3
REMARK VINA RESULT:      -5.8      4.820      7.542
REMARK  9 active torsions:
REMARK  status: ('A' for Active; 'I' for Inactive)
REMARK    1  A    between atoms: N1_1  and  C2_2 
REMARK    2  A    between atoms: N6_6  and  C7_7 
REMARK    3  A    between atoms: C7_7  and  C8_8 
REMARK    4  A    between atoms: C8_8  and  C10_9 
REMARK    5  A    between atoms: C8_8  and  O12_11 
REMARK    6  A    between atoms: C10_9  and  O11_10 
REMARK    7  A    between atoms: O12_11  and  C13_12 
REMARK    8  A    between atoms: C13_12  and  P14_13 
REMARK    9  A    between atoms: P14_13  and  O17_16 
ROOT
ATOM      1  C7  ZIN A   1      20.422   0.614  12.853  0.00  0.00     0.167 C 
ENDROOT
BRANCH   1   2
ATOM      2  N6  ZIN A   1      20.017   0.820  11.461  0.00  0.00    -0.306 N 
ATOM      3  C4  ZIN A   1      20.095  -0.198  10.584  0.00  0.00     0.350 A 
ATOM      4  N3  ZIN A   1      19.734  -0.038   9.312  0.00  0.00    -0.177 NA
ATOM      5  O5  ZIN A   1      20.503  -1.284  10.960  0.00  0.00    -0.244 OA
ATOM      6  C2  ZIN A   1      19.287   1.132   8.876  0.00  0.00     0.128 A 
ATOM      7  C19 ZIN A   1      19.197   2.220   9.768  0.00  0.00     0.067 A 
ATOM      8  C18 ZIN A   1      19.564   2.041  11.060  0.00  0.00     0.099 A 
BRANCH   6   9
ATOM      9  N1  ZIN A   1      18.917   1.286   7.560  0.00  0.00    -0.384 N 
ATOM     10  H20 ZIN A   1      19.575   1.180   6.856  0.00  0.00     0.157 HD
ATOM     11  H21 ZIN A   1      17.996   1.495   7.336  0.00  0.00     0.157 HD
ENDBRANCH   6   9
ENDBRANCH   1   2
BRANCH   1  12
ATOM     12  C8  ZIN A   1      19.181   0.592  13.748  0.00  0.00     0.164 C 
BRANCH  12  13
ATOM     13  C10 ZIN A   1      18.841  -0.854  14.114  0.00  0.00     0.197 C 
BRANCH  13  14
ATOM     14  O11 ZIN A   1      19.999  -1.674  13.944  0.00  0.00    -0.398 OA
ATOM     15  H26 ZIN A   1      20.720  -1.244  13.465  0.00  0.00     0.209 HD
ENDBRANCH  13  14
ENDBRANCH  12  13
BRANCH  12  16
ATOM     16  O12 ZIN A   1      19.440   1.336  14.940  0.00  0.00    -0.370 OA
BRANCH  16  17
ATOM     17  C13 ZIN A   1      18.600   0.983  16.040  0.00  0.00     0.303 C 
BRANCH  17  18
ATOM     18  P14 ZIN A   1      19.010   2.027  17.477  0.00  0.00     0.271 P 
ATOM     19  O15 ZIN A   1      19.881   3.218  17.017  0.00  0.00    -0.645 OA
ATOM     20  O16 ZIN A   1      19.788   1.191  18.517  0.00  0.00    -0.645 OA
BRANCH  18  21
ATOM     21  O17 ZIN A   1      17.653   2.582  18.142  0.00  0.00    -0.321 OA
ATOM     22  H29 ZIN A   1      17.520   2.303  19.058  0.00  0.00     0.221 HD
ENDBRANCH  18  21
ENDBRANCH  17  18
ENDBRANCH  16  17
ENDBRANCH  12  16
ENDBRANCH   1  12
TORSDOF 9
ENDMDL
MODEL 4
REMARK VINA RESULT:      -5.8      4.029      5.765
REMARK  9 active torsions:
REMARK  status: ('A' for Active; 'I' for Inactive)
REMARK    1  A    between atoms: N1_1  and  C2_2 
REMARK    2  A    between atoms: N6_6  and  C7_7 
REMARK    3  A    between atoms: C7_7  and  C8_8 
REMARK    4  A    between atoms: C8_8  and  C10_9 
REMARK    5  A    between atoms: C8_8  and  O12_11 
REMARK    6  A    between atoms: C10_9  and  O11_10 
REMARK    7  A    between atoms: O12_11  and  C13_12 
REMARK    8  A    between atoms: C13_12  and  P14_13 
REMARK    9  A    between atoms: P14_13  and  O17_16 
ROOT
ATOM      1  C7  ZIN A   1      20.146   1.124  12.088  0.00  0.00     0.167 C 
ENDROOT
BRANCH   1   2
ATOM      2  N6  ZIN A   1      19.383   2.225  11.496  0.00  0.00    -0.306 N 
ATOM      3  C4  ZIN A   1      18.951   3.235  12.274  0.00  0.00     0.350 A 
ATOM      4  N3  ZIN A   1      18.254   4.247  11.762  0.00  0.00    -0.177 NA
ATOM      5  O5  ZIN A   1      19.201   3.221  13.467  0.00  0.00    -0.244 OA
ATOM      6  C2  ZIN A   1      17.968   4.287  10.467  0.00  0.00     0.128 A 
ATOM      7  C19 ZIN A   1      18.402   3.243   9.625  0.00  0.00     0.067 A 
ATOM      8  C18 ZIN A   1      19.113   2.221  10.160  0.00  0.00     0.099 A 
BRANCH   6   9
ATOM      9  N1  ZIN A   1      17.248   5.339   9.949  0.00  0.00    -0.384 N 
ATOM     10  H20 ZIN A   1      16.404   5.594  10.353  0.00  0.00     0.157 HD
ATOM     11  H21 ZIN A   1      17.587   5.828   9.183  0.00  0.00     0.157 HD
ENDBRANCH   6   9
ENDBRANCH   1   2
BRANCH   1  12
ATOM     12  C8  ZIN A   1      19.390  -0.190  11.881  0.00  0.00     0.164 C 
BRANCH  12  13
ATOM     13  C10 ZIN A   1      20.274  -1.171  11.109  0.00  0.00     0.197 C 
BRANCH  13  14
ATOM     14  O11 ZIN A   1      21.538  -0.563  10.838  0.00  0.00    -0.398 OA
ATOM     15  H26 ZIN A   1      21.872  -0.729   9.945  0.00  0.00     0.209 HD
ENDBRANCH  13  14
ENDBRANCH  12  13
BRANCH  12  16
ATOM     16  O12 ZIN A   1      19.055  -0.751  13.152  0.00  0.00    -0.370 OA
BRANCH  16  17
ATOM     17  C13 ZIN A   1      17.760  -0.380  13.628  0.00  0.00     0.303 C 
BRANCH  17  18
ATOM     18  P14 ZIN A   1      17.911   0.347  15.294  0.00  0.00     0.271 P 
ATOM     19  O15 ZIN A   1      19.380   0.256  15.764  0.00  0.00    -0.645 OA
ATOM     20  O16 ZIN A   1      17.006  -0.427  16.277  0.00  0.00    -0.645 OA
BRANCH  18  21
ATOM     21  O17 ZIN A   1      17.458   1.891  15.249  0.00  0.00    -0.321 OA
ATOM     22  H29 ZIN A   1      17.323   2.236  14.356  0.00  0.00     0.221 HD
ENDBRANCH  18  21
ENDBRANCH  17  18
ENDBRANCH  16  17
ENDBRANCH  12  16
ENDBRANCH   1  12
TORSDOF 9
ENDMDL
MODEL 5
REMARK VINA RESULT:      -5.8      3.456      6.366
REMARK  9 active torsions:
REMARK  status: ('A' for Active; 'I' for Inactive)
REMARK    1  A    between atoms: N1_1  and  C2_2 
REMARK    2  A    between atoms: N6_6  and  C7_7 
REMARK    3  A    between atoms: C7_7  and  C8_8 
REMARK    4  A    between atoms: C8_8  and  C10_9 
REMARK    5  A    between atoms: C8_8  and  O12_11 
REMARK    6  A    between atoms: C10_9  and  O11_10 
REMARK    7  A    between atoms: O12_11  and  C13_12 
REMARK    8  A    between atoms: C13_12  and  P14_13 
REMARK    9  A    between atoms: P14_13  and  O17_16 
ROOT
ATOM      1  C7  ZIN A   1      19.122   0.263   9.087  0.00  0.00     0.167 C 
ENDROOT
BRANCH   1   2
ATOM      2  N6  ZIN A   1      19.103  -0.330   7.749  0.00  0.00    -0.306 N 
ATOM      3  C4  ZIN A   1      19.178  -1.667   7.607  0.00  0.00     0.350 A 
ATOM      4  N3  ZIN A   1      19.163  -2.232   6.401  0.00  0.00    -0.177 NA
ATOM      5  O5  ZIN A   1      19.262  -2.370   8.599  0.00  0.00    -0.244 OA
ATOM      6  C2  ZIN A   1      19.073  -1.490   5.306  0.00  0.00     0.128 A 
ATOM      7  C19 ZIN A   1      18.997  -0.086   5.419  0.00  0.00     0.067 A 
ATOM      8  C18 ZIN A   1      19.009   0.474   6.652  0.00  0.00     0.099 A 
BRANCH   6   9
ATOM      9  N1  ZIN A   1      19.058  -2.085   4.066  0.00  0.00    -0.384 N 
ATOM     10  H20 ZIN A   1      18.557  -1.682   3.340  0.00  0.00     0.157 HD
ATOM     11  H21 ZIN A   1      19.554  -2.906   3.916  0.00  0.00     0.157 HD
ENDBRANCH   6   9
ENDBRANCH   1   2
BRANCH   1  12
ATOM     12  C8  ZIN A   1      17.708   0.703   9.472  0.00  0.00     0.164 C 
BRANCH  12  13
ATOM     13  C10 ZIN A   1      17.177  -0.201  10.585  0.00  0.00     0.197 C 
BRANCH  13  14
ATOM     14  O11 ZIN A   1      16.603   0.601  11.619  0.00  0.00    -0.398 OA
ATOM     15  H26 ZIN A   1      15.954   1.245  11.304  0.00  0.00     0.209 HD
ENDBRANCH  13  14
ENDBRANCH  12  13
BRANCH  12  16
ATOM     16  O12 ZIN A   1      17.739   2.056   9.931  0.00  0.00    -0.370 OA
BRANCH  16  17
ATOM     17  C13 ZIN A   1      19.042   2.644   9.921  0.00  0.00     0.303 C 
BRANCH  17  18
ATOM     18  P14 ZIN A   1      19.489   3.159  11.612  0.00  0.00     0.271 P 
ATOM     19  O15 ZIN A   1      19.051   2.068  12.615  0.00  0.00    -0.645 OA
ATOM     20  O16 ZIN A   1      18.777   4.487  11.951  0.00  0.00    -0.645 OA
BRANCH  18  21
ATOM     21  O17 ZIN A   1      21.082   3.365  11.707  0.00  0.00    -0.321 OA
ATOM     22  H29 ZIN A   1      21.512   2.812  12.373  0.00  0.00     0.221 HD
ENDBRANCH  18  21
ENDBRANCH  17  18
ENDBRANCH  16  17
ENDBRANCH  12  16
ENDBRANCH   1  12
TORSDOF 9
ENDMDL
MODEL 6
REMARK VINA RESULT:      -5.7      3.793      6.749
REMARK  9 active torsions:
REMARK  status: ('A' for Active; 'I' for Inactive)
REMARK    1  A    between atoms: N1_1  and  C2_2 
REMARK    2  A    between atoms: N6_6  and  C7_7 
REMARK    3  A    between atoms: C7_7  and  C8_8 
REMARK    4  A    between atoms: C8_8  and  C10_9 
REMARK    5  A    between atoms: C8_8  and  O12_11 
REMARK    6  A    between atoms: C10_9  and  O11_10 
REMARK    7  A    between atoms: O12_11  and  C13_12 
REMARK    8  A    between atoms: C13_12  and  P14_13 
REMARK    9  A    between atoms: P14_13  and  O17_16 
ROOT
ATOM      1  C7  ZIN A   1      18.122  -0.625   7.976  0.00  0.00     0.167 C 
ENDROOT
BRANCH   1   2
ATOM      2  N6  ZIN A   1      18.720  -1.917   7.632  0.00  0.00    -0.306 N 
ATOM      3  C4  ZIN A   1      19.372  -2.063   6.463  0.00  0.00     0.350 A 
ATOM      4  N3  ZIN A   1      19.924  -3.227   6.125  0.00  0.00    -0.177 NA
ATOM      5  O5  ZIN A   1      19.457  -1.114   5.702  0.00  0.00    -0.244 OA
ATOM      6  C2  ZIN A   1      19.845  -4.275   6.934  0.00  0.00     0.128 A 
ATOM      7  C19 ZIN A   1      19.165  -4.157   8.163  0.00  0.00     0.067 A 
ATOM      8  C18 ZIN A   1      18.613  -2.966   8.496  0.00  0.00     0.099 A 
BRANCH   6   9
ATOM      9  N1  ZIN A   1      20.419  -5.472   6.573  0.00  0.00    -0.384 N 
ATOM     10  H20 ZIN A   1      21.332  -5.493   6.248  0.00  0.00     0.157 HD
ATOM     11  H21 ZIN A   1      19.912  -6.296   6.650  0.00  0.00     0.157 HD
ENDBRANCH   6   9
ENDBRANCH   1   2
BRANCH   1  12
ATOM     12  C8  ZIN A   1      19.118   0.195   8.798  0.00  0.00     0.164 C 
BRANCH  12  13
ATOM     13  C10 ZIN A   1      19.236   1.599   8.204  0.00  0.00     0.197 C 
BRANCH  13  14
ATOM     14  O11 ZIN A   1      19.148   2.569   9.249  0.00  0.00    -0.398 OA
ATOM     15  H26 ZIN A   1      19.694   2.368  10.021  0.00  0.00     0.209 HD
ENDBRANCH  13  14
ENDBRANCH  12  13
BRANCH  12  16
ATOM     16  O12 ZIN A   1      18.659   0.287  10.149  0.00  0.00    -0.370 OA
BRANCH  16  17
ATOM     17  C13 ZIN A   1      19.422  -0.487  11.076  0.00  0.00     0.303 C 
BRANCH  17  18
ATOM     18  P14 ZIN A   1      20.181   0.619  12.311  0.00  0.00     0.271 P 
ATOM     19  O15 ZIN A   1      19.830   0.123  13.732  0.00  0.00    -0.645 OA
ATOM     20  O16 ZIN A   1      19.641   2.054  12.118  0.00  0.00    -0.645 OA
BRANCH  18  21
ATOM     21  O17 ZIN A   1      21.779   0.617  12.123  0.00  0.00    -0.321 OA
ATOM     22  H29 ZIN A   1      22.268   0.342  12.910  0.00  0.00     0.221 HD
ENDBRANCH  18  21
ENDBRANCH  17  18
ENDBRANCH  16  17
ENDBRANCH  12  16
ENDBRANCH   1  12
TORSDOF 9
ENDMDL
MODEL 7
REMARK VINA RESULT:      -5.7      3.803      5.557
REMARK  9 active torsions:
REMARK  status: ('A' for Active; 'I' for Inactive)
REMARK    1  A    between atoms: N1_1  and  C2_2 
REMARK    2  A    between atoms: N6_6  and  C7_7 
REMARK    3  A    between atoms: C7_7  and  C8_8 
REMARK    4  A    between atoms: C8_8  and  C10_9 
REMARK    5  A    between atoms: C8_8  and  O12_11 
REMARK    6  A    between atoms: C10_9  and  O11_10 
REMARK    7  A    between atoms: O12_11  and  C13_12 
REMARK    8  A    between atoms: C13_12  and  P14_13 
REMARK    9  A    between atoms: P14_13  and  O17_16 
ROOT
ATOM      1  C7  ZIN A   1      18.188  -0.690  11.171  0.00  0.00     0.167 C 
ENDROOT
BRANCH   1   2
ATOM      2  N6  ZIN A   1      18.295  -0.627  12.630  0.00  0.00    -0.306 N 
ATOM      3  C4  ZIN A   1      19.054  -1.524  13.285  0.00  0.00     0.350 A 
ATOM      4  N3  ZIN A   1      19.168  -1.490  14.612  0.00  0.00    -0.177 NA
ATOM      5  O5  ZIN A   1      19.646  -2.383  12.654  0.00  0.00    -0.244 OA
ATOM      6  C2  ZIN A   1      18.535  -0.567  15.323  0.00  0.00     0.128 A 
ATOM      7  C19 ZIN A   1      17.727   0.385  14.668  0.00  0.00     0.067 A 
ATOM      8  C18 ZIN A   1      17.625   0.341  13.318  0.00  0.00     0.099 A 
BRANCH   6   9
ATOM      9  N1  ZIN A   1      18.660  -0.541  16.693  0.00  0.00    -0.384 N 
ATOM     10  H20 ZIN A   1      18.708   0.307  17.159  0.00  0.00     0.157 HD
ATOM     11  H21 ZIN A   1      18.696  -1.373  17.192  0.00  0.00     0.157 HD
ENDBRANCH   6   9
ENDBRANCH   1   2
BRANCH   1  12
ATOM     12  C8  ZIN A   1      19.099   0.368  10.546  0.00  0.00     0.164 C 
BRANCH  12  13
ATOM     13  C10 ZIN A   1      20.265  -0.318   9.834  0.00  0.00     0.197 C 
BRANCH  13  14
ATOM     14  O11 ZIN A   1      21.335  -0.523  10.759  0.00  0.00    -0.398 OA
ATOM     15  H26 ZIN A   1      21.587  -1.449  10.872  0.00  0.00     0.209 HD
ENDBRANCH  13  14
ENDBRANCH  12  13
BRANCH  12  16
ATOM     16  O12 ZIN A   1      18.353   1.140   9.602  0.00  0.00    -0.370 OA
BRANCH  16  17
ATOM     17  C13 ZIN A   1      18.898   2.437   9.352  0.00  0.00     0.303 C 
BRANCH  17  18
ATOM     18  P14 ZIN A   1      18.146   3.643  10.493  0.00  0.00     0.271 P 
ATOM     19  O15 ZIN A   1      19.178   4.045  11.571  0.00  0.00    -0.645 OA
ATOM     20  O16 ZIN A   1      16.912   3.009  11.173  0.00  0.00    -0.645 OA
BRANCH  18  21
ATOM     21  O17 ZIN A   1      17.693   4.951   9.671  0.00  0.00    -0.321 OA
ATOM     22  H29 ZIN A   1      18.338   5.246   9.014  0.00  0.00     0.221 HD
ENDBRANCH  18  21
ENDBRANCH  17  18
ENDBRANCH  16  17
ENDBRANCH  12  16
ENDBRANCH   1  12
TORSDOF 9
ENDMDL
MODEL 8
REMARK VINA RESULT:      -5.7      3.272      4.681
REMARK  9 active torsions:
REMARK  status: ('A' for Active; 'I' for Inactive)
REMARK    1  A    between atoms: N1_1  and  C2_2 
REMARK    2  A    between atoms: N6_6  and  C7_7 
REMARK    3  A    between atoms: C7_7  and  C8_8 
REMARK    4  A    between atoms: C8_8  and  C10_9 
REMARK    5  A    between atoms: C8_8  and  O12_11 
REMARK    6  A    between atoms: C10_9  and  O11_10 
REMARK    7  A    between atoms: O12_11  and  C13_12 
REMARK    8  A    between atoms: C13_12  and  P14_13 
REMARK    9  A    between atoms: P14_13  and  O17_16 
ROOT
ATOM      1  C7  ZIN A   1      18.341  -0.009   9.933  0.00  0.00     0.167 C 
ENDROOT
BRANCH   1   2
ATOM      2  N6  ZIN A   1      18.587   0.045   8.490  0.00  0.00    -0.306 N 
ATOM      3  C4  ZIN A   1      18.970   1.202   7.919  0.00  0.00     0.350 A 
ATOM      4  N3  ZIN A   1      19.199   1.279   6.609  0.00  0.00    -0.177 NA
ATOM      5  O5  ZIN A   1      19.108   2.196   8.612  0.00  0.00    -0.244 OA
ATOM      6  C2  ZIN A   1      19.056   0.214   5.832  0.00  0.00     0.128 A 
ATOM      7  C19 ZIN A   1      18.652  -1.012   6.399  0.00  0.00     0.067 A 
ATOM      8  C18 ZIN A   1      18.427  -1.076   7.733  0.00  0.00     0.099 A 
BRANCH   6   9
ATOM      9  N1  ZIN A   1      19.297   0.306   4.481  0.00  0.00    -0.384 N 
ATOM     10  H20 ZIN A   1      20.187   0.143   4.135  0.00  0.00     0.157 HD
ATOM     11  H21 ZIN A   1      18.573   0.528   3.874  0.00  0.00     0.157 HD
ENDBRANCH   6   9
ENDBRANCH   1   2
BRANCH   1  12
ATOM     12  C8  ZIN A   1      19.336  -0.970  10.585  0.00  0.00     0.164 C 
BRANCH  12  13
ATOM     13  C10 ZIN A   1      20.403  -0.170  11.334  0.00  0.00     0.197 C 
BRANCH  13  14
ATOM     14  O11 ZIN A   1      21.701  -0.602  10.922  0.00  0.00    -0.398 OA
ATOM     15  H26 ZIN A   1      22.043  -1.354  11.424  0.00  0.00     0.209 HD
ENDBRANCH  13  14
ENDBRANCH  12  13
BRANCH  12  16
ATOM     16  O12 ZIN A   1      18.646  -1.819  11.504  0.00  0.00    -0.370 OA
BRANCH  16  17
ATOM     17  C13 ZIN A   1      17.906  -2.871  10.880  0.00  0.00     0.303 C 
BRANCH  17  18
ATOM     18  P14 ZIN A   1      19.027  -4.258  10.500  0.00  0.00     0.271 P 
ATOM     19  O15 ZIN A   1      18.232  -5.583  10.520  0.00  0.00    -0.645 OA
ATOM     20  O16 ZIN A   1      20.152  -4.317  11.557  0.00  0.00    -0.645 OA
BRANCH  18  21
ATOM     21  O17 ZIN A   1      19.672  -4.043   9.041  0.00  0.00    -0.321 OA
ATOM     22  H29 ZIN A   1      20.598  -3.767   9.056  0.00  0.00     0.221 HD
ENDBRANCH  18  21
ENDBRANCH  17  18
ENDBRANCH  16  17
ENDBRANCH  12  16
ENDBRANCH   1  12
TORSDOF 9
ENDMDL
MODEL 9
REMARK VINA RESULT:      -5.6      5.596      8.049
REMARK  9 active torsions:
REMARK  status: ('A' for Active; 'I' for Inactive)
REMARK    1  A    between atoms: N1_1  and  C2_2 
REMARK    2  A    between atoms: N6_6  and  C7_7 
REMARK    3  A    between atoms: C7_7  and  C8_8 
REMARK    4  A    between atoms: C8_8  and  C10_9 
REMARK    5  A    between atoms: C8_8  and  O12_11 
REMARK    6  A    between atoms: C10_9  and  O11_10 
REMARK    7  A    between atoms: O12_11  and  C13_12 
REMARK    8  A    between atoms: C13_12  and  P14_13 
REMARK    9  A    between atoms: P14_13  and  O17_16 
ROOT
ATOM      1  C7  ZIN A   1      17.840   2.030  13.795  0.00  0.00     0.167 C 
ENDROOT
BRANCH   1   2
ATOM      2  N6  ZIN A   1      18.344   1.919  12.425  0.00  0.00    -0.306 N 
ATOM      3  C4  ZIN A   1      17.880   2.748  11.472  0.00  0.00     0.350 A 
ATOM      4  N3  ZIN A   1      18.320   2.668  10.217  0.00  0.00    -0.177 NA
ATOM      5  O5  ZIN A   1      17.042   3.585  11.761  0.00  0.00    -0.244 OA
ATOM      6  C2  ZIN A   1      19.231   1.767   9.875  0.00  0.00     0.128 A 
ATOM      7  C19 ZIN A   1      19.735   0.880  10.849  0.00  0.00     0.067 A 
ATOM      8  C18 ZIN A   1      19.280   0.976  12.121  0.00  0.00     0.099 A 
BRANCH   6   9
ATOM      9  N1  ZIN A   1      19.679   1.694   8.576  0.00  0.00    -0.384 N 
ATOM     10  H20 ZIN A   1      20.077   0.874   8.246  0.00  0.00     0.157 HD
ATOM     11  H21 ZIN A   1      19.591   2.462   7.989  0.00  0.00     0.157 HD
ENDBRANCH   6   9
ENDBRANCH   1   2
BRANCH   1  12
ATOM     12  C8  ZIN A   1      18.909   2.670  14.682  0.00  0.00     0.164 C 
BRANCH  12  13
ATOM     13  C10 ZIN A   1      18.329   3.907  15.370  0.00  0.00     0.197 C 
BRANCH  13  14
ATOM     14  O11 ZIN A   1      17.122   4.297  14.712  0.00  0.00    -0.398 OA
ATOM     15  H26 ZIN A   1      16.560   4.884  15.236  0.00  0.00     0.209 HD
ENDBRANCH  13  14
ENDBRANCH  12  13
BRANCH  12  16
ATOM     16  O12 ZIN A   1      19.333   1.730  15.672  0.00  0.00    -0.370 OA
BRANCH  16  17
ATOM     17  C13 ZIN A   1      18.280   1.266  16.521  0.00  0.00     0.303 C 
BRANCH  17  18
ATOM     18  P14 ZIN A   1      18.871   1.211  18.245  0.00  0.00     0.271 P 
ATOM     19  O15 ZIN A   1      19.776   2.433  18.518  0.00  0.00    -0.645 OA
ATOM     20  O16 ZIN A   1      19.676  -0.088  18.473  0.00  0.00    -0.645 OA
BRANCH  18  21
ATOM     21  O17 ZIN A   1      17.610   1.244  19.245  0.00  0.00    -0.321 OA
ATOM     22  H29 ZIN A   1      16.877   0.676  18.973  0.00  0.00     0.221 HD
ENDBRANCH  18  21
ENDBRANCH  17  18
ENDBRANCH  16  17
ENDBRANCH  12  16
ENDBRANCH   1  12
TORSDOF 9
ENDMDL
