MODEL 1
REMARK VINA RESULT:      -6.3      0.000      0.000
REMARK  7 active torsions:
REMARK  status: ('A' for Active; 'I' for Inactive)
REMARK    1  A    between atoms: P2_2  and  O4_4 
REMARK    2  A    between atoms: P2_2  and  C5_5 
REMARK    3  A    between atoms: C5_5  and  O6_6 
REMARK    4  A    between atoms: C5_5  and  C7_7 
REMARK    5  A    between atoms: C5_5  and  P14_14 
REMARK    6  A    between atoms: C7_7  and  C8_8 
REMARK    7  A    between atoms: P14_14  and  O17_17 
ROOT
ATOM      1  C5  ZIN A   1      19.173   1.316  11.090  0.00  0.00     0.272 C 
ENDROOT
BRANCH   1   2
ATOM      2  P2  ZIN A   1      20.087   0.402  12.374  0.00  0.00     0.296 P 
ATOM      3  O1  ZIN A   1      19.759  -1.104  12.268  0.00  0.00    -0.644 OA
ATOM      4  O3  ZIN A   1      19.675   0.921  13.770  0.00  0.00    -0.644 OA
BRANCH   2   5
ATOM      5  O4  ZIN A   1      21.669   0.622  12.165  0.00  0.00    -0.320 OA
ATOM      6  H18 ZIN A   1      22.193  -0.186  12.249  0.00  0.00     0.221 HD
ENDBRANCH   2   5
ENDBRANCH   1   2
BRANCH   1   7
ATOM      7  O6  ZIN A   1      17.778   1.306  11.401  0.00  0.00    -0.366 OA
ATOM      8  H19 ZIN A   1      17.371   2.184  11.412  0.00  0.00     0.212 HD
ENDBRANCH   1   7
BRANCH   1   9
ATOM      9  C7  ZIN A   1      19.673   2.761  11.036  0.00  0.00     0.105 C 
BRANCH   9  10
ATOM     10  C8  ZIN A   1      18.554   3.694  11.421  0.00  0.00    -0.036 A 
ATOM     11  C13 ZIN A   1      18.350   4.032  12.746  0.00  0.00     0.123 A 
ATOM     12  N12 ZIN A   1      17.376   4.852  13.090  0.00  0.00    -0.273 NA
ATOM     13  C11 ZIN A   1      16.557   5.371  12.194  0.00  0.00     0.116 A 
ATOM     14  C10 ZIN A   1      16.698   5.075  10.853  0.00  0.00     0.020 A 
ATOM     15  C9  ZIN A   1      17.714   4.220  10.452  0.00  0.00     0.010 A 
ENDBRANCH   9  10
ENDBRANCH   1   9
BRANCH   1  16
ATOM     16  P14 ZIN A   1      19.439   0.520   9.472  0.00  0.00     0.296 P 
ATOM     17  O15 ZIN A   1      19.596   1.605   8.383  0.00  0.00    -0.644 OA
ATOM     18  O16 ZIN A   1      18.228  -0.377   9.133  0.00  0.00    -0.644 OA
BRANCH  16  19
ATOM     19  O17 ZIN A   1      20.773  -0.379   9.529  0.00  0.00    -0.320 OA
ATOM     20  H26 ZIN A   1      20.619  -1.322   9.376  0.00  0.00     0.221 HD
ENDBRANCH  16  19
ENDBRANCH   1  16
TORSDOF 7
ENDMDL
MODEL 2
REMARK VINA RESULT:      -6.2      3.491      4.739
REMARK  7 active torsions:
REMARK  status: ('A' for Active; 'I' for Inactive)
REMARK    1  A    between atoms: P2_2  and  O4_4 
REMARK    2  A    between atoms: P2_2  and  C5_5 
REMARK    3  A    between atoms: C5_5  and  O6_6 
REMARK    4  A    between atoms: C5_5  and  C7_7 
REMARK    5  A    between atoms: C5_5  and  P14_14 
REMARK    6  A    between atoms: C7_7  and  C8_8 
REMARK    7  A    between atoms: P14_14  and  O17_17 
ROOT
ATOM      1  C5  ZIN A   1      19.506  -0.109  10.630  0.00  0.00     0.272 C 
ENDROOT
BRANCH   1   2
ATOM      2  P2  ZIN A   1      19.069  -1.761  11.264  0.00  0.00     0.296 P 
ATOM      3  O1  ZIN A   1      19.284  -2.813  10.153  0.00  0.00    -0.644 OA
ATOM      4  O3  ZIN A   1      17.588  -1.771  11.702  0.00  0.00    -0.644 OA
BRANCH   2   5
ATOM      5  O4  ZIN A   1      20.004  -2.116  12.526  0.00  0.00    -0.320 OA
ATOM      6  H18 ZIN A   1      19.547  -2.593  13.232  0.00  0.00     0.221 HD
ENDBRANCH   2   5
ENDBRANCH   1   2
BRANCH   1   7
ATOM      7  O6  ZIN A   1      20.488  -0.239   9.600  0.00  0.00    -0.366 OA
ATOM      8  H19 ZIN A   1      21.026  -1.040   9.667  0.00  0.00     0.212 HD
ENDBRANCH   1   7
BRANCH   1   9
ATOM      9  C7  ZIN A   1      18.257   0.567  10.062  0.00  0.00     0.105 C 
BRANCH   9  10
ATOM     10  C8  ZIN A   1      18.287   0.494   8.557  0.00  0.00    -0.036 A 
ATOM     11  C13 ZIN A   1      17.611  -0.512   7.892  0.00  0.00     0.123 A 
ATOM     12  N12 ZIN A   1      17.629  -0.579   6.575  0.00  0.00    -0.273 NA
ATOM     13  C11 ZIN A   1      18.295   0.296   5.845  0.00  0.00     0.116 A 
ATOM     14  C10 ZIN A   1      18.997   1.325   6.441  0.00  0.00     0.020 A 
ATOM     15  C9  ZIN A   1      18.997   1.431   7.823  0.00  0.00     0.010 A 
ENDBRANCH   9  10
ENDBRANCH   1   9
BRANCH   1  16
ATOM     16  P14 ZIN A   1      20.181   0.903  11.988  0.00  0.00     0.296 P 
ATOM     17  O15 ZIN A   1      19.414   0.592  13.293  0.00  0.00    -0.644 OA
ATOM     18  O16 ZIN A   1      20.022   2.401  11.642  0.00  0.00    -0.644 OA
BRANCH  16  19
ATOM     19  O17 ZIN A   1      21.741   0.562  12.188  0.00  0.00    -0.320 OA
ATOM     20  H26 ZIN A   1      22.288   1.331  12.399  0.00  0.00     0.221 HD
ENDBRANCH  16  19
ENDBRANCH   1  16
TORSDOF 7
ENDMDL
MODEL 3
REMARK VINA RESULT:      -6.1      3.392      4.648
REMARK  7 active torsions:
REMARK  status: ('A' for Active; 'I' for Inactive)
REMARK    1  A    between atoms: P2_2  and  O4_4 
REMARK    2  A    between atoms: P2_2  and  C5_5 
REMARK    3  A    between atoms: C5_5  and  O6_6 
REMARK    4  A    between atoms: C5_5  and  C7_7 
REMARK    5  A    between atoms: C5_5  and  P14_14 
REMARK    6  A    between atoms: C7_7  and  C8_8 
REMARK    7  A    between atoms: P14_14  and  O17_17 
ROOT
ATOM      1  C5  ZIN A   1      19.347   0.334  12.377  0.00  0.00     0.272 C 
ENDROOT
BRANCH   1   2
ATOM      2  P2  ZIN A   1      18.924   1.922  11.589  0.00  0.00     0.296 P 
ATOM      3  O1  ZIN A   1      19.206   3.078  12.575  0.00  0.00    -0.644 OA
ATOM      4  O3  ZIN A   1      17.426   1.926  11.208  0.00  0.00    -0.644 OA
BRANCH   2   5
ATOM      5  O4  ZIN A   1      19.816   2.118  10.263  0.00  0.00    -0.320 OA
ATOM      6  H18 ZIN A   1      19.846   1.339   9.691  0.00  0.00     0.221 HD
ENDBRANCH   2   5
ENDBRANCH   1   2
BRANCH   1   7
ATOM      7  O6  ZIN A   1      20.344   0.550  13.378  0.00  0.00    -0.366 OA
ATOM      8  H19 ZIN A   1      20.317   1.432  13.777  0.00  0.00     0.212 HD
ENDBRANCH   1   7
BRANCH   1   9
ATOM      9  C7  ZIN A   1      18.096  -0.265  13.024  0.00  0.00     0.105 C 
BRANCH   9  10
ATOM     10  C8  ZIN A   1      18.270  -0.293  14.520  0.00  0.00    -0.036 A 
ATOM     11  C13 ZIN A   1      17.898   0.794  15.289  0.00  0.00     0.123 A 
ATOM     12  N12 ZIN A   1      18.042   0.774  16.599  0.00  0.00    -0.273 NA
ATOM     13  C11 ZIN A   1      18.552  -0.269  17.225  0.00  0.00     0.116 A 
ATOM     14  C10 ZIN A   1      18.950  -1.390  16.523  0.00  0.00     0.020 A 
ATOM     15  C9  ZIN A   1      18.809  -1.408  15.143  0.00  0.00     0.010 A 
ENDBRANCH   9  10
ENDBRANCH   1   9
BRANCH   1  16
ATOM     16  P14 ZIN A   1      19.991  -0.816  11.118  0.00  0.00     0.296 P 
ATOM     17  O15 ZIN A   1      19.188  -0.649   9.809  0.00  0.00    -0.644 OA
ATOM     18  O16 ZIN A   1      19.849  -2.268  11.627  0.00  0.00    -0.644 OA
BRANCH  16  19
ATOM     19  O17 ZIN A   1      21.543  -0.494  10.841  0.00  0.00    -0.320 OA
ATOM     20  H26 ZIN A   1      21.775  -0.452   9.903  0.00  0.00     0.221 HD
ENDBRANCH  16  19
ENDBRANCH   1  16
TORSDOF 7
ENDMDL
MODEL 4
REMARK VINA RESULT:      -6.0      3.943      5.192
REMARK  7 active torsions:
REMARK  status: ('A' for Active; 'I' for Inactive)
REMARK    1  A    between atoms: P2_2  and  O4_4 
REMARK    2  A    between atoms: P2_2  and  C5_5 
REMARK    3  A    between atoms: C5_5  and  O6_6 
REMARK    4  A    between atoms: C5_5  and  C7_7 
REMARK    5  A    between atoms: C5_5  and  P14_14 
REMARK    6  A    between atoms: C7_7  and  C8_8 
REMARK    7  A    between atoms: P14_14  and  O17_17 
ROOT
ATOM      1  C5  ZIN A   1      19.304   0.653   9.805  0.00  0.00     0.272 C 
ENDROOT
BRANCH   1   2
ATOM      2  P2  ZIN A   1      19.913  -0.383  11.175  0.00  0.00     0.296 P 
ATOM      3  O1  ZIN A   1      19.934  -1.863  10.733  0.00  0.00    -0.644 OA
ATOM      4  O3  ZIN A   1      18.980  -0.225  12.396  0.00  0.00    -0.644 OA
BRANCH   2   5
ATOM      5  O4  ZIN A   1      21.403   0.078  11.575  0.00  0.00    -0.320 OA
ATOM      6  H18 ZIN A   1      21.555   0.134  12.529  0.00  0.00     0.221 HD
ENDBRANCH   2   5
ENDBRANCH   1   2
BRANCH   1   7
ATOM      7  O6  ZIN A   1      20.372   0.907   8.889  0.00  0.00    -0.366 OA
ATOM      8  H19 ZIN A   1      20.806   1.762   9.018  0.00  0.00     0.212 HD
ENDBRANCH   1   7
BRANCH   1   9
ATOM      9  C7  ZIN A   1      18.172  -0.075   9.078  0.00  0.00     0.105 C 
BRANCH   9  10
ATOM     10  C8  ZIN A   1      18.579  -0.339   7.652  0.00  0.00    -0.036 A 
ATOM     11  C13 ZIN A   1      19.158  -1.545   7.301  0.00  0.00     0.123 A 
ATOM     12  N12 ZIN A   1      19.512  -1.785   6.054  0.00  0.00    -0.273 NA
ATOM     13  C11 ZIN A   1      19.340  -0.890   5.099  0.00  0.00     0.116 A 
ATOM     14  C10 ZIN A   1      18.773   0.338   5.376  0.00  0.00     0.020 A 
ATOM     15  C9  ZIN A   1      18.383   0.625   6.676  0.00  0.00     0.010 A 
ENDBRANCH   9  10
ENDBRANCH   1   9
BRANCH   1  16
ATOM     16  P14 ZIN A   1      18.684   2.233  10.468  0.00  0.00     0.296 P 
ATOM     17  O15 ZIN A   1      18.484   3.235   9.309  0.00  0.00    -0.644 OA
ATOM     18  O16 ZIN A   1      19.706   2.807  11.474  0.00  0.00    -0.644 OA
BRANCH  16  19
ATOM     19  O17 ZIN A   1      17.278   1.988  11.213  0.00  0.00    -0.320 OA
ATOM     20  H26 ZIN A   1      16.533   1.850  10.612  0.00  0.00     0.221 HD
ENDBRANCH  16  19
ENDBRANCH   1  16
TORSDOF 7
ENDMDL
MODEL 5
REMARK VINA RESULT:      -6.0      3.372      4.515
REMARK  7 active torsions:
REMARK  status: ('A' for Active; 'I' for Inactive)
REMARK    1  A    between atoms: P2_2  and  O4_4 
REMARK    2  A    between atoms: P2_2  and  C5_5 
REMARK    3  A    between atoms: C5_5  and  O6_6 
REMARK    4  A    between atoms: C5_5  and  C7_7 
REMARK    5  A    between atoms: C5_5  and  P14_14 
REMARK    6  A    between atoms: C7_7  and  C8_8 
REMARK    7  A    between atoms: P14_14  and  O17_17 
ROOT
ATOM      1  C5  ZIN A   1      19.152   0.136  12.175  0.00  0.00     0.272 C 
ENDROOT
BRANCH   1   2
ATOM      2  P2  ZIN A   1      19.982  -0.983  11.001  0.00  0.00     0.296 P 
ATOM      3  O1  ZIN A   1      19.271  -0.915   9.632  0.00  0.00    -0.644 OA
ATOM      4  O3  ZIN A   1      19.924  -2.431  11.539  0.00  0.00    -0.644 OA
BRANCH   2   5
ATOM      5  O4  ZIN A   1      21.520  -0.536  10.829  0.00  0.00    -0.320 OA
ATOM      6  H18 ZIN A   1      22.018  -0.515  11.658  0.00  0.00     0.221 HD
ENDBRANCH   2   5
ENDBRANCH   1   2
BRANCH   1   7
ATOM      7  O6  ZIN A   1      17.898  -0.428  12.565  0.00  0.00    -0.366 OA
ATOM      8  H19 ZIN A   1      17.137   0.142  12.384  0.00  0.00     0.212 HD
ENDBRANCH   1   7
BRANCH   1   9
ATOM      9  C7  ZIN A   1      20.033   0.326  13.411  0.00  0.00     0.105 C 
BRANCH   9  10
ATOM     10  C8  ZIN A   1      19.240  -0.010  14.648  0.00  0.00    -0.036 A 
ATOM     11  C13 ZIN A   1      18.545   0.976  15.323  0.00  0.00     0.123 A 
ATOM     12  N12 ZIN A   1      17.845   0.689  16.403  0.00  0.00    -0.273 NA
ATOM     13  C11 ZIN A   1      17.787  -0.537  16.886  0.00  0.00     0.116 A 
ATOM     14  C10 ZIN A   1      18.460  -1.573  16.268  0.00  0.00     0.020 A 
ATOM     15  C9  ZIN A   1      19.203  -1.310  15.127  0.00  0.00     0.010 A 
ENDBRANCH   9  10
ENDBRANCH   1   9
BRANCH   1  16
ATOM     16  P14 ZIN A   1      18.869   1.751  11.378  0.00  0.00     0.296 P 
ATOM     17  O15 ZIN A   1      19.248   2.883  12.358  0.00  0.00    -0.644 OA
ATOM     18  O16 ZIN A   1      17.379   1.881  10.992  0.00  0.00    -0.644 OA
BRANCH  16  19
ATOM     19  O17 ZIN A   1      19.778   1.862  10.053  0.00  0.00    -0.320 OA
ATOM     20  H26 ZIN A   1      19.327   1.588   9.243  0.00  0.00     0.221 HD
ENDBRANCH  16  19
ENDBRANCH   1  16
TORSDOF 7
ENDMDL
MODEL 6
REMARK VINA RESULT:      -5.7      4.365      5.898
REMARK  7 active torsions:
REMARK  status: ('A' for Active; 'I' for Inactive)
REMARK    1  A    between atoms: P2_2  and  O4_4 
REMARK    2  A    between atoms: P2_2  and  C5_5 
REMARK    3  A    between atoms: C5_5  and  O6_6 
REMARK    4  A    between atoms: C5_5  and  C7_7 
REMARK    5  A    between atoms: C5_5  and  P14_14 
REMARK    6  A    between atoms: C7_7  and  C8_8 
REMARK    7  A    between atoms: P14_14  and  O17_17 
ROOT
ATOM      1  C5  ZIN A   1      19.294  -1.164  12.269  0.00  0.00     0.272 C 
ENDROOT
BRANCH   1   2
ATOM      2  P2  ZIN A   1      19.143  -0.530  13.971  0.00  0.00     0.296 P 
ATOM      3  O1  ZIN A   1      19.694  -1.578  14.963  0.00  0.00    -0.644 OA
ATOM      4  O3  ZIN A   1      17.656  -0.253  14.288  0.00  0.00    -0.644 OA
BRANCH   2   5
ATOM      5  O4  ZIN A   1      19.985   0.836  14.111  0.00  0.00    -0.320 OA
ATOM      6  H18 ZIN A   1      20.871   0.792  13.728  0.00  0.00     0.221 HD
ENDBRANCH   2   5
ENDBRANCH   1   2
BRANCH   1   7
ATOM      7  O6  ZIN A   1      20.036  -2.386  12.281  0.00  0.00    -0.366 OA
ATOM      8  H19 ZIN A   1      20.946  -2.291  12.594  0.00  0.00     0.212 HD
ENDBRANCH   1   7
BRANCH   1   9
ATOM      9  C7  ZIN A   1      17.900  -1.419  11.693  0.00  0.00     0.105 C 
BRANCH   9  10
ATOM     10  C8  ZIN A   1      17.821  -2.833  11.177  0.00  0.00    -0.036 A 
ATOM     11  C13 ZIN A   1      18.017  -3.100   9.835  0.00  0.00     0.123 A 
ATOM     12  N12 ZIN A   1      17.955  -4.335   9.379  0.00  0.00    -0.273 NA
ATOM     13  C11 ZIN A   1      17.695  -5.357  10.172  0.00  0.00     0.116 A 
ATOM     14  C10 ZIN A   1      17.483  -5.165  11.523  0.00  0.00     0.020 A 
ATOM     15  C9  ZIN A   1      17.546  -3.880  12.042  0.00  0.00     0.010 A 
ENDBRANCH   9  10
ENDBRANCH   1   9
BRANCH   1  16
ATOM     16  P14 ZIN A   1      20.163   0.063  11.238  0.00  0.00     0.296 P 
ATOM     17  O15 ZIN A   1      19.353   1.378  11.210  0.00  0.00    -0.644 OA
ATOM     18  O16 ZIN A   1      20.308  -0.483   9.800  0.00  0.00    -0.644 OA
BRANCH  16  19
ATOM     19  O17 ZIN A   1      21.623   0.344  11.855  0.00  0.00    -0.320 OA
ATOM     20  H26 ZIN A   1      21.871  -0.258  12.570  0.00  0.00     0.221 HD
ENDBRANCH  16  19
ENDBRANCH   1  16
TORSDOF 7
ENDMDL
MODEL 7
REMARK VINA RESULT:      -5.6      3.865      5.723
REMARK  7 active torsions:
REMARK  status: ('A' for Active; 'I' for Inactive)
REMARK    1  A    between atoms: P2_2  and  O4_4 
REMARK    2  A    between atoms: P2_2  and  C5_5 
REMARK    3  A    between atoms: C5_5  and  O6_6 
REMARK    4  A    between atoms: C5_5  and  C7_7 
REMARK    5  A    between atoms: C5_5  and  P14_14 
REMARK    6  A    between atoms: C7_7  and  C8_8 
REMARK    7  A    between atoms: P14_14  and  O17_17 
ROOT
ATOM      1  C5  ZIN A   1      19.261  -0.121  10.884  0.00  0.00     0.272 C 
ENDROOT
BRANCH   1   2
ATOM      2  P2  ZIN A   1      20.078   0.607  12.341  0.00  0.00     0.296 P 
ATOM      3  O1  ZIN A   1      19.770  -0.252  13.588  0.00  0.00    -0.644 OA
ATOM      4  O3  ZIN A   1      19.552   2.043  12.563  0.00  0.00    -0.644 OA
BRANCH   2   5
ATOM      5  O4  ZIN A   1      21.669   0.651  12.098  0.00  0.00    -0.320 OA
ATOM      6  H18 ZIN A   1      22.033  -0.166  11.731  0.00  0.00     0.221 HD
ENDBRANCH   2   5
ENDBRANCH   1   2
BRANCH   1   7
ATOM      7  O6  ZIN A   1      20.246  -0.704  10.028  0.00  0.00    -0.366 OA
ATOM      8  H19 ZIN A   1      19.986  -1.556   9.651  0.00  0.00     0.212 HD
ENDBRANCH   1   7
BRANCH   1   9
ATOM      9  C7  ZIN A   1      18.276  -1.201  11.337  0.00  0.00     0.105 C 
BRANCH   9  10
ATOM     10  C8  ZIN A   1      18.764  -2.551  10.877  0.00  0.00    -0.036 A 
ATOM     11  C13 ZIN A   1      18.381  -3.052   9.648  0.00  0.00     0.123 A 
ATOM     12  N12 ZIN A   1      18.808  -4.229   9.236  0.00  0.00    -0.273 NA
ATOM     13  C11 ZIN A   1      19.604  -4.976   9.978  0.00  0.00     0.116 A 
ATOM     14  C10 ZIN A   1      20.025  -4.543  11.220  0.00  0.00     0.020 A 
ATOM     15  C9  ZIN A   1      19.600  -3.307  11.684  0.00  0.00     0.010 A 
ENDBRANCH   9  10
ENDBRANCH   1   9
BRANCH   1  16
ATOM     16  P14 ZIN A   1      18.362   1.179   9.977  0.00  0.00     0.296 P 
ATOM     17  O15 ZIN A   1      17.586   0.545   8.802  0.00  0.00    -0.644 OA
ATOM     18  O16 ZIN A   1      19.368   2.216   9.431  0.00  0.00    -0.644 OA
BRANCH  16  19
ATOM     19  O17 ZIN A   1      17.327   1.909  10.972  0.00  0.00    -0.320 OA
ATOM     20  H26 ZIN A   1      16.544   1.382  11.181  0.00  0.00     0.221 HD
ENDBRANCH  16  19
ENDBRANCH   1  16
TORSDOF 7
ENDMDL
MODEL 8
REMARK VINA RESULT:      -5.6      4.343      5.660
REMARK  7 active torsions:
REMARK  status: ('A' for Active; 'I' for Inactive)
REMARK    1  A    between atoms: P2_2  and  O4_4 
REMARK    2  A    between atoms: P2_2  and  C5_5 
REMARK    3  A    between atoms: C5_5  and  O6_6 
REMARK    4  A    between atoms: C5_5  and  C7_7 
REMARK    5  A    between atoms: C5_5  and  P14_14 
REMARK    6  A    between atoms: C7_7  and  C8_8 
REMARK    7  A    between atoms: P14_14  and  O17_17 
ROOT
ATOM      1  C5  ZIN A   1      18.628  -0.722   9.666  0.00  0.00     0.272 C 
ENDROOT
BRANCH   1   2
ATOM      2  P2  ZIN A   1      18.166  -2.064  10.809  0.00  0.00     0.296 P 
ATOM      3  O1  ZIN A   1      19.422  -2.554  11.564  0.00  0.00    -0.644 OA
ATOM      4  O3  ZIN A   1      17.558  -3.238  10.007  0.00  0.00    -0.644 OA
BRANCH   2   5
ATOM      5  O4  ZIN A   1      17.082  -1.519  11.867  0.00  0.00    -0.320 OA
ATOM      6  H18 ZIN A   1      16.181  -1.474  11.519  0.00  0.00     0.221 HD
ENDBRANCH   2   5
ENDBRANCH   1   2
BRANCH   1   7
ATOM      7  O6  ZIN A   1      19.917  -0.992   9.111  0.00  0.00    -0.366 OA
ATOM      8  H19 ZIN A   1      20.562  -0.285   9.250  0.00  0.00     0.212 HD
ENDBRANCH   1   7
BRANCH   1   9
ATOM      9  C7  ZIN A   1      17.596  -0.631   8.540  0.00  0.00     0.105 C 
BRANCH   9  10
ATOM     10  C8  ZIN A   1      18.306  -0.571   7.213  0.00  0.00    -0.036 A 
ATOM     11  C13 ZIN A   1      18.741  -1.730   6.598  0.00  0.00     0.123 A 
ATOM     12  N12 ZIN A   1      19.358  -1.686   5.434  0.00  0.00    -0.273 NA
ATOM     13  C11 ZIN A   1      19.594  -0.544   4.817  0.00  0.00     0.116 A 
ATOM     14  C10 ZIN A   1      19.193   0.655   5.373  0.00  0.00     0.020 A 
ATOM     15  C9  ZIN A   1      18.536   0.648   6.594  0.00  0.00     0.010 A 
ENDBRANCH   9  10
ENDBRANCH   1   9
BRANCH   1  16
ATOM     16  P14 ZIN A   1      18.678   0.858  10.574  0.00  0.00     0.296 P 
ATOM     17  O15 ZIN A   1      19.268   0.625  11.982  0.00  0.00    -0.644 OA
ATOM     18  O16 ZIN A   1      17.245   1.423  10.703  0.00  0.00    -0.644 OA
BRANCH  16  19
ATOM     19  O17 ZIN A   1      19.598   1.909   9.773  0.00  0.00    -0.320 OA
ATOM     20  H26 ZIN A   1      20.244   1.496   9.183  0.00  0.00     0.221 HD
ENDBRANCH  16  19
ENDBRANCH   1  16
TORSDOF 7
ENDMDL
MODEL 9
REMARK VINA RESULT:      -5.5      1.590      3.249
REMARK  7 active torsions:
REMARK  status: ('A' for Active; 'I' for Inactive)
REMARK    1  A    between atoms: P2_2  and  O4_4 
REMARK    2  A    between atoms: P2_2  and  C5_5 
REMARK    3  A    between atoms: C5_5  and  O6_6 
REMARK    4  A    between atoms: C5_5  and  C7_7 
REMARK    5  A    between atoms: C5_5  and  P14_14 
REMARK    6  A    between atoms: C7_7  and  C8_8 
REMARK    7  A    between atoms: P14_14  and  O17_17 
ROOT
ATOM      1  C5  ZIN A   1      18.983   0.244  10.329  0.00  0.00     0.272 C 
ENDROOT
BRANCH   1   2
ATOM      2  P2  ZIN A   1      18.834  -0.232   8.577  0.00  0.00     0.296 P 
ATOM      3  O1  ZIN A   1      19.314   0.934   7.683  0.00  0.00    -0.644 OA
ATOM      4  O3  ZIN A   1      17.358  -0.553   8.253  0.00  0.00    -0.644 OA
BRANCH   2   5
ATOM      5  O4  ZIN A   1      19.741  -1.533   8.295  0.00  0.00    -0.320 OA
ATOM      6  H18 ZIN A   1      19.658  -2.222   8.967  0.00  0.00     0.221 HD
ENDBRANCH   2   5
ENDBRANCH   1   2
BRANCH   1   7
ATOM      7  O6  ZIN A   1      19.952   1.286  10.459  0.00  0.00    -0.366 OA
ATOM      8  H19 ZIN A   1      20.854   0.969  10.608  0.00  0.00     0.212 HD
ENDBRANCH   1   7
BRANCH   1   9
ATOM      9  C7  ZIN A   1      17.629   0.740  10.841  0.00  0.00     0.105 C 
BRANCH   9  10
ATOM     10  C8  ZIN A   1      17.754   2.177  11.278  0.00  0.00    -0.036 A 
ATOM     11  C13 ZIN A   1      17.898   2.492  12.616  0.00  0.00     0.123 A 
ATOM     12  N12 ZIN A   1      18.013   3.746  13.005  0.00  0.00    -0.273 NA
ATOM     13  C11 ZIN A   1      17.986   4.745  12.144  0.00  0.00     0.116 A 
ATOM     14  C10 ZIN A   1      17.840   4.508  10.791  0.00  0.00     0.020 A 
ATOM     15  C9  ZIN A   1      17.721   3.200  10.344  0.00  0.00     0.010 A 
ENDBRANCH   9  10
ENDBRANCH   1   9
BRANCH   1  16
ATOM     16  P14 ZIN A   1      19.510  -1.200  11.308  0.00  0.00     0.296 P 
ATOM     17  O15 ZIN A   1      18.677  -2.434  10.896  0.00  0.00    -0.644 OA
ATOM     18  O16 ZIN A   1      19.293  -0.911  12.811  0.00  0.00    -0.644 OA
BRANCH  16  19
ATOM     19  O17 ZIN A   1      21.070  -1.491  11.038  0.00  0.00    -0.320 OA
ATOM     20  H26 ZIN A   1      21.669  -0.929  11.548  0.00  0.00     0.221 HD
ENDBRANCH  16  19
ENDBRANCH   1  16
TORSDOF 7
ENDMDL
