MODEL 1
REMARK VINA RESULT:      -6.5      0.000      0.000
REMARK  16 active torsions:
REMARK  status: ('A' for Active; 'I' for Inactive)
REMARK       I    between atoms: C2_2  and  N4_4 
REMARK    1  A    between atoms: N4_4  and  C5_5 
REMARK    2  A    between atoms: N4_4  and  C11_10 
REMARK    3  A    between atoms: C5_5  and  C6_6 
REMARK    4  A    between atoms: C6_6  and  O8_7 
REMARK    5  A    between atoms: C6_6  and  C9_8 
REMARK    6  A    between atoms: C9_8  and  O10_9 
REMARK    7  A    between atoms: C14_13  and  C15_14 
REMARK       I    between atoms: C15_14  and  N17_16 
REMARK    8  A    between atoms: N17_16  and  C18_17 
REMARK    9  A    between atoms: C18_17  and  C19_18 
REMARK   10  A    between atoms: C19_18  and  O20_19 
REMARK   11  A    between atoms: C23_22  and  C24_23 
REMARK       I    between atoms: C24_23  and  N26_25 
REMARK   12  A    between atoms: N26_25  and  C27_26 
REMARK   13  A    between atoms: C27_26  and  C28_27 
REMARK   14  A    between atoms: C28_27  and  O30_28 
REMARK   15  A    between atoms: C28_27  and  C31_29 
REMARK   16  A    between atoms: C31_29  and  O32_30 
ROOT
ATOM      1  C11 ZIN A   1      17.635   4.758  14.288  0.00  0.00     0.072 A 
ATOM      2  C12 ZIN A   1      17.964   4.155  15.492  0.00  0.00     0.051 A 
ATOM      3  I13 ZIN A   1      17.992   5.284  17.256  0.00  0.00    -0.041 I 
ATOM      4  C14 ZIN A   1      18.277   2.793  15.530  0.00  0.00     0.068 A 
ATOM      5  C21 ZIN A   1      18.256   2.042  14.356  0.00  0.00     0.040 A 
ATOM      6  I22 ZIN A   1      18.723  -0.000  14.408  0.00  0.00    -0.042 I 
ATOM      7  C23 ZIN A   1      17.925   2.653  13.148  0.00  0.00     0.068 A 
ATOM      8  C33 ZIN A   1      17.609   4.013  13.117  0.00  0.00     0.051 A 
ATOM      9  I34 ZIN A   1      17.111   4.933  11.302  0.00  0.00    -0.041 I 
ENDROOT
BRANCH   1  10
ATOM     10  N4  ZIN A   1      17.322   6.123  14.253  0.00  0.00    -0.313 N 
ATOM     11  C2  ZIN A   1      18.296   7.042  14.405  0.00  0.00     0.220 C 
ATOM     12  C1  ZIN A   1      19.722   6.602  14.612  0.00  0.00     0.117 C 
ATOM     13  O3  ZIN A   1      18.024   8.224  14.375  0.00  0.00    -0.273 OA
BRANCH  10  14
ATOM     14  C5  ZIN A   1      15.935   6.551  14.053  0.00  0.00     0.166 C 
BRANCH  14  15
ATOM     15  C6  ZIN A   1      15.114   6.221  15.300  0.00  0.00     0.160 C 
BRANCH  15  16
ATOM     16  O8  ZIN A   1      13.807   5.792  14.911  0.00  0.00    -0.392 OA
ATOM     17  H40 ZIN A   1      13.140   6.491  14.940  0.00  0.00     0.210 HD
ENDBRANCH  15  16
BRANCH  15  18
ATOM     18  C9  ZIN A   1      15.000   7.466  16.182  0.00  0.00     0.197 C 
BRANCH  18  19
ATOM     19  O10 ZIN A   1      15.176   8.636  15.380  0.00  0.00    -0.398 OA
ATOM     20  H43 ZIN A   1      15.921   8.583  14.767  0.00  0.00     0.209 HD
ENDBRANCH  18  19
ENDBRANCH  15  18
ENDBRANCH  14  15
ENDBRANCH  10  14
ENDBRANCH   1  10
BRANCH   7  21
ATOM     21  C24 ZIN A   1      17.903   1.861  11.900  0.00  0.00     0.254 C 
ATOM     22  O25 ZIN A   1      16.869   1.341  11.528  0.00  0.00    -0.268 OA
ATOM     23  N26 ZIN A   1      19.028   1.715  11.174  0.00  0.00    -0.354 N 
ATOM     24  H50 ZIN A   1      19.854   2.130  11.471  0.00  0.00     0.162 HD
BRANCH  23  25
ATOM     25  C27 ZIN A   1      19.006   0.930   9.936  0.00  0.00     0.156 C 
BRANCH  25  26
ATOM     26  C28 ZIN A   1      20.289   0.103   9.834  0.00  0.00     0.159 C 
BRANCH  26  27
ATOM     27  O30 ZIN A   1      20.096  -0.963   8.902  0.00  0.00    -0.392 OA
ATOM     28  H53 ZIN A   1      19.686  -0.688   8.071  0.00  0.00     0.210 HD
ENDBRANCH  26  27
BRANCH  26  29
ATOM     29  C31 ZIN A   1      20.632  -0.477  11.208  0.00  0.00     0.197 C 
BRANCH  29  30
ATOM     30  O32 ZIN A   1      21.611   0.348  11.843  0.00  0.00    -0.398 OA
ATOM     31  H56 ZIN A   1      22.134   0.880  11.230  0.00  0.00     0.209 HD
ENDBRANCH  29  30
ENDBRANCH  26  29
ENDBRANCH  25  26
ENDBRANCH  23  25
ENDBRANCH   7  21
BRANCH   4  32
ATOM     32  C15 ZIN A   1      18.626   2.150  16.813  0.00  0.00     0.254 C 
ATOM     33  O16 ZIN A   1      19.773   2.179  17.216  0.00  0.00    -0.268 OA
ATOM     34  N17 ZIN A   1      17.673   1.529  17.538  0.00  0.00    -0.355 N 
ATOM     35  H44 ZIN A   1      16.759   1.505  17.216  0.00  0.00     0.162 HD
BRANCH  34  36
ATOM     36  C18 ZIN A   1      18.020   0.892  18.810  0.00  0.00     0.148 C 
BRANCH  36  37
ATOM     37  C19 ZIN A   1      18.577  -0.509  18.544  0.00  0.00     0.183 C 
BRANCH  37  38
ATOM     38  O20 ZIN A   1      19.992  -0.432  18.363  0.00  0.00    -0.399 OA
ATOM     39  H49 ZIN A   1      20.387  -1.240  18.009  0.00  0.00     0.209 HD
ENDBRANCH  37  38
ENDBRANCH  36  37
ENDBRANCH  34  36
ENDBRANCH   4  32
TORSDOF 16
ENDMDL
MODEL 2
REMARK VINA RESULT:      -6.5      5.344     10.983
REMARK  16 active torsions:
REMARK  status: ('A' for Active; 'I' for Inactive)
REMARK       I    between atoms: C2_2  and  N4_4 
REMARK    1  A    between atoms: N4_4  and  C5_5 
REMARK    2  A    between atoms: N4_4  and  C11_10 
REMARK    3  A    between atoms: C5_5  and  C6_6 
REMARK    4  A    between atoms: C6_6  and  O8_7 
REMARK    5  A    between atoms: C6_6  and  C9_8 
REMARK    6  A    between atoms: C9_8  and  O10_9 
REMARK    7  A    between atoms: C14_13  and  C15_14 
REMARK       I    between atoms: C15_14  and  N17_16 
REMARK    8  A    between atoms: N17_16  and  C18_17 
REMARK    9  A    between atoms: C18_17  and  C19_18 
REMARK   10  A    between atoms: C19_18  and  O20_19 
REMARK   11  A    between atoms: C23_22  and  C24_23 
REMARK       I    between atoms: C24_23  and  N26_25 
REMARK   12  A    between atoms: N26_25  and  C27_26 
REMARK   13  A    between atoms: C27_26  and  C28_27 
REMARK   14  A    between atoms: C28_27  and  O30_28 
REMARK   15  A    between atoms: C28_27  and  C31_29 
REMARK   16  A    between atoms: C31_29  and  O32_30 
ROOT
ATOM      1  C11 ZIN A   1      17.867  -4.037   9.062  0.00  0.00     0.072 A 
ATOM      2  C12 ZIN A   1      17.911  -3.189   7.966  0.00  0.00     0.051 A 
ATOM      3  I13 ZIN A   1      17.905  -3.983   6.027  0.00  0.00    -0.041 I 
ATOM      4  C14 ZIN A   1      17.960  -1.805   8.153  0.00  0.00     0.068 A 
ATOM      5  C21 ZIN A   1      17.963  -1.277   9.443  0.00  0.00     0.040 A 
ATOM      6  I22 ZIN A   1      18.035   0.797   9.729  0.00  0.00    -0.042 I 
ATOM      7  C23 ZIN A   1      17.918  -2.134  10.542  0.00  0.00     0.068 A 
ATOM      8  C33 ZIN A   1      17.864  -3.516  10.348  0.00  0.00     0.051 A 
ATOM      9  I34 ZIN A   1      17.797  -4.804  11.999  0.00  0.00    -0.041 I 
ENDROOT
BRANCH   1  10
ATOM     10  N4  ZIN A   1      17.818  -5.424   8.871  0.00  0.00    -0.313 N 
ATOM     11  C2  ZIN A   1      18.926  -6.093   8.498  0.00  0.00     0.220 C 
ATOM     12  C1  ZIN A   1      20.220  -5.349   8.287  0.00  0.00     0.117 C 
ATOM     13  O3  ZIN A   1      18.883  -7.293   8.332  0.00  0.00    -0.273 OA
BRANCH  10  14
ATOM     14  C5  ZIN A   1      16.560  -6.147   9.076  0.00  0.00     0.166 C 
BRANCH  14  15
ATOM     15  C6  ZIN A   1      15.621  -5.882   7.898  0.00  0.00     0.160 C 
BRANCH  15  16
ATOM     16  O8  ZIN A   1      14.339  -5.485   8.390  0.00  0.00    -0.392 OA
ATOM     17  H40 ZIN A   1      14.344  -5.200   9.314  0.00  0.00     0.210 HD
ENDBRANCH  15  16
BRANCH  15  18
ATOM     18  C9  ZIN A   1      15.475  -7.157   7.064  0.00  0.00     0.197 C 
BRANCH  18  19
ATOM     19  O10 ZIN A   1      16.136  -8.237   7.725  0.00  0.00    -0.398 OA
ATOM     20  H43 ZIN A   1      17.097  -8.236   7.614  0.00  0.00     0.209 HD
ENDBRANCH  18  19
ENDBRANCH  15  18
ENDBRANCH  14  15
ENDBRANCH  10  14
ENDBRANCH   1  10
BRANCH   7  21
ATOM     21  C24 ZIN A   1      17.922  -1.579  11.912  0.00  0.00     0.254 C 
ATOM     22  O25 ZIN A   1      16.873  -1.287  12.453  0.00  0.00    -0.268 OA
ATOM     23  N26 ZIN A   1      19.088  -1.398  12.563  0.00  0.00    -0.354 N 
ATOM     24  H50 ZIN A   1      19.925  -1.631  12.132  0.00  0.00     0.162 HD
BRANCH  23  25
ATOM     25  C27 ZIN A   1      19.091  -0.848  13.922  0.00  0.00     0.156 C 
BRANCH  25  26
ATOM     26  C28 ZIN A   1      20.101   0.298  14.006  0.00  0.00     0.159 C 
BRANCH  26  27
ATOM     27  O30 ZIN A   1      19.581   1.330  14.846  0.00  0.00    -0.392 OA
ATOM     28  H53 ZIN A   1      18.624   1.290  14.972  0.00  0.00     0.210 HD
ENDBRANCH  26  27
BRANCH  26  29
ATOM     29  C31 ZIN A   1      20.352   0.859  12.605  0.00  0.00     0.197 C 
BRANCH  29  30
ATOM     30  O32 ZIN A   1      21.686   0.544  12.197  0.00  0.00    -0.398 OA
ATOM     31  H56 ZIN A   1      21.958  -0.359  12.408  0.00  0.00     0.209 HD
ENDBRANCH  29  30
ENDBRANCH  26  29
ENDBRANCH  25  26
ENDBRANCH  23  25
ENDBRANCH   7  21
BRANCH   4  32
ATOM     32  C15 ZIN A   1      18.006  -0.902   6.985  0.00  0.00     0.254 C 
ATOM     33  O16 ZIN A   1      16.973  -0.520   6.470  0.00  0.00    -0.268 OA
ATOM     34  N17 ZIN A   1      19.194  -0.502   6.489  0.00  0.00    -0.355 N 
ATOM     35  H44 ZIN A   1      20.018  -0.807   6.899  0.00  0.00     0.162 HD
BRANCH  34  36
ATOM     36  C18 ZIN A   1      19.240   0.393   5.331  0.00  0.00     0.148 C 
BRANCH  36  37
ATOM     37  C19 ZIN A   1      18.876  -0.389   4.067  0.00  0.00     0.183 C 
BRANCH  37  38
ATOM     38  O20 ZIN A   1      19.639  -1.595   4.016  0.00  0.00    -0.399 OA
ATOM     39  H49 ZIN A   1      20.029  -1.777   3.150  0.00  0.00     0.209 HD
ENDBRANCH  37  38
ENDBRANCH  36  37
ENDBRANCH  34  36
ENDBRANCH   4  32
TORSDOF 16
ENDMDL
MODEL 3
REMARK VINA RESULT:      -6.3      6.182     10.686
REMARK  16 active torsions:
REMARK  status: ('A' for Active; 'I' for Inactive)
REMARK       I    between atoms: C2_2  and  N4_4 
REMARK    1  A    between atoms: N4_4  and  C5_5 
REMARK    2  A    between atoms: N4_4  and  C11_10 
REMARK    3  A    between atoms: C5_5  and  C6_6 
REMARK    4  A    between atoms: C6_6  and  O8_7 
REMARK    5  A    between atoms: C6_6  and  C9_8 
REMARK    6  A    between atoms: C9_8  and  O10_9 
REMARK    7  A    between atoms: C14_13  and  C15_14 
REMARK       I    between atoms: C15_14  and  N17_16 
REMARK    8  A    between atoms: N17_16  and  C18_17 
REMARK    9  A    between atoms: C18_17  and  C19_18 
REMARK   10  A    between atoms: C19_18  and  O20_19 
REMARK   11  A    between atoms: C23_22  and  C24_23 
REMARK       I    between atoms: C24_23  and  N26_25 
REMARK   12  A    between atoms: N26_25  and  C27_26 
REMARK   13  A    between atoms: C27_26  and  C28_27 
REMARK   14  A    between atoms: C28_27  and  O30_28 
REMARK   15  A    between atoms: C28_27  and  C31_29 
REMARK   16  A    between atoms: C31_29  and  O32_30 
ROOT
ATOM      1  C11 ZIN A   1      18.837  -4.157   8.429  0.00  0.00     0.072 A 
ATOM      2  C12 ZIN A   1      18.892  -3.023   9.226  0.00  0.00     0.051 A 
ATOM      3  I13 ZIN A   1      19.219  -3.208  11.287  0.00  0.00    -0.041 I 
ATOM      4  C14 ZIN A   1      18.729  -1.758   8.655  0.00  0.00     0.068 A 
ATOM      5  C21 ZIN A   1      18.513  -1.636   7.284  0.00  0.00     0.040 A 
ATOM      6  I22 ZIN A   1      18.269   0.259   6.423  0.00  0.00    -0.042 I 
ATOM      7  C23 ZIN A   1      18.458  -2.778   6.486  0.00  0.00     0.068 A 
ATOM      8  C33 ZIN A   1      18.627  -4.040   7.062  0.00  0.00     0.051 A 
ATOM      9  I34 ZIN A   1      18.546  -5.757   5.865  0.00  0.00    -0.041 I 
ENDROOT
BRANCH   1  10
ATOM     10  N4  ZIN A   1      19.001  -5.423   9.004  0.00  0.00    -0.313 N 
ATOM     11  C2  ZIN A   1      20.190  -6.052   8.923  0.00  0.00     0.220 C 
ATOM     12  C1  ZIN A   1      21.344  -5.393   8.213  0.00  0.00     0.117 C 
ATOM     13  O3  ZIN A   1      20.331  -7.149   9.421  0.00  0.00    -0.273 OA
BRANCH  10  14
ATOM     14  C5  ZIN A   1      17.879  -6.065   9.694  0.00  0.00     0.166 C 
BRANCH  14  15
ATOM     15  C6  ZIN A   1      16.598  -5.268   9.435  0.00  0.00     0.160 C 
BRANCH  15  16
ATOM     16  O8  ZIN A   1      15.958  -4.978  10.679  0.00  0.00    -0.392 OA
ATOM     17  H40 ZIN A   1      16.569  -4.730  11.387  0.00  0.00     0.210 HD
ENDBRANCH  15  16
BRANCH  15  18
ATOM     18  C9  ZIN A   1      15.654  -6.091   8.555  0.00  0.00     0.197 C 
BRANCH  18  19
ATOM     19  O10 ZIN A   1      14.322  -5.591   8.688  0.00  0.00    -0.398 OA
ATOM     20  H43 ZIN A   1      13.717  -6.200   9.133  0.00  0.00     0.209 HD
ENDBRANCH  18  19
ENDBRANCH  15  18
ENDBRANCH  14  15
ENDBRANCH  10  14
ENDBRANCH   1  10
BRANCH   7  21
ATOM     21  C24 ZIN A   1      18.228  -2.654   5.032  0.00  0.00     0.254 C 
ATOM     22  O25 ZIN A   1      19.145  -2.344   4.296  0.00  0.00    -0.268 OA
ATOM     23  N26 ZIN A   1      17.003  -2.886   4.521  0.00  0.00    -0.354 N 
ATOM     24  H50 ZIN A   1      16.272  -3.133   5.108  0.00  0.00     0.162 HD
BRANCH  23  25
ATOM     25  C27 ZIN A   1      16.776  -2.763   3.078  0.00  0.00     0.156 C 
BRANCH  25  26
ATOM     26  C28 ZIN A   1      16.085  -4.026   2.561  0.00  0.00     0.159 C 
BRANCH  26  27
ATOM     27  O30 ZIN A   1      15.337  -4.627   3.620  0.00  0.00    -0.392 OA
ATOM     28  H53 ZIN A   1      15.500  -4.235   4.488  0.00  0.00     0.210 HD
ENDBRANCH  26  27
BRANCH  26  29
ATOM     29  C31 ZIN A   1      17.140  -5.014   2.058  0.00  0.00     0.197 C 
BRANCH  29  30
ATOM     30  O32 ZIN A   1      18.444  -4.466   2.266  0.00  0.00    -0.398 OA
ATOM     31  H56 ZIN A   1      18.894  -4.204   1.452  0.00  0.00     0.209 HD
ENDBRANCH  29  30
ENDBRANCH  26  29
ENDBRANCH  25  26
ENDBRANCH  23  25
ENDBRANCH   7  21
BRANCH   4  32
ATOM     32  C15 ZIN A   1      18.788  -0.550   9.505  0.00  0.00     0.254 C 
ATOM     33  O16 ZIN A   1      17.764  -0.065   9.943  0.00  0.00    -0.268 OA
ATOM     34  N17 ZIN A   1      19.979   0.013   9.793  0.00  0.00    -0.355 N 
ATOM     35  H44 ZIN A   1      20.795  -0.373   9.442  0.00  0.00     0.162 HD
BRANCH  34  36
ATOM     36  C18 ZIN A   1      20.037   1.210  10.635  0.00  0.00     0.148 C 
BRANCH  36  37
ATOM     37  C19 ZIN A   1      20.373   0.806  12.072  0.00  0.00     0.183 C 
BRANCH  37  38
ATOM     38  O20 ZIN A   1      21.783   0.619  12.197  0.00  0.00    -0.399 OA
ATOM     39  H49 ZIN A   1      22.311   1.270  11.714  0.00  0.00     0.209 HD
ENDBRANCH  37  38
ENDBRANCH  36  37
ENDBRANCH  34  36
ENDBRANCH   4  32
TORSDOF 16
ENDMDL
MODEL 4
REMARK VINA RESULT:      -6.0      1.942      6.187
REMARK  16 active torsions:
REMARK  status: ('A' for Active; 'I' for Inactive)
REMARK       I    between atoms: C2_2  and  N4_4 
REMARK    1  A    between atoms: N4_4  and  C5_5 
REMARK    2  A    between atoms: N4_4  and  C11_10 
REMARK    3  A    between atoms: C5_5  and  C6_6 
REMARK    4  A    between atoms: C6_6  and  O8_7 
REMARK    5  A    between atoms: C6_6  and  C9_8 
REMARK    6  A    between atoms: C9_8  and  O10_9 
REMARK    7  A    between atoms: C14_13  and  C15_14 
REMARK       I    between atoms: C15_14  and  N17_16 
REMARK    8  A    between atoms: N17_16  and  C18_17 
REMARK    9  A    between atoms: C18_17  and  C19_18 
REMARK   10  A    between atoms: C19_18  and  O20_19 
REMARK   11  A    between atoms: C23_22  and  C24_23 
REMARK       I    between atoms: C24_23  and  N26_25 
REMARK   12  A    between atoms: N26_25  and  C27_26 
REMARK   13  A    between atoms: C27_26  and  C28_27 
REMARK   14  A    between atoms: C28_27  and  O30_28 
REMARK   15  A    between atoms: C28_27  and  C31_29 
REMARK   16  A    between atoms: C31_29  and  O32_30 
ROOT
ATOM      1  C11 ZIN A   1      18.213   3.800  13.223  0.00  0.00     0.072 A 
ATOM      2  C12 ZIN A   1      18.037   3.291  11.945  0.00  0.00     0.051 A 
ATOM      3  I13 ZIN A   1      17.866   4.594  10.314  0.00  0.00    -0.041 I 
ATOM      4  C14 ZIN A   1      17.973   1.909  11.744  0.00  0.00     0.068 A 
ATOM      5  C21 ZIN A   1      18.088   1.043  12.830  0.00  0.00     0.040 A 
ATOM      6  I22 ZIN A   1      17.994  -1.029  12.535  0.00  0.00    -0.042 I 
ATOM      7  C23 ZIN A   1      18.265   1.559  14.113  0.00  0.00     0.068 A 
ATOM      8  C33 ZIN A   1      18.333   2.941  14.306  0.00  0.00     0.051 A 
ATOM      9  I34 ZIN A   1      18.599   3.718  16.233  0.00  0.00    -0.041 I 
ENDROOT
BRANCH   1  10
ATOM     10  N4  ZIN A   1      18.276   5.185  13.420  0.00  0.00    -0.313 N 
ATOM     11  C2  ZIN A   1      17.146   5.890  13.623  0.00  0.00     0.220 C 
ATOM     12  C1  ZIN A   1      15.813   5.188  13.638  0.00  0.00     0.117 C 
ATOM     13  O3  ZIN A   1      17.202   7.089  13.794  0.00  0.00    -0.273 OA
BRANCH  10  14
ATOM     14  C5  ZIN A   1      19.573   5.868  13.405  0.00  0.00     0.166 C 
BRANCH  14  15
ATOM     15  C6  ZIN A   1      20.046   6.096  14.842  0.00  0.00     0.160 C 
BRANCH  15  16
ATOM     16  O8  ZIN A   1      19.443   7.284  15.359  0.00  0.00    -0.392 OA
ATOM     17  H40 ZIN A   1      20.023   7.799  15.937  0.00  0.00     0.210 HD
ENDBRANCH  15  16
BRANCH  15  18
ATOM     18  C9  ZIN A   1      21.568   6.247  14.861  0.00  0.00     0.197 C 
BRANCH  18  19
ATOM     19  O10 ZIN A   1      22.122   5.374  15.848  0.00  0.00    -0.398 OA
ATOM     20  H43 ZIN A   1      21.488   5.089  16.520  0.00  0.00     0.209 HD
ENDBRANCH  18  19
ENDBRANCH  15  18
ENDBRANCH  14  15
ENDBRANCH  10  14
ENDBRANCH   1  10
BRANCH   7  21
ATOM     21  C24 ZIN A   1      18.386   0.645  15.268  0.00  0.00     0.254 C 
ATOM     22  O25 ZIN A   1      19.438   0.074  15.483  0.00  0.00    -0.268 OA
ATOM     23  N26 ZIN A   1      17.332   0.444  16.083  0.00  0.00    -0.354 N 
ATOM     24  H50 ZIN A   1      16.493   0.900  15.911  0.00  0.00     0.162 HD
BRANCH  23  25
ATOM     25  C27 ZIN A   1      17.453  -0.463  17.228  0.00  0.00     0.156 C 
BRANCH  25  26
ATOM     26  C28 ZIN A   1      17.510   0.353  18.521  0.00  0.00     0.159 C 
BRANCH  26  27
ATOM     27  O30 ZIN A   1      16.638   1.480  18.411  0.00  0.00    -0.392 OA
ATOM     28  H53 ZIN A   1      16.538   1.814  17.510  0.00  0.00     0.210 HD
ENDBRANCH  26  27
BRANCH  26  29
ATOM     29  C31 ZIN A   1      18.942   0.837  18.755  0.00  0.00     0.197 C 
BRANCH  29  30
ATOM     30  O32 ZIN A   1      19.862  -0.166  18.320  0.00  0.00    -0.398 OA
ATOM     31  H56 ZIN A   1      20.667   0.186  17.919  0.00  0.00     0.209 HD
ENDBRANCH  29  30
ENDBRANCH  26  29
ENDBRANCH  25  26
ENDBRANCH  23  25
ENDBRANCH   7  21
BRANCH   4  32
ATOM     32  C15 ZIN A   1      17.786   1.367  10.383  0.00  0.00     0.254 C 
ATOM     33  O16 ZIN A   1      16.679   1.033  10.008  0.00  0.00    -0.268 OA
ATOM     34  N17 ZIN A   1      18.843   1.243   9.556  0.00  0.00    -0.355 N 
ATOM     35  H44 ZIN A   1      19.726   1.509   9.855  0.00  0.00     0.162 HD
BRANCH  34  36
ATOM     36  C18 ZIN A   1      18.658   0.706   8.206  0.00  0.00     0.148 C 
BRANCH  36  37
ATOM     37  C19 ZIN A   1      19.348  -0.656   8.100  0.00  0.00     0.183 C 
BRANCH  37  38
ATOM     38  O20 ZIN A   1      20.243  -0.823   9.200  0.00  0.00    -0.399 OA
ATOM     39  H49 ZIN A   1      21.160  -0.592   8.999  0.00  0.00     0.209 HD
ENDBRANCH  37  38
ENDBRANCH  36  37
ENDBRANCH  34  36
ENDBRANCH   4  32
TORSDOF 16
ENDMDL
MODEL 5
REMARK VINA RESULT:      -6.0      6.305     10.488
REMARK  16 active torsions:
REMARK  status: ('A' for Active; 'I' for Inactive)
REMARK       I    between atoms: C2_2  and  N4_4 
REMARK    1  A    between atoms: N4_4  and  C5_5 
REMARK    2  A    between atoms: N4_4  and  C11_10 
REMARK    3  A    between atoms: C5_5  and  C6_6 
REMARK    4  A    between atoms: C6_6  and  O8_7 
REMARK    5  A    between atoms: C6_6  and  C9_8 
REMARK    6  A    between atoms: C9_8  and  O10_9 
REMARK    7  A    between atoms: C14_13  and  C15_14 
REMARK       I    between atoms: C15_14  and  N17_16 
REMARK    8  A    between atoms: N17_16  and  C18_17 
REMARK    9  A    between atoms: C18_17  and  C19_18 
REMARK   10  A    between atoms: C19_18  and  O20_19 
REMARK   11  A    between atoms: C23_22  and  C24_23 
REMARK       I    between atoms: C24_23  and  N26_25 
REMARK   12  A    between atoms: N26_25  and  C27_26 
REMARK   13  A    between atoms: C27_26  and  C28_27 
REMARK   14  A    between atoms: C28_27  and  O30_28 
REMARK   15  A    between atoms: C28_27  and  C31_29 
REMARK   16  A    between atoms: C31_29  and  O32_30 
ROOT
ATOM      1  C11 ZIN A   1      18.161  -3.320   9.833  0.00  0.00     0.072 A 
ATOM      2  C12 ZIN A   1      18.524  -2.609   8.699  0.00  0.00     0.051 A 
ATOM      3  I13 ZIN A   1      19.362  -0.698   8.886  0.00  0.00    -0.041 I 
ATOM      4  C14 ZIN A   1      18.332  -3.166   7.432  0.00  0.00     0.068 A 
ATOM      5  C21 ZIN A   1      17.775  -4.438   7.308  0.00  0.00     0.040 A 
ATOM      6  I22 ZIN A   1      17.485  -5.278   5.411  0.00  0.00    -0.042 I 
ATOM      7  C23 ZIN A   1      17.412  -5.149   8.451  0.00  0.00     0.068 A 
ATOM      8  C33 ZIN A   1      17.611  -4.589   9.715  0.00  0.00     0.051 A 
ATOM      9  I34 ZIN A   1      17.066  -5.657  11.433  0.00  0.00    -0.041 I 
ENDROOT
BRANCH   1  10
ATOM     10  N4  ZIN A   1      18.356  -2.759  11.101  0.00  0.00    -0.313 N 
ATOM     11  C2  ZIN A   1      19.511  -2.970  11.762  0.00  0.00     0.220 C 
ATOM     12  C1  ZIN A   1      20.593  -3.812  11.137  0.00  0.00     0.117 C 
ATOM     13  O3  ZIN A   1      19.679  -2.484  12.861  0.00  0.00    -0.273 OA
BRANCH  10  14
ATOM     14  C5  ZIN A   1      17.303  -1.941  11.709  0.00  0.00     0.166 C 
BRANCH  14  15
ATOM     15  C6  ZIN A   1      17.921  -0.677  12.309  0.00  0.00     0.160 C 
BRANCH  15  16
ATOM     16  O8  ZIN A   1      17.815  -0.725  13.734  0.00  0.00    -0.392 OA
ATOM     17  H40 ZIN A   1      17.194  -1.391  14.059  0.00  0.00     0.210 HD
ENDBRANCH  15  16
BRANCH  15  18
ATOM     18  C9  ZIN A   1      17.180   0.554  11.784  0.00  0.00     0.197 C 
BRANCH  18  19
ATOM     19  O10 ZIN A   1      15.857   0.182  11.392  0.00  0.00    -0.398 OA
ATOM     20  H43 ZIN A   1      15.793  -0.143  10.484  0.00  0.00     0.209 HD
ENDBRANCH  18  19
ENDBRANCH  15  18
ENDBRANCH  14  15
ENDBRANCH  10  14
ENDBRANCH   1  10
BRANCH   7  21
ATOM     21  C24 ZIN A   1      16.820  -6.498   8.326  0.00  0.00     0.254 C 
ATOM     22  O25 ZIN A   1      17.529  -7.483   8.411  0.00  0.00    -0.268 OA
ATOM     23  N26 ZIN A   1      15.497  -6.637   8.117  0.00  0.00    -0.354 N 
ATOM     24  H50 ZIN A   1      14.931  -5.852   8.049  0.00  0.00     0.162 HD
BRANCH  23  25
ATOM     25  C27 ZIN A   1      14.910  -7.975   7.993  0.00  0.00     0.156 C 
BRANCH  25  26
ATOM     26  C28 ZIN A   1      13.432  -7.851   7.623  0.00  0.00     0.159 C 
BRANCH  26  27
ATOM     27  O30 ZIN A   1      13.152  -8.681   6.494  0.00  0.00    -0.392 OA
ATOM     28  H53 ZIN A   1      13.854  -9.312   6.286  0.00  0.00     0.210 HD
ENDBRANCH  26  27
BRANCH  26  29
ATOM     29  C31 ZIN A   1      13.113  -6.395   7.277  0.00  0.00     0.197 C 
BRANCH  29  30
ATOM     30  O32 ZIN A   1      12.822  -5.673   8.476  0.00  0.00    -0.398 OA
ATOM     31  H56 ZIN A   1      13.554  -5.646   9.106  0.00  0.00     0.209 HD
ENDBRANCH  29  30
ENDBRANCH  26  29
ENDBRANCH  25  26
ENDBRANCH  23  25
ENDBRANCH   7  21
BRANCH   4  32
ATOM     32  C15 ZIN A   1      18.720  -2.409   6.224  0.00  0.00     0.254 C 
ATOM     33  O16 ZIN A   1      19.868  -2.443   5.827  0.00  0.00    -0.268 OA
ATOM     34  N17 ZIN A   1      17.800  -1.678   5.563  0.00  0.00    -0.355 N 
ATOM     35  H44 ZIN A   1      16.884  -1.650   5.880  0.00  0.00     0.162 HD
BRANCH  34  36
ATOM     36  C18 ZIN A   1      18.184  -0.927   4.366  0.00  0.00     0.148 C 
BRANCH  36  37
ATOM     37  C19 ZIN A   1      18.724   0.445   4.776  0.00  0.00     0.183 C 
BRANCH  37  38
ATOM     38  O20 ZIN A   1      20.150   0.395   4.843  0.00  0.00    -0.399 OA
ATOM     39  H49 ZIN A   1      20.491  -0.065   5.623  0.00  0.00     0.209 HD
ENDBRANCH  37  38
ENDBRANCH  36  37
ENDBRANCH  34  36
ENDBRANCH   4  32
TORSDOF 16
ENDMDL
MODEL 6
REMARK VINA RESULT:      -5.9      1.295      5.588
REMARK  16 active torsions:
REMARK  status: ('A' for Active; 'I' for Inactive)
REMARK       I    between atoms: C2_2  and  N4_4 
REMARK    1  A    between atoms: N4_4  and  C5_5 
REMARK    2  A    between atoms: N4_4  and  C11_10 
REMARK    3  A    between atoms: C5_5  and  C6_6 
REMARK    4  A    between atoms: C6_6  and  O8_7 
REMARK    5  A    between atoms: C6_6  and  C9_8 
REMARK    6  A    between atoms: C9_8  and  O10_9 
REMARK    7  A    between atoms: C14_13  and  C15_14 
REMARK       I    between atoms: C15_14  and  N17_16 
REMARK    8  A    between atoms: N17_16  and  C18_17 
REMARK    9  A    between atoms: C18_17  and  C19_18 
REMARK   10  A    between atoms: C19_18  and  O20_19 
REMARK   11  A    between atoms: C23_22  and  C24_23 
REMARK       I    between atoms: C24_23  and  N26_25 
REMARK   12  A    between atoms: N26_25  and  C27_26 
REMARK   13  A    between atoms: C27_26  and  C28_27 
REMARK   14  A    between atoms: C28_27  and  O30_28 
REMARK   15  A    between atoms: C28_27  and  C31_29 
REMARK   16  A    between atoms: C31_29  and  O32_30 
ROOT
ATOM      1  C11 ZIN A   1      17.892   4.329  13.552  0.00  0.00     0.072 A 
ATOM      2  C12 ZIN A   1      17.843   3.839  12.256  0.00  0.00     0.051 A 
ATOM      3  I13 ZIN A   1      17.537   5.151  10.652  0.00  0.00    -0.041 I 
ATOM      4  C14 ZIN A   1      17.998   2.470  12.019  0.00  0.00     0.068 A 
ATOM      5  C21 ZIN A   1      18.202   1.599  13.086  0.00  0.00     0.040 A 
ATOM      6  I22 ZIN A   1      18.435  -0.454  12.737  0.00  0.00    -0.042 I 
ATOM      7  C23 ZIN A   1      18.250   2.096  14.388  0.00  0.00     0.068 A 
ATOM      8  C33 ZIN A   1      18.100   3.466  14.618  0.00  0.00     0.051 A 
ATOM      9  I34 ZIN A   1      18.173   4.214  16.573  0.00  0.00    -0.041 I 
ENDROOT
BRANCH   1  10
ATOM     10  N4  ZIN A   1      17.737   5.702  13.786  0.00  0.00    -0.313 N 
ATOM     11  C2  ZIN A   1      18.802   6.452  14.132  0.00  0.00     0.220 C 
ATOM     12  C1  ZIN A   1      20.160   5.814  14.267  0.00  0.00     0.117 C 
ATOM     13  O3  ZIN A   1      18.667   7.640  14.334  0.00  0.00    -0.273 OA
BRANCH  10  14
ATOM     14  C5  ZIN A   1      16.416   6.322  13.655  0.00  0.00     0.166 C 
BRANCH  14  15
ATOM     15  C6  ZIN A   1      15.566   5.975  14.879  0.00  0.00     0.160 C 
BRANCH  15  16
ATOM     16  O8  ZIN A   1      14.213   5.758  14.473  0.00  0.00    -0.392 OA
ATOM     17  H40 ZIN A   1      14.043   4.870  14.130  0.00  0.00     0.210 HD
ENDBRANCH  15  16
BRANCH  15  18
ATOM     18  C9  ZIN A   1      15.618   7.129  15.882  0.00  0.00     0.197 C 
BRANCH  18  19
ATOM     19  O10 ZIN A   1      15.868   8.353  15.188  0.00  0.00    -0.398 OA
ATOM     20  H43 ZIN A   1      16.513   8.274  14.472  0.00  0.00     0.209 HD
ENDBRANCH  18  19
ENDBRANCH  15  18
ENDBRANCH  14  15
ENDBRANCH  10  14
ENDBRANCH   1  10
BRANCH   7  21
ATOM     21  C24 ZIN A   1      18.466   1.175  15.524  0.00  0.00     0.254 C 
ATOM     22  O25 ZIN A   1      19.586   0.775  15.778  0.00  0.00    -0.268 OA
ATOM     23  N26 ZIN A   1      17.423   0.780  16.279  0.00  0.00    -0.354 N 
ATOM     24  H50 ZIN A   1      16.530   1.100  16.077  0.00  0.00     0.162 HD
BRANCH  23  25
ATOM     25  C27 ZIN A   1      17.637  -0.133  17.406  0.00  0.00     0.156 C 
BRANCH  25  26
ATOM     26  C28 ZIN A   1      17.635   0.661  18.713  0.00  0.00     0.159 C 
BRANCH  26  27
ATOM     27  O30 ZIN A   1      16.596   1.642  18.673  0.00  0.00    -0.392 OA
ATOM     28  H53 ZIN A   1      16.589   2.174  17.867  0.00  0.00     0.210 HD
ENDBRANCH  26  27
BRANCH  26  29
ATOM     29  C31 ZIN A   1      18.986   1.357  18.889  0.00  0.00     0.197 C 
BRANCH  29  30
ATOM     30  O32 ZIN A   1      20.032   0.485  18.453  0.00  0.00    -0.398 OA
ATOM     31  H56 ZIN A   1      19.815  -0.454  18.522  0.00  0.00     0.209 HD
ENDBRANCH  29  30
ENDBRANCH  26  29
ENDBRANCH  25  26
ENDBRANCH  23  25
ENDBRANCH   7  21
BRANCH   4  32
ATOM     32  C15 ZIN A   1      17.946   1.949  10.638  0.00  0.00     0.254 C 
ATOM     33  O16 ZIN A   1      16.893   1.558  10.174  0.00  0.00    -0.268 OA
ATOM     34  N17 ZIN A   1      19.068   1.906   9.891  0.00  0.00    -0.355 N 
ATOM     35  H44 ZIN A   1      19.908   2.217  10.261  0.00  0.00     0.162 HD
BRANCH  34  36
ATOM     36  C18 ZIN A   1      19.017   1.389   8.522  0.00  0.00     0.148 C 
BRANCH  36  37
ATOM     37  C19 ZIN A   1      19.489  -0.067   8.509  0.00  0.00     0.183 C 
BRANCH  37  38
ATOM     38  O20 ZIN A   1      20.599  -0.216   9.394  0.00  0.00    -0.399 OA
ATOM     39  H49 ZIN A   1      21.305   0.428   9.251  0.00  0.00     0.209 HD
ENDBRANCH  37  38
ENDBRANCH  36  37
ENDBRANCH  34  36
ENDBRANCH   4  32
TORSDOF 16
ENDMDL
MODEL 7
REMARK VINA RESULT:      -5.7      1.651      6.493
REMARK  16 active torsions:
REMARK  status: ('A' for Active; 'I' for Inactive)
REMARK       I    between atoms: C2_2  and  N4_4 
REMARK    1  A    between atoms: N4_4  and  C5_5 
REMARK    2  A    between atoms: N4_4  and  C11_10 
REMARK    3  A    between atoms: C5_5  and  C6_6 
REMARK    4  A    between atoms: C6_6  and  O8_7 
REMARK    5  A    between atoms: C6_6  and  C9_8 
REMARK    6  A    between atoms: C9_8  and  O10_9 
REMARK    7  A    between atoms: C14_13  and  C15_14 
REMARK       I    between atoms: C15_14  and  N17_16 
REMARK    8  A    between atoms: N17_16  and  C18_17 
REMARK    9  A    between atoms: C18_17  and  C19_18 
REMARK   10  A    between atoms: C19_18  and  O20_19 
REMARK   11  A    between atoms: C23_22  and  C24_23 
REMARK       I    between atoms: C24_23  and  N26_25 
REMARK   12  A    between atoms: N26_25  and  C27_26 
REMARK   13  A    between atoms: C27_26  and  C28_27 
REMARK   14  A    between atoms: C28_27  and  O30_28 
REMARK   15  A    between atoms: C28_27  and  C31_29 
REMARK   16  A    between atoms: C31_29  and  O32_30 
ROOT
ATOM      1  C11 ZIN A   1      18.124   3.280  13.047  0.00  0.00     0.072 A 
ATOM      2  C12 ZIN A   1      18.608   2.636  14.176  0.00  0.00     0.051 A 
ATOM      3  I13 ZIN A   1      19.644   0.825  13.984  0.00  0.00    -0.041 I 
ATOM      4  C14 ZIN A   1      18.406   3.194  15.441  0.00  0.00     0.068 A 
ATOM      5  C21 ZIN A   1      17.718   4.399  15.567  0.00  0.00     0.040 A 
ATOM      6  I22 ZIN A   1      17.412   5.241  17.462  0.00  0.00    -0.042 I 
ATOM      7  C23 ZIN A   1      17.233   5.043  14.430  0.00  0.00     0.068 A 
ATOM      8  C33 ZIN A   1      17.443   4.483  13.167  0.00  0.00     0.051 A 
ATOM      9  I34 ZIN A   1      16.715   5.450  11.458  0.00  0.00    -0.041 I 
ENDROOT
BRANCH   1  10
ATOM     10  N4  ZIN A   1      18.329   2.718  11.780  0.00  0.00    -0.313 N 
ATOM     11  C2  ZIN A   1      19.480   2.950  11.118  0.00  0.00     0.220 C 
ATOM     12  C1  ZIN A   1      20.546   3.814  11.740  0.00  0.00     0.117 C 
ATOM     13  O3  ZIN A   1      19.657   2.463  10.022  0.00  0.00    -0.273 OA
BRANCH  10  14
ATOM     14  C5  ZIN A   1      17.292   1.879  11.175  0.00  0.00     0.166 C 
BRANCH  14  15
ATOM     15  C6  ZIN A   1      17.902   0.542  10.749  0.00  0.00     0.160 C 
BRANCH  15  16
ATOM     16  O8  ZIN A   1      17.868   0.435   9.325  0.00  0.00    -0.392 OA
ATOM     17  H40 ZIN A   1      16.997   0.215   8.968  0.00  0.00     0.210 HD
ENDBRANCH  15  16
BRANCH  15  18
ATOM     18  C9  ZIN A   1      17.100  -0.606  11.365  0.00  0.00     0.197 C 
BRANCH  18  19
ATOM     19  O10 ZIN A   1      15.842  -0.112  11.832  0.00  0.00    -0.398 OA
ATOM     20  H43 ZIN A   1      15.144  -0.780  11.859  0.00  0.00     0.209 HD
ENDBRANCH  18  19
ENDBRANCH  15  18
ENDBRANCH  14  15
ENDBRANCH  10  14
ENDBRANCH   1  10
BRANCH   7  21
ATOM     21  C24 ZIN A   1      16.501   6.321  14.559  0.00  0.00     0.254 C 
ATOM     22  O25 ZIN A   1      17.082   7.375  14.381  0.00  0.00    -0.268 OA
ATOM     23  N26 ZIN A   1      15.191   6.320  14.872  0.00  0.00    -0.354 N 
ATOM     24  H50 ZIN A   1      14.727   5.480  15.014  0.00  0.00     0.162 HD
BRANCH  23  25
ATOM     25  C27 ZIN A   1      14.466   7.587  15.000  0.00  0.00     0.156 C 
BRANCH  25  26
ATOM     26  C28 ZIN A   1      13.227   7.380  15.872  0.00  0.00     0.159 C 
BRANCH  26  27
ATOM     27  O30 ZIN A   1      13.519   6.430  16.898  0.00  0.00    -0.392 OA
ATOM     28  H53 ZIN A   1      12.960   5.642  16.875  0.00  0.00     0.210 HD
ENDBRANCH  26  27
BRANCH  26  29
ATOM     29  C31 ZIN A   1      12.077   6.860  15.008  0.00  0.00     0.197 C 
BRANCH  29  30
ATOM     30  O32 ZIN A   1      12.397   5.552  14.525  0.00  0.00    -0.398 OA
ATOM     31  H56 ZIN A   1      11.958   5.321  13.696  0.00  0.00     0.209 HD
ENDBRANCH  29  30
ENDBRANCH  26  29
ENDBRANCH  25  26
ENDBRANCH  23  25
ENDBRANCH   7  21
BRANCH   4  32
ATOM     32  C15 ZIN A   1      18.922   2.508  16.643  0.00  0.00     0.254 C 
ATOM     33  O16 ZIN A   1      20.020   2.791  17.081  0.00  0.00    -0.268 OA
ATOM     34  N17 ZIN A   1      18.176   1.566  17.254  0.00  0.00    -0.355 N 
ATOM     35  H44 ZIN A   1      17.301   1.339  16.905  0.00  0.00     0.162 HD
BRANCH  34  36
ATOM     36  C18 ZIN A   1      18.688   0.886  18.446  0.00  0.00     0.148 C 
BRANCH  36  37
ATOM     37  C19 ZIN A   1      19.247  -0.483  18.051  0.00  0.00     0.183 C 
BRANCH  37  38
ATOM     38  O20 ZIN A   1      18.449  -1.040  17.007  0.00  0.00    -0.399 OA
ATOM     39  H49 ZIN A   1      18.741  -1.914  16.713  0.00  0.00     0.209 HD
ENDBRANCH  37  38
ENDBRANCH  36  37
ENDBRANCH  34  36
ENDBRANCH   4  32
TORSDOF 16
ENDMDL
MODEL 8
REMARK VINA RESULT:      -5.6      5.308     11.011
REMARK  16 active torsions:
REMARK  status: ('A' for Active; 'I' for Inactive)
REMARK       I    between atoms: C2_2  and  N4_4 
REMARK    1  A    between atoms: N4_4  and  C5_5 
REMARK    2  A    between atoms: N4_4  and  C11_10 
REMARK    3  A    between atoms: C5_5  and  C6_6 
REMARK    4  A    between atoms: C6_6  and  O8_7 
REMARK    5  A    between atoms: C6_6  and  C9_8 
REMARK    6  A    between atoms: C9_8  and  O10_9 
REMARK    7  A    between atoms: C14_13  and  C15_14 
REMARK       I    between atoms: C15_14  and  N17_16 
REMARK    8  A    between atoms: N17_16  and  C18_17 
REMARK    9  A    between atoms: C18_17  and  C19_18 
REMARK   10  A    between atoms: C19_18  and  O20_19 
REMARK   11  A    between atoms: C23_22  and  C24_23 
REMARK       I    between atoms: C24_23  and  N26_25 
REMARK   12  A    between atoms: N26_25  and  C27_26 
REMARK   13  A    between atoms: C27_26  and  C28_27 
REMARK   14  A    between atoms: C28_27  and  O30_28 
REMARK   15  A    between atoms: C28_27  and  C31_29 
REMARK   16  A    between atoms: C31_29  and  O32_30 
ROOT
ATOM      1  C11 ZIN A   1      18.997  -3.961   8.900  0.00  0.00     0.072 A 
ATOM      2  C12 ZIN A   1      18.810  -3.612   7.571  0.00  0.00     0.051 A 
ATOM      3  I13 ZIN A   1      18.658  -5.105   6.109  0.00  0.00    -0.041 I 
ATOM      4  C14 ZIN A   1      18.722  -2.266   7.206  0.00  0.00     0.068 A 
ATOM      5  C21 ZIN A   1      18.822  -1.273   8.179  0.00  0.00     0.040 A 
ATOM      6  I22 ZIN A   1      18.691   0.746   7.638  0.00  0.00    -0.042 I 
ATOM      7  C23 ZIN A   1      19.011  -1.629   9.515  0.00  0.00     0.068 A 
ATOM      8  C33 ZIN A   1      19.092  -2.976   9.874  0.00  0.00     0.051 A 
ATOM      9  I34 ZIN A   1      19.375  -3.511  11.879  0.00  0.00    -0.041 I 
ENDROOT
BRANCH   1  10
ATOM     10  N4  ZIN A   1      19.084  -5.311   9.262  0.00  0.00    -0.313 N 
ATOM     11  C2  ZIN A   1      20.218  -6.000   9.029  0.00  0.00     0.220 C 
ATOM     12  C1  ZIN A   1      21.394  -5.318   8.378  0.00  0.00     0.117 C 
ATOM     13  O3  ZIN A   1      20.293  -7.169   9.343  0.00  0.00    -0.273 OA
BRANCH  10  14
ATOM     14  C5  ZIN A   1      17.941  -5.974   9.895  0.00  0.00     0.166 C 
BRANCH  14  15
ATOM     15  C6  ZIN A   1      16.660  -5.202   9.572  0.00  0.00     0.160 C 
BRANCH  15  16
ATOM     16  O8  ZIN A   1      15.959  -4.916  10.783  0.00  0.00    -0.392 OA
ATOM     17  H40 ZIN A   1      15.598  -4.019  10.826  0.00  0.00     0.210 HD
ENDBRANCH  15  16
BRANCH  15  18
ATOM     18  C9  ZIN A   1      15.772  -6.046   8.655  0.00  0.00     0.197 C 
BRANCH  18  19
ATOM     19  O10 ZIN A   1      14.489  -5.429   8.535  0.00  0.00    -0.398 OA
ATOM     20  H43 ZIN A   1      14.504  -4.577   8.077  0.00  0.00     0.209 HD
ENDBRANCH  18  19
ENDBRANCH  15  18
ENDBRANCH  14  15
ENDBRANCH  10  14
ENDBRANCH   1  10
BRANCH   7  21
ATOM     21  C24 ZIN A   1      19.118  -0.580  10.551  0.00  0.00     0.254 C 
ATOM     22  O25 ZIN A   1      18.140  -0.265  11.201  0.00  0.00    -0.268 OA
ATOM     23  N26 ZIN A   1      20.300   0.027  10.776  0.00  0.00    -0.354 N 
ATOM     24  H50 ZIN A   1      21.080  -0.225  10.257  0.00  0.00     0.162 HD
BRANCH  23  25
ATOM     25  C27 ZIN A   1      20.406   1.066  11.804  0.00  0.00     0.156 C 
BRANCH  25  26
ATOM     26  C28 ZIN A   1      20.056   2.424  11.193  0.00  0.00     0.159 C 
BRANCH  26  27
ATOM     27  O30 ZIN A   1      21.057   3.380  11.551  0.00  0.00    -0.392 OA
ATOM     28  H53 ZIN A   1      21.935   2.999  11.681  0.00  0.00     0.210 HD
ENDBRANCH  26  27
BRANCH  26  29
ATOM     29  C31 ZIN A   1      18.697   2.886  11.723  0.00  0.00     0.197 C 
BRANCH  29  30
ATOM     30  O32 ZIN A   1      17.741   2.871  10.661  0.00  0.00    -0.398 OA
ATOM     31  H56 ZIN A   1      17.835   2.122  10.058  0.00  0.00     0.209 HD
ENDBRANCH  29  30
ENDBRANCH  26  29
ENDBRANCH  25  26
ENDBRANCH  23  25
ENDBRANCH   7  21
BRANCH   4  32
ATOM     32  C15 ZIN A   1      18.522  -1.895   5.790  0.00  0.00     0.254 C 
ATOM     33  O16 ZIN A   1      19.461  -1.505   5.125  0.00  0.00    -0.268 OA
ATOM     34  N17 ZIN A   1      17.296  -1.987   5.236  0.00  0.00    -0.355 N 
ATOM     35  H44 ZIN A   1      16.547  -2.297   5.767  0.00  0.00     0.162 HD
BRANCH  34  36
ATOM     36  C18 ZIN A   1      17.098  -1.620   3.832  0.00  0.00     0.148 C 
BRANCH  36  37
ATOM     37  C19 ZIN A   1      16.634  -2.847   3.045  0.00  0.00     0.183 C 
BRANCH  37  38
ATOM     38  O20 ZIN A   1      15.776  -3.643   3.864  0.00  0.00    -0.399 OA
ATOM     39  H49 ZIN A   1      16.102  -3.771   4.765  0.00  0.00     0.209 HD
ENDBRANCH  37  38
ENDBRANCH  36  37
ENDBRANCH  34  36
ENDBRANCH   4  32
TORSDOF 16
ENDMDL
MODEL 9
REMARK VINA RESULT:      -5.4      4.054      8.349
REMARK  16 active torsions:
REMARK  status: ('A' for Active; 'I' for Inactive)
REMARK       I    between atoms: C2_2  and  N4_4 
REMARK    1  A    between atoms: N4_4  and  C5_5 
REMARK    2  A    between atoms: N4_4  and  C11_10 
REMARK    3  A    between atoms: C5_5  and  C6_6 
REMARK    4  A    between atoms: C6_6  and  O8_7 
REMARK    5  A    between atoms: C6_6  and  C9_8 
REMARK    6  A    between atoms: C9_8  and  O10_9 
REMARK    7  A    between atoms: C14_13  and  C15_14 
REMARK       I    between atoms: C15_14  and  N17_16 
REMARK    8  A    between atoms: N17_16  and  C18_17 
REMARK    9  A    between atoms: C18_17  and  C19_18 
REMARK   10  A    between atoms: C19_18  and  O20_19 
REMARK   11  A    between atoms: C23_22  and  C24_23 
REMARK       I    between atoms: C24_23  and  N26_25 
REMARK   12  A    between atoms: N26_25  and  C27_26 
REMARK   13  A    between atoms: C27_26  and  C28_27 
REMARK   14  A    between atoms: C28_27  and  O30_28 
REMARK   15  A    between atoms: C28_27  and  C31_29 
REMARK   16  A    between atoms: C31_29  and  O32_30 
ROOT
ATOM      1  C11 ZIN A   1      18.441  -1.927  10.768  0.00  0.00     0.072 A 
ATOM      2  C12 ZIN A   1      18.304  -0.980  11.772  0.00  0.00     0.051 A 
ATOM      3  I13 ZIN A   1      18.083  -1.589  13.764  0.00  0.00    -0.041 I 
ATOM      4  C14 ZIN A   1      18.312   0.382  11.455  0.00  0.00     0.068 A 
ATOM      5  C21 ZIN A   1      18.460   0.786  10.130  0.00  0.00     0.040 A 
ATOM      6  I22 ZIN A   1      18.474   2.825   9.649  0.00  0.00    -0.042 I 
ATOM      7  C23 ZIN A   1      18.598  -0.170   9.124  0.00  0.00     0.068 A 
ATOM      8  C33 ZIN A   1      18.594  -1.529   9.448  0.00  0.00     0.051 A 
ATOM      9  I34 ZIN A   1      18.801  -2.966   7.938  0.00  0.00    -0.041 I 
ENDROOT
BRANCH   1  10
ATOM     10  N4  ZIN A   1      18.433  -3.290  11.090  0.00  0.00    -0.313 N 
ATOM     11  C2  ZIN A   1      19.586  -3.920  11.390  0.00  0.00     0.220 C 
ATOM     12  C1  ZIN A   1      20.885  -3.157  11.381  0.00  0.00     0.117 C 
ATOM     13  O3  ZIN A   1      19.578  -5.100  11.668  0.00  0.00    -0.273 OA
BRANCH  10  14
ATOM     14  C5  ZIN A   1      17.169  -4.033  11.098  0.00  0.00     0.166 C 
BRANCH  14  15
ATOM     15  C6  ZIN A   1      17.051  -4.855   9.814  0.00  0.00     0.160 C 
BRANCH  15  16
ATOM     16  O8  ZIN A   1      15.776  -4.621   9.214  0.00  0.00    -0.392 OA
ATOM     17  H40 ZIN A   1      15.074  -5.197   9.546  0.00  0.00     0.210 HD
ENDBRANCH  15  16
BRANCH  15  18
ATOM     18  C9  ZIN A   1      17.194  -6.342  10.144  0.00  0.00     0.197 C 
BRANCH  18  19
ATOM     19  O10 ZIN A   1      16.753  -7.122   9.031  0.00  0.00    -0.398 OA
ATOM     20  H43 ZIN A   1      17.126  -8.014   9.004  0.00  0.00     0.209 HD
ENDBRANCH  18  19
ENDBRANCH  15  18
ENDBRANCH  14  15
ENDBRANCH  10  14
ENDBRANCH   1  10
BRANCH   7  21
ATOM     21  C24 ZIN A   1      18.754   0.254   7.717  0.00  0.00     0.254 C 
ATOM     22  O25 ZIN A   1      19.805   0.736   7.340  0.00  0.00    -0.268 OA
ATOM     23  N26 ZIN A   1      17.733   0.105   6.850  0.00  0.00    -0.354 N 
ATOM     24  H50 ZIN A   1      16.895  -0.280   7.151  0.00  0.00     0.162 HD
BRANCH  23  25
ATOM     25  C27 ZIN A   1      17.889   0.525   5.455  0.00  0.00     0.156 C 
BRANCH  25  26
ATOM     26  C28 ZIN A   1      17.729  -0.687   4.536  0.00  0.00     0.159 C 
BRANCH  26  27
ATOM     27  O30 ZIN A   1      16.753  -1.576   5.085  0.00  0.00    -0.392 OA
ATOM     28  H53 ZIN A   1      16.288  -2.105   4.424  0.00  0.00     0.210 HD
ENDBRANCH  26  27
BRANCH  26  29
ATOM     29  C31 ZIN A   1      19.069  -1.415   4.415  0.00  0.00     0.197 C 
BRANCH  29  30
ATOM     30  O32 ZIN A   1      20.135  -0.494   4.659  0.00  0.00    -0.398 OA
ATOM     31  H56 ZIN A   1      20.397  -0.433   5.588  0.00  0.00     0.209 HD
ENDBRANCH  29  30
ENDBRANCH  26  29
ENDBRANCH  25  26
ENDBRANCH  23  25
ENDBRANCH   7  21
BRANCH   4  32
ATOM     32  C15 ZIN A   1      18.166   1.391  12.524  0.00  0.00     0.254 C 
ATOM     33  O16 ZIN A   1      17.064   1.809  12.819  0.00  0.00    -0.268 OA
ATOM     34  N17 ZIN A   1      19.256   1.848  13.172  0.00  0.00    -0.355 N 
ATOM     35  H44 ZIN A   1      20.136   1.515  12.936  0.00  0.00     0.162 HD
BRANCH  34  36
ATOM     36  C18 ZIN A   1      19.112   2.848  14.232  0.00  0.00     0.148 C 
BRANCH  36  37
ATOM     37  C19 ZIN A   1      19.095   2.150  15.593  0.00  0.00     0.183 C 
BRANCH  37  38
ATOM     38  O20 ZIN A   1      17.757   1.773  15.919  0.00  0.00    -0.399 OA
ATOM     39  H49 ZIN A   1      17.696   1.039  16.546  0.00  0.00     0.209 HD
ENDBRANCH  37  38
ENDBRANCH  36  37
ENDBRANCH  34  36
ENDBRANCH   4  32
TORSDOF 16
ENDMDL
