MODEL 1
REMARK VINA RESULT:      -9.0      0.000      0.000
REMARK  7 active torsions:
REMARK  status: ('A' for Active; 'I' for Inactive)
REMARK    1  A    between atoms: C2_2  and  O3_3 
REMARK    2  A    between atoms: C2_2  and  C4_4 
REMARK    3  A    between atoms: C2_2  and  C15_15 
REMARK    4  A    between atoms: C4_4  and  S5_5 
REMARK    5  A    between atoms: S5_5  and  C8_8 
REMARK       I    between atoms: C15_15  and  N17_17 
REMARK    6  A    between atoms: N17_17  and  C18_18 
REMARK    7  A    between atoms: C24_24  and  C25_25 
ROOT
ATOM      1  C18 ZIN A   1      19.399   1.156   8.757  0.00  0.00     0.035 A 
ATOM      2  C19 ZIN A   1      19.119   1.765   7.539  0.00  0.00     0.031 A 
ATOM      3  C20 ZIN A   1      18.825   0.997   6.435  0.00  0.00     0.026 A 
ATOM      4  C21 ZIN A   1      18.809  -0.397   6.539  0.00  0.00     0.059 A 
ATOM      5  C22 ZIN A   1      18.503  -1.199   5.393  0.00  0.00     0.100 C 
ATOM      6  N23 ZIN A   1      18.262  -1.834   4.483  0.00  0.00    -0.191 NA
ATOM      7  C24 ZIN A   1      19.091  -1.006   7.765  0.00  0.00     0.070 A 
ATOM      8  C29 ZIN A   1      19.390  -0.232   8.863  0.00  0.00     0.047 A 
ENDROOT
BRANCH   7   9
ATOM      9  C25 ZIN A   1      19.076  -2.508   7.882  0.00  0.00     0.419 C 
ATOM     10  F26 ZIN A   1      19.385  -2.876   9.196  0.00  0.00    -0.166 F 
ATOM     11  F27 ZIN A   1      17.805  -2.989   7.549  0.00  0.00    -0.166 F 
ATOM     12  F28 ZIN A   1      20.024  -3.054   7.010  0.00  0.00    -0.166 F 
ENDBRANCH   7   9
BRANCH   1  13
ATOM     13  N17 ZIN A   1      19.696   1.936   9.874  0.00  0.00    -0.325 N 
ATOM     14  C15 ZIN A   1      18.699   2.431  10.636  0.00  0.00     0.257 C 
ATOM     15  O16 ZIN A   1      17.545   2.267  10.303  0.00  0.00    -0.270 OA
ATOM     16  H40 ZIN A   1      20.620   2.125  10.104  0.00  0.00     0.169 HD
BRANCH  14  17
ATOM     17  C2  ZIN A   1      19.020   3.187  11.899  0.00  0.00     0.148 C 
ATOM     18  C1  ZIN A   1      18.470   4.611  11.796  0.00  0.00     0.057 C 
BRANCH  17  19
ATOM     19  O3  ZIN A   1      20.437   3.235  12.080  0.00  0.00    -0.380 OA
ATOM     20  H33 ZIN A   1      20.942   3.012  11.285  0.00  0.00     0.211 HD
ENDBRANCH  17  19
BRANCH  17  21
ATOM     21  C4  ZIN A   1      18.378   2.478  13.094  0.00  0.00     0.193 C 
BRANCH  21  22
ATOM     22  S5  ZIN A   1      18.923   0.749  13.135  0.00  0.00     0.178 S 
ATOM     23  O6  ZIN A   1      17.916  -0.104  12.607  0.00  0.00    -0.223 OA
ATOM     24  O7  ZIN A   1      20.273   0.640  12.707  0.00  0.00    -0.223 OA
BRANCH  22  25
ATOM     25  C8  ZIN A   1      18.977   0.345  14.850  0.00  0.00     0.059 A 
ATOM     26  C14 ZIN A   1      19.080   1.350  15.793  0.00  0.00     0.026 A 
ATOM     27  C13 ZIN A   1      19.118   1.036  17.139  0.00  0.00     0.044 A 
ATOM     28  C11 ZIN A   1      19.064  -0.288  17.540  0.00  0.00     0.116 A 
ATOM     29  C10 ZIN A   1      18.965  -1.294  16.595  0.00  0.00     0.044 A 
ATOM     30  F12 ZIN A   1      19.105  -0.597  18.855  0.00  0.00    -0.206 F 
ATOM     31  C9  ZIN A   1      18.922  -0.977  15.250  0.00  0.00     0.026 A 
ENDBRANCH  22  25
ENDBRANCH  21  22
ENDBRANCH  17  21
ENDBRANCH  14  17
ENDBRANCH   1  13
TORSDOF 7
ENDMDL
MODEL 2
REMARK VINA RESULT:      -8.9      3.289      8.729
REMARK  7 active torsions:
REMARK  status: ('A' for Active; 'I' for Inactive)
REMARK    1  A    between atoms: C2_2  and  O3_3 
REMARK    2  A    between atoms: C2_2  and  C4_4 
REMARK    3  A    between atoms: C2_2  and  C15_15 
REMARK    4  A    between atoms: C4_4  and  S5_5 
REMARK    5  A    between atoms: S5_5  and  C8_8 
REMARK       I    between atoms: C15_15  and  N17_17 
REMARK    6  A    between atoms: N17_17  and  C18_18 
REMARK    7  A    between atoms: C24_24  and  C25_25 
ROOT
ATOM      1  C18 ZIN A   1      19.522  -0.958  14.409  0.00  0.00     0.035 A 
ATOM      2  C19 ZIN A   1      19.163  -1.549  15.615  0.00  0.00     0.031 A 
ATOM      3  C20 ZIN A   1      18.741  -0.768  16.668  0.00  0.00     0.026 A 
ATOM      4  C21 ZIN A   1      18.676   0.621  16.524  0.00  0.00     0.059 A 
ATOM      5  C22 ZIN A   1      18.238   1.436  17.616  0.00  0.00     0.100 C 
ATOM      6  N23 ZIN A   1      17.892   2.082  18.483  0.00  0.00    -0.191 NA
ATOM      7  C24 ZIN A   1      19.038   1.212  15.309  0.00  0.00     0.070 A 
ATOM      8  C29 ZIN A   1      19.464   0.425  14.263  0.00  0.00     0.047 A 
ENDROOT
BRANCH   7   9
ATOM      9  C25 ZIN A   1      18.969   2.708  15.150  0.00  0.00     0.419 C 
ATOM     10  F26 ZIN A   1      19.347   3.055  13.848  0.00  0.00    -0.166 F 
ATOM     11  F27 ZIN A   1      17.662   3.144  15.388  0.00  0.00    -0.166 F 
ATOM     12  F28 ZIN A   1      19.837   3.316  16.064  0.00  0.00    -0.166 F 
ENDBRANCH   7   9
BRANCH   1  13
ATOM     13  N17 ZIN A   1      19.948  -1.751  13.344  0.00  0.00    -0.325 N 
ATOM     14  C15 ZIN A   1      19.043  -2.309  12.515  0.00  0.00     0.257 C 
ATOM     15  O16 ZIN A   1      17.859  -2.190  12.743  0.00  0.00    -0.270 OA
ATOM     16  H40 ZIN A   1      20.896  -1.903  13.200  0.00  0.00     0.169 HD
BRANCH  14  17
ATOM     17  C2  ZIN A   1      19.504  -3.080  11.305  0.00  0.00     0.148 C 
ATOM     18  C1  ZIN A   1      19.115  -4.552  11.459  0.00  0.00     0.057 C 
BRANCH  17  19
ATOM     19  O3  ZIN A   1      20.924  -2.974  11.184  0.00  0.00    -0.380 OA
ATOM     20  H33 ZIN A   1      21.255  -2.066  11.233  0.00  0.00     0.211 HD
ENDBRANCH  17  19
BRANCH  17  21
ATOM     21  C4  ZIN A   1      18.841  -2.507  10.051  0.00  0.00     0.193 C 
BRANCH  21  22
ATOM     22  S5  ZIN A   1      19.252  -0.747   9.901  0.00  0.00     0.178 S 
ATOM     23  O6  ZIN A   1      18.214   0.057  10.444  0.00  0.00    -0.223 OA
ATOM     24  O7  ZIN A   1      20.611  -0.521  10.248  0.00  0.00    -0.223 OA
BRANCH  22  25
ATOM     25  C8  ZIN A   1      19.188  -0.426   8.169  0.00  0.00     0.059 A 
ATOM     26  C14 ZIN A   1      19.012   0.867   7.713  0.00  0.00     0.026 A 
ATOM     27  C13 ZIN A   1      18.965   1.121   6.355  0.00  0.00     0.044 A 
ATOM     28  C11 ZIN A   1      19.085   0.078   5.452  0.00  0.00     0.116 A 
ATOM     29  C10 ZIN A   1      19.256  -1.217   5.911  0.00  0.00     0.044 A 
ATOM     30  F12 ZIN A   1      19.035   0.324   4.124  0.00  0.00    -0.206 F 
ATOM     31  C9  ZIN A   1      19.307  -1.468   7.269  0.00  0.00     0.026 A 
ENDBRANCH  22  25
ENDBRANCH  21  22
ENDBRANCH  17  21
ENDBRANCH  14  17
ENDBRANCH   1  13
TORSDOF 7
ENDMDL
MODEL 3
REMARK VINA RESULT:      -8.8      1.550      2.266
REMARK  7 active torsions:
REMARK  status: ('A' for Active; 'I' for Inactive)
REMARK    1  A    between atoms: C2_2  and  O3_3 
REMARK    2  A    between atoms: C2_2  and  C4_4 
REMARK    3  A    between atoms: C2_2  and  C15_15 
REMARK    4  A    between atoms: C4_4  and  S5_5 
REMARK    5  A    between atoms: S5_5  and  C8_8 
REMARK       I    between atoms: C15_15  and  N17_17 
REMARK    6  A    between atoms: N17_17  and  C18_18 
REMARK    7  A    between atoms: C24_24  and  C25_25 
ROOT
ATOM      1  C18 ZIN A   1      19.485  -0.118   8.943  0.00  0.00     0.035 A 
ATOM      2  C19 ZIN A   1      19.246  -1.430   9.336  0.00  0.00     0.031 A 
ATOM      3  C20 ZIN A   1      18.918  -2.383   8.398  0.00  0.00     0.026 A 
ATOM      4  C21 ZIN A   1      18.824  -2.030   7.049  0.00  0.00     0.059 A 
ATOM      5  C22 ZIN A   1      18.484  -3.018   6.070  0.00  0.00     0.100 C 
ATOM      6  N23 ZIN A   1      18.213  -3.802   5.295  0.00  0.00    -0.191 NA
ATOM      7  C24 ZIN A   1      19.066  -0.710   6.657  0.00  0.00     0.070 A 
ATOM      8  C29 ZIN A   1      19.388   0.238   7.601  0.00  0.00     0.047 A 
ENDROOT
BRANCH   7   9
ATOM      9  C25 ZIN A   1      18.966  -0.325   5.204  0.00  0.00     0.419 C 
ATOM     10  F26 ZIN A   1      17.637  -0.441   4.782  0.00  0.00    -0.166 F 
ATOM     11  F27 ZIN A   1      19.395   0.996   5.040  0.00  0.00    -0.166 F 
ATOM     12  F28 ZIN A   1      19.773  -1.175   4.439  0.00  0.00    -0.166 F 
ENDBRANCH   7   9
BRANCH   1  13
ATOM     13  N17 ZIN A   1      19.817   0.845   9.896  0.00  0.00    -0.325 N 
ATOM     14  C15 ZIN A   1      18.862   1.648  10.405  0.00  0.00     0.257 C 
ATOM     15  O16 ZIN A   1      17.730   1.590   9.975  0.00  0.00    -0.270 OA
ATOM     16  H40 ZIN A   1      20.737   0.938  10.192  0.00  0.00     0.169 HD
BRANCH  14  17
ATOM     17  C2  ZIN A   1      19.201   2.617  11.508  0.00  0.00     0.148 C 
ATOM     18  C1  ZIN A   1      18.572   3.978  11.203  0.00  0.00     0.057 C 
BRANCH  17  19
ATOM     19  O3  ZIN A   1      20.620   2.758  11.601  0.00  0.00    -0.380 OA
ATOM     20  H33 ZIN A   1      21.043   3.028  10.773  0.00  0.00     0.211 HD
ENDBRANCH  17  19
BRANCH  17  21
ATOM     21  C4  ZIN A   1      18.653   2.090  12.836  0.00  0.00     0.193 C 
BRANCH  21  22
ATOM     22  S5  ZIN A   1      19.296   0.420  13.135  0.00  0.00     0.178 S 
ATOM     23  O6  ZIN A   1      18.423  -0.556  12.584  0.00  0.00    -0.223 OA
ATOM     24  O7  ZIN A   1      20.694   0.373  12.891  0.00  0.00    -0.223 OA
BRANCH  22  25
ATOM     25  C8  ZIN A   1      19.150   0.198  14.877  0.00  0.00     0.059 A 
ATOM     26  C14 ZIN A   1      19.024  -1.075  15.402  0.00  0.00     0.026 A 
ATOM     27  C13 ZIN A   1      18.915  -1.252  16.769  0.00  0.00     0.044 A 
ATOM     28  C11 ZIN A   1      18.920  -0.152  17.610  0.00  0.00     0.116 A 
ATOM     29  C10 ZIN A   1      19.041   1.122  17.083  0.00  0.00     0.044 A 
ATOM     30  F12 ZIN A   1      18.808  -0.323  18.946  0.00  0.00    -0.206 F 
ATOM     31  C9  ZIN A   1      19.156   1.295  15.716  0.00  0.00     0.026 A 
ENDBRANCH  22  25
ENDBRANCH  21  22
ENDBRANCH  17  21
ENDBRANCH  14  17
ENDBRANCH   1  13
TORSDOF 7
ENDMDL
MODEL 4
REMARK VINA RESULT:      -8.7      3.451      6.218
REMARK  7 active torsions:
REMARK  status: ('A' for Active; 'I' for Inactive)
REMARK    1  A    between atoms: C2_2  and  O3_3 
REMARK    2  A    between atoms: C2_2  and  C4_4 
REMARK    3  A    between atoms: C2_2  and  C15_15 
REMARK    4  A    between atoms: C4_4  and  S5_5 
REMARK    5  A    between atoms: S5_5  and  C8_8 
REMARK       I    between atoms: C15_15  and  N17_17 
REMARK    6  A    between atoms: N17_17  and  C18_18 
REMARK    7  A    between atoms: C24_24  and  C25_25 
ROOT
ATOM      1  C18 ZIN A   1      17.716  -3.594  10.719  0.00  0.00     0.035 A 
ATOM      2  C19 ZIN A   1      17.255  -4.844  11.115  0.00  0.00     0.031 A 
ATOM      3  C20 ZIN A   1      17.365  -5.922  10.266  0.00  0.00     0.026 A 
ATOM      4  C21 ZIN A   1      17.941  -5.759   9.003  0.00  0.00     0.059 A 
ATOM      5  C22 ZIN A   1      18.059  -6.877   8.117  0.00  0.00     0.100 C 
ATOM      6  N23 ZIN A   1      18.151  -7.764   7.414  0.00  0.00    -0.191 NA
ATOM      7  C24 ZIN A   1      18.405  -4.500   8.607  0.00  0.00     0.070 A 
ATOM      8  C29 ZIN A   1      18.285  -3.426   9.460  0.00  0.00     0.047 A 
ENDROOT
BRANCH   7   9
ATOM      9  C25 ZIN A   1      19.026  -4.319   7.247  0.00  0.00     0.419 C 
ATOM     10  F26 ZIN A   1      19.457  -2.995   7.105  0.00  0.00    -0.166 F 
ATOM     11  F27 ZIN A   1      20.118  -5.182   7.114  0.00  0.00    -0.166 F 
ATOM     12  F28 ZIN A   1      18.079  -4.609   6.259  0.00  0.00    -0.166 F 
ENDBRANCH   7   9
BRANCH   1  13
ATOM     13  N17 ZIN A   1      17.602  -2.504  11.582  0.00  0.00    -0.325 N 
ATOM     14  C15 ZIN A   1      18.707  -1.969  12.141  0.00  0.00     0.257 C 
ATOM     15  O16 ZIN A   1      19.788  -2.486  11.960  0.00  0.00    -0.270 OA
ATOM     16  H40 ZIN A   1      16.729  -2.131  11.781  0.00  0.00     0.169 HD
BRANCH  14  17
ATOM     17  C2  ZIN A   1      18.596  -0.730  12.990  0.00  0.00     0.148 C 
ATOM     18  C1  ZIN A   1      19.571  -0.828  14.166  0.00  0.00     0.057 C 
BRANCH  17  19
ATOM     19  O3  ZIN A   1      17.262  -0.609  13.487  0.00  0.00    -0.380 OA
ATOM     20  H33 ZIN A   1      17.120   0.167  14.048  0.00  0.00     0.211 HD
ENDBRANCH  17  19
BRANCH  17  21
ATOM     21  C4  ZIN A   1      18.939   0.500  12.145  0.00  0.00     0.193 C 
BRANCH  21  22
ATOM     22  S5  ZIN A   1      17.462   1.046  11.246  0.00  0.00     0.178 S 
ATOM     23  O6  ZIN A   1      16.410   0.102  11.394  0.00  0.00    -0.223 OA
ATOM     24  O7  ZIN A   1      17.236   2.433  11.453  0.00  0.00    -0.223 OA
BRANCH  22  25
ATOM     25  C8  ZIN A   1      17.913   0.928   9.546  0.00  0.00     0.059 A 
ATOM     26  C14 ZIN A   1      17.358  -0.057   8.751  0.00  0.00     0.026 A 
ATOM     27  C13 ZIN A   1      17.707  -0.148   7.417  0.00  0.00     0.044 A 
ATOM     28  C11 ZIN A   1      18.623   0.741   6.880  0.00  0.00     0.116 A 
ATOM     29  C10 ZIN A   1      19.182   1.724   7.679  0.00  0.00     0.044 A 
ATOM     30  F12 ZIN A   1      18.969   0.651   5.577  0.00  0.00    -0.206 F 
ATOM     31  C9  ZIN A   1      18.827   1.816   9.011  0.00  0.00     0.026 A 
ENDBRANCH  22  25
ENDBRANCH  21  22
ENDBRANCH  17  21
ENDBRANCH  14  17
ENDBRANCH   1  13
TORSDOF 7
ENDMDL
MODEL 5
REMARK VINA RESULT:      -8.7      3.042      8.841
REMARK  7 active torsions:
REMARK  status: ('A' for Active; 'I' for Inactive)
REMARK    1  A    between atoms: C2_2  and  O3_3 
REMARK    2  A    between atoms: C2_2  and  C4_4 
REMARK    3  A    between atoms: C2_2  and  C15_15 
REMARK    4  A    between atoms: C4_4  and  S5_5 
REMARK    5  A    between atoms: S5_5  and  C8_8 
REMARK       I    between atoms: C15_15  and  N17_17 
REMARK    6  A    between atoms: N17_17  and  C18_18 
REMARK    7  A    between atoms: C24_24  and  C25_25 
ROOT
ATOM      1  C18 ZIN A   1      19.454   0.024  14.156  0.00  0.00     0.035 A 
ATOM      2  C19 ZIN A   1      19.217   1.330  13.741  0.00  0.00     0.031 A 
ATOM      3  C20 ZIN A   1      18.894   2.299  14.664  0.00  0.00     0.026 A 
ATOM      4  C21 ZIN A   1      18.804   1.970  16.019  0.00  0.00     0.059 A 
ATOM      5  C22 ZIN A   1      18.469   2.976  16.982  0.00  0.00     0.100 C 
ATOM      6  N23 ZIN A   1      18.203   3.774  17.744  0.00  0.00    -0.191 NA
ATOM      7  C24 ZIN A   1      19.044   0.656  16.433  0.00  0.00     0.070 A 
ATOM      8  C29 ZIN A   1      19.360  -0.309  15.505  0.00  0.00     0.047 A 
ENDROOT
BRANCH   7   9
ATOM      9  C25 ZIN A   1      18.948   0.297  17.893  0.00  0.00     0.419 C 
ATOM     10  F26 ZIN A   1      19.392  -1.017  18.079  0.00  0.00    -0.166 F 
ATOM     11  F27 ZIN A   1      19.744   1.169  18.642  0.00  0.00    -0.166 F 
ATOM     12  F28 ZIN A   1      17.618   0.403  18.314  0.00  0.00    -0.166 F 
ENDBRANCH   7   9
BRANCH   1  13
ATOM     13  N17 ZIN A   1      19.781  -0.956  13.219  0.00  0.00    -0.325 N 
ATOM     14  C15 ZIN A   1      18.805  -1.614  12.562  0.00  0.00     0.257 C 
ATOM     15  O16 ZIN A   1      17.644  -1.413  12.845  0.00  0.00    -0.270 OA
ATOM     16  H40 ZIN A   1      20.712  -1.165  13.040  0.00  0.00     0.169 HD
BRANCH  14  17
ATOM     17  C2  ZIN A   1      19.158  -2.597  11.477  0.00  0.00     0.148 C 
ATOM     18  C1  ZIN A   1      18.548  -3.962  11.806  0.00  0.00     0.057 C 
BRANCH  17  19
ATOM     19  O3  ZIN A   1      20.579  -2.720  11.387  0.00  0.00    -0.380 OA
ATOM     20  H33 ZIN A   1      21.060  -2.206  12.051  0.00  0.00     0.211 HD
ENDBRANCH  17  19
BRANCH  17  21
ATOM     21  C4  ZIN A   1      18.604  -2.101  10.139  0.00  0.00     0.193 C 
BRANCH  21  22
ATOM     22  S5  ZIN A   1      19.240  -0.437   9.801  0.00  0.00     0.178 S 
ATOM     23  O6  ZIN A   1      18.335   0.549  10.276  0.00  0.00    -0.223 OA
ATOM     24  O7  ZIN A   1      20.627  -0.363  10.099  0.00  0.00    -0.223 OA
BRANCH  22  25
ATOM     25  C8  ZIN A   1      19.165  -0.285   8.047  0.00  0.00     0.059 A 
ATOM     26  C14 ZIN A   1      19.298  -1.407   7.250  0.00  0.00     0.026 A 
ATOM     27  C13 ZIN A   1      19.235  -1.291   5.874  0.00  0.00     0.044 A 
ATOM     28  C11 ZIN A   1      19.048  -0.048   5.294  0.00  0.00     0.116 A 
ATOM     29  C10 ZIN A   1      18.920   1.076   6.093  0.00  0.00     0.044 A 
ATOM     30  F12 ZIN A   1      18.991   0.068   3.949  0.00  0.00    -0.206 F 
ATOM     31  C9  ZIN A   1      18.979   0.956   7.468  0.00  0.00     0.026 A 
ENDBRANCH  22  25
ENDBRANCH  21  22
ENDBRANCH  17  21
ENDBRANCH  14  17
ENDBRANCH   1  13
TORSDOF 7
ENDMDL
MODEL 6
REMARK VINA RESULT:      -8.6      2.918      3.952
REMARK  7 active torsions:
REMARK  status: ('A' for Active; 'I' for Inactive)
REMARK    1  A    between atoms: C2_2  and  O3_3 
REMARK    2  A    between atoms: C2_2  and  C4_4 
REMARK    3  A    between atoms: C2_2  and  C15_15 
REMARK    4  A    between atoms: C4_4  and  S5_5 
REMARK    5  A    between atoms: S5_5  and  C8_8 
REMARK       I    between atoms: C15_15  and  N17_17 
REMARK    6  A    between atoms: N17_17  and  C18_18 
REMARK    7  A    between atoms: C24_24  and  C25_25 
ROOT
ATOM      1  C18 ZIN A   1      18.637  -3.085   8.110  0.00  0.00     0.035 A 
ATOM      2  C19 ZIN A   1      18.893  -3.470   6.798  0.00  0.00     0.031 A 
ATOM      3  C20 ZIN A   1      18.255  -4.567   6.264  0.00  0.00     0.026 A 
ATOM      4  C21 ZIN A   1      17.349  -5.294   7.041  0.00  0.00     0.059 A 
ATOM      5  C22 ZIN A   1      16.683  -6.435   6.488  0.00  0.00     0.100 C 
ATOM      6  N23 ZIN A   1      16.156  -7.340   6.050  0.00  0.00    -0.191 NA
ATOM      7  C24 ZIN A   1      17.093  -4.904   8.359  0.00  0.00     0.070 A 
ATOM      8  C29 ZIN A   1      17.739  -3.810   8.888  0.00  0.00     0.047 A 
ENDROOT
BRANCH   7   9
ATOM      9  C25 ZIN A   1      16.118  -5.685   9.200  0.00  0.00     0.419 C 
ATOM     10  F26 ZIN A   1      16.551  -7.011   9.306  0.00  0.00    -0.166 F 
ATOM     11  F27 ZIN A   1      16.041  -5.116  10.476  0.00  0.00    -0.166 F 
ATOM     12  F28 ZIN A   1      14.854  -5.654   8.599  0.00  0.00    -0.166 F 
ENDBRANCH   7   9
BRANCH   1  13
ATOM     13  N17 ZIN A   1      19.284  -1.973   8.648  0.00  0.00    -0.325 N 
ATOM     14  C15 ZIN A   1      18.648  -0.785   8.708  0.00  0.00     0.257 C 
ATOM     15  O16 ZIN A   1      17.546  -0.664   8.218  0.00  0.00    -0.270 OA
ATOM     16  H40 ZIN A   1      20.193  -2.053   8.980  0.00  0.00     0.169 HD
BRANCH  14  17
ATOM     17  C2  ZIN A   1      19.308   0.389   9.382  0.00  0.00     0.148 C 
ATOM     18  C1  ZIN A   1      18.999   1.667   8.599  0.00  0.00     0.057 C 
BRANCH  17  19
ATOM     19  O3  ZIN A   1      20.722   0.185   9.422  0.00  0.00    -0.380 OA
ATOM     20  H33 ZIN A   1      20.982  -0.737   9.562  0.00  0.00     0.211 HD
ENDBRANCH  17  19
BRANCH  17  21
ATOM     21  C4  ZIN A   1      18.772   0.525  10.809  0.00  0.00     0.193 C 
BRANCH  21  22
ATOM     22  S5  ZIN A   1      19.914  -0.284  11.963  0.00  0.00     0.178 S 
ATOM     23  O6  ZIN A   1      20.090  -1.650  11.616  0.00  0.00    -0.223 OA
ATOM     24  O7  ZIN A   1      21.029   0.554  12.230  0.00  0.00    -0.223 OA
BRANCH  22  25
ATOM     25  C8  ZIN A   1      19.034  -0.335  13.489  0.00  0.00     0.059 A 
ATOM     26  C14 ZIN A   1      18.038   0.589  13.743  0.00  0.00     0.026 A 
ATOM     27  C13 ZIN A   1      17.343   0.548  14.938  0.00  0.00     0.044 A 
ATOM     28  C11 ZIN A   1      17.655  -0.413  15.885  0.00  0.00     0.116 A 
ATOM     29  C10 ZIN A   1      18.656  -1.334  15.632  0.00  0.00     0.044 A 
ATOM     30  F12 ZIN A   1      16.980  -0.451  17.055  0.00  0.00    -0.206 F 
ATOM     31  C9  ZIN A   1      19.345  -1.294  14.434  0.00  0.00     0.026 A 
ENDBRANCH  22  25
ENDBRANCH  21  22
ENDBRANCH  17  21
ENDBRANCH  14  17
ENDBRANCH   1  13
TORSDOF 7
ENDMDL
MODEL 7
REMARK VINA RESULT:      -8.5      2.428      3.162
REMARK  7 active torsions:
REMARK  status: ('A' for Active; 'I' for Inactive)
REMARK    1  A    between atoms: C2_2  and  O3_3 
REMARK    2  A    between atoms: C2_2  and  C4_4 
REMARK    3  A    between atoms: C2_2  and  C15_15 
REMARK    4  A    between atoms: C4_4  and  S5_5 
REMARK    5  A    between atoms: S5_5  and  C8_8 
REMARK       I    between atoms: C15_15  and  N17_17 
REMARK    6  A    between atoms: N17_17  and  C18_18 
REMARK    7  A    between atoms: C24_24  and  C25_25 
ROOT
ATOM      1  C18 ZIN A   1      19.304   1.019   9.176  0.00  0.00     0.035 A 
ATOM      2  C19 ZIN A   1      19.145   1.897   8.110  0.00  0.00     0.031 A 
ATOM      3  C20 ZIN A   1      18.980   1.410   6.832  0.00  0.00     0.026 A 
ATOM      4  C21 ZIN A   1      18.974   0.031   6.608  0.00  0.00     0.059 A 
ATOM      5  C22 ZIN A   1      18.802  -0.480   5.281  0.00  0.00     0.100 C 
ATOM      6  N23 ZIN A   1      18.667  -0.885   4.229  0.00  0.00    -0.191 NA
ATOM      7  C24 ZIN A   1      19.134  -0.850   7.682  0.00  0.00     0.070 A 
ATOM      8  C29 ZIN A   1      19.304  -0.355   8.955  0.00  0.00     0.047 A 
ENDROOT
BRANCH   7   9
ATOM      9  C25 ZIN A   1      19.128  -2.337   7.445  0.00  0.00     0.419 C 
ATOM     10  F26 ZIN A   1      19.397  -3.002   8.647  0.00  0.00    -0.166 F 
ATOM     11  F27 ZIN A   1      17.873  -2.729   6.967  0.00  0.00    -0.166 F 
ATOM     12  F28 ZIN A   1      20.109  -2.664   6.502  0.00  0.00    -0.166 F 
ENDBRANCH   7   9
BRANCH   1  13
ATOM     13  N17 ZIN A   1      19.470   1.516  10.468  0.00  0.00    -0.325 N 
ATOM     14  C15 ZIN A   1      18.395   1.896  11.188  0.00  0.00     0.257 C 
ATOM     15  O16 ZIN A   1      17.293   1.883  10.683  0.00  0.00    -0.270 OA
ATOM     16  H40 ZIN A   1      20.360   1.590  10.850  0.00  0.00     0.169 HD
BRANCH  14  17
ATOM     17  C2  ZIN A   1      18.564   2.334  12.620  0.00  0.00     0.148 C 
ATOM     18  C1  ZIN A   1      17.738   3.599  12.866  0.00  0.00     0.057 C 
BRANCH  17  19
ATOM     19  O3  ZIN A   1      19.943   2.609  12.876  0.00  0.00    -0.380 OA
ATOM     20  H33 ZIN A   1      20.090   3.279  13.559  0.00  0.00     0.211 HD
ENDBRANCH  17  19
BRANCH  17  21
ATOM     21  C4  ZIN A   1      18.083   1.222  13.554  0.00  0.00     0.193 C 
BRANCH  21  22
ATOM     22  S5  ZIN A   1      19.411   0.007  13.781  0.00  0.00     0.178 S 
ATOM     23  O6  ZIN A   1      20.608   0.456  13.162  0.00  0.00    -0.223 OA
ATOM     24  O7  ZIN A   1      19.415  -0.484  15.114  0.00  0.00    -0.223 OA
BRANCH  22  25
ATOM     25  C8  ZIN A   1      18.912  -1.376  12.809  0.00  0.00     0.059 A 
ATOM     26  C14 ZIN A   1      19.782  -2.432  12.614  0.00  0.00     0.026 A 
ATOM     27  C13 ZIN A   1      19.391  -3.520  11.855  0.00  0.00     0.044 A 
ATOM     28  C11 ZIN A   1      18.131  -3.546  11.283  0.00  0.00     0.116 A 
ATOM     29  C10 ZIN A   1      17.262  -2.485  11.476  0.00  0.00     0.044 A 
ATOM     30  F12 ZIN A   1      17.749  -4.607  10.538  0.00  0.00    -0.206 F 
ATOM     31  C9  ZIN A   1      17.654  -1.401  12.238  0.00  0.00     0.026 A 
ENDBRANCH  22  25
ENDBRANCH  21  22
ENDBRANCH  17  21
ENDBRANCH  14  17
ENDBRANCH   1  13
TORSDOF 7
ENDMDL
MODEL 8
REMARK VINA RESULT:      -8.2      2.886      4.488
REMARK  7 active torsions:
REMARK  status: ('A' for Active; 'I' for Inactive)
REMARK    1  A    between atoms: C2_2  and  O3_3 
REMARK    2  A    between atoms: C2_2  and  C4_4 
REMARK    3  A    between atoms: C2_2  and  C15_15 
REMARK    4  A    between atoms: C4_4  and  S5_5 
REMARK    5  A    between atoms: S5_5  and  C8_8 
REMARK       I    between atoms: C15_15  and  N17_17 
REMARK    6  A    between atoms: N17_17  and  C18_18 
REMARK    7  A    between atoms: C24_24  and  C25_25 
ROOT
ATOM      1  C18 ZIN A   1      18.425  -1.071   9.504  0.00  0.00     0.035 A 
ATOM      2  C19 ZIN A   1      18.665  -2.362   9.048  0.00  0.00     0.031 A 
ATOM      3  C20 ZIN A   1      18.961  -2.583   7.722  0.00  0.00     0.026 A 
ATOM      4  C21 ZIN A   1      19.021  -1.507   6.832  0.00  0.00     0.059 A 
ATOM      5  C22 ZIN A   1      19.329  -1.732   5.452  0.00  0.00     0.100 C 
ATOM      6  N23 ZIN A   1      19.573  -1.911   4.358  0.00  0.00    -0.191 NA
ATOM      7  C24 ZIN A   1      18.780  -0.209   7.294  0.00  0.00     0.070 A 
ATOM      8  C29 ZIN A   1      18.479   0.003   8.620  0.00  0.00     0.047 A 
ENDROOT
BRANCH   7   9
ATOM      9  C25 ZIN A   1      18.843   0.954   6.339  0.00  0.00     0.419 C 
ATOM     10  F26 ZIN A   1      19.997   0.851   5.554  0.00  0.00    -0.166 F 
ATOM     11  F27 ZIN A   1      17.715   0.942   5.512  0.00  0.00    -0.166 F 
ATOM     12  F28 ZIN A   1      18.877   2.152   7.062  0.00  0.00    -0.166 F 
ENDBRANCH   7   9
BRANCH   1  13
ATOM     13  N17 ZIN A   1      18.126  -0.851  10.848  0.00  0.00    -0.325 N 
ATOM     14  C15 ZIN A   1      19.102  -0.489  11.706  0.00  0.00     0.257 C 
ATOM     15  O16 ZIN A   1      20.252  -0.437  11.327  0.00  0.00    -0.270 OA
ATOM     16  H40 ZIN A   1      17.216  -0.958  11.167  0.00  0.00     0.169 HD
BRANCH  14  17
ATOM     17  C2  ZIN A   1      18.762  -0.151  13.134  0.00  0.00     0.148 C 
ATOM     18  C1  ZIN A   1      19.627  -0.990  14.077  0.00  0.00     0.057 C 
BRANCH  17  19
ATOM     19  O3  ZIN A   1      17.382  -0.433  13.377  0.00  0.00    -0.380 OA
ATOM     20  H33 ZIN A   1      17.037  -0.037  14.189  0.00  0.00     0.211 HD
ENDBRANCH  17  19
BRANCH  17  21
ATOM     21  C4  ZIN A   1      19.029   1.335  13.384  0.00  0.00     0.193 C 
BRANCH  21  22
ATOM     22  S5  ZIN A   1      18.212   2.320  12.099  0.00  0.00     0.178 S 
ATOM     23  O6  ZIN A   1      19.160   2.781  11.146  0.00  0.00    -0.223 OA
ATOM     24  O7  ZIN A   1      17.002   1.700  11.688  0.00  0.00    -0.223 OA
BRANCH  22  25
ATOM     25  C8  ZIN A   1      17.689   3.783  12.933  0.00  0.00     0.059 A 
ATOM     26  C14 ZIN A   1      17.043   4.783  12.231  0.00  0.00     0.026 A 
ATOM     27  C13 ZIN A   1      16.627   5.929  12.884  0.00  0.00     0.044 A 
ATOM     28  C11 ZIN A   1      16.870   6.078  14.239  0.00  0.00     0.116 A 
ATOM     29  C10 ZIN A   1      17.522   5.078  14.939  0.00  0.00     0.044 A 
ATOM     30  F12 ZIN A   1      16.468   7.200  14.878  0.00  0.00    -0.206 F 
ATOM     31  C9  ZIN A   1      17.931   3.931  14.285  0.00  0.00     0.026 A 
ENDBRANCH  22  25
ENDBRANCH  21  22
ENDBRANCH  17  21
ENDBRANCH  14  17
ENDBRANCH   1  13
TORSDOF 7
ENDMDL
MODEL 9
REMARK VINA RESULT:      -8.2      4.437      9.049
REMARK  7 active torsions:
REMARK  status: ('A' for Active; 'I' for Inactive)
REMARK    1  A    between atoms: C2_2  and  O3_3 
REMARK    2  A    between atoms: C2_2  and  C4_4 
REMARK    3  A    between atoms: C2_2  and  C15_15 
REMARK    4  A    between atoms: C4_4  and  S5_5 
REMARK    5  A    between atoms: S5_5  and  C8_8 
REMARK       I    between atoms: C15_15  and  N17_17 
REMARK    6  A    between atoms: N17_17  and  C18_18 
REMARK    7  A    between atoms: C24_24  and  C25_25 
ROOT
ATOM      1  C18 ZIN A   1      17.856  -0.873  10.635  0.00  0.00     0.035 A 
ATOM      2  C19 ZIN A   1      17.357  -0.815  11.931  0.00  0.00     0.031 A 
ATOM      3  C20 ZIN A   1      17.326   0.385  12.607  0.00  0.00     0.026 A 
ATOM      4  C21 ZIN A   1      17.799   1.545  11.988  0.00  0.00     0.059 A 
ATOM      5  C22 ZIN A   1      17.768   2.795  12.686  0.00  0.00     0.100 C 
ATOM      6  N23 ZIN A   1      17.744   3.785  13.241  0.00  0.00    -0.191 NA
ATOM      7  C24 ZIN A   1      18.300   1.484  10.683  0.00  0.00     0.070 A 
ATOM      8  C29 ZIN A   1      18.332   0.280  10.017  0.00  0.00     0.047 A 
ENDROOT
BRANCH   7   9
ATOM      9  C25 ZIN A   1      18.810   2.732  10.012  0.00  0.00     0.419 C 
ATOM     10  F26 ZIN A   1      19.895   3.240  10.736  0.00  0.00    -0.166 F 
ATOM     11  F27 ZIN A   1      19.218   2.429   8.710  0.00  0.00    -0.166 F 
ATOM     12  F28 ZIN A   1      17.790   3.689   9.970  0.00  0.00    -0.166 F 
ENDBRANCH   7   9
BRANCH   1  13
ATOM     13  N17 ZIN A   1      17.885  -2.090   9.954  0.00  0.00    -0.325 N 
ATOM     14  C15 ZIN A   1      18.942  -2.916  10.093  0.00  0.00     0.257 C 
ATOM     15  O16 ZIN A   1      19.903  -2.565  10.744  0.00  0.00    -0.270 OA
ATOM     16  H40 ZIN A   1      17.145  -2.342   9.379  0.00  0.00     0.169 HD
BRANCH  14  17
ATOM     17  C2  ZIN A   1      18.928  -4.274   9.441  0.00  0.00     0.148 C 
ATOM     18  C1  ZIN A   1      18.336  -5.299  10.410  0.00  0.00     0.057 C 
BRANCH  17  19
ATOM     19  O3  ZIN A   1      20.263  -4.655   9.102  0.00  0.00    -0.380 OA
ATOM     20  H33 ZIN A   1      20.647  -5.314   9.697  0.00  0.00     0.211 HD
ENDBRANCH  17  19
BRANCH  17  21
ATOM     21  C4  ZIN A   1      18.075  -4.221   8.171  0.00  0.00     0.193 C 
BRANCH  21  22
ATOM     22  S5  ZIN A   1      19.143  -4.408   6.718  0.00  0.00     0.178 S 
ATOM     23  O6  ZIN A   1      20.019  -3.296   6.595  0.00  0.00    -0.223 OA
ATOM     24  O7  ZIN A   1      19.631  -5.739   6.625  0.00  0.00    -0.223 OA
BRANCH  22  25
ATOM     25  C8  ZIN A   1      18.049  -4.251   5.345  0.00  0.00     0.059 A 
ATOM     26  C14 ZIN A   1      17.384  -5.362   4.861  0.00  0.00     0.026 A 
ATOM     27  C13 ZIN A   1      16.522  -5.240   3.787  0.00  0.00     0.044 A 
ATOM     28  C11 ZIN A   1      16.333  -4.005   3.190  0.00  0.00     0.116 A 
ATOM     29  C10 ZIN A   1      17.004  -2.894   3.672  0.00  0.00     0.044 A 
ATOM     30  F12 ZIN A   1      15.494  -3.885   2.137  0.00  0.00    -0.206 F 
ATOM     31  C9  ZIN A   1      17.861  -3.018   4.749  0.00  0.00     0.026 A 
ENDBRANCH  22  25
ENDBRANCH  21  22
ENDBRANCH  17  21
ENDBRANCH  14  17
ENDBRANCH   1  13
TORSDOF 7
ENDMDL
