MODEL 1
REMARK VINA RESULT:      -6.4      0.000      0.000
REMARK  3 active torsions:
REMARK  status: ('A' for Active; 'I' for Inactive)
REMARK    1  A    between atoms: N4_4  and  C5_5 
REMARK    2  A    between atoms: C9_8  and  C11_9 
REMARK    3  A    between atoms: C11_9  and  O12_10 
ROOT
ATOM      1  C1  <0> d   1      19.458   3.741  16.658  0.00  0.00     0.056 C 
ATOM      2  C2  <0> d   1      19.289   2.243  16.644  0.00  0.00     0.022 A 
ATOM      3  C3  <0> d   1      19.036   1.594  15.487  0.00  0.00     0.111 A 
ATOM      4  N4  <0> d   1      18.886   0.233  15.493  0.00  0.00    -0.278 N 
ATOM      5  C14 <0> d   1      18.986  -0.463  16.640  0.00  0.00     0.331 A 
ATOM      6  O15 <0> d   1      18.849  -1.671  16.622  0.00  0.00    -0.246 OA
ATOM      7  N16 <0> d   1      19.238   0.160  17.807  0.00  0.00    -0.275 N 
ATOM      8  C17 <0> d   1      19.397   1.498  17.843  0.00  0.00     0.256 A 
ATOM      9  O18 <0> d   1      19.626   2.062  18.899  0.00  0.00    -0.267 OA
ATOM     10  H28 <0> d   1      19.308  -0.357  18.624  0.00  0.00     0.173 HD
ENDROOT
BRANCH   4  11
ATOM     11  C5  <0> d   1      18.612  -0.471  14.238  0.00  0.00     0.257 C 
ATOM     12  O13 <0> d   1      19.839  -0.695  13.516  0.00  0.00    -0.352 OA
ATOM     13  C9  <0> d   1      19.443  -0.596  12.134  0.00  0.00     0.170 C 
ATOM     14  C8  <0> d   1      18.236   0.314  12.116  0.00  0.00     0.007 C 
ATOM     15  C7  <0> d   1      17.755   0.387  13.335  0.00  0.00     0.025 C 
BRANCH  13  16
ATOM     16  C11 <0> d   1      20.574   0.010  11.301  0.00  0.00     0.200 C 
BRANCH  16  17
ATOM     17  O12 <0> d   1      21.581   0.531  12.171  0.00  0.00    -0.398 OA
ATOM     18  H27 <0> d   1      21.879   1.421  11.940  0.00  0.00     0.209 HD
ENDBRANCH  16  17
ENDBRANCH  13  16
ENDBRANCH   4  11
TORSDOF 3
ENDMDL
MODEL 2
REMARK VINA RESULT:      -6.4      4.614      6.028
REMARK  3 active torsions:
REMARK  status: ('A' for Active; 'I' for Inactive)
REMARK    1  A    between atoms: N4_4  and  C5_5 
REMARK    2  A    between atoms: C9_8  and  C11_9 
REMARK    3  A    between atoms: C11_9  and  O12_10 
ROOT
ATOM      1  C1  <0> d   1      17.755   4.465  10.407  0.00  0.00     0.056 C 
ATOM      2  C2  <0> d   1      18.550   3.195  10.570  0.00  0.00     0.022 A 
ATOM      3  C3  <0> d   1      18.325   2.137   9.760  0.00  0.00     0.111 A 
ATOM      4  N4  <0> d   1      19.057   0.992   9.922  0.00  0.00    -0.278 N 
ATOM      5  C14 <0> d   1      19.998   0.910  10.880  0.00  0.00     0.331 A 
ATOM      6  O15 <0> d   1      20.636  -0.118  11.005  0.00  0.00    -0.246 OA
ATOM      7  N16 <0> d   1      20.244   1.949  11.700  0.00  0.00    -0.275 N 
ATOM      8  C17 <0> d   1      19.547   3.096  11.570  0.00  0.00     0.256 A 
ATOM      9  O18 <0> d   1      19.769   4.037  12.312  0.00  0.00    -0.267 OA
ATOM     10  H28 <0> d   1      20.926   1.872  12.384  0.00  0.00     0.173 HD
ENDROOT
BRANCH   4  11
ATOM     11  C5  <0> d   1      18.812  -0.154   9.043  0.00  0.00     0.257 C 
ATOM     12  O13 <0> d   1      19.626  -0.055   7.859  0.00  0.00    -0.352 OA
ATOM     13  C9  <0> d   1      18.801  -0.637   6.830  0.00  0.00     0.170 C 
ATOM     14  C8  <0> d   1      17.374  -0.425   7.277  0.00  0.00     0.007 C 
ATOM     15  C7  <0> d   1      17.379  -0.144   8.559  0.00  0.00     0.025 C 
BRANCH  13  16
ATOM     16  C11 <0> d   1      19.047   0.065   5.493  0.00  0.00     0.200 C 
BRANCH  16  17
ATOM     17  O12 <0> d   1      20.002  -0.678   4.732  0.00  0.00    -0.398 OA
ATOM     18  H27 <0> d   1      20.920  -0.499   4.972  0.00  0.00     0.209 HD
ENDBRANCH  16  17
ENDBRANCH  13  16
ENDBRANCH   4  11
TORSDOF 3
ENDMDL
MODEL 3
REMARK VINA RESULT:      -6.3      5.370      8.792
REMARK  3 active torsions:
REMARK  status: ('A' for Active; 'I' for Inactive)
REMARK    1  A    between atoms: N4_4  and  C5_5 
REMARK    2  A    between atoms: C9_8  and  C11_9 
REMARK    3  A    between atoms: C11_9  and  O12_10 
ROOT
ATOM      1  C1  <0> d   1      19.551  -3.615   6.316  0.00  0.00     0.056 C 
ATOM      2  C2  <0> d   1      19.325  -2.131   6.447  0.00  0.00     0.022 A 
ATOM      3  C3  <0> d   1      19.036  -1.586   7.648  0.00  0.00     0.111 A 
ATOM      4  N4  <0> d   1      18.834  -0.236   7.749  0.00  0.00    -0.278 N 
ATOM      5  C14 <0> d   1      18.919   0.553   6.662  0.00  0.00     0.331 A 
ATOM      6  O15 <0> d   1      18.736   1.749   6.775  0.00  0.00    -0.246 OA
ATOM      7  N16 <0> d   1      19.206   0.035   5.453  0.00  0.00    -0.275 N 
ATOM      8  C17 <0> d   1      19.417  -1.289   5.313  0.00  0.00     0.256 A 
ATOM      9  O18 <0> d   1      19.677  -1.758   4.219  0.00  0.00    -0.267 OA
ATOM     10  H28 <0> d   1      19.265   0.618   4.680  0.00  0.00     0.173 HD
ENDROOT
BRANCH   4  11
ATOM     11  C5  <0> d   1      18.521   0.355   9.052  0.00  0.00     0.257 C 
ATOM     12  O13 <0> d   1      19.728   0.799   9.700  0.00  0.00    -0.352 OA
ATOM     13  C9  <0> d   1      19.467   0.574  11.099  0.00  0.00     0.170 C 
ATOM     14  C8  <0> d   1      18.472  -0.561  11.154  0.00  0.00     0.007 C 
ATOM     15  C7  <0> d   1      17.924  -0.690   9.968  0.00  0.00     0.025 C 
BRANCH  13  16
ATOM     16  C11 <0> d   1      20.756   0.183  11.823  0.00  0.00     0.200 C 
BRANCH  16  17
ATOM     17  O12 <0> d   1      21.598  -0.555  10.934  0.00  0.00    -0.398 OA
ATOM     18  H27 <0> d   1      21.712  -0.143  10.068  0.00  0.00     0.209 HD
ENDBRANCH  16  17
ENDBRANCH  13  16
ENDBRANCH   4  11
TORSDOF 3
ENDMDL
MODEL 4
REMARK VINA RESULT:      -6.1      4.754      7.154
REMARK  3 active torsions:
REMARK  status: ('A' for Active; 'I' for Inactive)
REMARK    1  A    between atoms: N4_4  and  C5_5 
REMARK    2  A    between atoms: C9_8  and  C11_9 
REMARK    3  A    between atoms: C11_9  and  O12_10 
ROOT
ATOM      1  C1  <0> d   1      18.750   1.063   6.469  0.00  0.00     0.056 C 
ATOM      2  C2  <0> d   1      18.926   0.575   7.884  0.00  0.00     0.022 A 
ATOM      3  C3  <0> d   1      18.669   1.393   8.927  0.00  0.00     0.111 A 
ATOM      4  N4  <0> d   1      18.833   0.933  10.205  0.00  0.00    -0.278 N 
ATOM      5  C14 <0> d   1      19.250  -0.327  10.432  0.00  0.00     0.331 A 
ATOM      6  O15 <0> d   1      19.390  -0.714  11.576  0.00  0.00    -0.246 OA
ATOM      7  N16 <0> d   1      19.513  -1.163   9.411  0.00  0.00    -0.275 N 
ATOM      8  C17 <0> d   1      19.359  -0.749   8.137  0.00  0.00     0.256 A 
ATOM      9  O18 <0> d   1      19.596  -1.506   7.212  0.00  0.00    -0.267 OA
ATOM     10  H28 <0> d   1      19.812  -2.067   9.592  0.00  0.00     0.173 HD
ENDROOT
BRANCH   4  11
ATOM     11  C5  <0> d   1      18.554   1.820  11.337  0.00  0.00     0.257 C 
ATOM     12  O13 <0> d   1      17.311   2.517  11.126  0.00  0.00    -0.352 OA
ATOM     13  C9  <0> d   1      17.534   3.802  11.740  0.00  0.00     0.170 C 
ATOM     14  C8  <0> d   1      19.024   4.041  11.667  0.00  0.00     0.007 C 
ATOM     15  C7  <0> d   1      19.616   2.893  11.432  0.00  0.00     0.025 C 
BRANCH  13  16
ATOM     16  C11 <0> d   1      16.785   4.893  10.973  0.00  0.00     0.200 C 
BRANCH  16  17
ATOM     17  O12 <0> d   1      17.467   5.168   9.747  0.00  0.00    -0.398 OA
ATOM     18  H27 <0> d   1      18.109   4.491   9.493  0.00  0.00     0.209 HD
ENDBRANCH  16  17
ENDBRANCH  13  16
ENDBRANCH   4  11
TORSDOF 3
ENDMDL
MODEL 5
REMARK VINA RESULT:      -6.1      5.662      7.416
REMARK  3 active torsions:
REMARK  status: ('A' for Active; 'I' for Inactive)
REMARK    1  A    between atoms: N4_4  and  C5_5 
REMARK    2  A    between atoms: C9_8  and  C11_9 
REMARK    3  A    between atoms: C11_9  and  O12_10 
ROOT
ATOM      1  C1  <0> d   1      19.190  -4.256   9.467  0.00  0.00     0.056 C 
ATOM      2  C2  <0> d   1      18.525  -2.937   9.768  0.00  0.00     0.022 A 
ATOM      3  C3  <0> d   1      18.363  -2.014   8.795  0.00  0.00     0.111 A 
ATOM      4  N4  <0> d   1      17.757  -0.822   9.086  0.00  0.00    -0.278 N 
ATOM      5  C14 <0> d   1      17.322  -0.561  10.333  0.00  0.00     0.331 A 
ATOM      6  O15 <0> d   1      16.787   0.505  10.569  0.00  0.00    -0.246 OA
ATOM      7  N16 <0> d   1      17.471  -1.463  11.321  0.00  0.00    -0.275 N 
ATOM      8  C17 <0> d   1      18.058  -2.651  11.074  0.00  0.00     0.256 A 
ATOM      9  O18 <0> d   1      18.192  -3.468  11.967  0.00  0.00    -0.267 OA
ATOM     10  H28 <0> d   1      17.151  -1.258  12.213  0.00  0.00     0.173 HD
ENDROOT
BRANCH   4  11
ATOM     11  C5  <0> d   1      17.581   0.178   8.031  0.00  0.00     0.257 C 
ATOM     12  O13 <0> d   1      17.345  -0.470   6.766  0.00  0.00    -0.352 OA
ATOM     13  C9  <0> d   1      17.976   0.406   5.812  0.00  0.00     0.170 C 
ATOM     14  C8  <0> d   1      19.081   1.109   6.566  0.00  0.00     0.007 C 
ATOM     15  C7  <0> d   1      18.853   0.976   7.852  0.00  0.00     0.025 C 
BRANCH  13  16
ATOM     16  C11 <0> d   1      18.560  -0.404   4.653  0.00  0.00     0.200 C 
BRANCH  16  17
ATOM     17  O12 <0> d   1      19.987  -0.335   4.694  0.00  0.00    -0.398 OA
ATOM     18  H27 <0> d   1      20.348  -0.172   5.575  0.00  0.00     0.209 HD
ENDBRANCH  16  17
ENDBRANCH  13  16
ENDBRANCH   4  11
TORSDOF 3
ENDMDL
MODEL 6
REMARK VINA RESULT:      -6.1      2.978      4.510
REMARK  3 active torsions:
REMARK  status: ('A' for Active; 'I' for Inactive)
REMARK    1  A    between atoms: N4_4  and  C5_5 
REMARK    2  A    between atoms: C9_8  and  C11_9 
REMARK    3  A    between atoms: C11_9  and  O12_10 
ROOT
ATOM      1  C1  <0> d   1      17.803  -0.940  16.134  0.00  0.00     0.056 C 
ATOM      2  C2  <0> d   1      18.557  -0.641  14.864  0.00  0.00     0.022 A 
ATOM      3  C3  <0> d   1      18.494  -1.489  13.815  0.00  0.00     0.111 A 
ATOM      4  N4  <0> d   1      19.185  -1.202  12.669  0.00  0.00    -0.278 N 
ATOM      5  C14 <0> d   1      19.926  -0.082  12.578  0.00  0.00     0.331 A 
ATOM      6  O15 <0> d   1      20.532   0.153  11.550  0.00  0.00    -0.246 OA
ATOM      7  N16 <0> d   1      20.005   0.781  13.609  0.00  0.00    -0.275 N 
ATOM      8  C17 <0> d   1      19.336   0.536  14.753  0.00  0.00     0.256 A 
ATOM      9  O18 <0> d   1      19.407   1.317  15.686  0.00  0.00    -0.267 OA
ATOM     10  H28 <0> d   1      20.543   1.583  13.526  0.00  0.00     0.173 HD
ENDROOT
BRANCH   4  11
ATOM     11  C5  <0> d   1      19.117  -2.122  11.531  0.00  0.00     0.257 C 
ATOM     12  O13 <0> d   1      17.772  -2.611  11.367  0.00  0.00    -0.352 OA
ATOM     13  C9  <0> d   1      17.956  -3.957  10.887  0.00  0.00     0.170 C 
ATOM     14  C8  <0> d   1      19.295  -4.406  11.423  0.00  0.00     0.007 C 
ATOM     15  C7  <0> d   1      19.969  -3.343  11.797  0.00  0.00     0.025 C 
BRANCH  13  16
ATOM     16  C11 <0> d   1      16.844  -4.865  11.416  0.00  0.00     0.200 C 
BRANCH  16  17
ATOM     17  O12 <0> d   1      17.319  -5.588  12.554  0.00  0.00    -0.398 OA
ATOM     18  H27 <0> d   1      16.810  -5.431  13.360  0.00  0.00     0.209 HD
ENDBRANCH  16  17
ENDBRANCH  13  16
ENDBRANCH   4  11
TORSDOF 3
ENDMDL
MODEL 7
REMARK VINA RESULT:      -5.9      5.663      7.445
REMARK  3 active torsions:
REMARK  status: ('A' for Active; 'I' for Inactive)
REMARK    1  A    between atoms: N4_4  and  C5_5 
REMARK    2  A    between atoms: C9_8  and  C11_9 
REMARK    3  A    between atoms: C11_9  and  O12_10 
ROOT
ATOM      1  C1  <0> d   1      17.308  -0.092   6.704  0.00  0.00     0.056 C 
ATOM      2  C2  <0> d   1      18.254  -0.249   7.866  0.00  0.00     0.022 A 
ATOM      3  C3  <0> d   1      18.245  -1.376   8.609  0.00  0.00     0.111 A 
ATOM      4  N4  <0> d   1      19.112  -1.502   9.661  0.00  0.00    -0.278 N 
ATOM      5  C14 <0> d   1      19.973  -0.512   9.961  0.00  0.00     0.331 A 
ATOM      6  O15 <0> d   1      20.734  -0.645  10.900  0.00  0.00    -0.246 OA
ATOM      7  N16 <0> d   1      20.003   0.622   9.237  0.00  0.00    -0.275 N 
ATOM      8  C17 <0> d   1      19.168   0.782   8.190  0.00  0.00     0.256 A 
ATOM      9  O18 <0> d   1      19.196   1.809   7.534  0.00  0.00    -0.267 OA
ATOM     10  H28 <0> d   1      20.630   1.325   9.467  0.00  0.00     0.173 HD
ENDROOT
BRANCH   4  11
ATOM     11  C5  <0> d   1      19.102  -2.725  10.467  0.00  0.00     0.257 C 
ATOM     12  O13 <0> d   1      18.836  -3.868   9.631  0.00  0.00    -0.352 OA
ATOM     13  C9  <0> d   1      18.081  -4.747  10.488  0.00  0.00     0.170 C 
ATOM     14  C8  <0> d   1      17.383  -3.850  11.484  0.00  0.00     0.007 C 
ATOM     15  C7  <0> d   1      17.973  -2.678  11.471  0.00  0.00     0.025 C 
BRANCH  13  16
ATOM     16  C11 <0> d   1      17.052  -5.530   9.670  0.00  0.00     0.200 C 
BRANCH  16  17
ATOM     17  O12 <0> d   1      16.630  -4.743   8.554  0.00  0.00    -0.398 OA
ATOM     18  H27 <0> d   1      15.896  -4.146   8.749  0.00  0.00     0.209 HD
ENDBRANCH  16  17
ENDBRANCH  13  16
ENDBRANCH   4  11
TORSDOF 3
ENDMDL
MODEL 8
REMARK VINA RESULT:      -5.8      4.706      7.453
REMARK  3 active torsions:
REMARK  status: ('A' for Active; 'I' for Inactive)
REMARK    1  A    between atoms: N4_4  and  C5_5 
REMARK    2  A    between atoms: C9_8  and  C11_9 
REMARK    3  A    between atoms: C11_9  and  O12_10 
ROOT
ATOM      1  C1  <0> d   1      17.086  -4.607  11.667  0.00  0.00     0.056 C 
ATOM      2  C2  <0> d   1      17.463  -3.891  10.396  0.00  0.00     0.022 A 
ATOM      3  C3  <0> d   1      17.912  -2.618  10.434  0.00  0.00     0.111 A 
ATOM      4  N4  <0> d   1      18.251  -1.984   9.269  0.00  0.00    -0.278 N 
ATOM      5  C14 <0> d   1      18.139  -2.616   8.087  0.00  0.00     0.331 A 
ATOM      6  O15 <0> d   1      18.446  -2.033   7.065  0.00  0.00    -0.246 OA
ATOM      7  N16 <0> d   1      17.695  -3.885   8.020  0.00  0.00    -0.275 N 
ATOM      8  C17 <0> d   1      17.356  -4.546   9.145  0.00  0.00     0.256 A 
ATOM      9  O18 <0> d   1      16.954  -5.695   9.085  0.00  0.00    -0.267 OA
ATOM     10  H28 <0> d   1      17.622  -4.326   7.160  0.00  0.00     0.173 HD
ENDROOT
BRANCH   4  11
ATOM     11  C5  <0> d   1      18.738  -0.603   9.311  0.00  0.00     0.257 C 
ATOM     12  O13 <0> d   1      19.867  -0.501  10.200  0.00  0.00    -0.352 OA
ATOM     13  C9  <0> d   1      19.731   0.813  10.775  0.00  0.00     0.170 C 
ATOM     14  C8  <0> d   1      18.253   1.128  10.736  0.00  0.00     0.007 C 
ATOM     15  C7  <0> d   1      17.677   0.307   9.889  0.00  0.00     0.025 C 
BRANCH  13  16
ATOM     16  C11 <0> d   1      20.233   0.816  12.220  0.00  0.00     0.200 C 
BRANCH  16  17
ATOM     17  O12 <0> d   1      21.649   0.615  12.233  0.00  0.00    -0.398 OA
ATOM     18  H27 <0> d   1      21.946  -0.125  11.687  0.00  0.00     0.209 HD
ENDBRANCH  16  17
ENDBRANCH  13  16
ENDBRANCH   4  11
TORSDOF 3
ENDMDL
MODEL 9
REMARK VINA RESULT:      -5.8      3.428      5.020
REMARK  3 active torsions:
REMARK  status: ('A' for Active; 'I' for Inactive)
REMARK    1  A    between atoms: N4_4  and  C5_5 
REMARK    2  A    between atoms: C9_8  and  C11_9 
REMARK    3  A    between atoms: C11_9  and  O12_10 
ROOT
ATOM      1  C1  <0> d   1      19.277   1.549   9.024  0.00  0.00     0.056 C 
ATOM      2  C2  <0> d   1      19.464   1.092  10.448  0.00  0.00     0.022 A 
ATOM      3  C3  <0> d   1      19.330  -0.213  10.772  0.00  0.00     0.111 A 
ATOM      4  N4  <0> d   1      19.504  -0.610  12.070  0.00  0.00    -0.278 N 
ATOM      5  C14 <0> d   1      19.805   0.287  13.027  0.00  0.00     0.331 A 
ATOM      6  O15 <0> d   1      19.955  -0.088  14.174  0.00  0.00    -0.246 OA
ATOM      7  N16 <0> d   1      19.945   1.593  12.732  0.00  0.00    -0.275 N 
ATOM      8  C17 <0> d   1      19.786   2.024  11.464  0.00  0.00     0.256 A 
ATOM      9  O18 <0> d   1      19.913   3.206  11.196  0.00  0.00    -0.267 OA
ATOM     10  H28 <0> d   1      20.163   2.225  13.433  0.00  0.00     0.173 HD
ENDROOT
BRANCH   4  11
ATOM     11  C5  <0> d   1      19.359  -2.025  12.420  0.00  0.00     0.257 C 
ATOM     12  O13 <0> d   1      20.184  -2.836  11.562  0.00  0.00    -0.352 OA
ATOM     13  C9  <0> d   1      19.422  -4.050  11.407  0.00  0.00     0.170 C 
ATOM     14  C8  <0> d   1      17.976  -3.654  11.588  0.00  0.00     0.007 C 
ATOM     15  C7  <0> d   1      17.938  -2.480  12.175  0.00  0.00     0.025 C 
BRANCH  13  16
ATOM     16  C11 <0> d   1      19.638  -4.636  10.010  0.00  0.00     0.200 C 
BRANCH  16  17
ATOM     17  O12 <0> d   1      19.584  -3.589   9.039  0.00  0.00    -0.398 OA
ATOM     18  H27 <0> d   1      20.261  -2.910   9.154  0.00  0.00     0.209 HD
ENDBRANCH  16  17
ENDBRANCH  13  16
ENDBRANCH   4  11
TORSDOF 3
ENDMDL
