MODEL 1
REMARK VINA RESULT:      -7.1      0.000      0.000
REMARK  5 active torsions:
REMARK  status: ('A' for Active; 'I' for Inactive)
REMARK    1  A    between atoms: C2_2  and  C4_3 
REMARK    2  A    between atoms: C2_2  and  N11_10 
REMARK    3  A    between atoms: C4_3  and  C5_4 
REMARK    4  A    between atoms: N11_10  and  C14_13 
REMARK    5  A    between atoms: C14_13  and  C15_14 
ROOT
ATOM      1  N11 ZIN A   1      17.892   2.846  12.416  0.00  0.00    -0.067 N 
ATOM      2  H12 ZIN A   1      17.133   2.324  12.827  0.00  0.00     0.280 HD
ATOM      3  C13 ZIN A   1      17.910   4.206  12.972  0.00  0.00     0.270 C 
ENDROOT
BRANCH   1   4
ATOM      4  C2  ZIN A   1      17.708   2.915  10.961  0.00  0.00     0.188 C 
ATOM      5  C1  ZIN A   1      17.442   4.365  10.547  0.00  0.00     0.040 C 
BRANCH   4   6
ATOM      6  C4  ZIN A   1      18.973   2.410  10.262  0.00  0.00     0.071 C 
BRANCH   6   7
ATOM      7  C5  ZIN A   1      18.589   1.559   9.079  0.00  0.00    -0.056 A 
ATOM      8  C10 ZIN A   1      19.171   1.784   7.847  0.00  0.00     0.007 A 
ATOM      9  C9  ZIN A   1      18.820   1.000   6.763  0.00  0.00     0.001 A 
ATOM     10  C8  ZIN A   1      17.881  -0.003   6.911  0.00  0.00     0.000 A 
ATOM     11  C7  ZIN A   1      17.295  -0.225   8.143  0.00  0.00     0.001 A 
ATOM     12  C6  ZIN A   1      17.648   0.556   9.227  0.00  0.00     0.007 A 
ENDBRANCH   6   7
ENDBRANCH   4   6
ENDBRANCH   1   4
BRANCH   1  13
ATOM     13  C14 ZIN A   1      19.165   2.177  12.718  0.00  0.00     0.273 C 
BRANCH  13  14
ATOM     14  C15 ZIN A   1      18.908   0.986  13.604  0.00  0.00    -0.033 A 
ATOM     15  C20 ZIN A   1      19.733  -0.121  13.531  0.00  0.00     0.009 A 
ATOM     16  C19 ZIN A   1      19.501  -1.211  14.348  0.00  0.00     0.001 A 
ATOM     17  C18 ZIN A   1      18.436  -1.200  15.231  0.00  0.00     0.000 A 
ATOM     18  C17 ZIN A   1      17.608  -0.094  15.300  0.00  0.00     0.001 A 
ATOM     19  C16 ZIN A   1      17.843   0.998  14.487  0.00  0.00     0.009 A 
ENDBRANCH  13  14
ENDBRANCH   1  13
TORSDOF 5
ENDMDL
MODEL 2
REMARK VINA RESULT:      -7.0      1.041      1.840
REMARK  5 active torsions:
REMARK  status: ('A' for Active; 'I' for Inactive)
REMARK    1  A    between atoms: C2_2  and  C4_3 
REMARK    2  A    between atoms: C2_2  and  N11_10 
REMARK    3  A    between atoms: C4_3  and  C5_4 
REMARK    4  A    between atoms: N11_10  and  C14_13 
REMARK    5  A    between atoms: C14_13  and  C15_14 
ROOT
ATOM      1  N11 ZIN A   1      18.613   1.396  12.258  0.00  0.00    -0.067 N 
ATOM      2  H12 ZIN A   1      18.306   1.982  13.022  0.00  0.00     0.280 HD
ATOM      3  C13 ZIN A   1      20.081   1.402  12.195  0.00  0.00     0.270 C 
ENDROOT
BRANCH   1   4
ATOM      4  C2  ZIN A   1      18.066   1.911  10.996  0.00  0.00     0.188 C 
ATOM      5  C1  ZIN A   1      17.579   3.348  11.200  0.00  0.00     0.040 C 
BRANCH   4   6
ATOM      6  C4  ZIN A   1      19.157   1.890   9.923  0.00  0.00     0.071 C 
BRANCH   6   7
ATOM      7  C5  ZIN A   1      18.621   1.234   8.675  0.00  0.00    -0.056 A 
ATOM      8  C10 ZIN A   1      17.604   0.304   8.765  0.00  0.00     0.007 A 
ATOM      9  C9  ZIN A   1      17.112  -0.295   7.620  0.00  0.00     0.001 A 
ATOM     10  C8  ZIN A   1      17.643   0.032   6.386  0.00  0.00     0.000 A 
ATOM     11  C7  ZIN A   1      18.663   0.960   6.298  0.00  0.00     0.001 A 
ATOM     12  C6  ZIN A   1      19.153   1.561   7.441  0.00  0.00     0.007 A 
ENDBRANCH   6   7
ENDBRANCH   4   6
ENDBRANCH   1   4
BRANCH   1  13
ATOM     13  C14 ZIN A   1      18.136   0.023  12.474  0.00  0.00     0.273 C 
BRANCH  13  14
ATOM     14  C15 ZIN A   1      18.137  -0.282  13.950  0.00  0.00    -0.033 A 
ATOM     15  C20 ZIN A   1      18.857  -1.360  14.432  0.00  0.00     0.009 A 
ATOM     16  C19 ZIN A   1      18.861  -1.637  15.786  0.00  0.00     0.001 A 
ATOM     17  C18 ZIN A   1      18.138  -0.843  16.657  0.00  0.00     0.000 A 
ATOM     18  C17 ZIN A   1      17.414   0.231  16.173  0.00  0.00     0.001 A 
ATOM     19  C16 ZIN A   1      17.413   0.511  14.820  0.00  0.00     0.009 A 
ENDBRANCH  13  14
ENDBRANCH   1  13
TORSDOF 5
ENDMDL
MODEL 3
REMARK VINA RESULT:      -7.0      2.090      6.890
REMARK  5 active torsions:
REMARK  status: ('A' for Active; 'I' for Inactive)
REMARK    1  A    between atoms: C2_2  and  C4_3 
REMARK    2  A    between atoms: C2_2  and  N11_10 
REMARK    3  A    between atoms: C4_3  and  C5_4 
REMARK    4  A    between atoms: N11_10  and  C14_13 
REMARK    5  A    between atoms: C14_13  and  C15_14 
ROOT
ATOM      1  N11 ZIN A   1      19.017  -0.545  10.781  0.00  0.00    -0.067 N 
ATOM      2  H12 ZIN A   1      19.041  -1.226  10.036  0.00  0.00     0.280 HD
ATOM      3  C13 ZIN A   1      20.390  -0.221  11.193  0.00  0.00     0.270 C 
ENDROOT
BRANCH   1   4
ATOM      4  C2  ZIN A   1      18.280  -1.096  11.924  0.00  0.00     0.188 C 
ATOM      5  C1  ZIN A   1      17.492  -2.331  11.477  0.00  0.00     0.040 C 
BRANCH   4   6
ATOM      6  C4  ZIN A   1      19.267  -1.493  13.024  0.00  0.00     0.071 C 
BRANCH   6   7
ATOM      7  C5  ZIN A   1      18.742  -1.036  14.361  0.00  0.00    -0.056 A 
ATOM      8  C10 ZIN A   1      19.227  -1.600  15.525  0.00  0.00     0.007 A 
ATOM      9  C9  ZIN A   1      18.747  -1.177  16.750  0.00  0.00     0.001 A 
ATOM     10  C8  ZIN A   1      17.774  -0.197  16.811  0.00  0.00     0.000 A 
ATOM     11  C7  ZIN A   1      17.286   0.364  15.646  0.00  0.00     0.001 A 
ATOM     12  C6  ZIN A   1      17.769  -0.055  14.422  0.00  0.00     0.007 A 
ENDBRANCH   6   7
ENDBRANCH   4   6
ENDBRANCH   1   4
BRANCH   1  13
ATOM     13  C14 ZIN A   1      18.347   0.674  10.307  0.00  0.00     0.273 C 
BRANCH  13  14
ATOM     14  C15 ZIN A   1      18.242   0.638   8.804  0.00  0.00    -0.033 A 
ATOM     15  C20 ZIN A   1      19.084   1.419   8.034  0.00  0.00     0.009 A 
ATOM     16  C19 ZIN A   1      18.992   1.382   6.656  0.00  0.00     0.001 A 
ATOM     17  C18 ZIN A   1      18.051   0.572   6.047  0.00  0.00     0.000 A 
ATOM     18  C17 ZIN A   1      17.206  -0.205   6.818  0.00  0.00     0.001 A 
ATOM     19  C16 ZIN A   1      17.301  -0.172   8.196  0.00  0.00     0.009 A 
ENDBRANCH  13  14
ENDBRANCH   1  13
TORSDOF 5
ENDMDL
MODEL 4
REMARK VINA RESULT:      -7.0      2.135      6.931
REMARK  5 active torsions:
REMARK  status: ('A' for Active; 'I' for Inactive)
REMARK    1  A    between atoms: C2_2  and  C4_3 
REMARK    2  A    between atoms: C2_2  and  N11_10 
REMARK    3  A    between atoms: C4_3  and  C5_4 
REMARK    4  A    between atoms: N11_10  and  C14_13 
REMARK    5  A    between atoms: C14_13  and  C15_14 
ROOT
ATOM      1  N11 ZIN A   1      18.994  -0.752  10.604  0.00  0.00    -0.067 N 
ATOM      2  H12 ZIN A   1      18.868  -1.433   9.870  0.00  0.00     0.280 HD
ATOM      3  C13 ZIN A   1      20.427  -0.597  10.887  0.00  0.00     0.270 C 
ENDROOT
BRANCH   1   4
ATOM      4  C2  ZIN A   1      18.301  -1.204  11.817  0.00  0.00     0.188 C 
ATOM      5  C1  ZIN A   1      17.572  -2.519  11.528  0.00  0.00     0.040 C 
BRANCH   4   6
ATOM      6  C4  ZIN A   1      19.322  -1.422  12.936  0.00  0.00     0.071 C 
BRANCH   6   7
ATOM      7  C5  ZIN A   1      18.722  -1.000  14.253  0.00  0.00    -0.056 A 
ATOM      8  C10 ZIN A   1      17.828   0.052  14.300  0.00  0.00     0.007 A 
ATOM      9  C9  ZIN A   1      17.276   0.436  15.508  0.00  0.00     0.001 A 
ATOM     10  C8  ZIN A   1      17.624  -0.227  16.670  0.00  0.00     0.000 A 
ATOM     11  C7  ZIN A   1      18.523  -1.277  16.622  0.00  0.00     0.001 A 
ATOM     12  C6  ZIN A   1      19.071  -1.663  15.415  0.00  0.00     0.007 A 
ENDBRANCH   6   7
ENDBRANCH   4   6
ENDBRANCH   1   4
BRANCH   1  13
ATOM     13  C14 ZIN A   1      18.437   0.538  10.173  0.00  0.00     0.273 C 
BRANCH  13  14
ATOM     14  C15 ZIN A   1      18.284   0.544   8.674  0.00  0.00    -0.033 A 
ATOM     15  C20 ZIN A   1      17.305  -0.228   8.077  0.00  0.00     0.009 A 
ATOM     16  C19 ZIN A   1      17.162  -0.219   6.702  0.00  0.00     0.001 A 
ATOM     17  C18 ZIN A   1      18.003   0.556   5.924  0.00  0.00     0.000 A 
ATOM     18  C17 ZIN A   1      18.984   1.324   6.522  0.00  0.00     0.001 A 
ATOM     19  C16 ZIN A   1      19.125   1.318   7.897  0.00  0.00     0.009 A 
ENDBRANCH  13  14
ENDBRANCH   1  13
TORSDOF 5
ENDMDL
MODEL 5
REMARK VINA RESULT:      -7.0      2.028      3.072
REMARK  5 active torsions:
REMARK  status: ('A' for Active; 'I' for Inactive)
REMARK    1  A    between atoms: C2_2  and  C4_3 
REMARK    2  A    between atoms: C2_2  and  N11_10 
REMARK    3  A    between atoms: C4_3  and  C5_4 
REMARK    4  A    between atoms: N11_10  and  C14_13 
REMARK    5  A    between atoms: C14_13  and  C15_14 
ROOT
ATOM      1  N11 ZIN A   1      18.897  -0.482  12.347  0.00  0.00    -0.067 N 
ATOM      2  H12 ZIN A   1      18.305   0.238  12.736  0.00  0.00     0.280 HD
ATOM      3  C13 ZIN A   1      20.218   0.083  12.039  0.00  0.00     0.270 C 
ENDROOT
BRANCH   1   4
ATOM      4  C2  ZIN A   1      18.289  -1.005  11.117  0.00  0.00     0.188 C 
ATOM      5  C1  ZIN A   1      17.491  -2.270  11.441  0.00  0.00     0.040 C 
BRANCH   4   6
ATOM      6  C4  ZIN A   1      17.354   0.050  10.522  0.00  0.00     0.071 C 
BRANCH   6   7
ATOM      7  C5  ZIN A   1      17.807   0.394   9.127  0.00  0.00    -0.056 A 
ATOM      8  C10 ZIN A   1      17.278  -0.278   8.042  0.00  0.00     0.007 A 
ATOM      9  C9  ZIN A   1      17.692   0.041   6.762  0.00  0.00     0.001 A 
ATOM     10  C8  ZIN A   1      18.641   1.027   6.568  0.00  0.00     0.000 A 
ATOM     11  C7  ZIN A   1      19.174   1.696   7.654  0.00  0.00     0.001 A 
ATOM     12  C6  ZIN A   1      18.757   1.380   8.932  0.00  0.00     0.007 A 
ENDBRANCH   6   7
ENDBRANCH   4   6
ENDBRANCH   1   4
BRANCH   1  13
ATOM     13  C14 ZIN A   1      19.045  -1.570  13.323  0.00  0.00     0.273 C 
BRANCH  13  14
ATOM     14  C15 ZIN A   1      18.669  -1.071  14.694  0.00  0.00    -0.033 A 
ATOM     15  C20 ZIN A   1      19.322  -1.560  15.810  0.00  0.00     0.009 A 
ATOM     16  C19 ZIN A   1      18.980  -1.099  17.067  0.00  0.00     0.001 A 
ATOM     17  C18 ZIN A   1      17.979  -0.156  17.210  0.00  0.00     0.000 A 
ATOM     18  C17 ZIN A   1      17.323   0.329  16.093  0.00  0.00     0.001 A 
ATOM     19  C16 ZIN A   1      17.667  -0.129  14.835  0.00  0.00     0.009 A 
ENDBRANCH  13  14
ENDBRANCH   1  13
TORSDOF 5
ENDMDL
MODEL 6
REMARK VINA RESULT:      -6.9      2.635      5.517
REMARK  5 active torsions:
REMARK  status: ('A' for Active; 'I' for Inactive)
REMARK    1  A    between atoms: C2_2  and  C4_3 
REMARK    2  A    between atoms: C2_2  and  N11_10 
REMARK    3  A    between atoms: C4_3  and  C5_4 
REMARK    4  A    between atoms: N11_10  and  C14_13 
REMARK    5  A    between atoms: C14_13  and  C15_14 
ROOT
ATOM      1  N11 ZIN A   1      18.266   0.865  11.950  0.00  0.00    -0.067 N 
ATOM      2  H12 ZIN A   1      18.663   1.773  11.757  0.00  0.00     0.280 HD
ATOM      3  C13 ZIN A   1      17.703   0.855  13.307  0.00  0.00     0.270 C 
ENDROOT
BRANCH   1   4
ATOM      4  C2  ZIN A   1      19.314  -0.159  11.847  0.00  0.00     0.188 C 
ATOM      5  C1  ZIN A   1      20.672   0.465  12.175  0.00  0.00     0.040 C 
BRANCH   4   6
ATOM      6  C4  ZIN A   1      19.020  -1.290  12.835  0.00  0.00     0.071 C 
BRANCH   6   7
ATOM      7  C5  ZIN A   1      18.852  -2.585  12.081  0.00  0.00    -0.056 A 
ATOM      8  C10 ZIN A   1      19.957  -3.355  11.774  0.00  0.00     0.007 A 
ATOM      9  C9  ZIN A   1      19.800  -4.544  11.085  0.00  0.00     0.001 A 
ATOM     10  C8  ZIN A   1      18.540  -4.958  10.698  0.00  0.00     0.000 A 
ATOM     11  C7  ZIN A   1      17.435  -4.185  11.002  0.00  0.00     0.001 A 
ATOM     12  C6  ZIN A   1      17.591  -2.999  11.693  0.00  0.00     0.007 A 
ENDBRANCH   6   7
ENDBRANCH   4   6
ENDBRANCH   1   4
BRANCH   1  13
ATOM     13  C14 ZIN A   1      17.204   0.579  10.976  0.00  0.00     0.273 C 
BRANCH  13  14
ATOM     14  C15 ZIN A   1      17.755   0.703   9.580  0.00  0.00    -0.033 A 
ATOM     15  C20 ZIN A   1      17.408  -0.224   8.615  0.00  0.00     0.009 A 
ATOM     16  C19 ZIN A   1      17.910  -0.107   7.332  0.00  0.00     0.001 A 
ATOM     17  C18 ZIN A   1      18.767   0.931   7.017  0.00  0.00     0.000 A 
ATOM     18  C17 ZIN A   1      19.118   1.855   7.984  0.00  0.00     0.001 A 
ATOM     19  C16 ZIN A   1      18.612   1.741   9.265  0.00  0.00     0.009 A 
ENDBRANCH  13  14
ENDBRANCH   1  13
TORSDOF 5
ENDMDL
MODEL 7
REMARK VINA RESULT:      -6.9      2.503      5.450
REMARK  5 active torsions:
REMARK  status: ('A' for Active; 'I' for Inactive)
REMARK    1  A    between atoms: C2_2  and  C4_3 
REMARK    2  A    between atoms: C2_2  and  N11_10 
REMARK    3  A    between atoms: C4_3  and  C5_4 
REMARK    4  A    between atoms: N11_10  and  C14_13 
REMARK    5  A    between atoms: C14_13  and  C15_14 
ROOT
ATOM      1  N11 ZIN A   1      18.564   1.185  11.880  0.00  0.00    -0.067 N 
ATOM      2  H12 ZIN A   1      19.274   1.639  11.324  0.00  0.00     0.280 HD
ATOM      3  C13 ZIN A   1      18.119   2.094  12.945  0.00  0.00     0.270 C 
ENDROOT
BRANCH   1   4
ATOM      4  C2  ZIN A   1      19.116  -0.036  12.478  0.00  0.00     0.188 C 
ATOM      5  C1  ZIN A   1      19.763   0.302  13.824  0.00  0.00     0.040 C 
BRANCH   4   6
ATOM      6  C4  ZIN A   1      17.992  -1.052  12.694  0.00  0.00     0.071 C 
BRANCH   6   7
ATOM      7  C5  ZIN A   1      18.352  -2.352  12.021  0.00  0.00    -0.056 A 
ATOM      8  C10 ZIN A   1      19.643  -2.838  12.102  0.00  0.00     0.007 A 
ATOM      9  C9  ZIN A   1      19.971  -4.032  11.486  0.00  0.00     0.001 A 
ATOM     10  C8  ZIN A   1      19.011  -4.735  10.784  0.00  0.00     0.000 A 
ATOM     11  C7  ZIN A   1      17.721  -4.245  10.700  0.00  0.00     0.001 A 
ATOM     12  C6  ZIN A   1      17.392  -3.055  11.317  0.00  0.00     0.007 A 
ENDBRANCH   6   7
ENDBRANCH   4   6
ENDBRANCH   1   4
BRANCH   1  13
ATOM     13  C14 ZIN A   1      17.422   0.838  11.022  0.00  0.00     0.273 C 
BRANCH  13  14
ATOM     14  C15 ZIN A   1      17.861   0.826   9.581  0.00  0.00    -0.033 A 
ATOM     15  C20 ZIN A   1      18.803   1.736   9.139  0.00  0.00     0.009 A 
ATOM     16  C19 ZIN A   1      19.209   1.723   7.818  0.00  0.00     0.001 A 
ATOM     17  C18 ZIN A   1      18.667   0.805   6.936  0.00  0.00     0.000 A 
ATOM     18  C17 ZIN A   1      17.722  -0.103   7.379  0.00  0.00     0.001 A 
ATOM     19  C16 ZIN A   1      17.319  -0.092   8.701  0.00  0.00     0.009 A 
ENDBRANCH  13  14
ENDBRANCH   1  13
TORSDOF 5
ENDMDL
MODEL 8
REMARK VINA RESULT:      -6.8      2.223      6.182
REMARK  5 active torsions:
REMARK  status: ('A' for Active; 'I' for Inactive)
REMARK    1  A    between atoms: C2_2  and  C4_3 
REMARK    2  A    between atoms: C2_2  and  N11_10 
REMARK    3  A    between atoms: C4_3  and  C5_4 
REMARK    4  A    between atoms: N11_10  and  C14_13 
REMARK    5  A    between atoms: C14_13  and  C15_14 
ROOT
ATOM      1  N11 ZIN A   1      19.211   0.765  11.462  0.00  0.00    -0.067 N 
ATOM      2  H12 ZIN A   1      18.900   0.974  10.524  0.00  0.00     0.280 HD
ATOM      3  C13 ZIN A   1      20.365  -0.142  11.404  0.00  0.00     0.270 C 
ENDROOT
BRANCH   1   4
ATOM      4  C2  ZIN A   1      18.121   0.125  12.208  0.00  0.00     0.188 C 
ATOM      5  C1  ZIN A   1      17.025  -0.315  11.235  0.00  0.00     0.040 C 
BRANCH   4   6
ATOM      6  C4  ZIN A   1      18.663  -1.099  12.951  0.00  0.00     0.071 C 
BRANCH   6   7
ATOM      7  C5  ZIN A   1      18.484  -0.906  14.436  0.00  0.00    -0.056 A 
ATOM      8  C10 ZIN A   1      19.248  -1.636  15.325  0.00  0.00     0.007 A 
ATOM      9  C9  ZIN A   1      19.084  -1.456  16.686  0.00  0.00     0.001 A 
ATOM     10  C8  ZIN A   1      18.152  -0.551  17.157  0.00  0.00     0.000 A 
ATOM     11  C7  ZIN A   1      17.384   0.176  16.267  0.00  0.00     0.001 A 
ATOM     12  C6  ZIN A   1      17.550  -0.001  14.907  0.00  0.00     0.007 A 
ENDBRANCH   6   7
ENDBRANCH   4   6
ENDBRANCH   1   4
BRANCH   1  13
ATOM     13  C14 ZIN A   1      19.600   2.012  12.136  0.00  0.00     0.273 C 
BRANCH  13  14
ATOM     14  C15 ZIN A   1      18.650   3.113  11.743  0.00  0.00    -0.033 A 
ATOM     15  C20 ZIN A   1      18.521   3.473  10.415  0.00  0.00     0.009 A 
ATOM     16  C19 ZIN A   1      17.645   4.480  10.054  0.00  0.00     0.001 A 
ATOM     17  C18 ZIN A   1      16.905   5.134  11.023  0.00  0.00     0.000 A 
ATOM     18  C17 ZIN A   1      17.039   4.775  12.352  0.00  0.00     0.001 A 
ATOM     19  C16 ZIN A   1      17.911   3.766  12.712  0.00  0.00     0.009 A 
ENDBRANCH  13  14
ENDBRANCH   1  13
TORSDOF 5
ENDMDL
MODEL 9
REMARK VINA RESULT:      -6.7      3.565      4.731
REMARK  5 active torsions:
REMARK  status: ('A' for Active; 'I' for Inactive)
REMARK    1  A    between atoms: C2_2  and  C4_3 
REMARK    2  A    between atoms: C2_2  and  N11_10 
REMARK    3  A    between atoms: C4_3  and  C5_4 
REMARK    4  A    between atoms: N11_10  and  C14_13 
REMARK    5  A    between atoms: C14_13  and  C15_14 
ROOT
ATOM      1  N11 ZIN A   1      18.281  -1.021  12.040  0.00  0.00    -0.067 N 
ATOM      2  H12 ZIN A   1      17.870  -1.749  12.605  0.00  0.00     0.280 HD
ATOM      3  C13 ZIN A   1      17.235  -0.380  11.230  0.00  0.00     0.270 C 
ENDROOT
BRANCH   1   4
ATOM      4  C2  ZIN A   1      19.298  -1.602  11.155  0.00  0.00     0.188 C 
ATOM      5  C1  ZIN A   1      20.474  -0.630  11.021  0.00  0.00     0.040 C 
BRANCH   4   6
ATOM      6  C4  ZIN A   1      19.794  -2.923  11.747  0.00  0.00     0.071 C 
BRANCH   6   7
ATOM      7  C5  ZIN A   1      19.000  -4.064  11.166  0.00  0.00    -0.056 A 
ATOM      8  C10 ZIN A   1      19.432  -4.691  10.012  0.00  0.00     0.007 A 
ATOM      9  C9  ZIN A   1      18.704  -5.740   9.482  0.00  0.00     0.001 A 
ATOM     10  C8  ZIN A   1      17.540  -6.157  10.101  0.00  0.00     0.000 A 
ATOM     11  C7  ZIN A   1      17.106  -5.527  11.252  0.00  0.00     0.001 A 
ATOM     12  C6  ZIN A   1      17.835  -4.481  11.784  0.00  0.00     0.007 A 
ENDBRANCH   6   7
ENDBRANCH   4   6
ENDBRANCH   1   4
BRANCH   1  13
ATOM     13  C14 ZIN A   1      18.906  -0.019  12.914  0.00  0.00     0.273 C 
BRANCH  13  14
ATOM     14  C15 ZIN A   1      18.575  -0.330  14.351  0.00  0.00    -0.033 A 
ATOM     15  C20 ZIN A   1      19.294  -1.293  15.033  0.00  0.00     0.009 A 
ATOM     16  C19 ZIN A   1      18.993  -1.575  16.352  0.00  0.00     0.001 A 
ATOM     17  C18 ZIN A   1      17.967  -0.900  16.987  0.00  0.00     0.000 A 
ATOM     18  C17 ZIN A   1      17.245   0.061  16.303  0.00  0.00     0.001 A 
ATOM     19  C16 ZIN A   1      17.548   0.345  14.985  0.00  0.00     0.009 A 
ENDBRANCH  13  14
ENDBRANCH   1  13
TORSDOF 5
ENDMDL
