MODEL 1
REMARK VINA RESULT:      -6.2      0.000      0.000
REMARK  2 active torsions:
REMARK  status: ('A' for Active; 'I' for Inactive)
REMARK    1  A    between atoms: N2_2  and  C5_5 
REMARK    2  A    between atoms: C5_5  and  C6_6 
ROOT
ATOM      1  C5  ZIN A   1      18.586   0.201  14.005  0.00  0.00     0.213 C 
ATOM      2  C13 ZIN A   1      17.270   0.410  14.761  0.00  0.00     0.052 C 
ATOM      3  C14 ZIN A   1      17.504   0.200  16.258  0.00  0.00     0.004 C 
ATOM      4  C15 ZIN A   1      17.926  -1.247  16.518  0.00  0.00     0.007 C 
ATOM      5  C16 ZIN A   1      19.267  -1.518  15.829  0.00  0.00     0.081 C 
ATOM      6  C17 ZIN A   1      19.136  -1.162  14.365  0.00  0.00     0.167 C 
ATOM      7  O18 ZIN A   1      19.461  -1.945  13.505  0.00  0.00    -0.295 OA
ENDROOT
BRANCH   1   8
ATOM      8  N2  ZIN A   1      19.549   1.240  14.394  0.00  0.00    -0.059 N 
ATOM      9  C1  ZIN A   1      18.873   2.544  14.432  0.00  0.00     0.269 C 
ATOM     10  H3  ZIN A   1      20.301   1.270  13.723  0.00  0.00     0.278 HD
ATOM     11  H4  ZIN A   1      19.921   1.028  15.308  0.00  0.00     0.278 HD
ENDBRANCH   1   8
BRANCH   1  12
ATOM     12  C6  ZIN A   1      18.338   0.271  12.520  0.00  0.00     0.007 A 
ATOM     13  C11 ZIN A   1      19.395   0.479  11.652  0.00  0.00     0.043 A 
ATOM     14  C10 ZIN A   1      19.168   0.537  10.288  0.00  0.00     0.024 A 
ATOM     15 Cl12 ZIN A   1      21.007   0.652  12.272  0.00  0.00    -0.084 Cl
ATOM     16  C9  ZIN A   1      17.884   0.399   9.795  0.00  0.00     0.002 A 
ATOM     17  C8  ZIN A   1      16.827   0.198  10.663  0.00  0.00     0.001 A 
ATOM     18  C7  ZIN A   1      17.055   0.134  12.027  0.00  0.00     0.012 A 
ENDBRANCH   1  12
TORSDOF 2
ENDMDL
MODEL 2
REMARK VINA RESULT:      -6.1      1.830      2.145
REMARK  2 active torsions:
REMARK  status: ('A' for Active; 'I' for Inactive)
REMARK    1  A    between atoms: N2_2  and  C5_5 
REMARK    2  A    between atoms: C5_5  and  C6_6 
ROOT
ATOM      1  C5  ZIN A   1      18.838   1.006  13.854  0.00  0.00     0.213 C 
ATOM      2  C13 ZIN A   1      17.454   0.787  14.475  0.00  0.00     0.052 C 
ATOM      3  C14 ZIN A   1      17.599  -0.008  15.773  0.00  0.00     0.004 C 
ATOM      4  C15 ZIN A   1      18.161  -1.398  15.470  0.00  0.00     0.007 C 
ATOM      5  C16 ZIN A   1      19.571  -1.261  14.888  0.00  0.00     0.081 C 
ATOM      6  C17 ZIN A   1      19.510  -0.339  13.690  0.00  0.00     0.167 C 
ATOM      7  O18 ZIN A   1      19.984  -0.669  12.630  0.00  0.00    -0.295 OA
ENDROOT
BRANCH   1   8
ATOM      8  N2  ZIN A   1      19.646   1.856  14.739  0.00  0.00    -0.059 N 
ATOM      9  C1  ZIN A   1      18.803   2.923  15.297  0.00  0.00     0.269 C 
ATOM     10  H3  ZIN A   1      20.402   2.267  14.213  0.00  0.00     0.278 HD
ATOM     11  H4  ZIN A   1      20.022   1.298  15.490  0.00  0.00     0.278 HD
ENDBRANCH   1   8
BRANCH   1  12
ATOM     12  C6  ZIN A   1      18.694   1.669  12.508  0.00  0.00     0.007 A 
ATOM     13  C11 ZIN A   1      17.724   1.233  11.623  0.00  0.00     0.043 A 
ATOM     14  C10 ZIN A   1      17.589   1.845  10.389  0.00  0.00     0.024 A 
ATOM     15 Cl12 ZIN A   1      16.667  -0.071  12.066  0.00  0.00    -0.084 Cl
ATOM     16  C9  ZIN A   1      18.430   2.883  10.038  0.00  0.00     0.002 A 
ATOM     17  C8  ZIN A   1      19.404   3.314  10.920  0.00  0.00     0.001 A 
ATOM     18  C7  ZIN A   1      19.535   2.706  12.155  0.00  0.00     0.012 A 
ENDBRANCH   1  12
TORSDOF 2
ENDMDL
MODEL 3
REMARK VINA RESULT:      -6.1      3.298      4.603
REMARK  2 active torsions:
REMARK  status: ('A' for Active; 'I' for Inactive)
REMARK    1  A    between atoms: N2_2  and  C5_5 
REMARK    2  A    between atoms: C5_5  and  C6_6 
ROOT
ATOM      1  C5  ZIN A   1      18.782   2.474  11.448  0.00  0.00     0.213 C 
ATOM      2  C13 ZIN A   1      20.117   3.226  11.421  0.00  0.00     0.052 C 
ATOM      3  C14 ZIN A   1      20.261   4.052  12.701  0.00  0.00     0.004 C 
ATOM      4  C15 ZIN A   1      19.165   5.118  12.755  0.00  0.00     0.007 C 
ATOM      5  C16 ZIN A   1      17.795   4.438  12.832  0.00  0.00     0.081 C 
ATOM      6  C17 ZIN A   1      17.670   3.475  11.672  0.00  0.00     0.167 C 
ATOM      7  O18 ZIN A   1      16.708   3.506  10.943  0.00  0.00    -0.295 OA
ENDROOT
BRANCH   1   8
ATOM      8  N2  ZIN A   1      18.790   1.493  12.542  0.00  0.00    -0.059 N 
ATOM      9  C1  ZIN A   1      20.064   0.761  12.532  0.00  0.00     0.269 C 
ATOM     10  H3  ZIN A   1      18.028   0.844  12.418  0.00  0.00     0.278 HD
ATOM     11  H4  ZIN A   1      18.685   1.972  13.424  0.00  0.00     0.278 HD
ENDBRANCH   1   8
BRANCH   1  12
ATOM     12  C6  ZIN A   1      18.568   1.766  10.135  0.00  0.00     0.007 A 
ATOM     13  C11 ZIN A   1      17.660   0.726  10.050  0.00  0.00     0.043 A 
ATOM     14  C10 ZIN A   1      17.460   0.080   8.842  0.00  0.00     0.024 A 
ATOM     15 Cl12 ZIN A   1      16.760   0.241  11.453  0.00  0.00    -0.084 Cl
ATOM     16  C9  ZIN A   1      18.176   0.467   7.726  0.00  0.00     0.002 A 
ATOM     17  C8  ZIN A   1      19.088   1.502   7.812  0.00  0.00     0.001 A 
ATOM     18  C7  ZIN A   1      19.284   2.151   9.018  0.00  0.00     0.012 A 
ENDBRANCH   1  12
TORSDOF 2
ENDMDL
MODEL 4
REMARK VINA RESULT:      -6.1      2.931      5.963
REMARK  2 active torsions:
REMARK  status: ('A' for Active; 'I' for Inactive)
REMARK    1  A    between atoms: N2_2  and  C5_5 
REMARK    2  A    between atoms: C5_5  and  C6_6 
ROOT
ATOM      1  C5  ZIN A   1      18.602  -0.247   8.872  0.00  0.00     0.213 C 
ATOM      2  C13 ZIN A   1      17.331  -0.581   8.084  0.00  0.00     0.052 C 
ATOM      3  C14 ZIN A   1      17.634  -0.532   6.586  0.00  0.00     0.004 C 
ATOM      4  C15 ZIN A   1      18.031   0.889   6.183  0.00  0.00     0.007 C 
ATOM      5  C16 ZIN A   1      19.328   1.278   6.899  0.00  0.00     0.081 C 
ATOM      6  C17 ZIN A   1      19.134   1.083   8.386  0.00  0.00     0.167 C 
ATOM      7  O18 ZIN A   1      19.395   1.967   9.166  0.00  0.00    -0.295 OA
ENDROOT
BRANCH   1   8
ATOM      8  N2  ZIN A   1      19.610  -1.293   8.647  0.00  0.00    -0.059 N 
ATOM      9  C1  ZIN A   1      18.963  -2.611   8.685  0.00  0.00     0.269 C 
ATOM     10  H3  ZIN A   1      20.314  -1.242   9.368  0.00  0.00     0.278 HD
ATOM     11  H4  ZIN A   1      20.041  -1.156   7.745  0.00  0.00     0.278 HD
ENDBRANCH   1   8
BRANCH   1  12
ATOM     12  C6  ZIN A   1      18.283  -0.159  10.342  0.00  0.00     0.007 A 
ATOM     13  C11 ZIN A   1      19.297  -0.271  11.278  0.00  0.00     0.043 A 
ATOM     14  C10 ZIN A   1      19.004  -0.183  12.627  0.00  0.00     0.024 A 
ATOM     15 Cl12 ZIN A   1      20.936  -0.505  10.758  0.00  0.00    -0.084 Cl
ATOM     16  C9  ZIN A   1      17.699   0.004  13.040  0.00  0.00     0.002 A 
ATOM     17  C8  ZIN A   1      16.685   0.109  12.105  0.00  0.00     0.001 A 
ATOM     18  C7  ZIN A   1      16.979   0.027  10.756  0.00  0.00     0.012 A 
ENDBRANCH   1  12
TORSDOF 2
ENDMDL
MODEL 5
REMARK VINA RESULT:      -6.1      2.486      3.623
REMARK  2 active torsions:
REMARK  status: ('A' for Active; 'I' for Inactive)
REMARK    1  A    between atoms: N2_2  and  C5_5 
REMARK    2  A    between atoms: C5_5  and  C6_6 
ROOT
ATOM      1  C5  ZIN A   1      19.152   1.421  10.859  0.00  0.00     0.213 C 
ATOM      2  C13 ZIN A   1      17.921   1.461  11.770  0.00  0.00     0.052 C 
ATOM      3  C14 ZIN A   1      18.363   1.710  13.213  0.00  0.00     0.004 C 
ATOM      4  C15 ZIN A   1      19.223   0.542  13.700  0.00  0.00     0.007 C 
ATOM      5  C16 ZIN A   1      20.503   0.468  12.863  0.00  0.00     0.081 C 
ATOM      6  C17 ZIN A   1      20.119   0.391  11.402  0.00  0.00     0.167 C 
ATOM      7  O18 ZIN A   1      20.571  -0.471  10.687  0.00  0.00    -0.295 OA
ENDROOT
BRANCH   1   8
ATOM      8  N2  ZIN A   1      19.796   2.741  10.843  0.00  0.00    -0.059 N 
ATOM      9  C1  ZIN A   1      18.767   3.788  10.881  0.00  0.00     0.269 C 
ATOM     10  H3  ZIN A   1      20.344   2.839  10.002  0.00  0.00     0.278 HD
ATOM     11  H4  ZIN A   1      20.397   2.832  11.648  0.00  0.00     0.278 HD
ENDBRANCH   1   8
BRANCH   1  12
ATOM     12  C6  ZIN A   1      18.741   1.041   9.460  0.00  0.00     0.007 A 
ATOM     13  C11 ZIN A   1      17.777   0.068   9.263  0.00  0.00     0.043 A 
ATOM     14  C10 ZIN A   1      17.395  -0.276   7.978  0.00  0.00     0.024 A 
ATOM     15 Cl12 ZIN A   1      17.037  -0.710  10.627  0.00  0.00    -0.084 Cl
ATOM     16  C9  ZIN A   1      17.984   0.344   6.894  0.00  0.00     0.002 A 
ATOM     17  C8  ZIN A   1      18.951   1.312   7.090  0.00  0.00     0.001 A 
ATOM     18  C7  ZIN A   1      19.329   1.660   8.375  0.00  0.00     0.012 A 
ENDBRANCH   1  12
TORSDOF 2
ENDMDL
MODEL 6
REMARK VINA RESULT:      -5.9      3.186      4.700
REMARK  2 active torsions:
REMARK  status: ('A' for Active; 'I' for Inactive)
REMARK    1  A    between atoms: N2_2  and  C5_5 
REMARK    2  A    between atoms: C5_5  and  C6_6 
ROOT
ATOM      1  C5  ZIN A   1      19.166   0.854  10.575  0.00  0.00     0.213 C 
ATOM      2  C13 ZIN A   1      17.833   1.531  10.238  0.00  0.00     0.052 C 
ATOM      3  C14 ZIN A   1      18.069   3.022   9.990  0.00  0.00     0.004 C 
ATOM      4  C15 ZIN A   1      18.579   3.686  11.270  0.00  0.00     0.007 C 
ATOM      5  C16 ZIN A   1      19.939   3.090  11.646  0.00  0.00     0.081 C 
ATOM      6  C17 ZIN A   1      19.798   1.587  11.738  0.00  0.00     0.167 C 
ATOM      7  O18 ZIN A   1      20.178   0.988  12.715  0.00  0.00    -0.295 OA
ENDROOT
BRANCH   1   8
ATOM      8  N2  ZIN A   1      20.059   0.915   9.410  0.00  0.00    -0.059 N 
ATOM      9  C1  ZIN A   1      19.284   0.671   8.186  0.00  0.00     0.269 C 
ATOM     10  H3  ZIN A   1      20.777   0.212   9.499  0.00  0.00     0.278 HD
ATOM     11  H4  ZIN A   1      20.485   1.828   9.360  0.00  0.00     0.278 HD
ENDBRANCH   1   8
BRANCH   1  12
ATOM     12  C6  ZIN A   1      18.926  -0.585  10.954  0.00  0.00     0.007 A 
ATOM     13  C11 ZIN A   1      17.802  -0.929  11.685  0.00  0.00     0.043 A 
ATOM     14  C10 ZIN A   1      17.579  -2.251  12.027  0.00  0.00     0.024 A 
ATOM     15 Cl12 ZIN A   1      16.666   0.295  12.159  0.00  0.00    -0.084 Cl
ATOM     16  C9  ZIN A   1      18.484  -3.225  11.650  0.00  0.00     0.002 A 
ATOM     17  C8  ZIN A   1      19.610  -2.880  10.925  0.00  0.00     0.001 A 
ATOM     18  C7  ZIN A   1      19.830  -1.559  10.577  0.00  0.00     0.012 A 
ENDBRANCH   1  12
TORSDOF 2
ENDMDL
MODEL 7
REMARK VINA RESULT:      -5.9      3.233      4.772
REMARK  2 active torsions:
REMARK  status: ('A' for Active; 'I' for Inactive)
REMARK    1  A    between atoms: N2_2  and  C5_5 
REMARK    2  A    between atoms: C5_5  and  C6_6 
ROOT
ATOM      1  C5  ZIN A   1      18.556  -0.069  10.703  0.00  0.00     0.213 C 
ATOM      2  C13 ZIN A   1      19.039   0.511   9.369  0.00  0.00     0.052 C 
ATOM      3  C14 ZIN A   1      19.306   2.008   9.533  0.00  0.00     0.004 C 
ATOM      4  C15 ZIN A   1      18.003   2.733   9.871  0.00  0.00     0.007 C 
ATOM      5  C16 ZIN A   1      17.481   2.237  11.223  0.00  0.00     0.081 C 
ATOM      6  C17 ZIN A   1      17.359   0.731  11.170  0.00  0.00     0.167 C 
ATOM      7  O18 ZIN A   1      16.334   0.180  11.489  0.00  0.00    -0.295 OA
ENDROOT
BRANCH   1   8
ATOM      8  N2  ZIN A   1      19.631   0.025  11.700  0.00  0.00    -0.059 N 
ATOM      9  C1  ZIN A   1      20.881  -0.484  11.120  0.00  0.00     0.269 C 
ATOM     10  H3  ZIN A   1      19.388  -0.525  12.510  0.00  0.00     0.278 HD
ATOM     11  H4  ZIN A   1      19.754   0.989  11.971  0.00  0.00     0.278 HD
ENDBRANCH   1   8
BRANCH   1  12
ATOM     12  C6  ZIN A   1      18.160  -1.512  10.519  0.00  0.00     0.007 A 
ATOM     13  C11 ZIN A   1      17.979  -2.325  11.624  0.00  0.00     0.043 A 
ATOM     14  C10 ZIN A   1      17.610  -3.648  11.454  0.00  0.00     0.024 A 
ATOM     15 Cl12 ZIN A   1      18.199  -1.682  13.221  0.00  0.00    -0.084 Cl
ATOM     16  C9  ZIN A   1      17.434  -4.158  10.183  0.00  0.00     0.002 A 
ATOM     17  C8  ZIN A   1      17.622  -3.347   9.079  0.00  0.00     0.001 A 
ATOM     18  C7  ZIN A   1      17.985  -2.023   9.248  0.00  0.00     0.012 A 
ENDBRANCH   1  12
TORSDOF 2
ENDMDL
MODEL 8
REMARK VINA RESULT:      -5.9      1.907      4.426
REMARK  2 active torsions:
REMARK  status: ('A' for Active; 'I' for Inactive)
REMARK    1  A    between atoms: N2_2  and  C5_5 
REMARK    2  A    between atoms: C5_5  and  C6_6 
ROOT
ATOM      1  C5  ZIN A   1      18.337   1.974  12.970  0.00  0.00     0.213 C 
ATOM      2  C13 ZIN A   1      19.736   2.265  12.417  0.00  0.00     0.052 C 
ATOM      3  C14 ZIN A   1      19.642   3.348  11.341  0.00  0.00     0.004 C 
ATOM      4  C15 ZIN A   1      18.811   2.837  10.163  0.00  0.00     0.007 C 
ATOM      5  C16 ZIN A   1      17.377   2.568  10.630  0.00  0.00     0.081 C 
ATOM      6  C17 ZIN A   1      17.425   1.627  11.813  0.00  0.00     0.167 C 
ATOM      7  O18 ZIN A   1      16.755   0.623  11.834  0.00  0.00    -0.295 OA
ENDROOT
BRANCH   1   8
ATOM      8  N2  ZIN A   1      17.823   3.164  13.662  0.00  0.00    -0.059 N 
ATOM      9  C1  ZIN A   1      18.876   3.724  14.519  0.00  0.00     0.269 C 
ATOM     10  H3  ZIN A   1      17.029   2.907  14.229  0.00  0.00     0.278 HD
ATOM     11  H4  ZIN A   1      17.541   3.854  12.982  0.00  0.00     0.278 HD
ENDBRANCH   1   8
BRANCH   1  12
ATOM     12  C6  ZIN A   1      18.398   0.816  13.932  0.00  0.00     0.007 A 
ATOM     13  C11 ZIN A   1      19.191  -0.281  13.642  0.00  0.00     0.043 A 
ATOM     14  C10 ZIN A   1      19.252  -1.342  14.529  0.00  0.00     0.024 A 
ATOM     15 Cl12 ZIN A   1      20.119  -0.320  12.176  0.00  0.00    -0.084 Cl
ATOM     16  C9  ZIN A   1      18.513  -1.310  15.696  0.00  0.00     0.002 A 
ATOM     17  C8  ZIN A   1      17.717  -0.217  15.982  0.00  0.00     0.001 A 
ATOM     18  C7  ZIN A   1      17.660   0.846  15.098  0.00  0.00     0.012 A 
ENDBRANCH   1  12
TORSDOF 2
ENDMDL
MODEL 9
REMARK VINA RESULT:      -5.9      2.711      4.345
REMARK  2 active torsions:
REMARK  status: ('A' for Active; 'I' for Inactive)
REMARK    1  A    between atoms: N2_2  and  C5_5 
REMARK    2  A    between atoms: C5_5  and  C6_6 
ROOT
ATOM      1  C5  ZIN A   1      18.711   2.129  11.325  0.00  0.00     0.213 C 
ATOM      2  C13 ZIN A   1      17.499   2.684  10.570  0.00  0.00     0.052 C 
ATOM      3  C14 ZIN A   1      17.680   4.187  10.352  0.00  0.00     0.004 C 
ATOM      4  C15 ZIN A   1      17.713   4.905  11.702  0.00  0.00     0.007 C 
ATOM      5  C16 ZIN A   1      18.933   4.434  12.500  0.00  0.00     0.081 C 
ATOM      6  C17 ZIN A   1      18.891   2.926  12.599  0.00  0.00     0.167 C 
ATOM      7  O18 ZIN A   1      18.996   2.371  13.666  0.00  0.00    -0.295 OA
ENDROOT
BRANCH   1   8
ATOM      8  N2  ZIN A   1      19.913   2.256  10.490  0.00  0.00    -0.059 N 
ATOM      9  C1  ZIN A   1      19.626   1.753   9.140  0.00  0.00     0.269 C 
ATOM     10  H3  ZIN A   1      20.664   1.719  10.896  0.00  0.00     0.278 HD
ATOM     11  H4  ZIN A   1      20.184   3.226  10.436  0.00  0.00     0.278 HD
ENDBRANCH   1   8
BRANCH   1  12
ATOM     12  C6  ZIN A   1      18.481   0.678  11.664  0.00  0.00     0.007 A 
ATOM     13  C11 ZIN A   1      19.538  -0.109  12.086  0.00  0.00     0.043 A 
ATOM     14  C10 ZIN A   1      19.325  -1.439  12.403  0.00  0.00     0.024 A 
ATOM     15 Cl12 ZIN A   1      21.126   0.575  12.233  0.00  0.00    -0.084 Cl
ATOM     16  C9  ZIN A   1      18.060  -1.983  12.286  0.00  0.00     0.002 A 
ATOM     17  C8  ZIN A   1      17.006  -1.198  11.858  0.00  0.00     0.001 A 
ATOM     18  C7  ZIN A   1      17.217   0.133  11.547  0.00  0.00     0.012 A 
ENDBRANCH   1  12
TORSDOF 2
ENDMDL
