MODEL 1
REMARK VINA RESULT:      -7.3      0.000      0.000
REMARK  4 active torsions:
REMARK  status: ('A' for Active; 'I' for Inactive)
REMARK    1  A    between atoms: C5_5  and  C6_6 
REMARK    2  A    between atoms: C6_6  and  C8_8 
REMARK    3  A    between atoms: C11_11  and  C12_12 
REMARK    4  A    between atoms: C12_12  and  C13_13 
ROOT
ATOM      1  C8  <0> d   1      18.722   0.976  11.675  0.00  0.00     0.086 A 
ATOM      2  C9  <0> d   1      19.939   1.387  12.182  0.00  0.00     0.036 A 
ATOM      3  C10 <0> d   1      20.306   0.465  13.167  0.00  0.00     0.028 A 
ATOM      4  C11 <0> d   1      19.329  -0.472  13.244  0.00  0.00     0.021 A 
ATOM      5  N16 <0> d   1      18.359  -0.171  12.347  0.00  0.00    -0.351 N 
ATOM      6  C17 <0> d   1      17.132  -0.940  12.123  0.00  0.00     0.156 C 
ENDROOT
BRANCH   1   7
ATOM      7  C6  <0> d   1      17.954   1.640  10.620  0.00  0.00     0.208 C 
ATOM      8  O7  <0> d   1      17.172   2.530  10.904  0.00  0.00    -0.285 OA
BRANCH   7   9
ATOM      9  C5  <0> d   1      18.128   1.232   9.209  0.00  0.00     0.016 A 
ATOM     10  C4  <0> d   1      19.022   1.920   8.387  0.00  0.00     0.016 A 
ATOM     11  C3  <0> d   1      19.180   1.534   7.071  0.00  0.00     0.007 A 
ATOM     12  C2  <0> d   1      18.455   0.468   6.567  0.00  0.00    -0.062 A 
ATOM     13  C1  <0> d   1      18.632   0.053   5.130  0.00  0.00     0.048 C 
ATOM     14  C19 <0> d   1      17.563  -0.213   7.376  0.00  0.00     0.007 A 
ATOM     15  C18 <0> d   1      17.399   0.159   8.694  0.00  0.00     0.016 A 
ENDBRANCH   7   9
ENDBRANCH   1   7
BRANCH   4  16
ATOM     16  C12 <0> d   1      19.321  -1.653  14.178  0.00  0.00     0.170 C 
BRANCH  16  17
ATOM     17  C13 <0> d   1      18.779  -1.229  15.520  0.00  0.00     0.178 C 
ATOM     18  O14 <0> d   1      17.794  -0.514  15.580  0.00  0.00    -0.648 OA
ATOM     19  O15 <0> d   1      19.325  -1.601  16.544  0.00  0.00    -0.648 OA
ENDBRANCH  16  17
ENDBRANCH   4  16
TORSDOF 4
ENDMDL
MODEL 2
REMARK VINA RESULT:      -7.1      0.647      1.871
REMARK  4 active torsions:
REMARK  status: ('A' for Active; 'I' for Inactive)
REMARK    1  A    between atoms: C5_5  and  C6_6 
REMARK    2  A    between atoms: C6_6  and  C8_8 
REMARK    3  A    between atoms: C11_11  and  C12_12 
REMARK    4  A    between atoms: C12_12  and  C13_13 
ROOT
ATOM      1  C8  <0> d   1      17.854   0.447  11.419  0.00  0.00     0.086 A 
ATOM      2  C9  <0> d   1      16.903  -0.485  11.785  0.00  0.00     0.036 A 
ATOM      3  C10 <0> d   1      17.447  -1.236  12.831  0.00  0.00     0.028 A 
ATOM      4  C11 <0> d   1      18.692  -0.762  13.080  0.00  0.00     0.021 A 
ATOM      5  N16 <0> d   1      18.954   0.257  12.226  0.00  0.00    -0.351 N 
ATOM      6  C17 <0> d   1      20.196   1.033  12.174  0.00  0.00     0.156 C 
ENDROOT
BRANCH   1   7
ATOM      7  C6  <0> d   1      17.720   1.450  10.360  0.00  0.00     0.208 C 
ATOM      8  O7  <0> d   1      17.355   2.579  10.633  0.00  0.00    -0.285 OA
BRANCH   7   9
ATOM      9  C5  <0> d   1      18.031   1.093   8.958  0.00  0.00     0.016 A 
ATOM     10  C4  <0> d   1      17.369   0.029   8.344  0.00  0.00     0.016 A 
ATOM     11  C3  <0> d   1      17.663  -0.299   7.037  0.00  0.00     0.007 A 
ATOM     12  C2  <0> d   1      18.611   0.424   6.335  0.00  0.00    -0.062 A 
ATOM     13  C1  <0> d   1      18.928   0.059   4.908  0.00  0.00     0.048 C 
ATOM     14  C19 <0> d   1      19.275   1.476   6.941  0.00  0.00     0.007 A 
ATOM     15  C18 <0> d   1      18.987   1.818   8.246  0.00  0.00     0.016 A 
ENDBRANCH   7   9
ENDBRANCH   1   7
BRANCH   4  16
ATOM     16  C12 <0> d   1      19.635  -1.285  14.132  0.00  0.00     0.170 C 
BRANCH  16  17
ATOM     17  C13 <0> d   1      19.169  -0.835  15.493  0.00  0.00     0.178 C 
ATOM     18  O14 <0> d   1      19.017   0.353  15.723  0.00  0.00    -0.648 OA
ATOM     19  O15 <0> d   1      18.944  -1.657  16.364  0.00  0.00    -0.648 OA
ENDBRANCH  16  17
ENDBRANCH   4  16
TORSDOF 4
ENDMDL
MODEL 3
REMARK VINA RESULT:      -7.0      4.010      4.798
REMARK  4 active torsions:
REMARK  status: ('A' for Active; 'I' for Inactive)
REMARK    1  A    between atoms: C5_5  and  C6_6 
REMARK    2  A    between atoms: C6_6  and  C8_8 
REMARK    3  A    between atoms: C11_11  and  C12_12 
REMARK    4  A    between atoms: C12_12  and  C13_13 
ROOT
ATOM      1  C8  <0> d   1      19.218  -0.721  14.197  0.00  0.00     0.086 A 
ATOM      2  C9  <0> d   1      19.319  -1.612  15.247  0.00  0.00     0.036 A 
ATOM      3  C10 <0> d   1      18.929  -0.930  16.403  0.00  0.00     0.028 A 
ATOM      4  C11 <0> d   1      18.606   0.337  16.049  0.00  0.00     0.021 A 
ATOM      5  N16 <0> d   1      18.782   0.480  14.713  0.00  0.00    -0.351 N 
ATOM      6  C17 <0> d   1      18.540   1.703  13.943  0.00  0.00     0.156 C 
ENDROOT
BRANCH   1   7
ATOM      7  C6  <0> d   1      19.527  -0.998  12.792  0.00  0.00     0.208 C 
ATOM      8  O7  <0> d   1      20.180  -0.202  12.143  0.00  0.00    -0.285 OA
BRANCH   7   9
ATOM      9  C5  <0> d   1      19.045  -2.248  12.162  0.00  0.00     0.016 A 
ATOM     10  C4  <0> d   1      19.947  -3.264  11.844  0.00  0.00     0.016 A 
ATOM     11  C3  <0> d   1      19.491  -4.426  11.257  0.00  0.00     0.007 A 
ATOM     12  C2  <0> d   1      18.144  -4.586  10.984  0.00  0.00    -0.062 A 
ATOM     13  C1  <0> d   1      17.654  -5.857  10.342  0.00  0.00     0.048 C 
ATOM     14  C19 <0> d   1      17.246  -3.579  11.292  0.00  0.00     0.007 A 
ATOM     15  C18 <0> d   1      17.688  -2.414  11.884  0.00  0.00     0.016 A 
ENDBRANCH   7   9
ENDBRANCH   1   7
BRANCH   4  16
ATOM     16  C12 <0> d   1      18.132   1.416  16.988  0.00  0.00     0.170 C 
BRANCH  16  17
ATOM     17  C13 <0> d   1      19.321   2.073  17.639  0.00  0.00     0.178 C 
ATOM     18  O14 <0> d   1      19.827   3.059  17.129  0.00  0.00    -0.648 OA
ATOM     19  O15 <0> d   1      19.778   1.621  18.675  0.00  0.00    -0.648 OA
ENDBRANCH  16  17
ENDBRANCH   4  16
TORSDOF 4
ENDMDL
MODEL 4
REMARK VINA RESULT:      -7.0      2.575      6.756
REMARK  4 active torsions:
REMARK  status: ('A' for Active; 'I' for Inactive)
REMARK    1  A    between atoms: C5_5  and  C6_6 
REMARK    2  A    between atoms: C6_6  and  C8_8 
REMARK    3  A    between atoms: C11_11  and  C12_12 
REMARK    4  A    between atoms: C12_12  and  C13_13 
ROOT
ATOM      1  C8  <0> d   1      19.466   0.950  10.939  0.00  0.00     0.086 A 
ATOM      2  C9  <0> d   1      19.214   2.233  10.494  0.00  0.00     0.036 A 
ATOM      3  C10 <0> d   1      18.561   2.120   9.264  0.00  0.00     0.028 A 
ATOM      4  C11 <0> d   1      18.429   0.801   8.983  0.00  0.00     0.021 A 
ATOM      5  N16 <0> d   1      18.979   0.079   9.989  0.00  0.00    -0.351 N 
ATOM      6  C17 <0> d   1      19.037  -1.383  10.061  0.00  0.00     0.156 C 
ENDROOT
BRANCH   1   7
ATOM      7  C6  <0> d   1      20.135   0.582  12.189  0.00  0.00     0.208 C 
ATOM      8  O7  <0> d   1      21.351   0.572  12.249  0.00  0.00    -0.285 OA
BRANCH   7   9
ATOM      9  C5  <0> d   1      19.333   0.223  13.380  0.00  0.00     0.016 A 
ATOM     10  C4  <0> d   1      19.614  -0.946  14.087  0.00  0.00     0.016 A 
ATOM     11  C3  <0> d   1      18.863  -1.274  15.197  0.00  0.00     0.007 A 
ATOM     12  C2  <0> d   1      17.833  -0.446  15.609  0.00  0.00    -0.062 A 
ATOM     13  C1  <0> d   1      17.016  -0.812  16.821  0.00  0.00     0.048 C 
ATOM     14  C19 <0> d   1      17.546   0.711  14.908  0.00  0.00     0.007 A 
ATOM     15  C18 <0> d   1      18.292   1.054  13.800  0.00  0.00     0.016 A 
ENDBRANCH   7   9
ENDBRANCH   1   7
BRANCH   4  16
ATOM     16  C12 <0> d   1      17.780   0.229   7.749  0.00  0.00     0.170 C 
BRANCH  16  17
ATOM     17  C13 <0> d   1      18.813   0.083   6.661  0.00  0.00     0.178 C 
ATOM     18  O14 <0> d   1      19.287  -1.013   6.415  0.00  0.00    -0.648 OA
ATOM     19  O15 <0> d   1      19.174   1.059   6.027  0.00  0.00    -0.648 OA
ENDBRANCH  16  17
ENDBRANCH   4  16
TORSDOF 4
ENDMDL
MODEL 5
REMARK VINA RESULT:      -7.0      2.369      6.952
REMARK  4 active torsions:
REMARK  status: ('A' for Active; 'I' for Inactive)
REMARK    1  A    between atoms: C5_5  and  C6_6 
REMARK    2  A    between atoms: C6_6  and  C8_8 
REMARK    3  A    between atoms: C11_11  and  C12_12 
REMARK    4  A    between atoms: C12_12  and  C13_13 
ROOT
ATOM      1  C8  <0> d   1      18.277  -0.474  12.016  0.00  0.00     0.086 A 
ATOM      2  C9  <0> d   1      17.126  -0.644  11.272  0.00  0.00     0.036 A 
ATOM      3  C10 <0> d   1      17.057   0.422  10.372  0.00  0.00     0.028 A 
ATOM      4  C11 <0> d   1      18.141   1.209  10.575  0.00  0.00     0.021 A 
ATOM      5  N16 <0> d   1      18.888   0.680  11.574  0.00  0.00    -0.351 N 
ATOM      6  C17 <0> d   1      20.141   1.235  12.093  0.00  0.00     0.156 C 
ENDROOT
BRANCH   1   7
ATOM      7  C6  <0> d   1      18.758  -1.353  13.083  0.00  0.00     0.208 C 
ATOM      8  O7  <0> d   1      19.283  -2.417  12.806  0.00  0.00    -0.285 OA
BRANCH   7   9
ATOM      9  C5  <0> d   1      18.607  -0.950  14.498  0.00  0.00     0.016 A 
ATOM     10  C4  <0> d   1      17.749   0.095  14.841  0.00  0.00     0.016 A 
ATOM     11  C3  <0> d   1      17.613   0.466  16.163  0.00  0.00     0.007 A 
ATOM     12  C2  <0> d   1      18.325  -0.196  17.148  0.00  0.00    -0.062 A 
ATOM     13  C1  <0> d   1      18.171   0.215  18.589  0.00  0.00     0.048 C 
ATOM     14  C19 <0> d   1      19.181  -1.229  16.813  0.00  0.00     0.007 A 
ATOM     15  C18 <0> d   1      19.323  -1.614  15.496  0.00  0.00     0.016 A 
ENDBRANCH   7   9
ENDBRANCH   1   7
BRANCH   4  16
ATOM     16  C12 <0> d   1      18.462   2.471   9.817  0.00  0.00     0.170 C 
BRANCH  16  17
ATOM     17  C13 <0> d   1      17.698   3.624  10.415  0.00  0.00     0.178 C 
ATOM     18  O14 <0> d   1      17.713   4.714   9.868  0.00  0.00    -0.648 OA
ATOM     19  O15 <0> d   1      17.065   3.469  11.445  0.00  0.00    -0.648 OA
ENDBRANCH  16  17
ENDBRANCH   4  16
TORSDOF 4
ENDMDL
MODEL 6
REMARK VINA RESULT:      -6.9      2.172      3.254
REMARK  4 active torsions:
REMARK  status: ('A' for Active; 'I' for Inactive)
REMARK    1  A    between atoms: C5_5  and  C6_6 
REMARK    2  A    between atoms: C6_6  and  C8_8 
REMARK    3  A    between atoms: C11_11  and  C12_12 
REMARK    4  A    between atoms: C12_12  and  C13_13 
ROOT
ATOM      1  C8  <0> d   1      19.597  -0.074  13.718  0.00  0.00     0.086 A 
ATOM      2  C9  <0> d   1      19.454  -1.354  14.216  0.00  0.00     0.036 A 
ATOM      3  C10 <0> d   1      18.838  -1.243  15.465  0.00  0.00     0.028 A 
ATOM      4  C11 <0> d   1      18.621   0.073  15.706  0.00  0.00     0.021 A 
ATOM      5  N16 <0> d   1      19.082   0.794  14.656  0.00  0.00    -0.351 N 
ATOM      6  C17 <0> d   1      19.033   2.254  14.532  0.00  0.00     0.156 C 
ENDROOT
BRANCH   1   7
ATOM      7  C6  <0> d   1      20.195   0.294  12.433  0.00  0.00     0.208 C 
ATOM      8  O7  <0> d   1      21.338   0.712  12.390  0.00  0.00    -0.285 OA
BRANCH   7   9
ATOM      9  C5  <0> d   1      19.410   0.157  11.186  0.00  0.00     0.016 A 
ATOM     10  C4  <0> d   1      18.034   0.391  11.196  0.00  0.00     0.016 A 
ATOM     11  C3  <0> d   1      17.308   0.262  10.029  0.00  0.00     0.007 A 
ATOM     12  C2  <0> d   1      17.942  -0.097   8.852  0.00  0.00    -0.062 A 
ATOM     13  C1  <0> d   1      17.142  -0.237   7.583  0.00  0.00     0.048 C 
ATOM     14  C19 <0> d   1      19.304  -0.336   8.839  0.00  0.00     0.007 A 
ATOM     15  C18 <0> d   1      20.043  -0.206   9.996  0.00  0.00     0.016 A 
ENDBRANCH   7   9
ENDBRANCH   1   7
BRANCH   4  16
ATOM     16  C12 <0> d   1      17.976   0.643  16.942  0.00  0.00     0.170 C 
BRANCH  16  17
ATOM     17  C13 <0> d   1      18.949   0.578  18.092  0.00  0.00     0.178 C 
ATOM     18  O14 <0> d   1      19.793   1.448  18.225  0.00  0.00    -0.648 OA
ATOM     19  O15 <0> d   1      18.893  -0.343  18.888  0.00  0.00    -0.648 OA
ENDBRANCH  16  17
ENDBRANCH   4  16
TORSDOF 4
ENDMDL
MODEL 7
REMARK VINA RESULT:      -6.8      3.262      4.598
REMARK  4 active torsions:
REMARK  status: ('A' for Active; 'I' for Inactive)
REMARK    1  A    between atoms: C5_5  and  C6_6 
REMARK    2  A    between atoms: C6_6  and  C8_8 
REMARK    3  A    between atoms: C11_11  and  C12_12 
REMARK    4  A    between atoms: C12_12  and  C13_13 
ROOT
ATOM      1  C8  <0> d   1      18.138   3.386  11.081  0.00  0.00     0.086 A 
ATOM      2  C9  <0> d   1      17.686   4.412  10.275  0.00  0.00     0.036 A 
ATOM      3  C10 <0> d   1      16.977   5.295  11.095  0.00  0.00     0.028 A 
ATOM      4  C11 <0> d   1      17.006   4.805  12.358  0.00  0.00     0.021 A 
ATOM      5  N16 <0> d   1      17.703   3.643  12.363  0.00  0.00    -0.351 N 
ATOM      6  C17 <0> d   1      17.960   2.804  13.536  0.00  0.00     0.156 C 
ENDROOT
BRANCH   1   7
ATOM      7  C6  <0> d   1      18.929   2.231  10.651  0.00  0.00     0.208 C 
ATOM      8  O7  <0> d   1      19.867   1.849  11.327  0.00  0.00    -0.285 OA
BRANCH   7   9
ATOM      9  C5  <0> d   1      18.588   1.527   9.395  0.00  0.00     0.016 A 
ATOM     10  C4  <0> d   1      19.250   1.848   8.210  0.00  0.00     0.016 A 
ATOM     11  C3  <0> d   1      18.927   1.188   7.043  0.00  0.00     0.007 A 
ATOM     12  C2  <0> d   1      17.950   0.208   7.046  0.00  0.00    -0.062 A 
ATOM     13  C1  <0> d   1      17.602  -0.508   5.767  0.00  0.00     0.048 C 
ATOM     14  C19 <0> d   1      17.286  -0.111   8.217  0.00  0.00     0.007 A 
ATOM     15  C18 <0> d   1      17.603   0.538   9.392  0.00  0.00     0.016 A 
ENDBRANCH   7   9
ENDBRANCH   1   7
BRANCH   4  16
ATOM     16  C12 <0> d   1      16.363   5.444  13.560  0.00  0.00     0.170 C 
BRANCH  16  17
ATOM     17  C13 <0> d   1      17.276   6.508  14.113  0.00  0.00     0.178 C 
ATOM     18  O14 <0> d   1      16.919   7.674  14.119  0.00  0.00    -0.648 OA
ATOM     19  O15 <0> d   1      18.372   6.204  14.552  0.00  0.00    -0.648 OA
ENDBRANCH  16  17
ENDBRANCH   4  16
TORSDOF 4
ENDMDL
MODEL 8
REMARK VINA RESULT:      -6.8      2.102      2.542
REMARK  4 active torsions:
REMARK  status: ('A' for Active; 'I' for Inactive)
REMARK    1  A    between atoms: C5_5  and  C6_6 
REMARK    2  A    between atoms: C6_6  and  C8_8 
REMARK    3  A    between atoms: C11_11  and  C12_12 
REMARK    4  A    between atoms: C12_12  and  C13_13 
ROOT
ATOM      1  C8  <0> d   1      18.174   0.667  10.765  0.00  0.00     0.086 A 
ATOM      2  C9  <0> d   1      17.067   0.575  11.586  0.00  0.00     0.036 A 
ATOM      3  C10 <0> d   1      17.335  -0.425  12.525  0.00  0.00     0.028 A 
ATOM      4  C11 <0> d   1      18.571  -0.917  12.268  0.00  0.00     0.021 A 
ATOM      5  N16 <0> d   1      19.090  -0.267  11.199  0.00  0.00    -0.351 N 
ATOM      6  C17 <0> d   1      20.408  -0.509  10.607  0.00  0.00     0.156 C 
ENDROOT
BRANCH   1   7
ATOM      7  C6  <0> d   1      18.342   1.583   9.635  0.00  0.00     0.208 C 
ATOM      8  O7  <0> d   1      18.477   2.777   9.834  0.00  0.00    -0.285 OA
BRANCH   7   9
ATOM      9  C5  <0> d   1      18.348   1.059   8.252  0.00  0.00     0.016 A 
ATOM     10  C4  <0> d   1      19.241   1.574   7.312  0.00  0.00     0.016 A 
ATOM     11  C3  <0> d   1      19.241   1.080   6.023  0.00  0.00     0.007 A 
ATOM     12  C2  <0> d   1      18.359   0.076   5.663  0.00  0.00    -0.062 A 
ATOM     13  C1  <0> d   1      18.365  -0.457   4.254  0.00  0.00     0.048 C 
ATOM     14  C19 <0> d   1      17.468  -0.434   6.589  0.00  0.00     0.007 A 
ATOM     15  C18 <0> d   1      17.460   0.047   7.882  0.00  0.00     0.016 A 
ENDBRANCH   7   9
ENDBRANCH   1   7
BRANCH   4  16
ATOM     16  C12 <0> d   1      19.256  -2.013  13.043  0.00  0.00     0.170 C 
BRANCH  16  17
ATOM     17  C13 <0> d   1      19.219  -3.291  12.244  0.00  0.00     0.178 C 
ATOM     18  O14 <0> d   1      20.258  -3.792  11.849  0.00  0.00    -0.648 OA
ATOM     19  O15 <0> d   1      18.152  -3.823  11.993  0.00  0.00    -0.648 OA
ENDBRANCH  16  17
ENDBRANCH   4  16
TORSDOF 4
ENDMDL
MODEL 9
REMARK VINA RESULT:      -6.7      2.303      7.175
REMARK  4 active torsions:
REMARK  status: ('A' for Active; 'I' for Inactive)
REMARK    1  A    between atoms: C5_5  and  C6_6 
REMARK    2  A    between atoms: C6_6  and  C8_8 
REMARK    3  A    between atoms: C11_11  and  C12_12 
REMARK    4  A    between atoms: C12_12  and  C13_13 
ROOT
ATOM      1  C8  <0> d   1      18.316  -0.352  12.049  0.00  0.00     0.086 A 
ATOM      2  C9  <0> d   1      17.087   0.151  11.670  0.00  0.00     0.036 A 
ATOM      3  C10 <0> d   1      17.300   0.951  10.544  0.00  0.00     0.028 A 
ATOM      4  C11 <0> d   1      18.625   0.926  10.261  0.00  0.00     0.021 A 
ATOM      5  N16 <0> d   1      19.255   0.143  11.171  0.00  0.00    -0.351 N 
ATOM      6  C17 <0> d   1      20.692  -0.139  11.208  0.00  0.00     0.156 C 
ENDROOT
BRANCH   1   7
ATOM      7  C6  <0> d   1      18.575  -1.242  13.182  0.00  0.00     0.208 C 
ATOM      8  O7  <0> d   1      18.735  -2.434  12.996  0.00  0.00    -0.285 OA
BRANCH   7   9
ATOM      9  C5  <0> d   1      18.645  -0.692  14.554  0.00  0.00     0.016 A 
ATOM     10  C4  <0> d   1      18.497  -1.536  15.655  0.00  0.00     0.016 A 
ATOM     11  C3  <0> d   1      18.564  -1.016  16.932  0.00  0.00     0.007 A 
ATOM     12  C2  <0> d   1      18.778   0.338  17.121  0.00  0.00    -0.062 A 
ATOM     13  C1  <0> d   1      18.848   0.898  18.518  0.00  0.00     0.048 C 
ATOM     14  C19 <0> d   1      18.919   1.180  16.033  0.00  0.00     0.007 A 
ATOM     15  C18 <0> d   1      18.860   0.673  14.752  0.00  0.00     0.016 A 
ENDBRANCH   7   9
ENDBRANCH   1   7
BRANCH   4  16
ATOM     16  C12 <0> d   1      19.292   1.655   9.124  0.00  0.00     0.170 C 
BRANCH  16  17
ATOM     17  C13 <0> d   1      19.180   0.832   7.866  0.00  0.00     0.178 C 
ATOM     18  O14 <0> d   1      19.250  -0.384   7.925  0.00  0.00    -0.648 OA
ATOM     19  O15 <0> d   1      19.019   1.381   6.789  0.00  0.00    -0.648 OA
ENDBRANCH  16  17
ENDBRANCH   4  16
TORSDOF 4
ENDMDL
