MODEL 1
REMARK VINA RESULT:      -7.8      0.000      0.000
REMARK  4 active torsions:
REMARK  status: ('A' for Active; 'I' for Inactive)
REMARK    1  A    between atoms: C2_2  and  C3_3 
REMARK    2  A    between atoms: C3_3  and  N4_4 
REMARK    3  A    between atoms: C12_12  and  O13_13 
REMARK    4  A    between atoms: C22_21  and  O23_22 
ROOT
ATOM      1  N4  ZIN A   1      18.639  -1.262   8.900  0.00  0.00     0.099 N 
ATOM      2  C5  ZIN A   1      19.866  -0.459   8.947  0.00  0.00     0.275 C 
ATOM      3  C6  ZIN A   1      20.528  -0.597  10.324  0.00  0.00     0.051 C 
ATOM      4  C7  ZIN A   1      19.520  -0.168  11.388  0.00  0.00     0.058 C 
ATOM      5  C8  ZIN A   1      19.058   1.241  11.113  0.00  0.00    -0.001 A 
ATOM      6  C9  ZIN A   1      18.013   1.621  10.302  0.00  0.00    -0.046 A 
ATOM      7  C10 ZIN A   1      17.794   2.984  10.199  0.00  0.00     0.011 A 
ATOM      8  C11 ZIN A   1      18.563   3.873  10.933  0.00  0.00     0.040 A 
ATOM      9  C12 ZIN A   1      19.565   3.469  11.812  0.00  0.00     0.099 A 
ATOM     10  C14 ZIN A   1      19.803   2.094  11.917  0.00  0.00     0.110 A 
ATOM     11  O15 ZIN A   1      20.631   1.382  12.711  0.00  0.00    -0.334 OA
ATOM     12  C16 ZIN A   1      20.172  -0.002  12.754  0.00  0.00     0.214 C 
ATOM     13  C18 ZIN A   1      19.194  -0.113  13.886  0.00  0.00     0.157 C 
ATOM     14  O19 ZIN A   1      19.459   0.432  14.931  0.00  0.00    -0.295 OA
ATOM     15  C20 ZIN A   1      17.902  -0.867  13.781  0.00  0.00     0.084 C 
ATOM     16  C21 ZIN A   1      17.263  -0.618  12.413  0.00  0.00     0.049 C 
ATOM     17  C22 ZIN A   1      18.275  -1.036  11.307  0.00  0.00     0.104 C 
ATOM     18  C24 ZIN A   1      17.666  -0.843   9.915  0.00  0.00     0.262 C 
ATOM     19  C26 ZIN A   1      17.184   0.571   9.637  0.00  0.00     0.078 C 
ENDROOT
BRANCH   1  20
ATOM     20  C3  ZIN A   1      18.044  -1.235   7.557  0.00  0.00     0.299 C 
BRANCH  20  21
ATOM     21  C2  ZIN A   1      18.840  -0.308   6.673  0.00  0.00    -0.007 C 
ATOM     22  C1  ZIN A   1      18.222   0.521   5.869  0.00  0.00     0.008 C 
ENDBRANCH  20  21
ENDBRANCH   1  20
BRANCH  17  23
ATOM     23  O23 ZIN A   1      18.636  -2.407  11.483  0.00  0.00    -0.386 OA
ATOM     24  H43 ZIN A   1      18.955  -2.618  12.372  0.00  0.00     0.210 HD
ENDBRANCH  17  23
BRANCH   9  25
ATOM     25  O13 ZIN A   1      20.279   4.370  12.537  0.00  0.00    -0.358 OA
ATOM     26  H38 ZIN A   1      20.551   5.151  12.036  0.00  0.00     0.217 HD
ENDBRANCH   9  25
TORSDOF 4
ENDMDL
MODEL 2
REMARK VINA RESULT:      -7.7      2.277      5.565
REMARK  4 active torsions:
REMARK  status: ('A' for Active; 'I' for Inactive)
REMARK    1  A    between atoms: C2_2  and  C3_3 
REMARK    2  A    between atoms: C3_3  and  N4_4 
REMARK    3  A    between atoms: C12_12  and  O13_13 
REMARK    4  A    between atoms: C22_21  and  O23_22 
ROOT
ATOM      1  N4  ZIN A   1      19.110   1.058  14.119  0.00  0.00     0.099 N 
ATOM      2  C5  ZIN A   1      20.132   0.103  13.672  0.00  0.00     0.275 C 
ATOM      3  C6  ZIN A   1      20.771   0.597  12.368  0.00  0.00     0.051 C 
ATOM      4  C7  ZIN A   1      19.667   0.783  11.330  0.00  0.00     0.058 C 
ATOM      5  C8  ZIN A   1      18.917  -0.512  11.146  0.00  0.00    -0.001 A 
ATOM      6  C9  ZIN A   1      17.836  -0.949  11.878  0.00  0.00    -0.046 A 
ATOM      7  C10 ZIN A   1      17.328  -2.187  11.525  0.00  0.00     0.011 A 
ATOM      8  C11 ZIN A   1      17.867  -2.883  10.454  0.00  0.00     0.040 A 
ATOM      9  C12 ZIN A   1      18.909  -2.392   9.672  0.00  0.00     0.099 A 
ATOM     10  C14 ZIN A   1      19.438  -1.145  10.025  0.00  0.00     0.110 A 
ATOM     11  O15 ZIN A   1      20.380  -0.371   9.446  0.00  0.00    -0.334 OA
ATOM     12  C16 ZIN A   1      20.231   0.997   9.932  0.00  0.00     0.214 C 
ATOM     13  C18 ZIN A   1      19.271   1.695   9.015  0.00  0.00     0.157 C 
ATOM     14  O19 ZIN A   1      19.385   1.522   7.824  0.00  0.00    -0.295 OA
ATOM     15  C20 ZIN A   1      18.178   2.596   9.504  0.00  0.00     0.084 C 
ATOM     16  C21 ZIN A   1      17.536   2.000  10.760  0.00  0.00     0.049 C 
ATOM     17  C22 ZIN A   1      18.643   1.788  11.833  0.00  0.00     0.104 C 
ATOM     18  C24 ZIN A   1      18.043   1.229  13.126  0.00  0.00     0.262 C 
ATOM     19  C26 ZIN A   1      17.273  -0.068  12.946  0.00  0.00     0.078 C 
ENDROOT
BRANCH   1  20
ATOM     20  C3  ZIN A   1      18.559   0.665  15.423  0.00  0.00     0.299 C 
BRANCH  20  21
ATOM     21  C2  ZIN A   1      19.016  -0.730  15.763  0.00  0.00    -0.007 C 
ATOM     22  C1  ZIN A   1      18.183  -1.578  16.313  0.00  0.00     0.008 C 
ENDBRANCH  20  21
ENDBRANCH   1  20
BRANCH  17  23
ATOM     23  O23 ZIN A   1      19.289   3.033  12.106  0.00  0.00    -0.386 OA
ATOM     24  H43 ZIN A   1      18.804   3.806  11.785  0.00  0.00     0.210 HD
ENDBRANCH  17  23
BRANCH   9  25
ATOM     25  O13 ZIN A   1      19.392  -3.092   8.611  0.00  0.00    -0.358 OA
ATOM     26  H38 ZIN A   1      18.990  -3.965   8.499  0.00  0.00     0.217 HD
ENDBRANCH   9  25
TORSDOF 4
ENDMDL
MODEL 3
REMARK VINA RESULT:      -7.5      2.489      4.548
REMARK  4 active torsions:
REMARK  status: ('A' for Active; 'I' for Inactive)
REMARK    1  A    between atoms: C2_2  and  C3_3 
REMARK    2  A    between atoms: C3_3  and  N4_4 
REMARK    3  A    between atoms: C12_12  and  O13_13 
REMARK    4  A    between atoms: C22_21  and  O23_22 
ROOT
ATOM      1  N4  ZIN A   1      18.242  -2.017  10.879  0.00  0.00     0.099 N 
ATOM      2  C5  ZIN A   1      17.046  -1.714  11.673  0.00  0.00     0.275 C 
ATOM      3  C6  ZIN A   1      16.819  -0.197  11.716  0.00  0.00     0.051 C 
ATOM      4  C7  ZIN A   1      18.072   0.462  12.290  0.00  0.00     0.058 C 
ATOM      5  C8  ZIN A   1      18.370  -0.112  13.652  0.00  0.00    -0.001 A 
ATOM      6  C9  ZIN A   1      19.117  -1.235  13.927  0.00  0.00    -0.046 A 
ATOM      7  C10 ZIN A   1      19.235  -1.568  15.265  0.00  0.00     0.011 A 
ATOM      8  C11 ZIN A   1      18.672  -0.759  16.239  0.00  0.00     0.040 A 
ATOM      9  C12 ZIN A   1      17.988   0.420  15.950  0.00  0.00     0.099 A 
ATOM     10  C14 ZIN A   1      17.853   0.762  14.599  0.00  0.00     0.110 A 
ATOM     11  O15 ZIN A   1      17.324   1.847  13.995  0.00  0.00    -0.334 OA
ATOM     12  C16 ZIN A   1      17.838   1.927  12.632  0.00  0.00     0.214 C 
ATOM     13  C18 ZIN A   1      19.106   2.726  12.679  0.00  0.00     0.157 C 
ATOM     14  O19 ZIN A   1      19.130   3.726  13.357  0.00  0.00    -0.295 OA
ATOM     15  C20 ZIN A   1      20.344   2.343  11.926  0.00  0.00     0.084 C 
ATOM     16  C21 ZIN A   1      20.547   0.827  11.994  0.00  0.00     0.049 C 
ATOM     17  C22 ZIN A   1      19.278   0.129  11.426  0.00  0.00     0.104 C 
ATOM     18  C24 ZIN A   1      19.448  -1.393  11.435  0.00  0.00     0.262 C 
ATOM     19  C26 ZIN A   1      19.764  -1.976  12.803  0.00  0.00     0.078 C 
ENDROOT
BRANCH   1  20
ATOM     20  C3  ZIN A   1      18.420  -3.468  10.730  0.00  0.00     0.299 C 
BRANCH  20  21
ATOM     21  C2  ZIN A   1      17.285  -4.186  11.413  0.00  0.00    -0.007 C 
ATOM     22  C1  ZIN A   1      17.484  -5.363  11.954  0.00  0.00     0.008 C 
ENDBRANCH  20  21
ENDBRANCH   1  20
BRANCH  17  23
ATOM     23  O23 ZIN A   1      19.045   0.574  10.088  0.00  0.00    -0.386 OA
ATOM     24  H43 ZIN A   1      19.851   0.676   9.562  0.00  0.00     0.210 HD
ENDBRANCH  17  23
BRANCH   9  25
ATOM     25  O13 ZIN A   1      17.475   1.203  16.935  0.00  0.00    -0.358 OA
ATOM     26  H38 ZIN A   1      16.550   1.012  17.148  0.00  0.00     0.217 HD
ENDBRANCH   9  25
TORSDOF 4
ENDMDL
MODEL 4
REMARK VINA RESULT:      -7.3      2.115      4.797
REMARK  4 active torsions:
REMARK  status: ('A' for Active; 'I' for Inactive)
REMARK    1  A    between atoms: C2_2  and  C3_3 
REMARK    2  A    between atoms: C3_3  and  N4_4 
REMARK    3  A    between atoms: C12_12  and  O13_13 
REMARK    4  A    between atoms: C22_21  and  O23_22 
ROOT
ATOM      1  N4  ZIN A   1      18.216   2.185  12.001  0.00  0.00     0.099 N 
ATOM      2  C5  ZIN A   1      17.018   1.822  11.234  0.00  0.00     0.275 C 
ATOM      3  C6  ZIN A   1      16.833   0.300  11.245  0.00  0.00     0.051 C 
ATOM      4  C7  ZIN A   1      18.096  -0.344  10.675  0.00  0.00     0.058 C 
ATOM      5  C8  ZIN A   1      18.358   0.192   9.290  0.00  0.00    -0.001 A 
ATOM      6  C9  ZIN A   1      19.069   1.325   8.967  0.00  0.00    -0.046 A 
ATOM      7  C10 ZIN A   1      19.160   1.617   7.617  0.00  0.00     0.011 A 
ATOM      8  C11 ZIN A   1      18.607   0.760   6.679  0.00  0.00     0.040 A 
ATOM      9  C12 ZIN A   1      17.960  -0.427   7.018  0.00  0.00     0.099 A 
ATOM     10  C14 ZIN A   1      17.853  -0.727   8.380  0.00  0.00     0.110 A 
ATOM     11  O15 ZIN A   1      17.363  -1.805   9.028  0.00  0.00    -0.334 OA
ATOM     12  C16 ZIN A   1      17.898  -1.825  10.385  0.00  0.00     0.214 C 
ATOM     13  C18 ZIN A   1      19.187  -2.590  10.346  0.00  0.00     0.157 C 
ATOM     14  O19 ZIN A   1      19.231  -3.611   9.702  0.00  0.00    -0.295 OA
ATOM     15  C20 ZIN A   1      20.425  -2.148  11.068  0.00  0.00     0.084 C 
ATOM     16  C21 ZIN A   1      20.584  -0.630  10.946  0.00  0.00     0.049 C 
ATOM     17  C22 ZIN A   1      19.304   0.052  11.510  0.00  0.00     0.104 C 
ATOM     18  C24 ZIN A   1      19.431   1.576  11.447  0.00  0.00     0.262 C 
ATOM     19  C26 ZIN A   1      19.711   2.121  10.057  0.00  0.00     0.078 C 
ENDROOT
BRANCH   1  20
ATOM     20  C3  ZIN A   1      18.355   3.645  12.098  0.00  0.00     0.299 C 
BRANCH  20  21
ATOM     21  C2  ZIN A   1      17.211   4.308  11.374  0.00  0.00    -0.007 C 
ATOM     22  C1  ZIN A   1      17.452   5.152  10.402  0.00  0.00     0.008 C 
ENDBRANCH  20  21
ENDBRANCH   1  20
BRANCH  17  23
ATOM     23  O23 ZIN A   1      19.102  -0.355  12.865  0.00  0.00    -0.386 OA
ATOM     24  H43 ZIN A   1      18.251  -0.786  13.023  0.00  0.00     0.210 HD
ENDBRANCH  17  23
BRANCH   9  25
ATOM     25  O13 ZIN A   1      17.455  -1.257   6.067  0.00  0.00    -0.358 OA
ATOM     26  H38 ZIN A   1      16.516  -1.118   5.881  0.00  0.00     0.217 HD
ENDBRANCH   9  25
TORSDOF 4
ENDMDL
MODEL 5
REMARK VINA RESULT:      -7.0      2.582      4.343
REMARK  4 active torsions:
REMARK  status: ('A' for Active; 'I' for Inactive)
REMARK    1  A    between atoms: C2_2  and  C3_3 
REMARK    2  A    between atoms: C3_3  and  N4_4 
REMARK    3  A    between atoms: C12_12  and  O13_13 
REMARK    4  A    between atoms: C22_21  and  O23_22 
ROOT
ATOM      1  N4  ZIN A   1      19.244   2.288  11.187  0.00  0.00     0.099 N 
ATOM      2  C5  ZIN A   1      20.288   1.891  12.139  0.00  0.00     0.275 C 
ATOM      3  C6  ZIN A   1      20.650   0.415  11.930  0.00  0.00     0.051 C 
ATOM      4  C7  ZIN A   1      19.380  -0.420  12.090  0.00  0.00     0.058 C 
ATOM      5  C8  ZIN A   1      18.772  -0.164  13.446  0.00  0.00    -0.001 A 
ATOM      6  C9  ZIN A   1      17.880   0.832  13.773  0.00  0.00    -0.046 A 
ATOM      7  C10 ZIN A   1      17.474   0.867  15.096  0.00  0.00     0.011 A 
ATOM      8  C11 ZIN A   1      17.915  -0.097  15.988  0.00  0.00     0.040 A 
ATOM      9  C12 ZIN A   1      18.754  -1.147  15.623  0.00  0.00     0.099 A 
ATOM     10  C14 ZIN A   1      19.180  -1.188  14.290  0.00  0.00     0.110 A 
ATOM     11  O15 ZIN A   1      19.919  -2.089  13.610  0.00  0.00    -0.334 OA
ATOM     12  C16 ZIN A   1      19.687  -1.908  12.180  0.00  0.00     0.214 C 
ATOM     13  C18 ZIN A   1      18.517  -2.769  11.805  0.00  0.00     0.157 C 
ATOM     14  O19 ZIN A   1      18.461  -3.890  12.254  0.00  0.00    -0.295 OA
ATOM     15  C20 ZIN A   1      17.416  -2.306  10.900  0.00  0.00     0.084 C 
ATOM     16  C21 ZIN A   1      17.056  -0.852  11.219  0.00  0.00     0.049 C 
ATOM     17  C22 ZIN A   1      18.337   0.021  11.076  0.00  0.00     0.104 C 
ATOM     18  C24 ZIN A   1      18.020   1.494  11.347  0.00  0.00     0.262 C 
ATOM     19  C26 ZIN A   1      17.392   1.756  12.706  0.00  0.00     0.078 C 
ENDROOT
BRANCH   1  20
ATOM     20  C3  ZIN A   1      18.957   3.726  11.291  0.00  0.00     0.299 C 
BRANCH  20  21
ATOM     21  C2  ZIN A   1      17.957   4.116  10.233  0.00  0.00    -0.007 C 
ATOM     22  C1  ZIN A   1      17.022   4.993  10.507  0.00  0.00     0.008 C 
ENDBRANCH  20  21
ENDBRANCH   1  20
BRANCH  17  23
ATOM     23  O23 ZIN A   1      18.865  -0.118   9.756  0.00  0.00    -0.386 OA
ATOM     24  H43 ZIN A   1      18.465   0.478   9.107  0.00  0.00     0.210 HD
ENDBRANCH  17  23
BRANCH   9  25
ATOM     25  O13 ZIN A   1      19.143  -2.091  16.521  0.00  0.00    -0.358 OA
ATOM     26  H38 ZIN A   1      18.513  -2.231  17.242  0.00  0.00     0.217 HD
ENDBRANCH   9  25
TORSDOF 4
ENDMDL
MODEL 6
REMARK VINA RESULT:      -7.0      2.518      6.005
REMARK  4 active torsions:
REMARK  status: ('A' for Active; 'I' for Inactive)
REMARK    1  A    between atoms: C2_2  and  C3_3 
REMARK    2  A    between atoms: C3_3  and  N4_4 
REMARK    3  A    between atoms: C12_12  and  O13_13 
REMARK    4  A    between atoms: C22_21  and  O23_22 
ROOT
ATOM      1  N4  ZIN A   1      19.221   0.366  12.086  0.00  0.00     0.099 N 
ATOM      2  C5  ZIN A   1      20.211  -0.684  11.820  0.00  0.00     0.275 C 
ATOM      3  C6  ZIN A   1      20.530  -0.733  10.320  0.00  0.00     0.051 C 
ATOM      4  C7  ZIN A   1      19.227  -0.966   9.557  0.00  0.00     0.058 C 
ATOM      5  C8  ZIN A   1      18.573  -2.233  10.046  0.00  0.00    -0.001 A 
ATOM      6  C9  ZIN A   1      17.703  -2.355  11.105  0.00  0.00    -0.046 A 
ATOM      7  C10 ZIN A   1      17.244  -3.635  11.366  0.00  0.00     0.011 A 
ATOM      8  C11 ZIN A   1      17.615  -4.690  10.548  0.00  0.00     0.040 A 
ATOM      9  C12 ZIN A   1      18.432  -4.537   9.430  0.00  0.00     0.099 A 
ATOM     10  C14 ZIN A   1      18.910  -3.250   9.162  0.00  0.00     0.110 A 
ATOM     11  O15 ZIN A   1      19.645  -2.757   8.142  0.00  0.00    -0.334 OA
ATOM     12  C16 ZIN A   1      19.479  -1.308   8.096  0.00  0.00     0.214 C 
ATOM     13  C18 ZIN A   1      18.297  -1.023   7.217  0.00  0.00     0.157 C 
ATOM     14  O19 ZIN A   1      18.184  -1.643   6.186  0.00  0.00    -0.295 OA
ATOM     15  C20 ZIN A   1      17.250  -0.005   7.558  0.00  0.00     0.084 C 
ATOM     16  C21 ZIN A   1      16.928  -0.070   9.053  0.00  0.00     0.049 C 
ATOM     17  C22 ZIN A   1      18.242   0.153   9.856  0.00  0.00     0.104 C 
ATOM     18  C24 ZIN A   1      17.965   0.137  11.362  0.00  0.00     0.262 C 
ATOM     19  C26 ZIN A   1      17.291  -1.132  11.857  0.00  0.00     0.078 C 
ENDROOT
BRANCH   1  20
ATOM     20  C3  ZIN A   1      18.979   0.507  13.528  0.00  0.00     0.299 C 
BRANCH  20  21
ATOM     21  C2  ZIN A   1      19.609  -0.651  14.259  0.00  0.00    -0.007 C 
ATOM     22  C1  ZIN A   1      18.964  -1.238  15.237  0.00  0.00     0.008 C 
ENDBRANCH  20  21
ENDBRANCH   1  20
BRANCH  17  23
ATOM     23  O23 ZIN A   1      18.819   1.408   9.490  0.00  0.00    -0.386 OA
ATOM     24  H43 ZIN A   1      18.193   2.024   9.085  0.00  0.00     0.210 HD
ENDBRANCH  17  23
BRANCH   9  25
ATOM     25  O13 ZIN A   1      18.751  -5.592   8.634  0.00  0.00    -0.358 OA
ATOM     26  H38 ZIN A   1      18.030  -6.226   8.512  0.00  0.00     0.217 HD
ENDBRANCH   9  25
TORSDOF 4
ENDMDL
MODEL 7
REMARK VINA RESULT:      -7.0      2.443      3.480
REMARK  4 active torsions:
REMARK  status: ('A' for Active; 'I' for Inactive)
REMARK    1  A    between atoms: C2_2  and  C3_3 
REMARK    2  A    between atoms: C3_3  and  N4_4 
REMARK    3  A    between atoms: C12_12  and  O13_13 
REMARK    4  A    between atoms: C22_21  and  O23_22 
ROOT
ATOM      1  N4  ZIN A   1      19.275  -0.017   7.809  0.00  0.00     0.099 N 
ATOM      2  C5  ZIN A   1      19.984   0.443   9.009  0.00  0.00     0.275 C 
ATOM      3  C6  ZIN A   1      20.586  -0.757   9.751  0.00  0.00     0.051 C 
ATOM      4  C7  ZIN A   1      19.459  -1.731  10.088  0.00  0.00     0.058 C 
ATOM      5  C8  ZIN A   1      18.403  -1.025  10.901  0.00  0.00    -0.001 A 
ATOM      6  C9  ZIN A   1      17.330  -0.313  10.417  0.00  0.00    -0.046 A 
ATOM      7  C10 ZIN A   1      16.504   0.257  11.370  0.00  0.00     0.011 A 
ATOM      8  C11 ZIN A   1      16.745   0.047  12.718  0.00  0.00     0.040 A 
ATOM      9  C12 ZIN A   1      17.789  -0.743  13.193  0.00  0.00     0.099 A 
ATOM     10  C14 ZIN A   1      18.637  -1.317  12.239  0.00  0.00     0.110 A 
ATOM     11  O15 ZIN A   1      19.674  -2.174  12.356  0.00  0.00    -0.334 OA
ATOM     12  C16 ZIN A   1      19.911  -2.809  11.063  0.00  0.00     0.214 C 
ATOM     13  C18 ZIN A   1      19.060  -4.042  11.009  0.00  0.00     0.157 C 
ATOM     14  O19 ZIN A   1      19.005  -4.747  11.988  0.00  0.00    -0.295 OA
ATOM     15  C20 ZIN A   1      18.273  -4.441   9.797  0.00  0.00     0.084 C 
ATOM     16  C21 ZIN A   1      17.638  -3.204   9.157  0.00  0.00     0.049 C 
ATOM     17  C22 ZIN A   1      18.765  -2.187   8.813  0.00  0.00     0.104 C 
ATOM     18  C24 ZIN A   1      18.184  -0.944   8.133  0.00  0.00     0.262 C 
ATOM     19  C26 ZIN A   1      17.109  -0.237   8.941  0.00  0.00     0.078 C 
ENDROOT
BRANCH   1  20
ATOM     20  C3  ZIN A   1      18.782   1.122   7.022  0.00  0.00     0.299 C 
BRANCH  20  21
ATOM     21  C2  ZIN A   1      18.411   0.653   5.638  0.00  0.00    -0.007 C 
ATOM     22  C1  ZIN A   1      19.312   0.087   4.874  0.00  0.00     0.008 C 
ENDBRANCH  20  21
ENDBRANCH   1  20
BRANCH  17  23
ATOM     23  O23 ZIN A   1      19.718  -2.804   7.946  0.00  0.00    -0.386 OA
ATOM     24  H43 ZIN A   1      20.238  -3.503   8.367  0.00  0.00     0.210 HD
ENDBRANCH  17  23
BRANCH   9  25
ATOM     25  O13 ZIN A   1      17.976  -0.949  14.523  0.00  0.00    -0.358 OA
ATOM     26  H38 ZIN A   1      18.601  -0.335  14.933  0.00  0.00     0.217 HD
ENDBRANCH   9  25
TORSDOF 4
ENDMDL
MODEL 8
REMARK VINA RESULT:      -6.8      2.306      5.282
REMARK  4 active torsions:
REMARK  status: ('A' for Active; 'I' for Inactive)
REMARK    1  A    between atoms: C2_2  and  C3_3 
REMARK    2  A    between atoms: C3_3  and  N4_4 
REMARK    3  A    between atoms: C12_12  and  O13_13 
REMARK    4  A    between atoms: C22_21  and  O23_22 
ROOT
ATOM      1  N4  ZIN A   1      18.317   2.881  12.370  0.00  0.00     0.099 N 
ATOM      2  C5  ZIN A   1      19.651   2.316  12.600  0.00  0.00     0.275 C 
ATOM      3  C6  ZIN A   1      20.281   1.906  11.263  0.00  0.00     0.051 C 
ATOM      4  C7  ZIN A   1      19.348   0.912  10.574  0.00  0.00     0.058 C 
ATOM      5  C8  ZIN A   1      19.106  -0.269  11.480  0.00  0.00    -0.001 A 
ATOM      6  C9  ZIN A   1      18.132  -0.379  12.446  0.00  0.00    -0.046 A 
ATOM      7  C10 ZIN A   1      18.121  -1.565  13.160  0.00  0.00     0.011 A 
ATOM      8  C11 ZIN A   1      19.015  -2.577  12.846  0.00  0.00     0.040 A 
ATOM      9  C12 ZIN A   1      19.942  -2.482  11.811  0.00  0.00     0.099 A 
ATOM     10  C14 ZIN A   1      19.969  -1.283  11.089  0.00  0.00     0.110 A 
ATOM     11  O15 ZIN A   1      20.678  -0.903  10.005  0.00  0.00    -0.334 OA
ATOM     12  C16 ZIN A   1      20.014   0.238   9.383  0.00  0.00     0.214 C 
ATOM     13  C18 ZIN A   1      19.028  -0.305   8.392  0.00  0.00     0.157 C 
ATOM     14  O19 ZIN A   1      19.371  -1.221   7.683  0.00  0.00    -0.295 OA
ATOM     15  C20 ZIN A   1      17.638   0.234   8.240  0.00  0.00     0.084 C 
ATOM     16  C21 ZIN A   1      17.046   0.545   9.617  0.00  0.00     0.049 C 
ATOM     17  C22 ZIN A   1      17.986   1.549  10.348  0.00  0.00     0.104 C 
ATOM     18  C24 ZIN A   1      17.416   1.924  11.718  0.00  0.00     0.262 C 
ATOM     19  C26 ZIN A   1      17.155   0.736  12.630  0.00  0.00     0.078 C 
ENDROOT
BRANCH   1  20
ATOM     20  C3  ZIN A   1      17.735   3.383  13.623  0.00  0.00     0.299 C 
BRANCH  20  21
ATOM     21  C2  ZIN A   1      17.486   4.864  13.504  0.00  0.00    -0.007 C 
ATOM     22  C1  ZIN A   1      16.646   5.318  12.606  0.00  0.00     0.008 C 
ENDBRANCH  20  21
ENDBRANCH   1  20
BRANCH  17  23
ATOM     23  O23 ZIN A   1      18.135   2.728   9.554  0.00  0.00    -0.386 OA
ATOM     24  H43 ZIN A   1      17.333   2.985   9.079  0.00  0.00     0.210 HD
ENDBRANCH  17  23
BRANCH   9  25
ATOM     25  O13 ZIN A   1      20.783  -3.508  11.515  0.00  0.00    -0.358 OA
ATOM     26  H38 ZIN A   1      21.700  -3.356  11.784  0.00  0.00     0.217 HD
ENDBRANCH   9  25
TORSDOF 4
ENDMDL
MODEL 9
REMARK VINA RESULT:      -6.7      2.353      4.261
REMARK  4 active torsions:
REMARK  status: ('A' for Active; 'I' for Inactive)
REMARK    1  A    between atoms: C2_2  and  C3_3 
REMARK    2  A    between atoms: C3_3  and  N4_4 
REMARK    3  A    between atoms: C12_12  and  O13_13 
REMARK    4  A    between atoms: C22_21  and  O23_22 
ROOT
ATOM      1  N4  ZIN A   1      18.474  -2.709  10.685  0.00  0.00     0.099 N 
ATOM      2  C5  ZIN A   1      17.381  -2.183  11.511  0.00  0.00     0.275 C 
ATOM      3  C6  ZIN A   1      16.795  -0.924  10.860  0.00  0.00     0.051 C 
ATOM      4  C7  ZIN A   1      17.919   0.094  10.679  0.00  0.00     0.058 C 
ATOM      5  C8  ZIN A   1      18.560   0.384  12.013  0.00  0.00    -0.001 A 
ATOM      6  C9  ZIN A   1      19.596  -0.309  12.597  0.00  0.00    -0.046 A 
ATOM      7  C10 ZIN A   1      20.002   0.145  13.839  0.00  0.00     0.011 A 
ATOM      8  C11 ZIN A   1      19.417   1.271  14.397  0.00  0.00     0.040 A 
ATOM      9  C12 ZIN A   1      18.425   2.011  13.757  0.00  0.00     0.099 A 
ATOM     10  C14 ZIN A   1      17.998   1.555  12.505  0.00  0.00     0.110 A 
ATOM     11  O15 ZIN A   1      17.128   2.068  11.610  0.00  0.00    -0.334 OA
ATOM     12  C16 ZIN A   1      17.385   1.469  10.304  0.00  0.00     0.214 C 
ATOM     13  C18 ZIN A   1      18.406   2.325   9.614  0.00  0.00     0.157 C 
ATOM     14  O19 ZIN A   1      18.288   3.525   9.677  0.00  0.00    -0.295 OA
ATOM     15  C20 ZIN A   1      19.566   1.760   8.851  0.00  0.00     0.084 C 
ATOM     16  C21 ZIN A   1      20.147   0.558   9.600  0.00  0.00     0.049 C 
ATOM     17  C22 ZIN A   1      19.018  -0.493   9.808  0.00  0.00     0.104 C 
ATOM     18  C24 ZIN A   1      19.560  -1.735  10.520  0.00  0.00     0.262 C 
ATOM     19  C26 ZIN A   1      20.221  -1.447  11.858  0.00  0.00     0.078 C 
ENDROOT
BRANCH   1  20
ATOM     20  C3  ZIN A   1      18.981  -3.976  11.229  0.00  0.00     0.299 C 
BRANCH  20  21
ATOM     21  C2  ZIN A   1      17.824  -4.820  11.698  0.00  0.00    -0.007 C 
ATOM     22  C1  ZIN A   1      17.365  -5.784  10.938  0.00  0.00     0.008 C 
ENDBRANCH  20  21
ENDBRANCH   1  20
BRANCH  17  23
ATOM     23  O23 ZIN A   1      18.475  -0.868   8.541  0.00  0.00    -0.386 OA
ATOM     24  H43 ZIN A   1      17.723  -1.474   8.600  0.00  0.00     0.210 HD
ENDBRANCH  17  23
BRANCH   9  25
ATOM     25  O13 ZIN A   1      17.895   3.127  14.325  0.00  0.00    -0.358 OA
ATOM     26  H38 ZIN A   1      17.573   2.995  15.227  0.00  0.00     0.217 HD
ENDBRANCH   9  25
TORSDOF 4
ENDMDL
