MODEL 1
REMARK VINA RESULT:      -8.2      0.000      0.000
REMARK  5 active torsions:
REMARK  status: ('A' for Active; 'I' for Inactive)
REMARK    1  A    between atoms: N2_2  and  C4_4 
REMARK    2  A    between atoms: N2_2  and  C15_15 
REMARK    3  A    between atoms: C4_4  and  C5_5 
REMARK    4  A    between atoms: C8_8  and  C9_9 
REMARK    5  A    between atoms: C15_15  and  C16_16 
ROOT
ATOM      1  C1  ZIN A   1      17.769  -5.011   7.171  0.00  0.00     0.270 C 
ATOM      2  N2  ZIN A   1      18.224  -4.005   8.141  0.00  0.00    -0.067 N 
ATOM      3  H3  ZIN A   1      17.501  -3.313   8.271  0.00  0.00     0.280 HD
ENDROOT
BRANCH   2   4
ATOM      4  C4  ZIN A   1      18.515  -4.658   9.424  0.00  0.00     0.273 C 
BRANCH   4   5
ATOM      5  C5  ZIN A   1      18.569  -3.619  10.515  0.00  0.00    -0.033 A 
ATOM      6  C14 ZIN A   1      17.469  -2.818  10.761  0.00  0.00     0.009 A 
ATOM      7  C13 ZIN A   1      17.517  -1.869  11.764  0.00  0.00     0.008 A 
ATOM      8  C8  ZIN A   1      18.667  -1.714  12.516  0.00  0.00    -0.051 A 
ATOM      9  C7  ZIN A   1      19.768  -2.512  12.267  0.00  0.00     0.008 A 
ATOM     10  C6  ZIN A   1      19.719  -3.465  11.266  0.00  0.00     0.009 A 
BRANCH   8  11
ATOM     11  C9  ZIN A   1      18.720  -0.676  13.607  0.00  0.00    -0.024 C 
ATOM     12  C10 ZIN A   1      17.545   0.291  13.449  0.00  0.00     0.019 C 
ATOM     13  C11 ZIN A   1      18.633  -1.365  14.971  0.00  0.00     0.019 C 
ATOM     14  C12 ZIN A   1      20.036   0.098  13.511  0.00  0.00     0.019 C 
ENDBRANCH   8  11
ENDBRANCH   4   5
ENDBRANCH   2   4
BRANCH   2  15
ATOM     15  C15 ZIN A   1      19.440  -3.353   7.636  0.00  0.00     0.274 C 
BRANCH  15  16
ATOM     16  C16 ZIN A   1      19.065  -2.103   6.882  0.00  0.00    -0.021 A 
ATOM     17  C25 ZIN A   1      18.642  -2.184   5.591  0.00  0.00     0.010 A 
ATOM     18  C24 ZIN A   1      18.285  -1.040   4.880  0.00  0.00     0.002 A 
ATOM     19  C23 ZIN A   1      18.360   0.193   5.454  0.00  0.00     0.012 A 
ATOM     20  C22 ZIN A   1      18.798   0.316   6.782  0.00  0.00    -0.025 A 
ATOM     21  C17 ZIN A   1      19.155  -0.848   7.508  0.00  0.00    -0.018 A 
ATOM     22  C21 ZIN A   1      18.888   1.571   7.407  0.00  0.00     0.012 A 
ATOM     23  C18 ZIN A   1      19.594  -0.724   8.837  0.00  0.00     0.013 A 
ATOM     24  C19 ZIN A   1      19.669   0.508   9.409  0.00  0.00     0.001 A 
ATOM     25  C20 ZIN A   1      19.316   1.652   8.697  0.00  0.00     0.001 A 
ENDBRANCH  15  16
ENDBRANCH   2  15
TORSDOF 5
ENDMDL
MODEL 2
REMARK VINA RESULT:      -8.0      2.603      7.944
REMARK  5 active torsions:
REMARK  status: ('A' for Active; 'I' for Inactive)
REMARK    1  A    between atoms: N2_2  and  C4_4 
REMARK    2  A    between atoms: N2_2  and  C15_15 
REMARK    3  A    between atoms: C4_4  and  C5_5 
REMARK    4  A    between atoms: C8_8  and  C9_9 
REMARK    5  A    between atoms: C15_15  and  C16_16 
ROOT
ATOM      1  C1  ZIN A   1      17.464   3.419  11.855  0.00  0.00     0.270 C 
ATOM      2  N2  ZIN A   1      18.438   2.360  12.151  0.00  0.00    -0.067 N 
ATOM      3  H3  ZIN A   1      18.008   1.458  12.009  0.00  0.00     0.280 HD
ENDROOT
BRANCH   2   4
ATOM      4  C4  ZIN A   1      19.596   2.497  11.259  0.00  0.00     0.273 C 
BRANCH   4   5
ATOM      5  C5  ZIN A   1      19.332   1.754   9.974  0.00  0.00    -0.033 A 
ATOM      6  C14 ZIN A   1      19.232   2.449   8.783  0.00  0.00     0.009 A 
ATOM      7  C13 ZIN A   1      18.993   1.767   7.604  0.00  0.00     0.008 A 
ATOM      8  C8  ZIN A   1      18.846   0.393   7.617  0.00  0.00    -0.051 A 
ATOM      9  C7  ZIN A   1      18.940  -0.301   8.810  0.00  0.00     0.008 A 
ATOM     10  C6  ZIN A   1      19.184   0.379   9.988  0.00  0.00     0.009 A 
BRANCH   8  11
ATOM     11  C9  ZIN A   1      18.582  -0.350   6.333  0.00  0.00    -0.024 C 
ATOM     12  C10 ZIN A   1      19.037  -1.803   6.481  0.00  0.00     0.019 C 
ATOM     13  C11 ZIN A   1      17.083  -0.315   6.023  0.00  0.00     0.019 C 
ATOM     14  C12 ZIN A   1      19.354   0.314   5.192  0.00  0.00     0.019 C 
ENDBRANCH   8  11
ENDBRANCH   4   5
ENDBRANCH   2   4
BRANCH   2  15
ATOM     15  C15 ZIN A   1      18.879   2.477  13.548  0.00  0.00     0.274 C 
BRANCH  15  16
ATOM     16  C16 ZIN A   1      18.774   1.134  14.223  0.00  0.00    -0.021 A 
ATOM     17  C25 ZIN A   1      18.556   0.012  13.482  0.00  0.00     0.010 A 
ATOM     18  C24 ZIN A   1      18.461  -1.240  14.088  0.00  0.00     0.002 A 
ATOM     19  C23 ZIN A   1      18.573  -1.375  15.438  0.00  0.00     0.012 A 
ATOM     20  C22 ZIN A   1      18.793  -0.240  16.234  0.00  0.00    -0.025 A 
ATOM     21  C17 ZIN A   1      18.895   1.033  15.619  0.00  0.00    -0.018 A 
ATOM     22  C21 ZIN A   1      18.914  -0.340  17.631  0.00  0.00     0.012 A 
ATOM     23  C18 ZIN A   1      19.114   2.169  16.416  0.00  0.00     0.013 A 
ATOM     24  C19 ZIN A   1      19.225   2.034  17.766  0.00  0.00     0.001 A 
ATOM     25  C20 ZIN A   1      19.126   0.782  18.371  0.00  0.00     0.001 A 
ENDBRANCH  15  16
ENDBRANCH   2  15
TORSDOF 5
ENDMDL
MODEL 3
REMARK VINA RESULT:      -7.8      2.432      5.326
REMARK  5 active torsions:
REMARK  status: ('A' for Active; 'I' for Inactive)
REMARK    1  A    between atoms: N2_2  and  C4_4 
REMARK    2  A    between atoms: N2_2  and  C15_15 
REMARK    3  A    between atoms: C4_4  and  C5_5 
REMARK    4  A    between atoms: C8_8  and  C9_9 
REMARK    5  A    between atoms: C15_15  and  C16_16 
ROOT
ATOM      1  C1  ZIN A   1      19.764   0.389  14.200  0.00  0.00     0.270 C 
ATOM      2  N2  ZIN A   1      19.048  -0.240  13.082  0.00  0.00    -0.067 N 
ATOM      3  H3  ZIN A   1      19.682  -0.369  12.307  0.00  0.00     0.280 HD
ENDROOT
BRANCH   2   4
ATOM      4  C4  ZIN A   1      18.523  -1.544  13.509  0.00  0.00     0.273 C 
BRANCH   4   5
ATOM      5  C5  ZIN A   1      18.589  -2.513  12.356  0.00  0.00    -0.033 A 
ATOM      6  C14 ZIN A   1      17.435  -2.859  11.678  0.00  0.00     0.009 A 
ATOM      7  C13 ZIN A   1      17.495  -3.745  10.619  0.00  0.00     0.008 A 
ATOM      8  C8  ZIN A   1      18.708  -4.291  10.242  0.00  0.00    -0.051 A 
ATOM      9  C7  ZIN A   1      19.861  -3.949  10.923  0.00  0.00     0.008 A 
ATOM     10  C6  ZIN A   1      19.802  -3.060  11.980  0.00  0.00     0.009 A 
BRANCH   8  11
ATOM     11  C9  ZIN A   1      18.773  -5.260   9.090  0.00  0.00    -0.024 C 
ATOM     12  C10 ZIN A   1      17.680  -6.318   9.251  0.00  0.00     0.019 C 
ATOM     13  C11 ZIN A   1      18.560  -4.504   7.776  0.00  0.00     0.019 C 
ATOM     14  C12 ZIN A   1      20.143  -5.939   9.071  0.00  0.00     0.019 C 
ENDBRANCH   8  11
ENDBRANCH   4   5
ENDBRANCH   2   4
BRANCH   2  15
ATOM     15  C15 ZIN A   1      17.934   0.624  12.666  0.00  0.00     0.274 C 
BRANCH  15  16
ATOM     16  C16 ZIN A   1      18.252   1.245  11.331  0.00  0.00    -0.021 A 
ATOM     17  C25 ZIN A   1      18.823   0.497  10.347  0.00  0.00     0.010 A 
ATOM     18  C24 ZIN A   1      19.119   1.053   9.104  0.00  0.00     0.002 A 
ATOM     19  C23 ZIN A   1      18.855   2.362   8.841  0.00  0.00     0.012 A 
ATOM     20  C22 ZIN A   1      18.272   3.166   9.833  0.00  0.00    -0.025 A 
ATOM     21  C17 ZIN A   1      17.965   2.600  11.096  0.00  0.00    -0.018 A 
ATOM     22  C21 ZIN A   1      17.984   4.521   9.598  0.00  0.00     0.012 A 
ATOM     23  C18 ZIN A   1      17.381   3.405  12.089  0.00  0.00     0.013 A 
ATOM     24  C19 ZIN A   1      17.118   4.714  11.826  0.00  0.00     0.001 A 
ATOM     25  C20 ZIN A   1      17.418   5.271  10.584  0.00  0.00     0.001 A 
ENDBRANCH  15  16
ENDBRANCH   2  15
TORSDOF 5
ENDMDL
MODEL 4
REMARK VINA RESULT:      -7.8      3.064      6.010
REMARK  5 active torsions:
REMARK  status: ('A' for Active; 'I' for Inactive)
REMARK    1  A    between atoms: N2_2  and  C4_4 
REMARK    2  A    between atoms: N2_2  and  C15_15 
REMARK    3  A    between atoms: C4_4  and  C5_5 
REMARK    4  A    between atoms: C8_8  and  C9_9 
REMARK    5  A    between atoms: C15_15  and  C16_16 
ROOT
ATOM      1  C1  ZIN A   1      19.149   0.275   7.740  0.00  0.00     0.270 C 
ATOM      2  N2  ZIN A   1      18.906   0.895   9.050  0.00  0.00    -0.067 N 
ATOM      3  H3  ZIN A   1      19.742   0.834   9.611  0.00  0.00     0.280 HD
ENDROOT
BRANCH   2   4
ATOM      4  C4  ZIN A   1      18.544   2.306   8.863  0.00  0.00     0.273 C 
BRANCH   4   5
ATOM      5  C5  ZIN A   1      18.589   3.017  10.192  0.00  0.00    -0.033 A 
ATOM      6  C14 ZIN A   1      19.717   2.924  10.986  0.00  0.00     0.009 A 
ATOM      7  C13 ZIN A   1      19.761   3.578  12.203  0.00  0.00     0.008 A 
ATOM      8  C8  ZIN A   1      18.675   4.319  12.630  0.00  0.00    -0.051 A 
ATOM      9  C7  ZIN A   1      17.544   4.407  11.838  0.00  0.00     0.008 A 
ATOM     10  C6  ZIN A   1      17.502   3.757  10.619  0.00  0.00     0.009 A 
BRANCH   8  11
ATOM     11  C9  ZIN A   1      18.721   5.029  13.958  0.00  0.00    -0.024 C 
ATOM     12  C10 ZIN A   1      17.575   6.040  14.035  0.00  0.00     0.019 C 
ATOM     13  C11 ZIN A   1      18.576   4.007  15.088  0.00  0.00     0.019 C 
ATOM     14  C12 ZIN A   1      20.057   5.759  14.099  0.00  0.00     0.019 C 
ENDBRANCH   8  11
ENDBRANCH   4   5
ENDBRANCH   2   4
BRANCH   2  15
ATOM     15  C15 ZIN A   1      17.807   0.193   9.728  0.00  0.00     0.274 C 
BRANCH  15  16
ATOM     16  C16 ZIN A   1      18.376  -0.798  10.711  0.00  0.00    -0.021 A 
ATOM     17  C25 ZIN A   1      19.033  -1.904  10.266  0.00  0.00     0.010 A 
ATOM     18  C24 ZIN A   1      19.570  -2.828  11.160  0.00  0.00     0.002 A 
ATOM     19  C23 ZIN A   1      19.443  -2.656  12.505  0.00  0.00     0.012 A 
ATOM     20  C22 ZIN A   1      18.767  -1.530  13.002  0.00  0.00    -0.025 A 
ATOM     21  C17 ZIN A   1      18.226  -0.587  12.092  0.00  0.00    -0.018 A 
ATOM     22  C21 ZIN A   1      18.617  -1.320  14.382  0.00  0.00     0.012 A 
ATOM     23  C18 ZIN A   1      17.548   0.539  12.590  0.00  0.00     0.013 A 
ATOM     24  C19 ZIN A   1      17.422   0.710  13.934  0.00  0.00     0.001 A 
ATOM     25  C20 ZIN A   1      17.955  -0.217  14.828  0.00  0.00     0.001 A 
ENDBRANCH  15  16
ENDBRANCH   2  15
TORSDOF 5
ENDMDL
MODEL 5
REMARK VINA RESULT:      -7.8      1.920      3.917
REMARK  5 active torsions:
REMARK  status: ('A' for Active; 'I' for Inactive)
REMARK    1  A    between atoms: N2_2  and  C4_4 
REMARK    2  A    between atoms: N2_2  and  C15_15 
REMARK    3  A    between atoms: C4_4  and  C5_5 
REMARK    4  A    between atoms: C8_8  and  C9_9 
REMARK    5  A    between atoms: C15_15  and  C16_16 
ROOT
ATOM      1  C1  ZIN A   1      17.431  -2.539  11.361  0.00  0.00     0.270 C 
ATOM      2  N2  ZIN A   1      18.607  -1.664  11.270  0.00  0.00    -0.067 N 
ATOM      3  H3  ZIN A   1      18.327  -0.707  11.426  0.00  0.00     0.280 HD
ENDROOT
BRANCH   2   4
ATOM      4  C4  ZIN A   1      19.591  -2.059  12.286  0.00  0.00     0.273 C 
BRANCH   4   5
ATOM      5  C5  ZIN A   1      19.334  -1.294  13.559  0.00  0.00    -0.033 A 
ATOM      6  C14 ZIN A   1      18.893  -1.959  14.687  0.00  0.00     0.009 A 
ATOM      7  C13 ZIN A   1      18.661  -1.258  15.856  0.00  0.00     0.008 A 
ATOM      8  C8  ZIN A   1      18.861   0.109  15.894  0.00  0.00    -0.051 A 
ATOM      9  C7  ZIN A   1      19.297   0.775  14.763  0.00  0.00     0.008 A 
ATOM     10  C6  ZIN A   1      19.533   0.074  13.596  0.00  0.00     0.009 A 
BRANCH   8  11
ATOM     11  C9  ZIN A   1      18.604   0.874  17.167  0.00  0.00    -0.024 C 
ATOM     12  C10 ZIN A   1      19.510   0.337  18.276  0.00  0.00     0.019 C 
ATOM     13  C11 ZIN A   1      18.901   2.358  16.939  0.00  0.00     0.019 C 
ATOM     14  C12 ZIN A   1      17.140   0.704  17.577  0.00  0.00     0.019 C 
ENDBRANCH   8  11
ENDBRANCH   4   5
ENDBRANCH   2   4
BRANCH   2  15
ATOM     15  C15 ZIN A   1      19.207  -1.787   9.934  0.00  0.00     0.274 C 
BRANCH  15  16
ATOM     16  C16 ZIN A   1      19.148  -0.454   9.232  0.00  0.00    -0.021 A 
ATOM     17  C25 ZIN A   1      19.086   0.697   9.956  0.00  0.00     0.010 A 
ATOM     18  C24 ZIN A   1      19.038   1.939   9.325  0.00  0.00     0.002 A 
ATOM     19  C23 ZIN A   1      19.040   2.035   7.968  0.00  0.00     0.012 A 
ATOM     20  C22 ZIN A   1      19.097   0.869   7.188  0.00  0.00    -0.025 A 
ATOM     21  C17 ZIN A   1      19.153  -0.394   7.829  0.00  0.00    -0.018 A 
ATOM     22  C21 ZIN A   1      19.101   0.929   5.784  0.00  0.00     0.012 A 
ATOM     23  C18 ZIN A   1      19.210  -1.561   7.048  0.00  0.00     0.013 A 
ATOM     24  C19 ZIN A   1      19.211  -1.465   5.691  0.00  0.00     0.001 A 
ATOM     25  C20 ZIN A   1      19.158  -0.223   5.060  0.00  0.00     0.001 A 
ENDBRANCH  15  16
ENDBRANCH   2  15
TORSDOF 5
ENDMDL
MODEL 6
REMARK VINA RESULT:      -7.4      1.030      2.656
REMARK  5 active torsions:
REMARK  status: ('A' for Active; 'I' for Inactive)
REMARK    1  A    between atoms: N2_2  and  C4_4 
REMARK    2  A    between atoms: N2_2  and  C15_15 
REMARK    3  A    between atoms: C4_4  and  C5_5 
REMARK    4  A    between atoms: C8_8  and  C9_9 
REMARK    5  A    between atoms: C15_15  and  C16_16 
ROOT
ATOM      1  C1  ZIN A   1      17.740  -4.281   8.397  0.00  0.00     0.270 C 
ATOM      2  N2  ZIN A   1      18.284  -3.229   9.267  0.00  0.00    -0.067 N 
ATOM      3  H3  ZIN A   1      17.622  -2.470   9.331  0.00  0.00     0.280 HD
ENDROOT
BRANCH   2   4
ATOM      4  C4  ZIN A   1      18.529  -3.780  10.606  0.00  0.00     0.273 C 
BRANCH   4   5
ATOM      5  C5  ZIN A   1      18.427  -2.677  11.629  0.00  0.00    -0.033 A 
ATOM      6  C14 ZIN A   1      19.392  -2.554  12.610  0.00  0.00     0.009 A 
ATOM      7  C13 ZIN A   1      19.300  -1.541  13.546  0.00  0.00     0.008 A 
ATOM      8  C8  ZIN A   1      18.239  -0.656  13.506  0.00  0.00    -0.051 A 
ATOM      9  C7  ZIN A   1      17.270  -0.783  12.528  0.00  0.00     0.008 A 
ATOM     10  C6  ZIN A   1      17.364  -1.793  11.589  0.00  0.00     0.009 A 
BRANCH   8  11
ATOM     11  C9  ZIN A   1      18.136   0.446  14.529  0.00  0.00    -0.024 C 
ATOM     12  C10 ZIN A   1      17.383   1.633  13.925  0.00  0.00     0.019 C 
ATOM     13  C11 ZIN A   1      17.379  -0.067  15.757  0.00  0.00     0.019 C 
ATOM     14  C12 ZIN A   1      19.540   0.889  14.944  0.00  0.00     0.019 C 
ENDBRANCH   8  11
ENDBRANCH   4   5
ENDBRANCH   2   4
BRANCH   2  15
ATOM     15  C15 ZIN A   1      19.547  -2.732   8.702  0.00  0.00     0.274 C 
BRANCH  15  16
ATOM     16  C16 ZIN A   1      19.384  -1.288   8.302  0.00  0.00    -0.021 A 
ATOM     17  C25 ZIN A   1      19.434  -0.307   9.244  0.00  0.00     0.010 A 
ATOM     18  C24 ZIN A   1      19.291   1.034   8.892  0.00  0.00     0.002 A 
ATOM     19  C23 ZIN A   1      19.087   1.399   7.597  0.00  0.00     0.012 A 
ATOM     20  C22 ZIN A   1      19.023   0.415   6.598  0.00  0.00    -0.025 A 
ATOM     21  C17 ZIN A   1      19.174  -0.949   6.954  0.00  0.00    -0.018 A 
ATOM     22  C21 ZIN A   1      18.814   0.754   5.250  0.00  0.00     0.012 A 
ATOM     23  C18 ZIN A   1      19.110  -1.934   5.955  0.00  0.00     0.013 A 
ATOM     24  C19 ZIN A   1      18.905  -1.569   4.660  0.00  0.00     0.001 A 
ATOM     25  C20 ZIN A   1      18.758  -0.228   4.309  0.00  0.00     0.001 A 
ENDBRANCH  15  16
ENDBRANCH   2  15
TORSDOF 5
ENDMDL
MODEL 7
REMARK VINA RESULT:      -7.3      2.915      7.590
REMARK  5 active torsions:
REMARK  status: ('A' for Active; 'I' for Inactive)
REMARK    1  A    between atoms: N2_2  and  C4_4 
REMARK    2  A    between atoms: N2_2  and  C15_15 
REMARK    3  A    between atoms: C4_4  and  C5_5 
REMARK    4  A    between atoms: C8_8  and  C9_9 
REMARK    5  A    between atoms: C15_15  and  C16_16 
ROOT
ATOM      1  C1  ZIN A   1      18.714   1.556  12.001  0.00  0.00     0.270 C 
ATOM      2  N2  ZIN A   1      19.205   0.302  12.589  0.00  0.00    -0.067 N 
ATOM      3  H3  ZIN A   1      18.424  -0.305  12.787  0.00  0.00     0.280 HD
ENDROOT
BRANCH   2   4
ATOM      4  C4  ZIN A   1      20.113  -0.359  11.642  0.00  0.00     0.273 C 
BRANCH   4   5
ATOM      5  C5  ZIN A   1      19.503  -1.661  11.187  0.00  0.00    -0.033 A 
ATOM      6  C14 ZIN A   1      19.680  -2.806  11.940  0.00  0.00     0.009 A 
ATOM      7  C13 ZIN A   1      19.117  -3.999  11.525  0.00  0.00     0.008 A 
ATOM      8  C8  ZIN A   1      18.385  -4.048  10.354  0.00  0.00    -0.051 A 
ATOM      9  C7  ZIN A   1      18.212  -2.903   9.598  0.00  0.00     0.008 A 
ATOM     10  C6  ZIN A   1      18.771  -1.709  10.015  0.00  0.00     0.009 A 
BRANCH   8  11
ATOM     11  C9  ZIN A   1      17.775  -5.349   9.900  0.00  0.00    -0.024 C 
ATOM     12  C10 ZIN A   1      18.804  -6.139   9.090  0.00  0.00     0.019 C 
ATOM     13  C11 ZIN A   1      17.351  -6.167  11.122  0.00  0.00     0.019 C 
ATOM     14  C12 ZIN A   1      16.550  -5.062   9.029  0.00  0.00     0.019 C 
ENDBRANCH   8  11
ENDBRANCH   4   5
ENDBRANCH   2   4
BRANCH   2  15
ATOM     15  C15 ZIN A   1      19.927   0.595  13.835  0.00  0.00     0.274 C 
BRANCH  15  16
ATOM     16  C16 ZIN A   1      19.121   0.102  15.009  0.00  0.00    -0.021 A 
ATOM     17  C25 ZIN A   1      18.627  -1.167  15.015  0.00  0.00     0.010 A 
ATOM     18  C24 ZIN A   1      17.885  -1.642  16.094  0.00  0.00     0.002 A 
ATOM     19  C23 ZIN A   1      17.624  -0.849  17.169  0.00  0.00     0.012 A 
ATOM     20  C22 ZIN A   1      18.113   0.467  17.197  0.00  0.00    -0.025 A 
ATOM     21  C17 ZIN A   1      18.873   0.950  16.102  0.00  0.00    -0.018 A 
ATOM     22  C21 ZIN A   1      17.864   1.315  18.289  0.00  0.00     0.012 A 
ATOM     23  C18 ZIN A   1      19.361   2.267  16.129  0.00  0.00     0.013 A 
ATOM     24  C19 ZIN A   1      19.100   3.060  17.203  0.00  0.00     0.001 A 
ATOM     25  C20 ZIN A   1      18.354   2.585  18.281  0.00  0.00     0.001 A 
ENDBRANCH  15  16
ENDBRANCH   2  15
TORSDOF 5
ENDMDL
MODEL 8
REMARK VINA RESULT:      -7.3      1.988      4.369
REMARK  5 active torsions:
REMARK  status: ('A' for Active; 'I' for Inactive)
REMARK    1  A    between atoms: N2_2  and  C4_4 
REMARK    2  A    between atoms: N2_2  and  C15_15 
REMARK    3  A    between atoms: C4_4  and  C5_5 
REMARK    4  A    between atoms: C8_8  and  C9_9 
REMARK    5  A    between atoms: C15_15  and  C16_16 
ROOT
ATOM      1  C1  ZIN A   1      19.467   2.143   9.435  0.00  0.00     0.270 C 
ATOM      2  N2  ZIN A   1      18.462   1.254  10.034  0.00  0.00    -0.067 N 
ATOM      3  H3  ZIN A   1      18.926   0.485  10.494  0.00  0.00     0.280 HD
ENDROOT
BRANCH   2   4
ATOM      4  C4  ZIN A   1      17.667   2.005  11.014  0.00  0.00     0.273 C 
BRANCH   4   5
ATOM      5  C5  ZIN A   1      17.845   1.392  12.380  0.00  0.00    -0.033 A 
ATOM      6  C14 ZIN A   1      18.222   2.184  13.448  0.00  0.00     0.009 A 
ATOM      7  C13 ZIN A   1      18.381   1.623  14.702  0.00  0.00     0.008 A 
ATOM      8  C8  ZIN A   1      18.171   0.269  14.886  0.00  0.00    -0.051 A 
ATOM      9  C7  ZIN A   1      17.799  -0.524  13.816  0.00  0.00     0.008 A 
ATOM     10  C6  ZIN A   1      17.635   0.038  12.563  0.00  0.00     0.009 A 
BRANCH   8  11
ATOM     11  C9  ZIN A   1      18.348  -0.343  16.251  0.00  0.00    -0.024 C 
ATOM     12  C10 ZIN A   1      18.865   0.720  17.223  0.00  0.00     0.019 C 
ATOM     13  C11 ZIN A   1      17.003  -0.877  16.748  0.00  0.00     0.019 C 
ATOM     14  C12 ZIN A   1      19.354  -1.492  16.168  0.00  0.00     0.019 C 
ENDBRANCH   8  11
ENDBRANCH   4   5
ENDBRANCH   2   4
BRANCH   2  15
ATOM     15  C15 ZIN A   1      17.578   0.734   8.981  0.00  0.00     0.274 C 
BRANCH  15  16
ATOM     16  C16 ZIN A   1      18.111  -0.584   8.483  0.00  0.00    -0.021 A 
ATOM     17  C25 ZIN A   1      18.272  -1.626   9.345  0.00  0.00     0.010 A 
ATOM     18  C24 ZIN A   1      18.758  -2.855   8.902  0.00  0.00     0.002 A 
ATOM     19  C23 ZIN A   1      19.097  -3.045   7.597  0.00  0.00     0.012 A 
ATOM     20  C22 ZIN A   1      18.950  -1.991   6.680  0.00  0.00    -0.025 A 
ATOM     21  C17 ZIN A   1      18.450  -0.743   7.129  0.00  0.00    -0.018 A 
ATOM     22  C21 ZIN A   1      19.289  -2.150   5.326  0.00  0.00     0.012 A 
ATOM     23  C18 ZIN A   1      18.304   0.311   6.212  0.00  0.00     0.013 A 
ATOM     24  C19 ZIN A   1      18.643   0.122   4.908  0.00  0.00     0.001 A 
ATOM     25  C20 ZIN A   1      19.134  -1.106   4.466  0.00  0.00     0.001 A 
ENDBRANCH  15  16
ENDBRANCH   2  15
TORSDOF 5
ENDMDL
MODEL 9
REMARK VINA RESULT:      -7.1      2.205      3.914
REMARK  5 active torsions:
REMARK  status: ('A' for Active; 'I' for Inactive)
REMARK    1  A    between atoms: N2_2  and  C4_4 
REMARK    2  A    between atoms: N2_2  and  C15_15 
REMARK    3  A    between atoms: C4_4  and  C5_5 
REMARK    4  A    between atoms: C8_8  and  C9_9 
REMARK    5  A    between atoms: C15_15  and  C16_16 
ROOT
ATOM      1  C1  ZIN A   1      18.151  -3.492  10.377  0.00  0.00     0.270 C 
ATOM      2  N2  ZIN A   1      18.479  -2.061  10.434  0.00  0.00    -0.067 N 
ATOM      3  H3  ZIN A   1      17.720  -1.526  10.040  0.00  0.00     0.280 HD
ENDROOT
BRANCH   2   4
ATOM      4  C4  ZIN A   1      18.687  -1.662  11.832  0.00  0.00     0.273 C 
BRANCH   4   5
ATOM      5  C5  ZIN A   1      18.594  -0.161  11.946  0.00  0.00    -0.033 A 
ATOM      6  C14 ZIN A   1      17.460   0.495  11.508  0.00  0.00     0.009 A 
ATOM      7  C13 ZIN A   1      17.373   1.871  11.615  0.00  0.00     0.008 A 
ATOM      8  C8  ZIN A   1      18.424   2.590  12.152  0.00  0.00    -0.051 A 
ATOM      9  C7  ZIN A   1      19.562   1.933  12.585  0.00  0.00     0.008 A 
ATOM     10  C6  ZIN A   1      19.646   0.558  12.482  0.00  0.00     0.009 A 
BRANCH   8  11
ATOM     11  C9  ZIN A   1      18.332   4.090  12.265  0.00  0.00    -0.024 C 
ATOM     12  C10 ZIN A   1      17.632   4.653  11.027  0.00  0.00     0.019 C 
ATOM     13  C11 ZIN A   1      17.529   4.458  13.516  0.00  0.00     0.019 C 
ATOM     14  C12 ZIN A   1      19.739   4.681  12.370  0.00  0.00     0.019 C 
ENDBRANCH   8  11
ENDBRANCH   4   5
ENDBRANCH   2   4
BRANCH   2  15
ATOM     15  C15 ZIN A   1      19.707  -1.809   9.666  0.00  0.00     0.274 C 
BRANCH  15  16
ATOM     16  C16 ZIN A   1      19.408  -0.852   8.541  0.00  0.00    -0.021 A 
ATOM     17  C25 ZIN A   1      19.292   0.481   8.790  0.00  0.00     0.010 A 
ATOM     18  C24 ZIN A   1      19.021   1.382   7.761  0.00  0.00     0.002 A 
ATOM     19  C23 ZIN A   1      18.855   0.953   6.480  0.00  0.00     0.012 A 
ATOM     20  C22 ZIN A   1      18.961  -0.416   6.186  0.00  0.00    -0.025 A 
ATOM     21  C17 ZIN A   1      19.242  -1.332   7.231  0.00  0.00    -0.018 A 
ATOM     22  C21 ZIN A   1      18.796  -0.896   4.876  0.00  0.00     0.012 A 
ATOM     23  C18 ZIN A   1      19.348  -2.702   6.936  0.00  0.00     0.013 A 
ATOM     24  C19 ZIN A   1      19.181  -3.131   5.656  0.00  0.00     0.001 A 
ATOM     25  C20 ZIN A   1      18.906  -2.230   4.628  0.00  0.00     0.001 A 
ENDBRANCH  15  16
ENDBRANCH   2  15
TORSDOF 5
ENDMDL
