MODEL 1
REMARK VINA RESULT:      -7.5      0.000      0.000
REMARK  6 active torsions:
REMARK  status: ('A' for Active; 'I' for Inactive)
REMARK    1  A    between atoms: N2_2  and  C4_4 
REMARK    2  A    between atoms: C7_7  and  O8_8 
REMARK    3  A    between atoms: C17_15  and  N19_16 
REMARK    4  A    between atoms: C25_22  and  C26_23 
REMARK       I    between atoms: C26_23  and  N27_24 
REMARK    5  A    between atoms: C31_28  and  O32_29 
REMARK    6  A    between atoms: C36_33  and  O37_34 
ROOT
ATOM      1  C4  ZIN A   1      18.073  -1.454  10.897  0.00  0.00     0.017 A 
ATOM      2  C5  ZIN A   1      17.916  -2.038   9.643  0.00  0.00     0.027 A 
ATOM      3  C6  ZIN A   1      17.876  -1.254   8.507  0.00  0.00     0.039 A 
ATOM      4  C7  ZIN A   1      17.987   0.124   8.606  0.00  0.00     0.079 A 
ATOM      5  C9  ZIN A   1      18.133   0.721   9.865  0.00  0.00     0.039 A 
ATOM      6  C10 ZIN A   1      18.182  -0.080  11.012  0.00  0.00    -0.020 A 
ATOM      7  C11 ZIN A   1      18.380   0.562  12.360  0.00  0.00     0.051 C 
ATOM      8  C12 ZIN A   1      17.664   1.909  12.397  0.00  0.00     0.030 C 
ATOM      9  C14 ZIN A   1      17.961   2.624  13.718  0.00  0.00     0.021 C 
ATOM     10  C15 ZIN A   1      17.344   4.017  13.649  0.00  0.00     0.074 C 
ATOM     11  C17 ZIN A   1      17.265   4.674  15.013  0.00  0.00     0.255 C 
ATOM     12  C23 ZIN A   1      18.605   5.139  15.497  0.00  0.00     0.135 C 
ATOM     13  O24 ZIN A   1      18.783   5.347  16.811  0.00  0.00    -0.193 OA
ATOM     14  C25 ZIN A   1      19.657   5.358  14.643  0.00  0.00     0.115 C 
ATOM     15  C29 ZIN A   1      19.508   5.112  13.209  0.00  0.00     0.210 C 
ATOM     16  O30 ZIN A   1      20.479   5.096  12.481  0.00  0.00    -0.288 OA
ATOM     17  C31 ZIN A   1      18.129   4.882  12.664  0.00  0.00     0.194 C 
ATOM     18  C33 ZIN A   1      18.275   4.126  11.370  0.00  0.00     0.201 C 
ATOM     19  O34 ZIN A   1      18.601   4.745  10.375  0.00  0.00    -0.289 OA
ATOM     20  C35 ZIN A   1      18.106   2.774  11.248  0.00  0.00     0.030 C 
ATOM     21  C36 ZIN A   1      18.256   2.180   9.997  0.00  0.00     0.089 C 
ENDROOT
BRANCH  14  22
ATOM     22  C26 ZIN A   1      20.942   5.844  15.172  0.00  0.00     0.255 C 
ATOM     23  N27 ZIN A   1      21.670   5.064  15.996  0.00  0.00    -0.366 N 
ATOM     24  H57 ZIN A   1      21.310   4.218  16.305  0.00  0.00     0.159 HD
ATOM     25  H58 ZIN A   1      22.553   5.348  16.277  0.00  0.00     0.159 HD
ATOM     26  O28 ZIN A   1      21.345   6.950  14.867  0.00  0.00    -0.268 OA
ENDBRANCH  14  22
BRANCH  11  27
ATOM     27  N19 ZIN A   1      16.362   5.830  14.934  0.00  0.00    -0.068 N 
ATOM     28  H20 ZIN A   1      16.844   6.604  14.502  0.00  0.00     0.279 HD
ATOM     29  C21 ZIN A   1      15.184   5.477  14.130  0.00  0.00     0.270 C 
ATOM     30  C22 ZIN A   1      15.936   6.212  16.287  0.00  0.00     0.270 C 
ENDBRANCH  11  27
BRANCH  17  31
ATOM     31  O32 ZIN A   1      17.463   6.128  12.460  0.00  0.00    -0.373 OA
ATOM     32  H59 ZIN A   1      17.189   6.283  11.544  0.00  0.00     0.211 HD
ENDBRANCH  17  31
BRANCH  21  33
ATOM     33  O37 ZIN A   1      18.484   2.941   8.905  0.00  0.00    -0.359 OA
ATOM     34  H60 ZIN A   1      18.181   2.544   8.078  0.00  0.00     0.217 HD
ENDBRANCH  21  33
BRANCH   4  35
ATOM     35  O8  ZIN A   1      17.956   0.892   7.487  0.00  0.00    -0.360 OA
ATOM     36  H46 ZIN A   1      18.829   1.148   7.161  0.00  0.00     0.217 HD
ENDBRANCH   4  35
BRANCH   1  37
ATOM     37  N2  ZIN A   1      18.117  -2.256  12.042  0.00  0.00    -0.291 NA
ATOM     38  C1  ZIN A   1      17.345  -3.492  11.849  0.00  0.00     0.116 C 
ATOM     39  C3  ZIN A   1      19.503  -2.556  12.424  0.00  0.00     0.116 C 
ENDBRANCH   1  37
TORSDOF 6
ENDMDL
MODEL 2
REMARK VINA RESULT:      -7.3      4.166      9.363
REMARK  6 active torsions:
REMARK  status: ('A' for Active; 'I' for Inactive)
REMARK    1  A    between atoms: N2_2  and  C4_4 
REMARK    2  A    between atoms: C7_7  and  O8_8 
REMARK    3  A    between atoms: C17_15  and  N19_16 
REMARK    4  A    between atoms: C25_22  and  C26_23 
REMARK       I    between atoms: C26_23  and  N27_24 
REMARK    5  A    between atoms: C31_28  and  O32_29 
REMARK    6  A    between atoms: C36_33  and  O37_34 
ROOT
ATOM      1  C4  ZIN A   1      17.901   2.216  11.308  0.00  0.00     0.017 A 
ATOM      2  C5  ZIN A   1      17.805   3.050  12.418  0.00  0.00     0.027 A 
ATOM      3  C6  ZIN A   1      17.866   2.526  13.694  0.00  0.00     0.039 A 
ATOM      4  C7  ZIN A   1      18.018   1.160  13.880  0.00  0.00     0.079 A 
ATOM      5  C9  ZIN A   1      18.102   0.313  12.769  0.00  0.00     0.039 A 
ATOM      6  C10 ZIN A   1      18.049   0.852  11.478  0.00  0.00    -0.020 A 
ATOM      7  C11 ZIN A   1      18.181  -0.059  10.285  0.00  0.00     0.051 C 
ATOM      8  C12 ZIN A   1      17.510  -1.397  10.584  0.00  0.00     0.030 C 
ATOM      9  C14 ZIN A   1      17.745  -2.370   9.426  0.00  0.00     0.021 C 
ATOM     10  C15 ZIN A   1      17.182  -3.728   9.831  0.00  0.00     0.074 C 
ATOM     11  C17 ZIN A   1      17.037  -4.662   8.645  0.00  0.00     0.255 C 
ATOM     12  C23 ZIN A   1      18.358  -5.193   8.176  0.00  0.00     0.135 C 
ATOM     13  O24 ZIN A   1      18.458  -5.672   6.927  0.00  0.00    -0.193 OA
ATOM     14  C25 ZIN A   1      19.470  -5.205   8.981  0.00  0.00     0.115 C 
ATOM     15  C29 ZIN A   1      19.406  -4.662  10.337  0.00  0.00     0.210 C 
ATOM     16  O30 ZIN A   1      20.421  -4.472  10.975  0.00  0.00    -0.288 OA
ATOM     17  C31 ZIN A   1      18.059  -4.348  10.918  0.00  0.00     0.194 C 
ATOM     18  C33 ZIN A   1      18.263  -3.331  12.009  0.00  0.00     0.201 C 
ATOM     19  O34 ZIN A   1      18.674  -3.718  13.087  0.00  0.00    -0.289 OA
ATOM     20  C35 ZIN A   1      18.056  -1.988  11.856  0.00  0.00     0.030 C 
ATOM     21  C36 ZIN A   1      18.266  -1.138  12.939  0.00  0.00     0.089 C 
ENDROOT
BRANCH  14  22
ATOM     22  C26 ZIN A   1      20.734  -5.767   8.476  0.00  0.00     0.255 C 
ATOM     23  N27 ZIN A   1      21.373  -5.172   7.449  0.00  0.00    -0.366 N 
ATOM     24  H57 ZIN A   1      20.961  -4.425   6.989  0.00  0.00     0.159 HD
ATOM     25  H58 ZIN A   1      22.246  -5.492   7.172  0.00  0.00     0.159 HD
ATOM     26  O28 ZIN A   1      21.200  -6.767   8.986  0.00  0.00    -0.268 OA
ENDBRANCH  14  22
BRANCH  11  27
ATOM     27  N19 ZIN A   1      16.182  -5.792   9.030  0.00  0.00    -0.068 N 
ATOM     28  H20 ZIN A   1      16.052  -5.790  10.031  0.00  0.00     0.279 HD
ATOM     29  C21 ZIN A   1      14.877  -5.666   8.368  0.00  0.00     0.270 C 
ATOM     30  C22 ZIN A   1      16.820  -7.051   8.621  0.00  0.00     0.270 C 
ENDBRANCH  11  27
BRANCH  17  31
ATOM     31  O32 ZIN A   1      17.450  -5.535  11.427  0.00  0.00    -0.373 OA
ATOM     32  H59 ZIN A   1      17.978  -5.991  12.099  0.00  0.00     0.211 HD
ENDBRANCH  17  31
BRANCH  21  33
ATOM     33  O37 ZIN A   1      18.591  -1.645  14.148  0.00  0.00    -0.359 OA
ATOM     34  H60 ZIN A   1      19.493  -1.986  14.202  0.00  0.00     0.217 HD
ENDBRANCH  21  33
BRANCH   4  35
ATOM     35  O8  ZIN A   1      18.085   0.648  15.135  0.00  0.00    -0.360 OA
ATOM     36  H46 ZIN A   1      17.302   0.146  15.398  0.00  0.00     0.217 HD
ENDBRANCH   4  35
BRANCH   1  37
ATOM     37  N2  ZIN A   1      17.842   2.757  10.020  0.00  0.00    -0.291 NA
ATOM     38  C1  ZIN A   1      17.586   4.204  10.066  0.00  0.00     0.116 C 
ATOM     39  C3  ZIN A   1      19.069   2.465   9.268  0.00  0.00     0.116 C 
ENDBRANCH   1  37
TORSDOF 6
ENDMDL
MODEL 3
REMARK VINA RESULT:      -6.6      3.693      9.211
REMARK  6 active torsions:
REMARK  status: ('A' for Active; 'I' for Inactive)
REMARK    1  A    between atoms: N2_2  and  C4_4 
REMARK    2  A    between atoms: C7_7  and  O8_8 
REMARK    3  A    between atoms: C17_15  and  N19_16 
REMARK    4  A    between atoms: C25_22  and  C26_23 
REMARK       I    between atoms: C26_23  and  N27_24 
REMARK    5  A    between atoms: C31_28  and  O32_29 
REMARK    6  A    between atoms: C36_33  and  O37_34 
ROOT
ATOM      1  C4  ZIN A   1      18.775  -0.451  15.249  0.00  0.00     0.017 A 
ATOM      2  C5  ZIN A   1      18.969   0.840  15.732  0.00  0.00     0.027 A 
ATOM      3  C6  ZIN A   1      19.152   1.893  14.858  0.00  0.00     0.039 A 
ATOM      4  C7  ZIN A   1      19.150   1.673  13.489  0.00  0.00     0.079 A 
ATOM      5  C9  ZIN A   1      18.968   0.375  12.995  0.00  0.00     0.039 A 
ATOM      6  C10 ZIN A   1      18.774  -0.687  13.886  0.00  0.00    -0.020 A 
ATOM      7  C11 ZIN A   1      18.537  -2.075  13.350  0.00  0.00     0.051 C 
ATOM      8  C12 ZIN A   1      19.360  -2.281  12.081  0.00  0.00     0.030 C 
ATOM      9  C14 ZIN A   1      19.033  -3.643  11.461  0.00  0.00     0.021 C 
ATOM     10  C15 ZIN A   1      19.768  -3.742  10.128  0.00  0.00     0.074 C 
ATOM     11  C17 ZIN A   1      19.807  -5.164   9.604  0.00  0.00     0.255 C 
ATOM     12  C23 ZIN A   1      18.481  -5.607   9.065  0.00  0.00     0.135 C 
ATOM     13  O24 ZIN A   1      18.231  -6.921   8.958  0.00  0.00    -0.193 OA
ATOM     14  C25 ZIN A   1      17.512  -4.714   8.678  0.00  0.00     0.115 C 
ATOM     15  C29 ZIN A   1      17.738  -3.276   8.810  0.00  0.00     0.210 C 
ATOM     16  O30 ZIN A   1      16.822  -2.492   8.674  0.00  0.00    -0.288 OA
ATOM     17  C31 ZIN A   1      19.127  -2.796   9.113  0.00  0.00     0.194 C 
ATOM     18  C33 ZIN A   1      19.008  -1.431   9.736  0.00  0.00     0.201 C 
ATOM     19  O34 ZIN A   1      18.804  -0.480   9.006  0.00  0.00    -0.289 OA
ATOM     20  C35 ZIN A   1      19.071  -1.193  11.082  0.00  0.00     0.030 C 
ATOM     21  C36 ZIN A   1      18.959   0.114  11.548  0.00  0.00     0.089 C 
ENDROOT
BRANCH  14  22
ATOM     22  C26 ZIN A   1      16.239  -5.208   8.127  0.00  0.00     0.255 C 
ATOM     23  N27 ZIN A   1      16.133  -5.472   6.809  0.00  0.00    -0.366 N 
ATOM     24  H57 ZIN A   1      16.866  -5.260   6.211  0.00  0.00     0.159 HD
ATOM     25  H58 ZIN A   1      15.323  -5.876   6.461  0.00  0.00     0.159 HD
ATOM     26  O28 ZIN A   1      15.285  -5.376   8.861  0.00  0.00    -0.268 OA
ENDBRANCH  14  22
BRANCH  11  27
ATOM     27  N19 ZIN A   1      20.807  -5.248   8.530  0.00  0.00    -0.068 N 
ATOM     28  H20 ZIN A   1      21.277  -4.360   8.438  0.00  0.00     0.279 HD
ATOM     29  C21 ZIN A   1      21.789  -6.290   8.857  0.00  0.00     0.270 C 
ATOM     30  C22 ZIN A   1      20.140  -5.583   7.265  0.00  0.00     0.270 C 
ENDBRANCH  11  27
BRANCH  17  31
ATOM     31  O32 ZIN A   1      19.908  -2.750   7.918  0.00  0.00    -0.373 OA
ATOM     32  H59 ZIN A   1      20.262  -3.609   7.646  0.00  0.00     0.211 HD
ENDBRANCH  17  31
BRANCH  21  33
ATOM     33  O37 ZIN A   1      18.870   1.142  10.677  0.00  0.00    -0.359 OA
ATOM     34  H60 ZIN A   1      18.654   0.875   9.773  0.00  0.00     0.217 HD
ENDBRANCH  21  33
BRANCH   4  35
ATOM     35  O8  ZIN A   1      19.322   2.711  12.632  0.00  0.00    -0.360 OA
ATOM     36  H46 ZIN A   1      18.797   2.645  11.823  0.00  0.00     0.217 HD
ENDBRANCH   4  35
BRANCH   1  37
ATOM     37  N2  ZIN A   1      18.586  -1.511  16.141  0.00  0.00    -0.291 NA
ATOM     38  C1  ZIN A   1      19.657  -1.550  17.147  0.00  0.00     0.116 C 
ATOM     39  C3  ZIN A   1      17.267  -1.433  16.782  0.00  0.00     0.116 C 
ENDBRANCH   1  37
TORSDOF 6
ENDMDL
MODEL 4
REMARK VINA RESULT:      -6.5      6.899     12.315
REMARK  6 active torsions:
REMARK  status: ('A' for Active; 'I' for Inactive)
REMARK    1  A    between atoms: N2_2  and  C4_4 
REMARK    2  A    between atoms: C7_7  and  O8_8 
REMARK    3  A    between atoms: C17_15  and  N19_16 
REMARK    4  A    between atoms: C25_22  and  C26_23 
REMARK       I    between atoms: C26_23  and  N27_24 
REMARK    5  A    between atoms: C31_28  and  O32_29 
REMARK    6  A    between atoms: C36_33  and  O37_34 
ROOT
ATOM      1  C4  ZIN A   1      18.122  -4.137  10.236  0.00  0.00     0.017 A 
ATOM      2  C5  ZIN A   1      18.803  -3.248  11.063  0.00  0.00     0.027 A 
ATOM      3  C6  ZIN A   1      19.452  -2.154  10.528  0.00  0.00     0.039 A 
ATOM      4  C7  ZIN A   1      19.436  -1.932   9.159  0.00  0.00     0.079 A 
ATOM      5  C9  ZIN A   1      18.764  -2.829   8.319  0.00  0.00     0.039 A 
ATOM      6  C10 ZIN A   1      18.100  -3.931   8.868  0.00  0.00    -0.020 A 
ATOM      7  C11 ZIN A   1      17.343  -4.871   7.965  0.00  0.00     0.051 C 
ATOM      8  C12 ZIN A   1      18.077  -5.005   6.634  0.00  0.00     0.030 C 
ATOM      9  C14 ZIN A   1      17.254  -5.859   5.666  0.00  0.00     0.021 C 
ATOM     10  C15 ZIN A   1      17.957  -5.846   4.313  0.00  0.00     0.074 C 
ATOM     11  C17 ZIN A   1      17.436  -6.930   3.390  0.00  0.00     0.255 C 
ATOM     12  C23 ZIN A   1      16.077  -6.609   2.845  0.00  0.00     0.135 C 
ATOM     13  O24 ZIN A   1      15.315  -7.607   2.375  0.00  0.00    -0.193 OA
ATOM     14  C25 ZIN A   1      15.586  -5.327   2.813  0.00  0.00     0.115 C 
ATOM     15  C29 ZIN A   1      16.376  -4.219   3.347  0.00  0.00     0.210 C 
ATOM     16  O30 ZIN A   1      15.873  -3.128   3.518  0.00  0.00    -0.288 OA
ATOM     17  C31 ZIN A   1      17.820  -4.465   3.673  0.00  0.00     0.194 C 
ATOM     18  C33 ZIN A   1      18.239  -3.426   4.679  0.00  0.00     0.201 C 
ATOM     19  O34 ZIN A   1      18.486  -2.303   4.279  0.00  0.00    -0.289 OA
ATOM     20  C35 ZIN A   1      18.319  -3.649   6.026  0.00  0.00     0.030 C 
ATOM     21  C36 ZIN A   1      18.729  -2.616   6.865  0.00  0.00     0.089 C 
ENDROOT
BRANCH  14  22
ATOM     22  C26 ZIN A   1      14.255  -5.067   2.239  0.00  0.00     0.255 C 
ATOM     23  N27 ZIN A   1      14.146  -4.587   0.983  0.00  0.00    -0.366 N 
ATOM     24  H57 ZIN A   1      14.941  -4.335   0.490  0.00  0.00     0.159 HD
ATOM     25  H58 ZIN A   1      13.271  -4.495   0.575  0.00  0.00     0.159 HD
ATOM     26  O28 ZIN A   1      13.256  -5.286   2.896  0.00  0.00    -0.268 OA
ENDBRANCH  14  22
BRANCH  11  27
ATOM     27  N19 ZIN A   1      18.371  -7.090   2.267  0.00  0.00    -0.068 N 
ATOM     28  H20 ZIN A   1      19.108  -6.406   2.344  0.00  0.00     0.279 HD
ATOM     29  C21 ZIN A   1      18.950  -8.440   2.301  0.00  0.00     0.270 C 
ATOM     30  C22 ZIN A   1      17.652  -6.896   1.001  0.00  0.00     0.270 C 
ENDBRANCH  11  27
BRANCH  17  31
ATOM     31  O32 ZIN A   1      18.616  -4.386   2.490  0.00  0.00    -0.373 OA
ATOM     32  H59 ZIN A   1      18.560  -3.534   2.034  0.00  0.00     0.211 HD
ENDBRANCH  17  31
BRANCH  21  33
ATOM     33  O37 ZIN A   1      19.121  -1.433   6.345  0.00  0.00    -0.359 OA
ATOM     34  H60 ZIN A   1      19.993  -1.455   5.929  0.00  0.00     0.217 HD
ENDBRANCH  21  33
BRANCH   4  35
ATOM     35  O8  ZIN A   1      20.068  -0.851   8.637  0.00  0.00    -0.360 OA
ATOM     36  H46 ZIN A   1      19.646  -0.493   7.844  0.00  0.00     0.217 HD
ENDBRANCH   4  35
BRANCH   1  37
ATOM     37  N2  ZIN A   1      17.464  -5.241  10.787  0.00  0.00    -0.291 NA
ATOM     38  C1  ZIN A   1      17.665  -5.303  12.241  0.00  0.00     0.116 C 
ATOM     39  C3  ZIN A   1      16.033  -5.222  10.455  0.00  0.00     0.116 C 
ENDBRANCH   1  37
TORSDOF 6
ENDMDL
MODEL 5
REMARK VINA RESULT:      -6.3      6.439     12.253
REMARK  6 active torsions:
REMARK  status: ('A' for Active; 'I' for Inactive)
REMARK    1  A    between atoms: N2_2  and  C4_4 
REMARK    2  A    between atoms: C7_7  and  O8_8 
REMARK    3  A    between atoms: C17_15  and  N19_16 
REMARK    4  A    between atoms: C25_22  and  C26_23 
REMARK       I    between atoms: C26_23  and  N27_24 
REMARK    5  A    between atoms: C31_28  and  O32_29 
REMARK    6  A    between atoms: C36_33  and  O37_34 
ROOT
ATOM      1  C4  ZIN A   1      18.766  -2.363  10.123  0.00  0.00     0.017 A 
ATOM      2  C5  ZIN A   1      19.453  -1.175   9.893  0.00  0.00     0.027 A 
ATOM      3  C6  ZIN A   1      19.638  -0.712   8.606  0.00  0.00     0.039 A 
ATOM      4  C7  ZIN A   1      19.145  -1.431   7.528  0.00  0.00     0.079 A 
ATOM      5  C9  ZIN A   1      18.464  -2.635   7.749  0.00  0.00     0.039 A 
ATOM      6  C10 ZIN A   1      18.272  -3.094   9.057  0.00  0.00    -0.020 A 
ATOM      7  C11 ZIN A   1      17.503  -4.368   9.294  0.00  0.00     0.051 C 
ATOM      8  C12 ZIN A   1      17.794  -5.359   8.171  0.00  0.00     0.030 C 
ATOM      9  C14 ZIN A   1      16.924  -6.608   8.336  0.00  0.00     0.021 C 
ATOM     10  C15 ZIN A   1      17.146  -7.500   7.119  0.00  0.00     0.074 C 
ATOM     11  C17 ZIN A   1      16.622  -8.906   7.340  0.00  0.00     0.255 C 
ATOM     12  C23 ZIN A   1      15.125  -8.968   7.288  0.00  0.00     0.135 C 
ATOM     13  O24 ZIN A   1      14.500 -10.006   7.863  0.00  0.00    -0.193 OA
ATOM     14  C25 ZIN A   1      14.373  -7.998   6.674  0.00  0.00     0.115 C 
ATOM     15  C29 ZIN A   1      15.020  -6.837   6.065  0.00  0.00     0.210 C 
ATOM     16  O30 ZIN A   1      14.363  -5.879   5.712  0.00  0.00    -0.288 OA
ATOM     17  C31 ZIN A   1      16.509  -6.861   5.887  0.00  0.00     0.194 C 
ATOM     18  C33 ZIN A   1      16.976  -5.433   5.790  0.00  0.00     0.201 C 
ATOM     19  O34 ZIN A   1      16.826  -4.848   4.734  0.00  0.00    -0.289 OA
ATOM     20  C35 ZIN A   1      17.521  -4.731   6.830  0.00  0.00     0.030 C 
ATOM     21  C36 ZIN A   1      17.929  -3.416   6.624  0.00  0.00     0.089 C 
ENDROOT
BRANCH  14  22
ATOM     22  C26 ZIN A   1      12.907  -8.128   6.627  0.00  0.00     0.255 C 
ATOM     23  N27 ZIN A   1      12.331  -8.937   5.716  0.00  0.00    -0.366 N 
ATOM     24  H57 ZIN A   1      12.874  -9.369   5.039  0.00  0.00     0.159 HD
ATOM     25  H58 ZIN A   1      11.373  -9.088   5.739  0.00  0.00     0.159 HD
ATOM     26  O28 ZIN A   1      12.217  -7.505   7.410  0.00  0.00    -0.268 OA
ENDBRANCH  14  22
BRANCH  11  27
ATOM     27  N19 ZIN A   1      17.170  -9.787   6.300  0.00  0.00    -0.068 N 
ATOM     28  H20 ZIN A   1      17.561  -9.228   5.558  0.00  0.00     0.279 HD
ATOM     29  C21 ZIN A   1      18.220 -10.635   6.880  0.00  0.00     0.270 C 
ATOM     30  C22 ZIN A   1      16.097 -10.635   5.762  0.00  0.00     0.270 C 
ENDBRANCH  11  27
BRANCH  17  31
ATOM     31  O32 ZIN A   1      16.856  -7.596   4.712  0.00  0.00    -0.373 OA
ATOM     32  H59 ZIN A   1      17.079  -7.041   3.951  0.00  0.00     0.211 HD
ENDBRANCH  17  31
BRANCH  21  33
ATOM     33  O37 ZIN A   1      17.862  -2.867   5.392  0.00  0.00    -0.359 OA
ATOM     34  H60 ZIN A   1      18.332  -3.367   4.712  0.00  0.00     0.217 HD
ENDBRANCH  21  33
BRANCH   4  35
ATOM     35  O8  ZIN A   1      19.322  -0.970   6.264  0.00  0.00    -0.360 OA
ATOM     36  H46 ZIN A   1      19.378  -0.007   6.200  0.00  0.00     0.217 HD
ENDBRANCH   4  35
BRANCH   1  37
ATOM     37  N2  ZIN A   1      18.580  -2.822  11.431  0.00  0.00    -0.291 NA
ATOM     38  C1  ZIN A   1      19.801  -3.455  11.946  0.00  0.00     0.116 C 
ATOM     39  C3  ZIN A   1      18.139  -1.734  12.314  0.00  0.00     0.116 C 
ENDBRANCH   1  37
TORSDOF 6
ENDMDL
MODEL 6
REMARK VINA RESULT:      -6.2      6.007     11.658
REMARK  6 active torsions:
REMARK  status: ('A' for Active; 'I' for Inactive)
REMARK    1  A    between atoms: N2_2  and  C4_4 
REMARK    2  A    between atoms: C7_7  and  O8_8 
REMARK    3  A    between atoms: C17_15  and  N19_16 
REMARK    4  A    between atoms: C25_22  and  C26_23 
REMARK       I    between atoms: C26_23  and  N27_24 
REMARK    5  A    between atoms: C31_28  and  O32_29 
REMARK    6  A    between atoms: C36_33  and  O37_34 
ROOT
ATOM      1  C4  ZIN A   1      18.055  -1.249  10.876  0.00  0.00     0.017 A 
ATOM      2  C5  ZIN A   1      18.819  -0.878  11.978  0.00  0.00     0.027 A 
ATOM      3  C6  ZIN A   1      19.796  -1.721  12.468  0.00  0.00     0.039 A 
ATOM      4  C7  ZIN A   1      20.021  -2.951  11.868  0.00  0.00     0.079 A 
ATOM      5  C9  ZIN A   1      19.248  -3.338  10.767  0.00  0.00     0.039 A 
ATOM      6  C10 ZIN A   1      18.265  -2.475  10.270  0.00  0.00    -0.020 A 
ATOM      7  C11 ZIN A   1      17.463  -2.877   9.060  0.00  0.00     0.051 C 
ATOM      8  C12 ZIN A   1      17.215  -4.383   9.086  0.00  0.00     0.030 C 
ATOM      9  C14 ZIN A   1      16.508  -4.820   7.800  0.00  0.00     0.021 C 
ATOM     10  C15 ZIN A   1      16.412  -6.341   7.810  0.00  0.00     0.074 C 
ATOM     11  C17 ZIN A   1      15.428  -6.856   6.777  0.00  0.00     0.255 C 
ATOM     12  C23 ZIN A   1      15.966  -6.759   5.382  0.00  0.00     0.135 C 
ATOM     13  O24 ZIN A   1      15.106  -6.769   4.353  0.00  0.00    -0.193 OA
ATOM     14  C25 ZIN A   1      17.310  -6.659   5.121  0.00  0.00     0.115 C 
ATOM     15  C29 ZIN A   1      18.275  -6.614   6.219  0.00  0.00     0.210 C 
ATOM     16  O30 ZIN A   1      19.432  -6.313   6.012  0.00  0.00    -0.288 OA
ATOM     17  C31 ZIN A   1      17.798  -6.948   7.602  0.00  0.00     0.194 C 
ATOM     18  C33 ZIN A   1      18.753  -6.310   8.575  0.00  0.00     0.201 C 
ATOM     19  O34 ZIN A   1      19.822  -6.857   8.776  0.00  0.00    -0.289 OA
ATOM     20  C35 ZIN A   1      18.516  -5.129   9.221  0.00  0.00     0.030 C 
ATOM     21  C36 ZIN A   1      19.467  -4.636  10.111  0.00  0.00     0.089 C 
ENDROOT
BRANCH  14  22
ATOM     22  C26 ZIN A   1      17.783  -6.598   3.728  0.00  0.00     0.255 C 
ATOM     23  N27 ZIN A   1      17.897  -5.406   3.107  0.00  0.00    -0.366 N 
ATOM     24  H57 ZIN A   1      17.589  -4.599   3.548  0.00  0.00     0.159 HD
ATOM     25  H58 ZIN A   1      18.287  -5.357   2.221  0.00  0.00     0.159 HD
ATOM     26  O28 ZIN A   1      18.071  -7.621   3.139  0.00  0.00    -0.268 OA
ENDBRANCH  14  22
BRANCH  11  27
ATOM     27  N19 ZIN A   1      15.122  -8.263   7.071  0.00  0.00    -0.068 N 
ATOM     28  H20 ZIN A   1      15.831  -8.641   7.681  0.00  0.00     0.279 HD
ATOM     29  C21 ZIN A   1      13.812  -8.353   7.728  0.00  0.00     0.270 C 
ATOM     30  C22 ZIN A   1      15.096  -9.030   5.818  0.00  0.00     0.270 C 
ENDBRANCH  11  27
BRANCH  17  31
ATOM     31  O32 ZIN A   1      17.750  -8.364   7.780  0.00  0.00    -0.373 OA
ATOM     32  H59 ZIN A   1      16.987  -8.672   8.290  0.00  0.00     0.211 HD
ENDBRANCH  17  31
BRANCH  21  33
ATOM     33  O37 ZIN A   1      20.573  -5.357  10.394  0.00  0.00    -0.359 OA
ATOM     34  H60 ZIN A   1      20.979  -5.774   9.622  0.00  0.00     0.217 HD
ENDBRANCH  21  33
BRANCH   4  35
ATOM     35  O8  ZIN A   1      20.987  -3.776  12.347  0.00  0.00    -0.360 OA
ATOM     36  H46 ZIN A   1      21.405  -3.462  13.161  0.00  0.00     0.217 HD
ENDBRANCH   4  35
BRANCH   1  37
ATOM     37  N2  ZIN A   1      17.070  -0.386  10.385  0.00  0.00    -0.291 NA
ATOM     38  C1  ZIN A   1      16.322   0.240  11.484  0.00  0.00     0.116 C 
ATOM     39  C3  ZIN A   1      17.654   0.631   9.500  0.00  0.00     0.116 C 
ENDBRANCH   1  37
TORSDOF 6
ENDMDL
MODEL 7
REMARK VINA RESULT:      -5.9      6.164      9.628
REMARK  6 active torsions:
REMARK  status: ('A' for Active; 'I' for Inactive)
REMARK    1  A    between atoms: N2_2  and  C4_4 
REMARK    2  A    between atoms: C7_7  and  O8_8 
REMARK    3  A    between atoms: C17_15  and  N19_16 
REMARK    4  A    between atoms: C25_22  and  C26_23 
REMARK       I    between atoms: C26_23  and  N27_24 
REMARK    5  A    between atoms: C31_28  and  O32_29 
REMARK    6  A    between atoms: C36_33  and  O37_34 
ROOT
ATOM      1  C4  ZIN A   1      13.802  -8.036   7.680  0.00  0.00     0.017 A 
ATOM      2  C5  ZIN A   1      13.593  -9.167   6.896  0.00  0.00     0.027 A 
ATOM      3  C6  ZIN A   1      14.624  -9.700   6.148  0.00  0.00     0.039 A 
ATOM      4  C7  ZIN A   1      15.878  -9.108   6.167  0.00  0.00     0.079 A 
ATOM      5  C9  ZIN A   1      16.093  -7.963   6.943  0.00  0.00     0.039 A 
ATOM      6  C10 ZIN A   1      15.047  -7.433   7.706  0.00  0.00    -0.020 A 
ATOM      7  C11 ZIN A   1      15.293  -6.225   8.572  0.00  0.00     0.051 C 
ATOM      8  C12 ZIN A   1      16.284  -5.292   7.880  0.00  0.00     0.030 C 
ATOM      9  C14 ZIN A   1      16.635  -4.123   8.805  0.00  0.00     0.021 C 
ATOM     10  C15 ZIN A   1      17.729  -3.302   8.130  0.00  0.00     0.074 C 
ATOM     11  C17 ZIN A   1      17.900  -1.941   8.776  0.00  0.00     0.255 C 
ATOM     12  C23 ZIN A   1      18.588  -2.026  10.105  0.00  0.00     0.135 C 
ATOM     13  O24 ZIN A   1      18.446  -1.014  10.974  0.00  0.00    -0.193 OA
ATOM     14  C25 ZIN A   1      19.359  -3.104  10.463  0.00  0.00     0.115 C 
ATOM     15  C29 ZIN A   1      19.510  -4.239   9.553  0.00  0.00     0.210 C 
ATOM     16  O30 ZIN A   1      20.006  -5.277   9.937  0.00  0.00    -0.288 OA
ATOM     17  C31 ZIN A   1      19.041  -4.085   8.136  0.00  0.00     0.194 C 
ATOM     18  C33 ZIN A   1      18.780  -5.465   7.594  0.00  0.00     0.201 C 
ATOM     19  O34 ZIN A   1      19.732  -6.135   7.240  0.00  0.00    -0.289 OA
ATOM     20  C35 ZIN A   1      17.540  -6.036   7.512  0.00  0.00     0.030 C 
ATOM     21  C36 ZIN A   1      17.414  -7.318   6.983  0.00  0.00     0.089 C 
ENDROOT
BRANCH  14  22
ATOM     22  C26 ZIN A   1      20.036  -3.119  11.770  0.00  0.00     0.255 C 
ATOM     23  N27 ZIN A   1      21.318  -3.527  11.859  0.00  0.00    -0.366 N 
ATOM     24  H57 ZIN A   1      21.767  -3.890  11.080  0.00  0.00     0.159 HD
ATOM     25  H58 ZIN A   1      21.790  -3.458  12.704  0.00  0.00     0.159 HD
ATOM     26  O28 ZIN A   1      19.440  -2.762  12.767  0.00  0.00    -0.268 OA
ENDBRANCH  14  22
BRANCH  11  27
ATOM     27  N19 ZIN A   1      18.695  -1.087   7.884  0.00  0.00    -0.068 N 
ATOM     28  H20 ZIN A   1      19.546  -1.565   7.630  0.00  0.00     0.279 HD
ATOM     29  C21 ZIN A   1      17.920  -0.791   6.671  0.00  0.00     0.270 C 
ATOM     30  C22 ZIN A   1      19.025   0.168   8.573  0.00  0.00     0.270 C 
ENDBRANCH  11  27
BRANCH  17  31
ATOM     31  O32 ZIN A   1      20.026  -3.404   7.358  0.00  0.00    -0.373 OA
ATOM     32  H59 ZIN A   1      19.661  -2.759   6.736  0.00  0.00     0.211 HD
ENDBRANCH  17  31
BRANCH  21  33
ATOM     33  O37 ZIN A   1      18.493  -7.956   6.481  0.00  0.00    -0.359 OA
ATOM     34  H60 ZIN A   1      18.378  -8.910   6.387  0.00  0.00     0.217 HD
ENDBRANCH  21  33
BRANCH   4  35
ATOM     35  O8  ZIN A   1      16.891  -9.638   5.436  0.00  0.00    -0.360 OA
ATOM     36  H46 ZIN A   1      16.621  -9.968   4.569  0.00  0.00     0.217 HD
ENDBRANCH   4  35
BRANCH   1  37
ATOM     37  N2  ZIN A   1      12.753  -7.506   8.438  0.00  0.00    -0.291 NA
ATOM     38  C1  ZIN A   1      12.135  -6.361   7.755  0.00  0.00     0.116 C 
ATOM     39  C3  ZIN A   1      11.752  -8.536   8.746  0.00  0.00     0.116 C 
ENDBRANCH   1  37
TORSDOF 6
ENDMDL
MODEL 8
REMARK VINA RESULT:      -5.8      4.079      6.400
REMARK  6 active torsions:
REMARK  status: ('A' for Active; 'I' for Inactive)
REMARK    1  A    between atoms: N2_2  and  C4_4 
REMARK    2  A    between atoms: C7_7  and  O8_8 
REMARK    3  A    between atoms: C17_15  and  N19_16 
REMARK    4  A    between atoms: C25_22  and  C26_23 
REMARK       I    between atoms: C26_23  and  N27_24 
REMARK    5  A    between atoms: C31_28  and  O32_29 
REMARK    6  A    between atoms: C36_33  and  O37_34 
ROOT
ATOM      1  C4  ZIN A   1      16.695  -5.810   8.259  0.00  0.00     0.017 A 
ATOM      2  C5  ZIN A   1      17.202  -7.038   7.844  0.00  0.00     0.027 A 
ATOM      3  C6  ZIN A   1      18.502  -7.395   8.144  0.00  0.00     0.039 A 
ATOM      4  C7  ZIN A   1      19.316  -6.529   8.858  0.00  0.00     0.079 A 
ATOM      5  C9  ZIN A   1      18.817  -5.286   9.268  0.00  0.00     0.039 A 
ATOM      6  C10 ZIN A   1      17.496  -4.935   8.969  0.00  0.00    -0.020 A 
ATOM      7  C11 ZIN A   1      16.950  -3.614   9.447  0.00  0.00     0.051 C 
ATOM      8  C12 ZIN A   1      18.051  -2.558   9.405  0.00  0.00     0.030 C 
ATOM      9  C14 ZIN A   1      17.541  -1.245  10.004  0.00  0.00     0.021 C 
ATOM     10  C15 ZIN A   1      18.712  -0.271  10.070  0.00  0.00     0.074 C 
ATOM     11  C17 ZIN A   1      18.255   1.155  10.307  0.00  0.00     0.255 C 
ATOM     12  C23 ZIN A   1      17.806   1.380  11.719  0.00  0.00     0.135 C 
ATOM     13  O24 ZIN A   1      17.002   2.420  11.986  0.00  0.00    -0.193 OA
ATOM     14  C25 ZIN A   1      18.190   0.557  12.749  0.00  0.00     0.115 C 
ATOM     15  C29 ZIN A   1      19.040  -0.604  12.490  0.00  0.00     0.210 C 
ATOM     16  O30 ZIN A   1      19.208  -1.449  13.344  0.00  0.00    -0.288 OA
ATOM     17  C31 ZIN A   1      19.698  -0.721  11.147  0.00  0.00     0.194 C 
ATOM     18  C33 ZIN A   1      20.021  -2.175  10.927  0.00  0.00     0.201 C 
ATOM     19  O34 ZIN A   1      20.998  -2.639  11.483  0.00  0.00    -0.289 OA
ATOM     20  C35 ZIN A   1      19.259  -3.024  10.173  0.00  0.00     0.030 C 
ATOM     21  C36 ZIN A   1      19.658  -4.351  10.029  0.00  0.00     0.089 C 
ENDROOT
BRANCH  14  22
ATOM     22  C26 ZIN A   1      17.743   0.845  14.122  0.00  0.00     0.255 C 
ATOM     23  N27 ZIN A   1      18.155   1.969  14.743  0.00  0.00    -0.366 N 
ATOM     24  H57 ZIN A   1      18.810   2.544  14.319  0.00  0.00     0.159 HD
ATOM     25  H58 ZIN A   1      17.795   2.200  15.614  0.00  0.00     0.159 HD
ATOM     26  O28 ZIN A   1      17.002   0.070  14.695  0.00  0.00    -0.268 OA
ENDBRANCH  14  22
BRANCH  11  27
ATOM     27  N19 ZIN A   1      19.368   2.068  10.012  0.00  0.00    -0.068 N 
ATOM     28  H20 ZIN A   1      20.204   1.737  10.469  0.00  0.00     0.279 HD
ATOM     29  C21 ZIN A   1      19.590   2.115   8.561  0.00  0.00     0.270 C 
ATOM     30  C22 ZIN A   1      19.040   3.413  10.502  0.00  0.00     0.270 C 
ENDBRANCH  11  27
BRANCH  17  31
ATOM     31  O32 ZIN A   1      20.879   0.081  11.102  0.00  0.00    -0.373 OA
ATOM     32  H59 ZIN A   1      21.004   0.552  10.266  0.00  0.00     0.211 HD
ENDBRANCH  17  31
BRANCH  21  33
ATOM     33  O37 ZIN A   1      20.827  -4.771  10.559  0.00  0.00    -0.359 OA
ATOM     34  H60 ZIN A   1      21.286  -5.433  10.026  0.00  0.00     0.217 HD
ENDBRANCH  21  33
BRANCH   4  35
ATOM     35  O8  ZIN A   1      20.591  -6.885   9.158  0.00  0.00    -0.360 OA
ATOM     36  H46 ZIN A   1      21.234  -6.171   9.054  0.00  0.00     0.217 HD
ENDBRANCH   4  35
BRANCH   1  37
ATOM     37  N2  ZIN A   1      15.376  -5.459   7.953  0.00  0.00    -0.291 NA
ATOM     38  C1  ZIN A   1      15.062  -5.760   6.550  0.00  0.00     0.116 C 
ATOM     39  C3  ZIN A   1      14.430  -6.126   8.858  0.00  0.00     0.116 C 
ENDBRANCH   1  37
TORSDOF 6
ENDMDL
MODEL 9
REMARK VINA RESULT:      -5.4      2.688      4.356
REMARK  6 active torsions:
REMARK  status: ('A' for Active; 'I' for Inactive)
REMARK    1  A    between atoms: N2_2  and  C4_4 
REMARK    2  A    between atoms: C7_7  and  O8_8 
REMARK    3  A    between atoms: C17_15  and  N19_16 
REMARK    4  A    between atoms: C25_22  and  C26_23 
REMARK       I    between atoms: C26_23  and  N27_24 
REMARK    5  A    between atoms: C31_28  and  O32_29 
REMARK    6  A    between atoms: C36_33  and  O37_34 
ROOT
ATOM      1  C4  ZIN A   1      18.328   1.338  12.735  0.00  0.00     0.017 A 
ATOM      2  C5  ZIN A   1      19.202   0.904  11.743  0.00  0.00     0.027 A 
ATOM      3  C6  ZIN A   1      20.241   1.712  11.325  0.00  0.00     0.039 A 
ATOM      4  C7  ZIN A   1      20.420   2.966  11.887  0.00  0.00     0.079 A 
ATOM      5  C9  ZIN A   1      19.537   3.416  12.877  0.00  0.00     0.039 A 
ATOM      6  C10 ZIN A   1      18.491   2.589  13.303  0.00  0.00    -0.020 A 
ATOM      7  C11 ZIN A   1      17.568   3.059  14.397  0.00  0.00     0.051 C 
ATOM      8  C12 ZIN A   1      17.351   4.565  14.274  0.00  0.00     0.030 C 
ATOM      9  C14 ZIN A   1      16.515   5.072  15.452  0.00  0.00     0.021 C 
ATOM     10  C15 ZIN A   1      16.447   6.592  15.360  0.00  0.00     0.074 C 
ATOM     11  C17 ZIN A   1      15.365   7.168  16.253  0.00  0.00     0.255 C 
ATOM     12  C23 ZIN A   1      15.746   7.133  17.702  0.00  0.00     0.135 C 
ATOM     13  O24 ZIN A   1      14.778   7.203  18.628  0.00  0.00    -0.193 OA
ATOM     14  C25 ZIN A   1      17.051   7.029  18.114  0.00  0.00     0.115 C 
ATOM     15  C29 ZIN A   1      18.129   6.919  17.132  0.00  0.00     0.210 C 
ATOM     16  O30 ZIN A   1      19.252   6.615  17.479  0.00  0.00    -0.288 OA
ATOM     17  C31 ZIN A   1      17.813   7.192  15.691  0.00  0.00     0.194 C 
ATOM     18  C33 ZIN A   1      18.857   6.496  14.859  0.00  0.00     0.201 C 
ATOM     19  O34 ZIN A   1      19.951   7.019  14.752  0.00  0.00    -0.289 OA
ATOM     20  C35 ZIN A   1      18.672   5.287  14.247  0.00  0.00     0.030 C 
ATOM     21  C36 ZIN A   1      19.706   4.740  13.492  0.00  0.00     0.089 C 
ENDROOT
BRANCH  14  22
ATOM     22  C26 ZIN A   1      17.368   7.030  19.551  0.00  0.00     0.255 C 
ATOM     23  N27 ZIN A   1      17.749   5.887  20.158  0.00  0.00    -0.366 N 
ATOM     24  H57 ZIN A   1      17.734   5.050  19.668  0.00  0.00     0.159 HD
ATOM     25  H58 ZIN A   1      18.038   5.903  21.083  0.00  0.00     0.159 HD
ATOM     26  O28 ZIN A   1      17.286   8.060  20.191  0.00  0.00    -0.268 OA
ENDBRANCH  14  22
BRANCH  11  27
ATOM     27  N19 ZIN A   1      15.118   8.563  15.862  0.00  0.00    -0.068 N 
ATOM     28  H20 ZIN A   1      15.826   8.859  15.207  0.00  0.00     0.279 HD
ATOM     29  C21 ZIN A   1      13.794   8.668  15.233  0.00  0.00     0.270 C 
ATOM     30  C22 ZIN A   1      15.163   9.421  17.054  0.00  0.00     0.270 C 
ENDBRANCH  11  27
BRANCH  17  31
ATOM     31  O32 ZIN A   1      17.809   8.598  15.442  0.00  0.00    -0.373 OA
ATOM     32  H59 ZIN A   1      17.964   8.835  14.516  0.00  0.00     0.211 HD
ENDBRANCH  17  31
BRANCH  21  33
ATOM     33  O37 ZIN A   1      20.848   5.434  13.299  0.00  0.00    -0.359 OA
ATOM     34  H60 ZIN A   1      20.742   6.224  12.753  0.00  0.00     0.217 HD
ENDBRANCH  21  33
BRANCH   4  35
ATOM     35  O8  ZIN A   1      21.446   3.755  11.480  0.00  0.00    -0.360 OA
ATOM     36  H46 ZIN A   1      22.319   3.436  11.750  0.00  0.00     0.217 HD
ENDBRANCH   4  35
BRANCH   1  37
ATOM     37  N2  ZIN A   1      17.280   0.512  13.155  0.00  0.00    -0.291 NA
ATOM     38  C1  ZIN A   1      16.627  -0.135  12.009  0.00  0.00     0.116 C 
ATOM     39  C3  ZIN A   1      17.752  -0.487  14.123  0.00  0.00     0.116 C 
ENDBRANCH   1  37
TORSDOF 6
ENDMDL
