MODEL 1
REMARK VINA RESULT:      -9.0      0.000      0.000
REMARK  6 active torsions:
REMARK  status: ('A' for Active; 'I' for Inactive)
REMARK    1  A    between atoms: C3_3  and  C4_4 
REMARK    2  A    between atoms: C12_12  and  C13_13 
REMARK    3  A    between atoms: C13_13  and  O15_15 
REMARK    4  A    between atoms: O15_15  and  C16_16 
REMARK    5  A    between atoms: C16_16  and  C17_17 
REMARK    6  A    between atoms: C17_17  and  N18_18 
ROOT
ATOM      1  C1  <0> d   1      18.124   3.218   9.908  0.00  0.00     0.055 C 
ATOM      2  C2  <0> d   1      18.394   1.988  10.738  0.00  0.00     0.024 A 
ATOM      3  C3  <0> d   1      18.488   0.768  10.145  0.00  0.00     0.096 A 
ATOM      4  O10 <0> d   1      18.727  -0.355  10.839  0.00  0.00    -0.307 OA
ATOM      5  C11 <0> d   1      18.890  -0.355  12.176  0.00  0.00     0.106 A 
ATOM      6  C12 <0> d   1      19.139  -1.549  12.871  0.00  0.00     0.074 A 
ATOM      7  C25 <0> d   1      19.304  -1.517  14.256  0.00  0.00     0.020 A 
ATOM      8  C26 <0> d   1      19.225  -0.321  14.945  0.00  0.00     0.002 A 
ATOM      9  C27 <0> d   1      18.981   0.859  14.273  0.00  0.00     0.018 A 
ATOM     10  C28 <0> d   1      18.813   0.850  12.890  0.00  0.00     0.050 A 
ATOM     11  C29 <0> d   1      18.556   2.096  12.139  0.00  0.00     0.193 A 
ATOM     12  O30 <0> d   1      18.484   3.174  12.705  0.00  0.00    -0.287 OA
ENDROOT
BRANCH   6  13
ATOM     13  C13 <0> d   1      19.225  -2.827  12.142  0.00  0.00     0.296 C 
ATOM     14  O14 <0> d   1      20.255  -3.137  11.577  0.00  0.00    -0.259 OA
BRANCH  13  15
ATOM     15  O15 <0> d   1      18.161  -3.653  12.102  0.00  0.00    -0.316 OA
BRANCH  15  16
ATOM     16  C16 <0> d   1      17.462  -3.767  10.835  0.00  0.00     0.206 C 
BRANCH  16  17
ATOM     17  C17 <0> d   1      17.976  -4.993  10.078  0.00  0.00     0.261 C 
BRANCH  17  18
ATOM     18  N18 <0> d   1      18.921  -4.566   9.038  0.00  0.00    -0.069 N 
ATOM     19  H19 <0> d   1      19.827  -4.406   9.453  0.00  0.00     0.280 HD
ATOM     20  C24 <0> d   1      19.032  -5.618   8.019  0.00  0.00     0.235 C 
ATOM     21  C23 <0> d   1      20.078  -5.214   6.977  0.00  0.00     0.028 C 
ATOM     22  C22 <0> d   1      19.648  -3.903   6.314  0.00  0.00     0.003 C 
ATOM     23  C21 <0> d   1      19.462  -2.833   7.394  0.00  0.00     0.028 C 
ATOM     24  C20 <0> d   1      18.440  -3.325   8.421  0.00  0.00     0.235 C 
ENDBRANCH  17  18
ENDBRANCH  16  17
ENDBRANCH  15  16
ENDBRANCH  13  15
ENDBRANCH   6  13
BRANCH   3  25
ATOM     25  C4  <0> d   1      18.321   0.676   8.681  0.00  0.00    -0.002 A 
ATOM     26  C9  <0> d   1      17.212   0.023   8.140  0.00  0.00     0.014 A 
ATOM     27  C8  <0> d   1      17.060  -0.056   6.771  0.00  0.00     0.001 A 
ATOM     28  C7  <0> d   1      18.010   0.503   5.934  0.00  0.00     0.000 A 
ATOM     29  C6  <0> d   1      19.115   1.147   6.463  0.00  0.00     0.001 A 
ATOM     30  C5  <0> d   1      19.277   1.237   7.830  0.00  0.00     0.014 A 
ENDBRANCH   3  25
TORSDOF 6
ENDMDL
MODEL 2
REMARK VINA RESULT:      -8.7      2.998      8.074
REMARK  6 active torsions:
REMARK  status: ('A' for Active; 'I' for Inactive)
REMARK    1  A    between atoms: C3_3  and  C4_4 
REMARK    2  A    between atoms: C12_12  and  C13_13 
REMARK    3  A    between atoms: C13_13  and  O15_15 
REMARK    4  A    between atoms: O15_15  and  C16_16 
REMARK    5  A    between atoms: C16_16  and  C17_17 
REMARK    6  A    between atoms: C17_17  and  N18_18 
ROOT
ATOM      1  C1  <0> d   1      18.007  -2.997  12.309  0.00  0.00     0.055 C 
ATOM      2  C2  <0> d   1      18.270  -1.668  11.648  0.00  0.00     0.024 A 
ATOM      3  C3  <0> d   1      18.456  -0.552  12.401  0.00  0.00     0.096 A 
ATOM      4  O10 <0> d   1      18.694   0.653  11.860  0.00  0.00    -0.307 OA
ATOM      5  C11 <0> d   1      18.765   0.844  10.529  0.00  0.00     0.106 A 
ATOM      6  C12 <0> d   1      19.016   2.118   9.997  0.00  0.00     0.074 A 
ATOM      7  C25 <0> d   1      19.085   2.285   8.613  0.00  0.00     0.020 A 
ATOM      8  C26 <0> d   1      18.908   1.206   7.767  0.00  0.00     0.002 A 
ATOM      9  C27 <0> d   1      18.661  -0.052   8.278  0.00  0.00     0.018 A 
ATOM     10  C28 <0> d   1      18.588  -0.240   9.657  0.00  0.00     0.050 A 
ATOM     11  C29 <0> d   1      18.332  -1.574  10.237  0.00  0.00     0.193 A 
ATOM     12  O30 <0> d   1      18.175  -2.555   9.529  0.00  0.00    -0.287 OA
ENDROOT
BRANCH   6  13
ATOM     13  C13 <0> d   1      19.206   3.272  10.894  0.00  0.00     0.296 C 
ATOM     14  O14 <0> d   1      20.231   3.382  11.536  0.00  0.00    -0.259 OA
BRANCH  13  15
ATOM     15  O15 <0> d   1      18.240   4.206  11.003  0.00  0.00    -0.316 OA
BRANCH  15  16
ATOM     16  C16 <0> d   1      17.383   4.135  12.173  0.00  0.00     0.206 C 
BRANCH  16  17
ATOM     17  C17 <0> d   1      17.791   5.221  13.171  0.00  0.00     0.261 C 
BRANCH  17  18
ATOM     18  N18 <0> d   1      18.783   4.677  14.108  0.00  0.00    -0.069 N 
ATOM     19  H19 <0> d   1      19.630   4.454  13.608  0.00  0.00     0.280 HD
ATOM     20  C24 <0> d   1      19.075   5.678  15.142  0.00  0.00     0.235 C 
ATOM     21  C23 <0> d   1      20.169   5.149  16.073  0.00  0.00     0.028 C 
ATOM     22  C22 <0> d   1      19.684   3.857  16.736  0.00  0.00     0.003 C 
ATOM     23  C21 <0> d   1      19.310   2.846  15.648  0.00  0.00     0.028 C 
ATOM     24  C20 <0> d   1      18.249   3.461  14.732  0.00  0.00     0.235 C 
ENDBRANCH  17  18
ENDBRANCH  16  17
ENDBRANCH  15  16
ENDBRANCH  13  15
ENDBRANCH   6  13
BRANCH   3  25
ATOM     25  C4  <0> d   1      18.394  -0.670  13.872  0.00  0.00    -0.002 A 
ATOM     26  C9  <0> d   1      19.410  -1.331  14.566  0.00  0.00     0.014 A 
ATOM     27  C8  <0> d   1      19.349  -1.435  15.940  0.00  0.00     0.001 A 
ATOM     28  C7  <0> d   1      18.279  -0.892  16.630  0.00  0.00     0.000 A 
ATOM     29  C6  <0> d   1      17.266  -0.240  15.949  0.00  0.00     0.001 A 
ATOM     30  C5  <0> d   1      17.317  -0.125  14.575  0.00  0.00     0.014 A 
ENDBRANCH   3  25
TORSDOF 6
ENDMDL
MODEL 3
REMARK VINA RESULT:      -8.6      2.142      5.449
REMARK  6 active torsions:
REMARK  status: ('A' for Active; 'I' for Inactive)
REMARK    1  A    between atoms: C3_3  and  C4_4 
REMARK    2  A    between atoms: C12_12  and  C13_13 
REMARK    3  A    between atoms: C13_13  and  O15_15 
REMARK    4  A    between atoms: O15_15  and  C16_16 
REMARK    5  A    between atoms: C16_16  and  C17_17 
REMARK    6  A    between atoms: C17_17  and  N18_18 
ROOT
ATOM      1  C1  <0> d   1      18.637   2.049  10.167  0.00  0.00     0.055 C 
ATOM      2  C2  <0> d   1      18.787   1.037   9.061  0.00  0.00     0.024 A 
ATOM      3  C3  <0> d   1      18.832  -0.292   9.347  0.00  0.00     0.096 A 
ATOM      4  O10 <0> d   1      18.964  -1.231   8.398  0.00  0.00    -0.307 OA
ATOM      5  C11 <0> d   1      19.062  -0.925   7.091  0.00  0.00     0.106 A 
ATOM      6  C12 <0> d   1      19.199  -1.934   6.123  0.00  0.00     0.074 A 
ATOM      7  C25 <0> d   1      19.298  -1.586   4.776  0.00  0.00     0.020 A 
ATOM      8  C26 <0> d   1      19.262  -0.259   4.389  0.00  0.00     0.002 A 
ATOM      9  C27 <0> d   1      19.127   0.741   5.330  0.00  0.00     0.018 A 
ATOM     10  C28 <0> d   1      19.027   0.416   6.681  0.00  0.00     0.050 A 
ATOM     11  C29 <0> d   1      18.876   1.462   7.714  0.00  0.00     0.193 A 
ATOM     12  O30 <0> d   1      18.833   2.644   7.418  0.00  0.00    -0.287 OA
ENDROOT
BRANCH   6  13
ATOM     13  C13 <0> d   1      19.238  -3.350   6.530  0.00  0.00     0.296 C 
ATOM     14  O14 <0> d   1      20.300  -3.937   6.589  0.00  0.00    -0.259 OA
BRANCH  13  15
ATOM     15  O15 <0> d   1      18.094  -3.994   6.836  0.00  0.00    -0.316 OA
BRANCH  15  16
ATOM     16  C16 <0> d   1      18.012  -5.398   6.476  0.00  0.00     0.206 C 
BRANCH  16  17
ATOM     17  C17 <0> d   1      17.799  -6.237   7.739  0.00  0.00     0.261 C 
BRANCH  17  18
ATOM     18  N18 <0> d   1      17.863  -5.368   8.921  0.00  0.00    -0.069 N 
ATOM     19  H19 <0> d   1      17.791  -4.403   8.633  0.00  0.00     0.280 HD
ATOM     20  C24 <0> d   1      16.752  -5.692   9.824  0.00  0.00     0.235 C 
ATOM     21  C23 <0> d   1      16.765  -4.733  11.018  0.00  0.00     0.028 C 
ATOM     22  C22 <0> d   1      18.091  -4.882  11.767  0.00  0.00     0.003 C 
ATOM     23  C21 <0> d   1      19.247  -4.616  10.798  0.00  0.00     0.028 C 
ATOM     24  C20 <0> d   1      19.142  -5.577   9.612  0.00  0.00     0.235 C 
ENDBRANCH  17  18
ENDBRANCH  16  17
ENDBRANCH  15  16
ENDBRANCH  13  15
ENDBRANCH   6  13
BRANCH   3  25
ATOM     25  C4  <0> d   1      18.731  -0.717  10.758  0.00  0.00    -0.002 A 
ATOM     26  C9  <0> d   1      19.888  -0.929  11.511  0.00  0.00     0.014 A 
ATOM     27  C8  <0> d   1      19.787  -1.322  12.830  0.00  0.00     0.001 A 
ATOM     28  C7  <0> d   1      18.542  -1.515  13.403  0.00  0.00     0.000 A 
ATOM     29  C6  <0> d   1      17.391  -1.311  12.661  0.00  0.00     0.001 A 
ATOM     30  C5  <0> d   1      17.478  -0.914  11.344  0.00  0.00     0.014 A 
ENDBRANCH   3  25
TORSDOF 6
ENDMDL
MODEL 4
REMARK VINA RESULT:      -8.5      2.238      7.110
REMARK  6 active torsions:
REMARK  status: ('A' for Active; 'I' for Inactive)
REMARK    1  A    between atoms: C3_3  and  C4_4 
REMARK    2  A    between atoms: C12_12  and  C13_13 
REMARK    3  A    between atoms: C13_13  and  O15_15 
REMARK    4  A    between atoms: O15_15  and  C16_16 
REMARK    5  A    between atoms: C16_16  and  C17_17 
REMARK    6  A    between atoms: C17_17  and  N18_18 
ROOT
ATOM      1  C1  <0> d   1      18.832  -5.134   7.168  0.00  0.00     0.055 C 
ATOM      2  C2  <0> d   1      18.836  -3.628   7.227  0.00  0.00     0.024 A 
ATOM      3  C3  <0> d   1      18.593  -2.987   8.401  0.00  0.00     0.096 A 
ATOM      4  O10 <0> d   1      18.586  -1.649   8.505  0.00  0.00    -0.307 OA
ATOM      5  C11 <0> d   1      18.818  -0.843   7.451  0.00  0.00     0.106 A 
ATOM      6  C12 <0> d   1      18.803   0.553   7.595  0.00  0.00     0.074 A 
ATOM      7  C25 <0> d   1      19.049   1.362   6.486  0.00  0.00     0.020 A 
ATOM      8  C26 <0> d   1      19.305   0.799   5.249  0.00  0.00     0.002 A 
ATOM      9  C27 <0> d   1      19.323  -0.572   5.095  0.00  0.00     0.018 A 
ATOM     10  C28 <0> d   1      19.081  -1.399   6.190  0.00  0.00     0.050 A 
ATOM     11  C29 <0> d   1      19.098  -2.870   6.061  0.00  0.00     0.193 A 
ATOM     12  O30 <0> d   1      19.326  -3.410   4.991  0.00  0.00    -0.287 OA
ENDROOT
BRANCH   6  13
ATOM     13  C13 <0> d   1      18.530   1.159   8.911  0.00  0.00     0.296 C 
ATOM     14  O14 <0> d   1      17.522   0.862   9.520  0.00  0.00    -0.259 OA
BRANCH  13  15
ATOM     15  O15 <0> d   1      19.400   2.044   9.438  0.00  0.00    -0.316 OA
BRANCH  15  16
ATOM     16  C16 <0> d   1      19.056   2.619  10.726  0.00  0.00     0.206 C 
BRANCH  16  17
ATOM     17  C17 <0> d   1      19.836   1.901  11.830  0.00  0.00     0.261 C 
BRANCH  17  18
ATOM     18  N18 <0> d   1      18.967   0.909  12.476  0.00  0.00    -0.069 N 
ATOM     19  H19 <0> d   1      18.104   0.830  11.960  0.00  0.00     0.280 HD
ATOM     20  C24 <0> d   1      19.646  -0.393  12.494  0.00  0.00     0.235 C 
ATOM     21  C23 <0> d   1      18.713  -1.450  13.092  0.00  0.00     0.028 C 
ATOM     22  C22 <0> d   1      18.346  -1.045  14.522  0.00  0.00     0.003 C 
ATOM     23  C21 <0> d   1      17.707   0.346  14.501  0.00  0.00     0.028 C 
ATOM     24  C20 <0> d   1      18.676   1.336  13.850  0.00  0.00     0.235 C 
ENDBRANCH  17  18
ENDBRANCH  16  17
ENDBRANCH  15  16
ENDBRANCH  13  15
ENDBRANCH   6  13
BRANCH   3  25
ATOM     25  C4  <0> d   1      18.327  -3.794   9.609  0.00  0.00    -0.002 A 
ATOM     26  C9  <0> d   1      19.366  -4.102  10.489  0.00  0.00     0.014 A 
ATOM     27  C8  <0> d   1      19.111  -4.853  11.618  0.00  0.00     0.001 A 
ATOM     28  C7  <0> d   1      17.829  -5.308  11.874  0.00  0.00     0.000 A 
ATOM     29  C6  <0> d   1      16.795  -5.012  11.002  0.00  0.00     0.001 A 
ATOM     30  C5  <0> d   1      17.036  -4.258   9.873  0.00  0.00     0.014 A 
ENDBRANCH   3  25
TORSDOF 6
ENDMDL
MODEL 5
REMARK VINA RESULT:      -8.5      2.652      5.505
REMARK  6 active torsions:
REMARK  status: ('A' for Active; 'I' for Inactive)
REMARK    1  A    between atoms: C3_3  and  C4_4 
REMARK    2  A    between atoms: C12_12  and  C13_13 
REMARK    3  A    between atoms: C13_13  and  O15_15 
REMARK    4  A    between atoms: O15_15  and  C16_16 
REMARK    5  A    between atoms: C16_16  and  C17_17 
REMARK    6  A    between atoms: C17_17  and  N18_18 
ROOT
ATOM      1  C1  <0> d   1      19.166  -1.103  15.317  0.00  0.00     0.055 C 
ATOM      2  C2  <0> d   1      18.834   0.287  14.837  0.00  0.00     0.024 A 
ATOM      3  C3  <0> d   1      18.546   0.510  13.527  0.00  0.00     0.096 A 
ATOM      4  O10 <0> d   1      18.243   1.727  13.051  0.00  0.00    -0.307 OA
ATOM      5  C11 <0> d   1      18.205   2.819  13.838  0.00  0.00     0.106 A 
ATOM      6  C12 <0> d   1      17.884   4.079  13.307  0.00  0.00     0.074 A 
ATOM      7  C25 <0> d   1      17.852   5.192  14.148  0.00  0.00     0.020 A 
ATOM      8  C26 <0> d   1      18.132   5.062  15.495  0.00  0.00     0.002 A 
ATOM      9  C27 <0> d   1      18.447   3.830  16.029  0.00  0.00     0.018 A 
ATOM     10  C28 <0> d   1      18.486   2.705  15.208  0.00  0.00     0.050 A 
ATOM     11  C29 <0> d   1      18.814   1.370  15.748  0.00  0.00     0.193 A 
ATOM     12  O30 <0> d   1      19.062   1.208  16.931  0.00  0.00    -0.287 OA
ENDROOT
BRANCH   6  13
ATOM     13  C13 <0> d   1      17.585   4.223  11.871  0.00  0.00     0.296 C 
ATOM     14  O14 <0> d   1      16.442   4.407  11.504  0.00  0.00    -0.259 OA
BRANCH  13  15
ATOM     15  O15 <0> d   1      18.580   4.151  10.965  0.00  0.00    -0.316 OA
BRANCH  15  16
ATOM     16  C16 <0> d   1      18.386   3.254   9.841  0.00  0.00     0.206 C 
BRANCH  16  17
ATOM     17  C17 <0> d   1      19.400   2.111   9.919  0.00  0.00     0.261 C 
BRANCH  17  18
ATOM     18  N18 <0> d   1      19.064   1.088   8.920  0.00  0.00    -0.069 N 
ATOM     19  H19 <0> d   1      19.710   0.317   8.998  0.00  0.00     0.280 HD
ATOM     20  C24 <0> d   1      17.697   0.606   9.158  0.00  0.00     0.235 C 
ATOM     21  C23 <0> d   1      17.371  -0.518   8.171  0.00  0.00     0.028 C 
ATOM     22  C22 <0> d   1      17.482   0.019   6.742  0.00  0.00     0.003 C 
ATOM     23  C21 <0> d   1      18.887   0.588   6.528  0.00  0.00     0.028 C 
ATOM     24  C20 <0> d   1      19.158   1.670   7.575  0.00  0.00     0.235 C 
ENDBRANCH  17  18
ENDBRANCH  16  17
ENDBRANCH  15  16
ENDBRANCH  13  15
ENDBRANCH   6  13
BRANCH   3  25
ATOM     25  C4  <0> d   1      18.565  -0.634  12.592  0.00  0.00    -0.002 A 
ATOM     26  C9  <0> d   1      17.395  -1.353  12.339  0.00  0.00     0.014 A 
ATOM     27  C8  <0> d   1      17.419  -2.417  11.461  0.00  0.00     0.001 A 
ATOM     28  C7  <0> d   1      18.601  -2.777  10.839  0.00  0.00     0.000 A 
ATOM     29  C6  <0> d   1      19.766  -2.072  11.089  0.00  0.00     0.001 A 
ATOM     30  C5  <0> d   1      19.755  -1.003  11.961  0.00  0.00     0.014 A 
ENDBRANCH   3  25
TORSDOF 6
ENDMDL
MODEL 6
REMARK VINA RESULT:      -8.4      2.152      5.885
REMARK  6 active torsions:
REMARK  status: ('A' for Active; 'I' for Inactive)
REMARK    1  A    between atoms: C3_3  and  C4_4 
REMARK    2  A    between atoms: C12_12  and  C13_13 
REMARK    3  A    between atoms: C13_13  and  O15_15 
REMARK    4  A    between atoms: O15_15  and  C16_16 
REMARK    5  A    between atoms: C16_16  and  C17_17 
REMARK    6  A    between atoms: C17_17  and  N18_18 
ROOT
ATOM      1  C1  <0> d   1      18.176  -4.315   5.527  0.00  0.00     0.055 C 
ATOM      2  C2  <0> d   1      18.051  -4.179   7.023  0.00  0.00     0.024 A 
ATOM      3  C3  <0> d   1      18.155  -2.957   7.611  0.00  0.00     0.096 A 
ATOM      4  O10 <0> d   1      18.051  -2.783   8.937  0.00  0.00    -0.307 OA
ATOM      5  C11 <0> d   1      17.837  -3.808   9.784  0.00  0.00     0.106 A 
ATOM      6  C12 <0> d   1      17.732  -3.591  11.167  0.00  0.00     0.074 A 
ATOM      7  C25 <0> d   1      17.510  -4.673  12.018  0.00  0.00     0.020 A 
ATOM      8  C26 <0> d   1      17.391  -5.953  11.511  0.00  0.00     0.002 A 
ATOM      9  C27 <0> d   1      17.491  -6.180  10.153  0.00  0.00     0.018 A 
ATOM     10  C28 <0> d   1      17.714  -5.114   9.285  0.00  0.00     0.050 A 
ATOM     11  C29 <0> d   1      17.820  -5.321   7.826  0.00  0.00     0.193 A 
ATOM     12  O30 <0> d   1      17.716  -6.432   7.334  0.00  0.00    -0.287 OA
ENDROOT
BRANCH   6  13
ATOM     13  C13 <0> d   1      17.858  -2.228  11.714  0.00  0.00     0.296 C 
ATOM     14  O14 <0> d   1      16.885  -1.503  11.770  0.00  0.00    -0.259 OA
BRANCH  13  15
ATOM     15  O15 <0> d   1      19.053  -1.786  12.153  0.00  0.00    -0.316 OA
BRANCH  15  16
ATOM     16  C16 <0> d   1      19.143  -0.385  12.524  0.00  0.00     0.206 C 
BRANCH  16  17
ATOM     17  C17 <0> d   1      20.432   0.212  11.955  0.00  0.00     0.261 C 
BRANCH  17  18
ATOM     18  N18 <0> d   1      20.111   1.407  11.164  0.00  0.00    -0.069 N 
ATOM     19  H19 <0> d   1      20.965   1.839  10.846  0.00  0.00     0.280 HD
ATOM     20  C24 <0> d   1      19.300   1.018  10.003  0.00  0.00     0.235 C 
ATOM     21  C23 <0> d   1      19.032   2.246   9.130  0.00  0.00     0.028 C 
ATOM     22  C22 <0> d   1      18.277   3.294   9.953  0.00  0.00     0.003 C 
ATOM     23  C21 <0> d   1      19.097   3.636  11.200  0.00  0.00     0.028 C 
ATOM     24  C20 <0> d   1      19.363   2.357  11.996  0.00  0.00     0.235 C 
ENDBRANCH  17  18
ENDBRANCH  16  17
ENDBRANCH  15  16
ENDBRANCH  13  15
ENDBRANCH   6  13
BRANCH   3  25
ATOM     25  C4  <0> d   1      18.390  -1.776   6.756  0.00  0.00    -0.002 A 
ATOM     26  C9  <0> d   1      19.389  -1.803   5.781  0.00  0.00     0.014 A 
ATOM     27  C8  <0> d   1      19.601  -0.698   4.983  0.00  0.00     0.001 A 
ATOM     28  C7  <0> d   1      18.832   0.439   5.154  0.00  0.00     0.000 A 
ATOM     29  C6  <0> d   1      17.844   0.476   6.123  0.00  0.00     0.001 A 
ATOM     30  C5  <0> d   1      17.618  -0.624   6.924  0.00  0.00     0.014 A 
ENDBRANCH   3  25
TORSDOF 6
ENDMDL
MODEL 7
REMARK VINA RESULT:      -8.4      2.302      5.731
REMARK  6 active torsions:
REMARK  status: ('A' for Active; 'I' for Inactive)
REMARK    1  A    between atoms: C3_3  and  C4_4 
REMARK    2  A    between atoms: C12_12  and  C13_13 
REMARK    3  A    between atoms: C13_13  and  O15_15 
REMARK    4  A    between atoms: O15_15  and  C16_16 
REMARK    5  A    between atoms: C16_16  and  C17_17 
REMARK    6  A    between atoms: C17_17  and  N18_18 
ROOT
ATOM      1  C1  <0> d   1      18.868   2.836  16.458  0.00  0.00     0.055 C 
ATOM      2  C2  <0> d   1      18.575   2.785  14.981  0.00  0.00     0.024 A 
ATOM      3  C3  <0> d   1      18.261   1.604  14.384  0.00  0.00     0.096 A 
ATOM      4  O10 <0> d   1      17.991   1.507  13.073  0.00  0.00    -0.307 OA
ATOM      5  C11 <0> d   1      18.012   2.574  12.252  0.00  0.00     0.106 A 
ATOM      6  C12 <0> d   1      17.724   2.437  10.885  0.00  0.00     0.074 A 
ATOM      7  C25 <0> d   1      17.753   3.561  10.060  0.00  0.00     0.020 A 
ATOM      8  C26 <0> d   1      18.063   4.805  10.578  0.00  0.00     0.002 A 
ATOM      9  C27 <0> d   1      18.347   4.953  11.920  0.00  0.00     0.018 A 
ATOM     10  C28 <0> d   1      18.324   3.843  12.762  0.00  0.00     0.050 A 
ATOM     11  C29 <0> d   1      18.618   3.968  14.205  0.00  0.00     0.193 A 
ATOM     12  O30 <0> d   1      18.890   5.045  14.706  0.00  0.00    -0.287 OA
ENDROOT
BRANCH   6  13
ATOM     13  C13 <0> d   1      17.393   1.114  10.327  0.00  0.00     0.296 C 
ATOM     14  O14 <0> d   1      16.553   0.420  10.863  0.00  0.00    -0.259 OA
BRANCH  13  15
ATOM     15  O15 <0> d   1      18.024   0.673   9.220  0.00  0.00    -0.316 OA
BRANCH  15  16
ATOM     16  C16 <0> d   1      19.275  -0.037   9.412  0.00  0.00     0.206 C 
BRANCH  16  17
ATOM     17  C17 <0> d   1      19.228  -1.368   8.658  0.00  0.00     0.261 C 
BRANCH  17  18
ATOM     18  N18 <0> d   1      19.649  -2.453   9.554  0.00  0.00    -0.069 N 
ATOM     19  H19 <0> d   1      20.648  -2.577   9.485  0.00  0.00     0.280 HD
ATOM     20  C24 <0> d   1      19.294  -2.108  10.937  0.00  0.00     0.235 C 
ATOM     21  C23 <0> d   1      19.805  -3.197  11.884  0.00  0.00     0.028 C 
ATOM     22  C22 <0> d   1      19.158  -4.533  11.509  0.00  0.00     0.003 C 
ATOM     23  C21 <0> d   1      19.471  -4.847  10.043  0.00  0.00     0.028 C 
ATOM     24  C20 <0> d   1      18.975  -3.697   9.164  0.00  0.00     0.235 C 
ENDBRANCH  17  18
ENDBRANCH  16  17
ENDBRANCH  15  16
ENDBRANCH  13  15
ENDBRANCH   6  13
BRANCH   3  25
ATOM     25  C4  <0> d   1      18.215   0.381  15.211  0.00  0.00    -0.002 A 
ATOM     26  C9  <0> d   1      17.155   0.172  16.095  0.00  0.00     0.014 A 
ATOM     27  C8  <0> d   1      17.115  -0.975  16.861  0.00  0.00     0.001 A 
ATOM     28  C7  <0> d   1      18.128  -1.912  16.762  0.00  0.00     0.000 A 
ATOM     29  C6  <0> d   1      19.185  -1.708  15.891  0.00  0.00     0.001 A 
ATOM     30  C5  <0> d   1      19.235  -0.569  15.116  0.00  0.00     0.014 A 
ENDBRANCH   3  25
TORSDOF 6
ENDMDL
MODEL 8
REMARK VINA RESULT:      -8.3      2.821      4.685
REMARK  6 active torsions:
REMARK  status: ('A' for Active; 'I' for Inactive)
REMARK    1  A    between atoms: C3_3  and  C4_4 
REMARK    2  A    between atoms: C12_12  and  C13_13 
REMARK    3  A    between atoms: C13_13  and  O15_15 
REMARK    4  A    between atoms: O15_15  and  C16_16 
REMARK    5  A    between atoms: C16_16  and  C17_17 
REMARK    6  A    between atoms: C17_17  and  N18_18 
ROOT
ATOM      1  C1  <0> d   1      19.165   5.621  13.947  0.00  0.00     0.055 C 
ATOM      2  C2  <0> d   1      19.068   4.308  14.682  0.00  0.00     0.024 A 
ATOM      3  C3  <0> d   1      18.825   3.157  14.001  0.00  0.00     0.096 A 
ATOM      4  O10 <0> d   1      18.730   1.965  14.609  0.00  0.00    -0.307 OA
ATOM      5  C11 <0> d   1      18.867   1.822  15.941  0.00  0.00     0.106 A 
ATOM      6  C12 <0> d   1      18.761   0.560  16.545  0.00  0.00     0.074 A 
ATOM      7  C25 <0> d   1      18.908   0.444  17.928  0.00  0.00     0.020 A 
ATOM      8  C26 <0> d   1      19.156   1.561  18.704  0.00  0.00     0.002 A 
ATOM      9  C27 <0> d   1      19.262   2.807  18.122  0.00  0.00     0.018 A 
ATOM     10  C28 <0> d   1      19.119   2.946  16.743  0.00  0.00     0.050 A 
ATOM     11  C29 <0> d   1      19.233   4.265  16.087  0.00  0.00     0.193 A 
ATOM     12  O30 <0> d   1      19.456   5.276  16.731  0.00  0.00    -0.287 OA
ENDROOT
BRANCH   6  13
ATOM     13  C13 <0> d   1      18.497  -0.635  15.724  0.00  0.00     0.296 C 
ATOM     14  O14 <0> d   1      17.371  -1.085  15.648  0.00  0.00    -0.259 OA
BRANCH  13  15
ATOM     15  O15 <0> d   1      19.506  -1.230  15.056  0.00  0.00    -0.316 OA
BRANCH  15  16
ATOM     16  C16 <0> d   1      19.593  -0.976  13.630  0.00  0.00     0.206 C 
BRANCH  16  17
ATOM     17  C17 <0> d   1      19.107  -2.206  12.861  0.00  0.00     0.261 C 
BRANCH  17  18
ATOM     18  N18 <0> d   1      18.201  -1.785  11.784  0.00  0.00    -0.069 N 
ATOM     19  H19 <0> d   1      17.401  -2.399  11.759  0.00  0.00     0.280 HD
ATOM     20  C24 <0> d   1      17.752  -0.410  12.037  0.00  0.00     0.235 C 
ATOM     21  C23 <0> d   1      16.742   0.005  10.963  0.00  0.00     0.028 C 
ATOM     22  C22 <0> d   1      17.412  -0.069   9.589  0.00  0.00     0.003 C 
ATOM     23  C21 <0> d   1      17.944  -1.487   9.366  0.00  0.00     0.028 C 
ATOM     24  C20 <0> d   1      18.907  -1.848  10.499  0.00  0.00     0.235 C 
ENDBRANCH  17  18
ENDBRANCH  16  17
ENDBRANCH  15  16
ENDBRANCH  13  15
ENDBRANCH   6  13
BRANCH   3  25
ATOM     25  C4  <0> d   1      18.662   3.221  12.535  0.00  0.00    -0.002 A 
ATOM     26  C9  <0> d   1      17.503   3.768  11.981  0.00  0.00     0.014 A 
ATOM     27  C8  <0> d   1      17.358   3.829  10.610  0.00  0.00     0.001 A 
ATOM     28  C7  <0> d   1      18.355   3.341   9.785  0.00  0.00     0.000 A 
ATOM     29  C6  <0> d   1      19.505   2.792  10.327  0.00  0.00     0.001 A 
ATOM     30  C5  <0> d   1      19.665   2.729  11.695  0.00  0.00     0.014 A 
ENDBRANCH   3  25
TORSDOF 6
ENDMDL
MODEL 9
REMARK VINA RESULT:      -8.3      2.123      4.136
REMARK  6 active torsions:
REMARK  status: ('A' for Active; 'I' for Inactive)
REMARK    1  A    between atoms: C3_3  and  C4_4 
REMARK    2  A    between atoms: C12_12  and  C13_13 
REMARK    3  A    between atoms: C13_13  and  O15_15 
REMARK    4  A    between atoms: O15_15  and  C16_16 
REMARK    5  A    between atoms: C16_16  and  C17_17 
REMARK    6  A    between atoms: C17_17  and  N18_18 
ROOT
ATOM      1  C1  <0> d   1      18.783   4.854  14.889  0.00  0.00     0.055 C 
ATOM      2  C2  <0> d   1      18.685   3.352  14.830  0.00  0.00     0.024 A 
ATOM      3  C3  <0> d   1      18.297   2.734  13.683  0.00  0.00     0.096 A 
ATOM      4  O10 <0> d   1      18.194   1.400  13.580  0.00  0.00    -0.307 OA
ATOM      5  C11 <0> d   1      18.468   0.575  14.608  0.00  0.00     0.106 A 
ATOM      6  C12 <0> d   1      18.351  -0.817  14.466  0.00  0.00     0.074 A 
ATOM      7  C25 <0> d   1      18.642  -1.646  15.549  0.00  0.00     0.020 A 
ATOM      8  C26 <0> d   1      19.044  -1.108  16.757  0.00  0.00     0.002 A 
ATOM      9  C27 <0> d   1      19.164   0.259  16.909  0.00  0.00     0.018 A 
ATOM     10  C28 <0> d   1      18.878   1.105  15.840  0.00  0.00     0.050 A 
ATOM     11  C29 <0> d   1      19.001   2.572  15.968  0.00  0.00     0.193 A 
ATOM     12  O30 <0> d   1      19.358   3.090  17.012  0.00  0.00    -0.287 OA
ENDROOT
BRANCH   6  13
ATOM     13  C13 <0> d   1      17.922  -1.397  13.180  0.00  0.00     0.296 C 
ATOM     14  O14 <0> d   1      17.002  -0.898  12.565  0.00  0.00    -0.259 OA
BRANCH  13  15
ATOM     15  O15 <0> d   1      18.553  -2.481  12.688  0.00  0.00    -0.316 OA
BRANCH  15  16
ATOM     16  C16 <0> d   1      19.636  -2.246  11.750  0.00  0.00     0.206 C 
BRANCH  16  17
ATOM     17  C17 <0> d   1      19.139  -2.491  10.324  0.00  0.00     0.261 C 
BRANCH  17  18
ATOM     18  N18 <0> d   1      18.748  -1.213   9.715  0.00  0.00    -0.069 N 
ATOM     19  H19 <0> d   1      18.272  -0.646  10.400  0.00  0.00     0.280 HD
ATOM     20  C24 <0> d   1      19.949  -0.508   9.249  0.00  0.00     0.235 C 
ATOM     21  C23 <0> d   1      19.556   0.861   8.689  0.00  0.00     0.028 C 
ATOM     22  C22 <0> d   1      18.591   0.666   7.516  0.00  0.00     0.003 C 
ATOM     23  C21 <0> d   1      17.377  -0.135   7.995  0.00  0.00     0.028 C 
ATOM     24  C20 <0> d   1      17.850  -1.466   8.582  0.00  0.00     0.235 C 
ENDBRANCH  17  18
ENDBRANCH  16  17
ENDBRANCH  15  16
ENDBRANCH  13  15
ENDBRANCH   6  13
BRANCH   3  25
ATOM     25  C4  <0> d   1      17.976   3.564  12.503  0.00  0.00    -0.002 A 
ATOM     26  C9  <0> d   1      17.056   4.608  12.610  0.00  0.00     0.014 A 
ATOM     27  C8  <0> d   1      16.764   5.382  11.506  0.00  0.00     0.001 A 
ATOM     28  C7  <0> d   1      17.376   5.120  10.292  0.00  0.00     0.000 A 
ATOM     29  C6  <0> d   1      18.285   4.082  10.178  0.00  0.00     0.001 A 
ATOM     30  C5  <0> d   1      18.589   3.304  11.275  0.00  0.00     0.014 A 
ENDBRANCH   3  25
TORSDOF 6
ENDMDL
