MODEL 1
REMARK VINA RESULT:      -9.3      0.000      0.000
REMARK  6 active torsions:
REMARK  status: ('A' for Active; 'I' for Inactive)
REMARK    1  A    between atoms: C2_2  and  N4_4 
REMARK    2  A    between atoms: N4_4  and  C5_5 
REMARK    3  A    between atoms: C11_11  and  N12_12 
REMARK       I    between atoms: N15_15  and  C16_16 
REMARK    4  A    between atoms: C16_16  and  C18_18 
REMARK    5  A    between atoms: C22_22  and  N23_23 
REMARK    6  A    between atoms: N23_23  and  S24_24 
ROOT
ATOM      1  N12 ZIN A   1      19.195   1.776  14.690  0.00  0.00    -0.264 NA
ATOM      2  C13 ZIN A   1      18.068   2.712  14.585  0.00  0.00     0.117 C 
ATOM      3  C14 ZIN A   1      18.261   3.603  13.353  0.00  0.00     0.141 C 
ATOM      4  N15 ZIN A   1      18.465   2.740  12.180  0.00  0.00    -0.344 N 
ATOM      5  C16 ZIN A   1      17.735   2.910  11.060  0.00  0.00     0.270 C 
ATOM      6  O17 ZIN A   1      16.902   3.795  11.006  0.00  0.00    -0.266 OA
ATOM      7  C32 ZIN A   1      19.487   1.685  12.260  0.00  0.00     0.141 C 
ATOM      8  C33 ZIN A   1      19.246   0.870  13.535  0.00  0.00     0.117 C 
ENDROOT
BRANCH   5   9
ATOM      9  C18 ZIN A   1      17.944   2.027   9.903  0.00  0.00     0.102 A 
ATOM     10  N31 ZIN A   1      18.715   2.324   8.797  0.00  0.00    -0.351 N 
ATOM     11  C30 ZIN A   1      18.675   1.257   7.928  0.00  0.00     0.043 A 
ATOM     12  H57 ZIN A   1      19.206   3.149   8.656  0.00  0.00     0.166 HD
ATOM     13  C20 ZIN A   1      17.850   0.275   8.509  0.00  0.00    -0.005 A 
ATOM     14  C29 ZIN A   1      19.260   1.020   6.687  0.00  0.00     0.033 A 
ATOM     15  C19 ZIN A   1      17.405   0.789   9.751  0.00  0.00     0.049 A 
ATOM     16  C21 ZIN A   1      17.623  -0.932   7.831  0.00  0.00     0.043 A 
ATOM     17  C22 ZIN A   1      18.213  -1.146   6.602  0.00  0.00     0.043 A 
ATOM     18  C28 ZIN A   1      19.029  -0.168   6.033  0.00  0.00     0.032 A 
BRANCH  17  19
ATOM     19  N23 ZIN A   1      17.989  -2.348   5.923  0.00  0.00    -0.285 N 
ATOM     20  H51 ZIN A   1      17.367  -2.377   5.179  0.00  0.00     0.178 HD
BRANCH  19  21
ATOM     21  S24 ZIN A   1      18.787  -3.724   6.387  0.00  0.00     0.227 S 
ATOM     22  C25 ZIN A   1      18.233  -4.987   5.209  0.00  0.00     0.186 C 
ATOM     23  O26 ZIN A   1      20.160  -3.418   6.181  0.00  0.00    -0.206 OA
ATOM     24  O27 ZIN A   1      18.285  -4.000   7.687  0.00  0.00    -0.206 OA
ENDBRANCH  19  21
ENDBRANCH  17  19
ENDBRANCH   5   9
BRANCH   1  25
ATOM     25  C11 ZIN A   1      19.140   1.061  15.884  0.00  0.00     0.109 A 
ATOM     26  C5  ZIN A   1      19.263   1.735  17.103  0.00  0.00     0.067 A 
ATOM     27  C6  ZIN A   1      19.205   1.008  18.283  0.00  0.00     0.034 A 
ATOM     28  C7  ZIN A   1      19.034  -0.368  18.204  0.00  0.00     0.019 A 
ATOM     29  C8  ZIN A   1      18.926  -0.967  16.966  0.00  0.00     0.089 A 
ATOM     30  N9  ZIN A   1      18.984  -0.252  15.857  0.00  0.00    -0.355 N 
ATOM     31  H10 ZIN A   1      18.905  -0.700  15.001  0.00  0.00     0.166 HD
BRANCH  26  32
ATOM     32  N4  ZIN A   1      19.433   3.125  17.132  0.00  0.00    -0.383 N 
ATOM     33  H41 ZIN A   1      20.293   3.513  16.906  0.00  0.00     0.160 HD
BRANCH  32  34
ATOM     34  C2  ZIN A   1      18.314   3.992  17.506  0.00  0.00     0.073 C 
ATOM     35  C1  ZIN A   1      18.164   4.003  19.029  0.00  0.00     0.031 C 
ATOM     36  C3  ZIN A   1      18.582   5.414  17.010  0.00  0.00     0.031 C 
ENDBRANCH  32  34
ENDBRANCH  26  32
ENDBRANCH   1  25
TORSDOF 6
ENDMDL
MODEL 2
REMARK VINA RESULT:      -9.3      2.108      3.682
REMARK  6 active torsions:
REMARK  status: ('A' for Active; 'I' for Inactive)
REMARK    1  A    between atoms: C2_2  and  N4_4 
REMARK    2  A    between atoms: N4_4  and  C5_5 
REMARK    3  A    between atoms: C11_11  and  N12_12 
REMARK       I    between atoms: N15_15  and  C16_16 
REMARK    4  A    between atoms: C16_16  and  C18_18 
REMARK    5  A    between atoms: C22_22  and  N23_23 
REMARK    6  A    between atoms: N23_23  and  S24_24 
ROOT
ATOM      1  N12 ZIN A   1      17.951   3.983  14.976  0.00  0.00    -0.264 NA
ATOM      2  C13 ZIN A   1      19.180   3.357  15.484  0.00  0.00     0.117 C 
ATOM      3  C14 ZIN A   1      19.137   1.852  15.197  0.00  0.00     0.141 C 
ATOM      4  N15 ZIN A   1      18.888   1.658  13.760  0.00  0.00    -0.344 N 
ATOM      5  C16 ZIN A   1      19.678   0.852  13.024  0.00  0.00     0.270 C 
ATOM      6  O17 ZIN A   1      20.605   0.266  13.548  0.00  0.00    -0.266 OA
ATOM      7  C32 ZIN A   1      17.753   2.365  13.149  0.00  0.00     0.141 C 
ATOM      8  C33 ZIN A   1      17.848   3.849  13.517  0.00  0.00     0.117 C 
ENDROOT
BRANCH   5   9
ATOM      9  C18 ZIN A   1      19.420   0.684  11.586  0.00  0.00     0.102 A 
ATOM     10  N31 ZIN A   1      19.645   1.639  10.614  0.00  0.00    -0.351 N 
ATOM     11  C30 ZIN A   1      19.288   1.120   9.390  0.00  0.00     0.043 A 
ATOM     12  H57 ZIN A   1      19.997   2.530  10.769  0.00  0.00     0.166 HD
ATOM     13  C20 ZIN A   1      18.822  -0.191   9.611  0.00  0.00    -0.005 A 
ATOM     14  C29 ZIN A   1      19.308   1.634   8.097  0.00  0.00     0.033 A 
ATOM     15  C19 ZIN A   1      18.918  -0.436  11.002  0.00  0.00     0.049 A 
ATOM     16  C21 ZIN A   1      18.382  -0.964   8.527  0.00  0.00     0.043 A 
ATOM     17  C22 ZIN A   1      18.411  -0.434   7.253  0.00  0.00     0.043 A 
ATOM     18  C28 ZIN A   1      18.873   0.865   7.042  0.00  0.00     0.032 A 
BRANCH  17  19
ATOM     19  N23 ZIN A   1      17.973  -1.202   6.170  0.00  0.00    -0.285 N 
ATOM     20  H51 ZIN A   1      17.032  -1.214   5.932  0.00  0.00     0.178 HD
BRANCH  19  21
ATOM     21  S24 ZIN A   1      19.059  -2.091   5.290  0.00  0.00     0.227 S 
ATOM     22  C25 ZIN A   1      18.032  -3.237   4.329  0.00  0.00     0.186 C 
ATOM     23  O26 ZIN A   1      19.679  -1.140   4.435  0.00  0.00    -0.206 OA
ATOM     24  O27 ZIN A   1      19.810  -2.795   6.269  0.00  0.00    -0.206 OA
ENDBRANCH  19  21
ENDBRANCH  17  19
ENDBRANCH   5   9
BRANCH   1  25
ATOM     25  C11 ZIN A   1      17.877   5.320  15.362  0.00  0.00     0.109 A 
ATOM     26  C5  ZIN A   1      17.333   5.654  16.605  0.00  0.00     0.067 A 
ATOM     27  C6  ZIN A   1      17.266   6.990  16.973  0.00  0.00     0.034 A 
ATOM     28  C7  ZIN A   1      17.740   7.945  16.084  0.00  0.00     0.019 A 
ATOM     29  C8  ZIN A   1      18.260   7.543  14.870  0.00  0.00     0.089 A 
ATOM     30  N9  ZIN A   1      18.311   6.264  14.544  0.00  0.00    -0.355 N 
ATOM     31  H10 ZIN A   1      18.682   6.011  13.684  0.00  0.00     0.166 HD
BRANCH  26  32
ATOM     32  N4  ZIN A   1      16.869   4.655  17.469  0.00  0.00    -0.383 N 
ATOM     33  H41 ZIN A   1      16.045   4.183  17.267  0.00  0.00     0.160 HD
BRANCH  32  34
ATOM     34  C2  ZIN A   1      17.624   4.323  18.679  0.00  0.00     0.073 C 
ATOM     35  C1  ZIN A   1      16.881   4.854  19.906  0.00  0.00     0.031 C 
ATOM     36  C3  ZIN A   1      17.771   2.804  18.788  0.00  0.00     0.031 C 
ENDBRANCH  32  34
ENDBRANCH  26  32
ENDBRANCH   1  25
TORSDOF 6
ENDMDL
MODEL 3
REMARK VINA RESULT:      -9.2      2.895      4.557
REMARK  6 active torsions:
REMARK  status: ('A' for Active; 'I' for Inactive)
REMARK    1  A    between atoms: C2_2  and  N4_4 
REMARK    2  A    between atoms: N4_4  and  C5_5 
REMARK    3  A    between atoms: C11_11  and  N12_12 
REMARK       I    between atoms: N15_15  and  C16_16 
REMARK    4  A    between atoms: C16_16  and  C18_18 
REMARK    5  A    between atoms: C22_22  and  N23_23 
REMARK    6  A    between atoms: N23_23  and  S24_24 
ROOT
ATOM      1  N12 ZIN A   1      18.230   0.208  12.671  0.00  0.00    -0.264 NA
ATOM      2  C13 ZIN A   1      19.228  -0.740  13.186  0.00  0.00     0.117 C 
ATOM      3  C14 ZIN A   1      18.870  -2.156  12.719  0.00  0.00     0.141 C 
ATOM      4  N15 ZIN A   1      18.722  -2.141  11.256  0.00  0.00    -0.344 N 
ATOM      5  C16 ZIN A   1      19.375  -3.034  10.485  0.00  0.00     0.270 C 
ATOM      6  O17 ZIN A   1      20.088  -3.873  11.000  0.00  0.00    -0.266 OA
ATOM      7  C32 ZIN A   1      17.843  -1.126  10.655  0.00  0.00     0.141 C 
ATOM      8  C33 ZIN A   1      18.240   0.248  11.203  0.00  0.00     0.117 C 
ENDROOT
BRANCH   5   9
ATOM      9  C18 ZIN A   1      19.224  -2.992   9.023  0.00  0.00     0.102 A 
ATOM     10  N31 ZIN A   1      19.473  -1.894   8.223  0.00  0.00    -0.351 N 
ATOM     11  C30 ZIN A   1      19.225  -2.235   6.913  0.00  0.00     0.043 A 
ATOM     12  H57 ZIN A   1      19.774  -1.026   8.534  0.00  0.00     0.166 HD
ATOM     13  C20 ZIN A   1      18.803  -3.579   6.902  0.00  0.00    -0.005 A 
ATOM     14  C29 ZIN A   1      19.312  -1.531   5.715  0.00  0.00     0.033 A 
ATOM     15  C19 ZIN A   1      18.814  -4.027   8.244  0.00  0.00     0.049 A 
ATOM     16  C21 ZIN A   1      18.474  -4.194   5.686  0.00  0.00     0.043 A 
ATOM     17  C22 ZIN A   1      18.567  -3.477   4.510  0.00  0.00     0.043 A 
ATOM     18  C28 ZIN A   1      18.985  -2.146   4.529  0.00  0.00     0.032 A 
BRANCH  17  19
ATOM     19  N23 ZIN A   1      18.239  -4.087   3.295  0.00  0.00    -0.285 N 
ATOM     20  H51 ZIN A   1      18.940  -4.341   2.674  0.00  0.00     0.178 HD
BRANCH  19  21
ATOM     21  S24 ZIN A   1      16.653  -4.376   2.914  0.00  0.00     0.227 S 
ATOM     22  C25 ZIN A   1      16.371  -6.093   3.430  0.00  0.00     0.186 C 
ATOM     23  O26 ZIN A   1      15.925  -3.481   3.743  0.00  0.00    -0.206 OA
ATOM     24  O27 ZIN A   1      16.606  -4.267   1.499  0.00  0.00    -0.206 OA
ENDBRANCH  19  21
ENDBRANCH  17  19
ENDBRANCH   5   9
BRANCH   1  25
ATOM     25  C11 ZIN A   1      18.427   1.479  13.208  0.00  0.00     0.109 A 
ATOM     26  C5  ZIN A   1      17.980   1.762  14.501  0.00  0.00     0.067 A 
ATOM     27  C6  ZIN A   1      18.184   3.033  15.020  0.00  0.00     0.034 A 
ATOM     28  C7  ZIN A   1      18.821   3.977  14.225  0.00  0.00     0.019 A 
ATOM     29  C8  ZIN A   1      19.231   3.627  12.955  0.00  0.00     0.089 A 
ATOM     30  N9  ZIN A   1      19.024   2.411  12.485  0.00  0.00    -0.355 N 
ATOM     31  H10 ZIN A   1      19.323   2.194  11.588  0.00  0.00     0.166 HD
BRANCH  26  32
ATOM     32  N4  ZIN A   1      17.343   0.777  15.265  0.00  0.00    -0.383 N 
ATOM     33  H41 ZIN A   1      16.446   0.488  15.033  0.00  0.00     0.160 HD
BRANCH  32  34
ATOM     34  C2  ZIN A   1      18.028   0.185  16.416  0.00  0.00     0.073 C 
ATOM     35  C1  ZIN A   1      17.470   0.786  17.708  0.00  0.00     0.031 C 
ATOM     36  C3  ZIN A   1      17.805  -1.329  16.419  0.00  0.00     0.031 C 
ENDBRANCH  32  34
ENDBRANCH  26  32
ENDBRANCH   1  25
TORSDOF 6
ENDMDL
MODEL 4
REMARK VINA RESULT:      -9.2      3.847     10.480
REMARK  6 active torsions:
REMARK  status: ('A' for Active; 'I' for Inactive)
REMARK    1  A    between atoms: C2_2  and  N4_4 
REMARK    2  A    between atoms: N4_4  and  C5_5 
REMARK    3  A    between atoms: C11_11  and  N12_12 
REMARK       I    between atoms: N15_15  and  C16_16 
REMARK    4  A    between atoms: C16_16  and  C18_18 
REMARK    5  A    between atoms: C22_22  and  N23_23 
REMARK    6  A    between atoms: N23_23  and  S24_24 
ROOT
ATOM      1  N12 ZIN A   1      17.945  -3.683   8.151  0.00  0.00    -0.264 NA
ATOM      2  C13 ZIN A   1      19.254  -3.185   7.706  0.00  0.00     0.117 C 
ATOM      3  C14 ZIN A   1      19.348  -1.682   7.988  0.00  0.00     0.141 C 
ATOM      4  N15 ZIN A   1      19.046  -1.453   9.409  0.00  0.00    -0.344 N 
ATOM      5  C16 ZIN A   1      19.875  -0.726  10.184  0.00  0.00     0.270 C 
ATOM      6  O17 ZIN A   1      20.881  -0.238   9.707  0.00  0.00    -0.266 OA
ATOM      7  C32 ZIN A   1      17.816  -2.040   9.963  0.00  0.00     0.141 C 
ATOM      8  C33 ZIN A   1      17.782  -3.529   9.603  0.00  0.00     0.117 C 
ENDROOT
BRANCH   5   9
ATOM      9  C18 ZIN A   1      19.562  -0.522  11.606  0.00  0.00     0.102 A 
ATOM     10  N31 ZIN A   1      19.674  -1.479  12.596  0.00  0.00    -0.351 N 
ATOM     11  C30 ZIN A   1      19.297  -0.921  13.797  0.00  0.00     0.043 A 
ATOM     12  H57 ZIN A   1      19.970  -2.393  12.467  0.00  0.00     0.166 HD
ATOM     13  C20 ZIN A   1      18.933   0.416  13.542  0.00  0.00    -0.005 A 
ATOM     14  C29 ZIN A   1      19.221  -1.419  15.094  0.00  0.00     0.033 A 
ATOM     15  C19 ZIN A   1      19.111   0.636  12.155  0.00  0.00     0.049 A 
ATOM     16  C21 ZIN A   1      18.498   1.231  14.597  0.00  0.00     0.043 A 
ATOM     17  C22 ZIN A   1      18.430   0.716  15.875  0.00  0.00     0.043 A 
ATOM     18  C28 ZIN A   1      18.791  -0.609  16.120  0.00  0.00     0.032 A 
BRANCH  17  19
ATOM     19  N23 ZIN A   1      17.996   1.525  16.930  0.00  0.00    -0.285 N 
ATOM     20  H51 ZIN A   1      17.050   1.585  17.139  0.00  0.00     0.178 HD
BRANCH  19  21
ATOM     21  S24 ZIN A   1      19.095   2.383  17.825  0.00  0.00     0.227 S 
ATOM     22  C25 ZIN A   1      18.082   3.488  18.847  0.00  0.00     0.186 C 
ATOM     23  O26 ZIN A   1      19.731   1.401  18.631  0.00  0.00    -0.206 OA
ATOM     24  O27 ZIN A   1      19.828   3.126  16.862  0.00  0.00    -0.206 OA
ENDBRANCH  19  21
ENDBRANCH  17  19
ENDBRANCH   5   9
BRANCH   1  25
ATOM     25  C11 ZIN A   1      17.757  -5.008   7.765  0.00  0.00     0.109 A 
ATOM     26  C5  ZIN A   1      17.361  -5.299   6.457  0.00  0.00     0.067 A 
ATOM     27  C6  ZIN A   1      17.178  -6.625   6.089  0.00  0.00     0.034 A 
ATOM     28  C7  ZIN A   1      17.392  -7.611   7.043  0.00  0.00     0.019 A 
ATOM     29  C8  ZIN A   1      17.778  -7.249   8.317  0.00  0.00     0.089 A 
ATOM     30  N9  ZIN A   1      17.944  -5.980   8.642  0.00  0.00    -0.355 N 
ATOM     31  H10 ZIN A   1      18.216  -5.755   9.545  0.00  0.00     0.166 HD
BRANCH  26  32
ATOM     32  N4  ZIN A   1      17.158  -4.270   5.529  0.00  0.00    -0.383 N 
ATOM     33  H41 ZIN A   1      16.411  -3.660   5.638  0.00  0.00     0.160 HD
BRANCH  32  34
ATOM     34  C2  ZIN A   1      18.070  -4.116   4.395  0.00  0.00     0.073 C 
ATOM     35  C1  ZIN A   1      17.339  -4.477   3.100  0.00  0.00     0.031 C 
ATOM     36  C3  ZIN A   1      18.553  -2.666   4.322  0.00  0.00     0.031 C 
ENDBRANCH  32  34
ENDBRANCH  26  32
ENDBRANCH   1  25
TORSDOF 6
ENDMDL
MODEL 5
REMARK VINA RESULT:      -9.1      2.933      3.617
REMARK  6 active torsions:
REMARK  status: ('A' for Active; 'I' for Inactive)
REMARK    1  A    between atoms: C2_2  and  N4_4 
REMARK    2  A    between atoms: N4_4  and  C5_5 
REMARK    3  A    between atoms: C11_11  and  N12_12 
REMARK       I    between atoms: N15_15  and  C16_16 
REMARK    4  A    between atoms: C16_16  and  C18_18 
REMARK    5  A    between atoms: C22_22  and  N23_23 
REMARK    6  A    between atoms: N23_23  and  S24_24 
ROOT
ATOM      1  N12 ZIN A   1      18.925   1.527  14.800  0.00  0.00    -0.264 NA
ATOM      2  C13 ZIN A   1      18.052   2.333  13.936  0.00  0.00     0.117 C 
ATOM      3  C14 ZIN A   1      18.480   2.156  12.476  0.00  0.00     0.141 C 
ATOM      4  N15 ZIN A   1      18.506   0.718  12.167  0.00  0.00    -0.344 N 
ATOM      5  C16 ZIN A   1      17.865   0.231  11.086  0.00  0.00     0.270 C 
ATOM      6  O17 ZIN A   1      17.265   0.985  10.344  0.00  0.00    -0.266 OA
ATOM      7  C32 ZIN A   1      19.250  -0.175  13.069  0.00  0.00     0.141 C 
ATOM      8  C33 ZIN A   1      18.791   0.094  14.506  0.00  0.00     0.117 C 
ENDROOT
BRANCH   5   9
ATOM      9  C18 ZIN A   1      17.891  -1.212  10.804  0.00  0.00     0.102 A 
ATOM     10  N31 ZIN A   1      17.232  -2.182  11.532  0.00  0.00    -0.351 N 
ATOM     11  C30 ZIN A   1      17.488  -3.411  10.968  0.00  0.00     0.043 A 
ATOM     12  H57 ZIN A   1      16.677  -2.023  12.312  0.00  0.00     0.166 HD
ATOM     13  C20 ZIN A   1      18.338  -3.197   9.865  0.00  0.00    -0.005 A 
ATOM     14  C29 ZIN A   1      17.086  -4.706  11.286  0.00  0.00     0.033 A 
ATOM     15  C19 ZIN A   1      18.572  -1.803   9.788  0.00  0.00     0.049 A 
ATOM     16  C21 ZIN A   1      18.770  -4.288   9.098  0.00  0.00     0.043 A 
ATOM     17  C22 ZIN A   1      18.359  -5.563   9.431  0.00  0.00     0.043 A 
ATOM     18  C28 ZIN A   1      17.519  -5.768  10.526  0.00  0.00     0.032 A 
BRANCH  17  19
ATOM     19  N23 ZIN A   1      18.789  -6.654   8.669  0.00  0.00    -0.285 N 
ATOM     20  H51 ZIN A   1      19.508  -7.219   8.993  0.00  0.00     0.178 HD
BRANCH  19  21
ATOM     21  S24 ZIN A   1      18.069  -6.984   7.214  0.00  0.00     0.227 S 
ATOM     22  C25 ZIN A   1      16.534  -6.018   7.240  0.00  0.00     0.186 C 
ATOM     23  O26 ZIN A   1      18.972  -6.460   6.250  0.00  0.00    -0.206 OA
ATOM     24  O27 ZIN A   1      17.784  -8.375   7.271  0.00  0.00    -0.206 OA
ENDBRANCH  19  21
ENDBRANCH  17  19
ENDBRANCH   5   9
BRANCH   1  25
ATOM     25  C11 ZIN A   1      18.673   1.786  16.146  0.00  0.00     0.109 A 
ATOM     26  C5  ZIN A   1      19.289   2.875  16.769  0.00  0.00     0.067 A 
ATOM     27  C6  ZIN A   1      19.027   3.119  18.110  0.00  0.00     0.034 A 
ATOM     28  C7  ZIN A   1      18.164   2.263  18.781  0.00  0.00     0.019 A 
ATOM     29  C8  ZIN A   1      17.595   1.205  18.102  0.00  0.00     0.089 A 
ATOM     30  N9  ZIN A   1      17.862   0.994  16.826  0.00  0.00    -0.355 N 
ATOM     31  H10 ZIN A   1      17.447   0.243  16.375  0.00  0.00     0.166 HD
BRANCH  26  32
ATOM     32  N4  ZIN A   1      20.153   3.711  16.050  0.00  0.00    -0.383 N 
ATOM     33  H41 ZIN A   1      20.851   3.326  15.497  0.00  0.00     0.160 HD
BRANCH  32  34
ATOM     34  C2  ZIN A   1      20.004   5.165  16.135  0.00  0.00     0.073 C 
ATOM     35  C1  ZIN A   1      21.240   5.840  15.538  0.00  0.00     0.031 C 
ATOM     36  C3  ZIN A   1      18.760   5.596  15.355  0.00  0.00     0.031 C 
ENDBRANCH  32  34
ENDBRANCH  26  32
ENDBRANCH   1  25
TORSDOF 6
ENDMDL
MODEL 6
REMARK VINA RESULT:      -9.0      3.882      9.683
REMARK  6 active torsions:
REMARK  status: ('A' for Active; 'I' for Inactive)
REMARK    1  A    between atoms: C2_2  and  N4_4 
REMARK    2  A    between atoms: N4_4  and  C5_5 
REMARK    3  A    between atoms: C11_11  and  N12_12 
REMARK       I    between atoms: N15_15  and  C16_16 
REMARK    4  A    between atoms: C16_16  and  C18_18 
REMARK    5  A    between atoms: C22_22  and  N23_23 
REMARK    6  A    between atoms: N23_23  and  S24_24 
ROOT
ATOM      1  N12 ZIN A   1      18.305  -2.314   8.317  0.00  0.00    -0.264 NA
ATOM      2  C13 ZIN A   1      19.276  -1.597   7.480  0.00  0.00     0.117 C 
ATOM      3  C14 ZIN A   1      18.738  -0.197   7.165  0.00  0.00     0.141 C 
ATOM      4  N15 ZIN A   1      18.399   0.468   8.432  0.00  0.00    -0.344 N 
ATOM      5  C16 ZIN A   1      18.863   1.702   8.712  0.00  0.00     0.270 C 
ATOM      6  O17 ZIN A   1      19.563   2.285   7.907  0.00  0.00    -0.266 OA
ATOM      7  C32 ZIN A   1      17.539  -0.249   9.386  0.00  0.00     0.141 C 
ATOM      8  C33 ZIN A   1      18.123  -1.647   9.613  0.00  0.00     0.117 C 
ENDROOT
BRANCH   5   9
ATOM      9  C18 ZIN A   1      18.523   2.343   9.991  0.00  0.00     0.102 A 
ATOM     10  N31 ZIN A   1      17.680   3.427  10.146  0.00  0.00    -0.351 N 
ATOM     11  C30 ZIN A   1      17.603   3.742  11.483  0.00  0.00     0.043 A 
ATOM     12  H57 ZIN A   1      17.217   3.888   9.429  0.00  0.00     0.166 HD
ATOM     13  C20 ZIN A   1      18.428   2.834  12.176  0.00  0.00    -0.005 A 
ATOM     14  C29 ZIN A   1      16.912   4.722  12.191  0.00  0.00     0.033 A 
ATOM     15  C19 ZIN A   1      18.992   1.967  11.210  0.00  0.00     0.049 A 
ATOM     16  C21 ZIN A   1      18.546   2.927  13.570  0.00  0.00     0.043 A 
ATOM     17  C22 ZIN A   1      17.851   3.906  14.251  0.00  0.00     0.043 A 
ATOM     18  C28 ZIN A   1      17.037   4.802  13.558  0.00  0.00     0.032 A 
BRANCH  17  19
ATOM     19  N23 ZIN A   1      17.967   4.001  15.642  0.00  0.00    -0.285 N 
ATOM     20  H51 ZIN A   1      17.298   3.593  16.214  0.00  0.00     0.178 HD
BRANCH  19  21
ATOM     21  S24 ZIN A   1      19.246   4.812  16.314  0.00  0.00     0.227 S 
ATOM     22  C25 ZIN A   1      19.967   5.742  14.933  0.00  0.00     0.186 C 
ATOM     23  O26 ZIN A   1      18.646   5.696  17.251  0.00  0.00    -0.206 OA
ATOM     24  O27 ZIN A   1      20.129   3.784  16.738  0.00  0.00    -0.206 OA
ENDBRANCH  19  21
ENDBRANCH  17  19
ENDBRANCH   5   9
BRANCH   1  25
ATOM     25  C11 ZIN A   1      18.681  -3.644   8.489  0.00  0.00     0.109 A 
ATOM     26  C5  ZIN A   1      18.240  -4.612   7.583  0.00  0.00     0.067 A 
ATOM     27  C6  ZIN A   1      18.623  -5.933   7.769  0.00  0.00     0.034 A 
ATOM     28  C7  ZIN A   1      19.430  -6.240   8.857  0.00  0.00     0.019 A 
ATOM     29  C8  ZIN A   1      19.823  -5.233   9.714  0.00  0.00     0.089 A 
ATOM     30  N9  ZIN A   1      19.444  -3.984   9.515  0.00  0.00    -0.355 N 
ATOM     31  H10 ZIN A   1      19.736  -3.297  10.134  0.00  0.00     0.166 HD
BRANCH  26  32
ATOM     32  N4  ZIN A   1      17.428  -4.254   6.499  0.00  0.00    -0.383 N 
ATOM     33  H41 ZIN A   1      16.505  -3.996   6.649  0.00  0.00     0.160 HD
BRANCH  32  34
ATOM     34  C2  ZIN A   1      17.972  -4.271   5.140  0.00  0.00     0.073 C 
ATOM     35  C1  ZIN A   1      17.343  -5.424   4.353  0.00  0.00     0.031 C 
ATOM     36  C3  ZIN A   1      17.652  -2.946   4.446  0.00  0.00     0.031 C 
ENDBRANCH  32  34
ENDBRANCH  26  32
ENDBRANCH   1  25
TORSDOF 6
ENDMDL
MODEL 7
REMARK VINA RESULT:      -8.8      4.205      9.439
REMARK  6 active torsions:
REMARK  status: ('A' for Active; 'I' for Inactive)
REMARK    1  A    between atoms: C2_2  and  N4_4 
REMARK    2  A    between atoms: N4_4  and  C5_5 
REMARK    3  A    between atoms: C11_11  and  N12_12 
REMARK       I    between atoms: N15_15  and  C16_16 
REMARK    4  A    between atoms: C16_16  and  C18_18 
REMARK    5  A    between atoms: C22_22  and  N23_23 
REMARK    6  A    between atoms: N23_23  and  S24_24 
ROOT
ATOM      1  N12 ZIN A   1      17.679  -2.197   9.483  0.00  0.00    -0.264 NA
ATOM      2  C13 ZIN A   1      18.935  -1.860   8.798  0.00  0.00     0.117 C 
ATOM      3  C14 ZIN A   1      18.802  -0.480   8.145  0.00  0.00     0.141 C 
ATOM      4  N15 ZIN A   1      18.375   0.483   9.171  0.00  0.00    -0.344 N 
ATOM      5  C16 ZIN A   1      19.041   1.640   9.353  0.00  0.00     0.270 C 
ATOM      6  O17 ZIN A   1      20.002   1.905   8.656  0.00  0.00    -0.266 OA
ATOM      7  C32 ZIN A   1      17.202   0.150   9.994  0.00  0.00     0.141 C 
ATOM      8  C33 ZIN A   1      17.397  -1.254  10.574  0.00  0.00     0.117 C 
ENDROOT
BRANCH   5   9
ATOM      9  C18 ZIN A   1      18.607   2.583  10.395  0.00  0.00     0.102 A 
ATOM     10  N31 ZIN A   1      17.748   3.648  10.204  0.00  0.00    -0.351 N 
ATOM     11  C30 ZIN A   1      17.574   4.298  11.405  0.00  0.00     0.043 A 
ATOM     12  H57 ZIN A   1      17.335   3.895   9.362  0.00  0.00     0.166 HD
ATOM     13  C20 ZIN A   1      18.353   3.622  12.364  0.00  0.00    -0.005 A 
ATOM     14  C29 ZIN A   1      16.827   5.410  11.784  0.00  0.00     0.033 A 
ATOM     15  C19 ZIN A   1      18.990   2.548  11.698  0.00  0.00     0.049 A 
ATOM     16  C21 ZIN A   1      18.370   4.077  13.690  0.00  0.00     0.043 A 
ATOM     17  C22 ZIN A   1      17.623   5.182  14.044  0.00  0.00     0.043 A 
ATOM     18  C28 ZIN A   1      16.854   5.846  13.088  0.00  0.00     0.032 A 
BRANCH  17  19
ATOM     19  N23 ZIN A   1      17.638   5.638  15.366  0.00  0.00    -0.285 N 
ATOM     20  H51 ZIN A   1      16.922   5.391  15.973  0.00  0.00     0.178 HD
BRANCH  19  21
ATOM     21  S24 ZIN A   1      18.877   6.601  15.897  0.00  0.00     0.227 S 
ATOM     22  C25 ZIN A   1      20.308   5.488  15.982  0.00  0.00     0.186 C 
ATOM     23  O26 ZIN A   1      19.049   7.554  14.858  0.00  0.00    -0.206 OA
ATOM     24  O27 ZIN A   1      18.478   7.001  17.200  0.00  0.00    -0.206 OA
ENDBRANCH  19  21
ENDBRANCH  17  19
ENDBRANCH   5   9
BRANCH   1  25
ATOM     25  C11 ZIN A   1      17.701  -3.509   9.950  0.00  0.00     0.109 A 
ATOM     26  C5  ZIN A   1      17.547  -4.568   9.050  0.00  0.00     0.067 A 
ATOM     27  C6  ZIN A   1      17.572  -5.869   9.532  0.00  0.00     0.034 A 
ATOM     28  C7  ZIN A   1      17.744  -6.066  10.895  0.00  0.00     0.019 A 
ATOM     29  C8  ZIN A   1      17.884  -4.973  11.725  0.00  0.00     0.089 A 
ATOM     30  N9  ZIN A   1      17.857  -3.744  11.242  0.00  0.00    -0.355 N 
ATOM     31  H10 ZIN A   1      17.959  -2.995  11.849  0.00  0.00     0.166 HD
BRANCH  26  32
ATOM     32  N4  ZIN A   1      17.377  -4.320   7.682  0.00  0.00    -0.383 N 
ATOM     33  H41 ZIN A   1      16.790  -3.606   7.388  0.00  0.00     0.160 HD
BRANCH  32  34
ATOM     34  C2  ZIN A   1      18.084  -5.138   6.696  0.00  0.00     0.073 C 
ATOM     35  C1  ZIN A   1      17.448  -4.942   5.318  0.00  0.00     0.031 C 
ATOM     36  C3  ZIN A   1      19.554  -4.718   6.643  0.00  0.00     0.031 C 
ENDBRANCH  32  34
ENDBRANCH  26  32
ENDBRANCH   1  25
TORSDOF 6
ENDMDL
MODEL 8
REMARK VINA RESULT:      -8.7      3.326      5.617
REMARK  6 active torsions:
REMARK  status: ('A' for Active; 'I' for Inactive)
REMARK    1  A    between atoms: C2_2  and  N4_4 
REMARK    2  A    between atoms: N4_4  and  C5_5 
REMARK    3  A    between atoms: C11_11  and  N12_12 
REMARK       I    between atoms: N15_15  and  C16_16 
REMARK    4  A    between atoms: C16_16  and  C18_18 
REMARK    5  A    between atoms: C22_22  and  N23_23 
REMARK    6  A    between atoms: N23_23  and  S24_24 
ROOT
ATOM      1  N12 ZIN A   1      18.298   0.110  12.342  0.00  0.00    -0.264 NA
ATOM      2  C13 ZIN A   1      19.592  -0.538  12.596  0.00  0.00     0.117 C 
ATOM      3  C14 ZIN A   1      19.362  -2.014  12.936  0.00  0.00     0.141 C 
ATOM      4  N15 ZIN A   1      18.563  -2.622  11.861  0.00  0.00    -0.344 N 
ATOM      5  C16 ZIN A   1      18.961  -3.762  11.263  0.00  0.00     0.270 C 
ATOM      6  O17 ZIN A   1      19.987  -4.310  11.620  0.00  0.00    -0.266 OA
ATOM      7  C32 ZIN A   1      17.319  -1.951  11.454  0.00  0.00     0.141 C 
ATOM      8  C33 ZIN A   1      17.629  -0.477  11.174  0.00  0.00     0.117 C 
ENDROOT
BRANCH   5   9
ATOM      9  C18 ZIN A   1      18.155  -4.345  10.180  0.00  0.00     0.102 A 
ATOM     10  N31 ZIN A   1      16.851  -4.785  10.300  0.00  0.00    -0.351 N 
ATOM     11  C30 ZIN A   1      16.430  -5.262   9.079  0.00  0.00     0.043 A 
ATOM     12  H57 ZIN A   1      16.319  -4.761  11.111  0.00  0.00     0.166 HD
ATOM     13  C20 ZIN A   1      17.505  -5.120   8.180  0.00  0.00    -0.005 A 
ATOM     14  C29 ZIN A   1      15.230  -5.811   8.636  0.00  0.00     0.033 A 
ATOM     15  C19 ZIN A   1      18.575  -4.540   8.903  0.00  0.00     0.049 A 
ATOM     16  C21 ZIN A   1      17.357  -5.535   6.849  0.00  0.00     0.043 A 
ATOM     17  C22 ZIN A   1      16.159  -6.077   6.431  0.00  0.00     0.043 A 
ATOM     18  C28 ZIN A   1      15.099  -6.214   7.327  0.00  0.00     0.032 A 
BRANCH  17  19
ATOM     19  N23 ZIN A   1      16.008  -6.492   5.104  0.00  0.00    -0.285 N 
ATOM     20  H51 ZIN A   1      16.363  -7.349   4.820  0.00  0.00     0.178 HD
BRANCH  19  21
ATOM     21  S24 ZIN A   1      15.222  -5.521   4.016  0.00  0.00     0.227 S 
ATOM     22  C25 ZIN A   1      15.702  -6.180   2.394  0.00  0.00     0.186 C 
ATOM     23  O26 ZIN A   1      13.844  -5.762   4.264  0.00  0.00    -0.206 OA
ATOM     24  O27 ZIN A   1      15.790  -4.235   4.219  0.00  0.00    -0.206 OA
ENDBRANCH  19  21
ENDBRANCH  17  19
ENDBRANCH   5   9
BRANCH   1  25
ATOM     25  C11 ZIN A   1      18.451   1.487  12.190  0.00  0.00     0.109 A 
ATOM     26  C5  ZIN A   1      18.214   2.334  13.276  0.00  0.00     0.067 A 
ATOM     27  C6  ZIN A   1      18.370   3.703  13.108  0.00  0.00     0.034 A 
ATOM     28  C7  ZIN A   1      18.752   4.176  11.859  0.00  0.00     0.019 A 
ATOM     29  C8  ZIN A   1      18.964   3.280  10.831  0.00  0.00     0.089 A 
ATOM     30  N9  ZIN A   1      18.808   1.982  11.017  0.00  0.00    -0.355 N 
ATOM     31  H10 ZIN A   1      18.964   1.377  10.276  0.00  0.00     0.166 HD
BRANCH  26  32
ATOM     32  N4  ZIN A   1      17.831   1.810  14.517  0.00  0.00    -0.383 N 
ATOM     33  H41 ZIN A   1      16.894   1.647  14.706  0.00  0.00     0.160 HD
BRANCH  32  34
ATOM     34  C2  ZIN A   1      18.846   1.510  15.529  0.00  0.00     0.073 C 
ATOM     35  C1  ZIN A   1      18.832   2.600  16.604  0.00  0.00     0.031 C 
ATOM     36  C3  ZIN A   1      18.540   0.156  16.172  0.00  0.00     0.031 C 
ENDBRANCH  32  34
ENDBRANCH  26  32
ENDBRANCH   1  25
TORSDOF 6
ENDMDL
MODEL 9
REMARK VINA RESULT:      -8.6      3.984     10.249
REMARK  6 active torsions:
REMARK  status: ('A' for Active; 'I' for Inactive)
REMARK    1  A    between atoms: C2_2  and  N4_4 
REMARK    2  A    between atoms: N4_4  and  C5_5 
REMARK    3  A    between atoms: C11_11  and  N12_12 
REMARK       I    between atoms: N15_15  and  C16_16 
REMARK    4  A    between atoms: C16_16  and  C18_18 
REMARK    5  A    between atoms: C22_22  and  N23_23 
REMARK    6  A    between atoms: N23_23  and  S24_24 
ROOT
ATOM      1  N12 ZIN A   1      19.132  -0.929   8.652  0.00  0.00    -0.264 NA
ATOM      2  C13 ZIN A   1      18.101  -1.723   9.334  0.00  0.00     0.117 C 
ATOM      3  C14 ZIN A   1      18.496  -1.911  10.803  0.00  0.00     0.141 C 
ATOM      4  N15 ZIN A   1      18.752  -0.588  11.391  0.00  0.00    -0.344 N 
ATOM      5  C16 ZIN A   1      18.160  -0.216  12.543  0.00  0.00     0.270 C 
ATOM      6  O17 ZIN A   1      17.412  -0.985  13.117  0.00  0.00    -0.266 OA
ATOM      7  C32 ZIN A   1      19.671   0.320  10.688  0.00  0.00     0.141 C 
ATOM      8  C33 ZIN A   1      19.231   0.421   9.223  0.00  0.00     0.117 C 
ENDROOT
BRANCH   5   9
ATOM      9  C18 ZIN A   1      18.419   1.117  13.106  0.00  0.00     0.102 A 
ATOM     10  N31 ZIN A   1      18.696   2.255  12.374  0.00  0.00    -0.351 N 
ATOM     11  C30 ZIN A   1      18.877   3.308  13.243  0.00  0.00     0.043 A 
ATOM     12  H57 ZIN A   1      18.753   2.305  11.407  0.00  0.00     0.166 HD
ATOM     13  C20 ZIN A   1      18.715   2.806  14.549  0.00  0.00    -0.005 A 
ATOM     14  C29 ZIN A   1      19.170   4.656  13.055  0.00  0.00     0.033 A 
ATOM     15  C19 ZIN A   1      18.427   1.425  14.429  0.00  0.00     0.049 A 
ATOM     16  C21 ZIN A   1      18.852   3.668  15.647  0.00  0.00     0.043 A 
ATOM     17  C22 ZIN A   1      19.142   5.001  15.437  0.00  0.00     0.043 A 
ATOM     18  C28 ZIN A   1      19.302   5.490  14.141  0.00  0.00     0.032 A 
BRANCH  17  19
ATOM     19  N23 ZIN A   1      19.280   5.863  16.529  0.00  0.00    -0.285 N 
ATOM     20  H51 ZIN A   1      20.057   5.796  17.106  0.00  0.00     0.178 HD
BRANCH  19  21
ATOM     21  S24 ZIN A   1      18.116   7.001  16.839  0.00  0.00     0.227 S 
ATOM     22  C25 ZIN A   1      16.570   6.227  16.287  0.00  0.00     0.186 C 
ATOM     23  O26 ZIN A   1      18.127   7.137  18.253  0.00  0.00    -0.206 OA
ATOM     24  O27 ZIN A   1      18.457   8.091  15.995  0.00  0.00    -0.206 OA
ENDBRANCH  19  21
ENDBRANCH  17  19
ENDBRANCH   5   9
BRANCH   1  25
ATOM     25  C11 ZIN A   1      18.893  -0.874   7.280  0.00  0.00     0.109 A 
ATOM     26  C5  ZIN A   1      19.334  -1.915   6.457  0.00  0.00     0.067 A 
ATOM     27  C6  ZIN A   1      19.087  -1.845   5.094  0.00  0.00     0.034 A 
ATOM     28  C7  ZIN A   1      18.416  -0.734   4.600  0.00  0.00     0.019 A 
ATOM     29  C8  ZIN A   1      18.016   0.258   5.471  0.00  0.00     0.089 A 
ATOM     30  N9  ZIN A   1      18.262   0.167   6.765  0.00  0.00    -0.355 N 
ATOM     31  H10 ZIN A   1      17.969   0.880   7.353  0.00  0.00     0.166 HD
BRANCH  26  32
ATOM     32  N4  ZIN A   1      20.006  -3.016   7.002  0.00  0.00    -0.383 N 
ATOM     33  H41 ZIN A   1      20.747  -2.878   7.614  0.00  0.00     0.160 HD
BRANCH  32  34
ATOM     34  C2  ZIN A   1      19.593  -4.375   6.648  0.00  0.00     0.073 C 
ATOM     35  C1  ZIN A   1      20.495  -5.385   7.362  0.00  0.00     0.031 C 
ATOM     36  C3  ZIN A   1      18.141  -4.595   7.075  0.00  0.00     0.031 C 
ENDBRANCH  32  34
ENDBRANCH  26  32
ENDBRANCH   1  25
TORSDOF 6
ENDMDL
