MODEL 1
REMARK VINA RESULT:      -7.0      0.000      0.000
REMARK  7 active torsions:
REMARK  status: ('A' for Active; 'I' for Inactive)
REMARK    1  A    between atoms: C2_2  and  C3_3 
REMARK    2  A    between atoms: C3_3  and  C5_5 
REMARK    3  A    between atoms: C5_5  and  C6_6 
REMARK    4  A    between atoms: C5_5  and  C14_13 
REMARK    5  A    between atoms: C5_5  and  C20_19 
REMARK    6  A    between atoms: C6_6  and  C7_7 
REMARK    7  A    between atoms: C7_7  and  N10_9 
ROOT
ATOM      1  C5  ZIN A   1      18.733  -0.963  11.910  0.00  0.00     0.076 C 
ENDROOT
BRANCH   1   2
ATOM      2  C3  ZIN A   1      20.103  -0.420  11.590  0.00  0.00     0.144 C 
ATOM      3  O4  ZIN A   1      20.716  -0.849  10.642  0.00  0.00    -0.296 OA
BRANCH   2   4
ATOM      4  C2  ZIN A   1      20.707   0.658  12.454  0.00  0.00     0.075 C 
ATOM      5  C1  ZIN A   1      20.297   2.030  11.916  0.00  0.00     0.013 C 
ENDBRANCH   2   4
ENDBRANCH   1   2
BRANCH   1   6
ATOM      6  C6  ZIN A   1      17.692  -0.276  11.025  0.00  0.00     0.060 C 
BRANCH   6   7
ATOM      7  C7  ZIN A   1      18.281  -0.041   9.632  0.00  0.00     0.185 C 
ATOM      8  C9  ZIN A   1      18.075   1.421   9.232  0.00  0.00     0.040 C 
BRANCH   7   9
ATOM      9  N10 ZIN A   1      17.607  -0.913   8.662  0.00  0.00    -0.075 N 
ATOM     10  H11 ZIN A   1      16.820  -1.365   9.105  0.00  0.00     0.279 HD
ATOM     11  C12 ZIN A   1      17.134  -0.110   7.526  0.00  0.00     0.269 C 
ATOM     12  C13 ZIN A   1      18.549  -1.933   8.183  0.00  0.00     0.269 C 
ENDBRANCH   7   9
ENDBRANCH   6   7
ENDBRANCH   1   6
BRANCH   1  13
ATOM     13  C14 ZIN A   1      18.710  -2.447  11.656  0.00  0.00    -0.037 A 
ATOM     14  C19 ZIN A   1      19.895  -3.148  11.539  0.00  0.00     0.009 A 
ATOM     15  C18 ZIN A   1      19.872  -4.512  11.310  0.00  0.00     0.001 A 
ATOM     16  C17 ZIN A   1      18.664  -5.172  11.189  0.00  0.00     0.000 A 
ATOM     17  C16 ZIN A   1      17.479  -4.471  11.301  0.00  0.00     0.001 A 
ATOM     18  C15 ZIN A   1      17.501  -3.108  11.534  0.00  0.00     0.009 A 
ENDBRANCH   1  13
BRANCH   1  19
ATOM     19  C20 ZIN A   1      18.415  -0.696  13.360  0.00  0.00    -0.037 A 
ATOM     20  C25 ZIN A   1      18.973  -1.487  14.346  0.00  0.00     0.009 A 
ATOM     21  C24 ZIN A   1      18.685  -1.240  15.675  0.00  0.00     0.001 A 
ATOM     22  C23 ZIN A   1      17.831  -0.208  16.017  0.00  0.00     0.000 A 
ATOM     23  C22 ZIN A   1      17.269   0.579  15.030  0.00  0.00     0.001 A 
ATOM     24  C21 ZIN A   1      17.561   0.334  13.701  0.00  0.00     0.009 A 
ENDBRANCH   1  19
TORSDOF 7
ENDMDL
MODEL 2
REMARK VINA RESULT:      -6.8      2.071      6.254
REMARK  7 active torsions:
REMARK  status: ('A' for Active; 'I' for Inactive)
REMARK    1  A    between atoms: C2_2  and  C3_3 
REMARK    2  A    between atoms: C3_3  and  C5_5 
REMARK    3  A    between atoms: C5_5  and  C6_6 
REMARK    4  A    between atoms: C5_5  and  C14_13 
REMARK    5  A    between atoms: C5_5  and  C20_19 
REMARK    6  A    between atoms: C6_6  and  C7_7 
REMARK    7  A    between atoms: C7_7  and  N10_9 
ROOT
ATOM      1  C5  ZIN A   1      18.289   1.000   9.987  0.00  0.00     0.076 C 
ENDROOT
BRANCH   1   2
ATOM      2  C3  ZIN A   1      19.686   0.688  10.461  0.00  0.00     0.144 C 
ATOM      3  O4  ZIN A   1      20.324  -0.186   9.925  0.00  0.00    -0.296 OA
BRANCH   2   4
ATOM      4  C2  ZIN A   1      20.285   1.467  11.603  0.00  0.00     0.075 C 
ATOM      5  C1  ZIN A   1      21.052   0.515  12.522  0.00  0.00     0.013 C 
ENDBRANCH   2   4
ENDBRANCH   1   2
BRANCH   1   6
ATOM      6  C6  ZIN A   1      17.292   0.086  10.700  0.00  0.00     0.060 C 
BRANCH   6   7
ATOM      7  C7  ZIN A   1      18.029  -1.128  11.271  0.00  0.00     0.185 C 
ATOM      8  C9  ZIN A   1      17.664  -2.374  10.461  0.00  0.00     0.040 C 
BRANCH   7   9
ATOM      9  N10 ZIN A   1      17.639  -1.323  12.673  0.00  0.00    -0.075 N 
ATOM     10  H11 ZIN A   1      16.806  -1.891  12.714  0.00  0.00     0.279 HD
ATOM     11  C12 ZIN A   1      18.727  -1.996  13.395  0.00  0.00     0.269 C 
ATOM     12  C13 ZIN A   1      17.372  -0.018  13.293  0.00  0.00     0.269 C 
ENDBRANCH   7   9
ENDBRANCH   6   7
ENDBRANCH   1   6
BRANCH   1  13
ATOM     13  C14 ZIN A   1      17.964   2.438  10.298  0.00  0.00    -0.037 A 
ATOM     14  C19 ZIN A   1      17.365   2.768  11.499  0.00  0.00     0.009 A 
ATOM     15  C18 ZIN A   1      17.072   4.089  11.785  0.00  0.00     0.001 A 
ATOM     16  C17 ZIN A   1      17.368   5.078  10.865  0.00  0.00     0.000 A 
ATOM     17  C16 ZIN A   1      17.962   4.748   9.663  0.00  0.00     0.001 A 
ATOM     18  C15 ZIN A   1      18.260   3.428   9.378  0.00  0.00     0.009 A 
ENDBRANCH   1  13
BRANCH   1  19
ATOM     19  C20 ZIN A   1      18.202   0.776   8.499  0.00  0.00    -0.037 A 
ATOM     20  C25 ZIN A   1      19.135   1.353   7.658  0.00  0.00     0.009 A 
ATOM     21  C24 ZIN A   1      19.058   1.144   6.293  0.00  0.00     0.001 A 
ATOM     22  C23 ZIN A   1      18.042   0.366   5.770  0.00  0.00     0.000 A 
ATOM     23  C22 ZIN A   1      17.106  -0.207   6.611  0.00  0.00     0.001 A 
ATOM     24  C21 ZIN A   1      17.186  -0.000   7.975  0.00  0.00     0.009 A 
ENDBRANCH   1  19
TORSDOF 7
ENDMDL
MODEL 3
REMARK VINA RESULT:      -6.5      1.716      4.559
REMARK  7 active torsions:
REMARK  status: ('A' for Active; 'I' for Inactive)
REMARK    1  A    between atoms: C2_2  and  C3_3 
REMARK    2  A    between atoms: C3_3  and  C5_5 
REMARK    3  A    between atoms: C5_5  and  C6_6 
REMARK    4  A    between atoms: C5_5  and  C14_13 
REMARK    5  A    between atoms: C5_5  and  C20_19 
REMARK    6  A    between atoms: C6_6  and  C7_7 
REMARK    7  A    between atoms: C7_7  and  N10_9 
ROOT
ATOM      1  C5  ZIN A   1      18.699   0.185  12.736  0.00  0.00     0.076 C 
ENDROOT
BRANCH   1   2
ATOM      2  C3  ZIN A   1      17.446  -0.086  11.942  0.00  0.00     0.144 C 
ATOM      3  O4  ZIN A   1      16.819  -1.100  12.131  0.00  0.00    -0.296 OA
BRANCH   2   4
ATOM      4  C2  ZIN A   1      16.979   0.910  10.911  0.00  0.00     0.075 C 
ATOM      5  C1  ZIN A   1      17.008   0.261   9.526  0.00  0.00     0.013 C 
ENDBRANCH   2   4
ENDBRANCH   1   2
BRANCH   1   6
ATOM      6  C6  ZIN A   1      19.863  -0.606  12.139  0.00  0.00     0.060 C 
BRANCH   6   7
ATOM      7  C7  ZIN A   1      19.319  -1.787  11.333  0.00  0.00     0.185 C 
ATOM      8  C9  ZIN A   1      19.595  -3.089  12.088  0.00  0.00     0.040 C 
BRANCH   7   9
ATOM      9  N10 ZIN A   1      19.978  -1.832  10.022  0.00  0.00    -0.075 N 
ATOM     10  H11 ZIN A   1      20.828  -2.373  10.091  0.00  0.00     0.279 HD
ATOM     11  C12 ZIN A   1      19.079  -2.455   9.041  0.00  0.00     0.269 C 
ATOM     12  C13 ZIN A   1      20.303  -0.466   9.590  0.00  0.00     0.269 C 
ENDBRANCH   7   9
ENDBRANCH   6   7
ENDBRANCH   1   6
BRANCH   1  13
ATOM     13  C14 ZIN A   1      19.013   1.657  12.690  0.00  0.00    -0.037 A 
ATOM     14  C19 ZIN A   1      19.908   2.145  11.756  0.00  0.00     0.009 A 
ATOM     15  C18 ZIN A   1      20.192   3.497  11.712  0.00  0.00     0.001 A 
ATOM     16  C17 ZIN A   1      19.589   4.361  12.608  0.00  0.00     0.000 A 
ATOM     17  C16 ZIN A   1      18.699   3.873  13.545  0.00  0.00     0.001 A 
ATOM     18  C15 ZIN A   1      18.411   2.521  13.587  0.00  0.00     0.009 A 
ENDBRANCH   1  13
BRANCH   1  19
ATOM     19  C20 ZIN A   1      18.486  -0.238  14.168  0.00  0.00    -0.037 A 
ATOM     20  C25 ZIN A   1      17.388   0.224  14.869  0.00  0.00     0.009 A 
ATOM     21  C24 ZIN A   1      17.190  -0.168  16.180  0.00  0.00     0.001 A 
ATOM     22  C23 ZIN A   1      18.096  -1.014  16.792  0.00  0.00     0.000 A 
ATOM     23  C22 ZIN A   1      19.197  -1.471  16.092  0.00  0.00     0.001 A 
ATOM     24  C21 ZIN A   1      19.392  -1.083  14.780  0.00  0.00     0.009 A 
ENDBRANCH   1  19
TORSDOF 7
ENDMDL
MODEL 4
REMARK VINA RESULT:      -6.4      1.935      4.897
REMARK  7 active torsions:
REMARK  status: ('A' for Active; 'I' for Inactive)
REMARK    1  A    between atoms: C2_2  and  C3_3 
REMARK    2  A    between atoms: C3_3  and  C5_5 
REMARK    3  A    between atoms: C5_5  and  C6_6 
REMARK    4  A    between atoms: C5_5  and  C14_13 
REMARK    5  A    between atoms: C5_5  and  C20_19 
REMARK    6  A    between atoms: C6_6  and  C7_7 
REMARK    7  A    between atoms: C7_7  and  N10_9 
ROOT
ATOM      1  C5  ZIN A   1      18.525   0.302  10.119  0.00  0.00     0.076 C 
ENDROOT
BRANCH   1   2
ATOM      2  C3  ZIN A   1      17.326  -0.331  10.778  0.00  0.00     0.144 C 
ATOM      3  O4  ZIN A   1      16.973  -1.439  10.454  0.00  0.00    -0.296 OA
BRANCH   2   4
ATOM      4  C2  ZIN A   1      16.567   0.421  11.842  0.00  0.00     0.075 C 
ATOM      5  C1  ZIN A   1      17.122   0.053  13.220  0.00  0.00     0.013 C 
ENDBRANCH   2   4
ENDBRANCH   1   2
BRANCH   1   6
ATOM      6  C6  ZIN A   1      19.772  -0.532  10.419  0.00  0.00     0.060 C 
BRANCH   6   7
ATOM      7  C7  ZIN A   1      19.357  -1.861  11.054  0.00  0.00     0.185 C 
ATOM      8  C9  ZIN A   1      19.859  -1.914  12.498  0.00  0.00     0.040 C 
BRANCH   7   9
ATOM      9  N10 ZIN A   1      19.941  -2.971  10.291  0.00  0.00    -0.075 N 
ATOM     10  H11 ZIN A   1      20.864  -2.713   9.974  0.00  0.00     0.279 HD
ATOM     11  C12 ZIN A   1      20.033  -4.161  11.148  0.00  0.00     0.269 C 
ATOM     12  C13 ZIN A   1      19.091  -3.269   9.130  0.00  0.00     0.269 C 
ENDBRANCH   7   9
ENDBRANCH   6   7
ENDBRANCH   1   6
BRANCH   1  13
ATOM     13  C14 ZIN A   1      18.305   0.361   8.630  0.00  0.00    -0.037 A 
ATOM     14  C19 ZIN A   1      17.185  -0.224   8.072  0.00  0.00     0.009 A 
ATOM     15  C18 ZIN A   1      16.982  -0.164   6.705  0.00  0.00     0.001 A 
ATOM     16  C17 ZIN A   1      17.905   0.471   5.896  0.00  0.00     0.000 A 
ATOM     17  C16 ZIN A   1      19.029   1.051   6.453  0.00  0.00     0.001 A 
ATOM     18  C15 ZIN A   1      19.230   0.996   7.820  0.00  0.00     0.009 A 
ENDBRANCH   1  13
BRANCH   1  19
ATOM     19  C20 ZIN A   1      18.713   1.698  10.655  0.00  0.00    -0.037 A 
ATOM     20  C25 ZIN A   1      19.758   1.973  11.516  0.00  0.00     0.009 A 
ATOM     21  C24 ZIN A   1      19.934   3.255  12.003  0.00  0.00     0.001 A 
ATOM     22  C23 ZIN A   1      19.058   4.259  11.636  0.00  0.00     0.000 A 
ATOM     23  C22 ZIN A   1      18.009   3.983  10.779  0.00  0.00     0.001 A 
ATOM     24  C21 ZIN A   1      17.837   2.702  10.289  0.00  0.00     0.009 A 
ENDBRANCH   1  19
TORSDOF 7
ENDMDL
MODEL 5
REMARK VINA RESULT:      -6.4      2.187      6.281
REMARK  7 active torsions:
REMARK  status: ('A' for Active; 'I' for Inactive)
REMARK    1  A    between atoms: C2_2  and  C3_3 
REMARK    2  A    between atoms: C3_3  and  C5_5 
REMARK    3  A    between atoms: C5_5  and  C6_6 
REMARK    4  A    between atoms: C5_5  and  C14_13 
REMARK    5  A    between atoms: C5_5  and  C20_19 
REMARK    6  A    between atoms: C6_6  and  C7_7 
REMARK    7  A    between atoms: C7_7  and  N10_9 
ROOT
ATOM      1  C5  ZIN A   1      18.795   0.941  11.317  0.00  0.00     0.076 C 
ENDROOT
BRANCH   1   2
ATOM      2  C3  ZIN A   1      20.168   0.392  11.607  0.00  0.00     0.144 C 
ATOM      3  O4  ZIN A   1      20.786   0.784  12.567  0.00  0.00    -0.296 OA
BRANCH   2   4
ATOM      4  C2  ZIN A   1      20.770  -0.649  10.697  0.00  0.00     0.075 C 
ATOM      5  C1  ZIN A   1      20.263  -2.034  11.102  0.00  0.00     0.013 C 
ENDBRANCH   2   4
ENDBRANCH   1   2
BRANCH   1   6
ATOM      6  C6  ZIN A   1      17.762   0.214  12.178  0.00  0.00     0.060 C 
BRANCH   6   7
ATOM      7  C7  ZIN A   1      18.338  -0.026  13.576  0.00  0.00     0.185 C 
ATOM      8  C9  ZIN A   1      18.252  -1.516  13.914  0.00  0.00     0.040 C 
BRANCH   7   9
ATOM      9  N10 ZIN A   1      17.571   0.746  14.561  0.00  0.00    -0.075 N 
ATOM     10  H11 ZIN A   1      16.722   1.086  14.135  0.00  0.00     0.279 HD
ATOM     11  C12 ZIN A   1      17.235  -0.115  15.703  0.00  0.00     0.269 C 
ATOM     12  C13 ZIN A   1      18.375   1.884  15.026  0.00  0.00     0.269 C 
ENDBRANCH   7   9
ENDBRANCH   6   7
ENDBRANCH   1   6
BRANCH   1  13
ATOM     13  C14 ZIN A   1      18.767   2.414  11.634  0.00  0.00    -0.037 A 
ATOM     14  C19 ZIN A   1      17.562   3.087  11.690  0.00  0.00     0.009 A 
ATOM     15  C18 ZIN A   1      17.537   4.438  11.986  0.00  0.00     0.001 A 
ATOM     16  C17 ZIN A   1      18.719   5.117  12.215  0.00  0.00     0.000 A 
ATOM     17  C16 ZIN A   1      19.925   4.446  12.154  0.00  0.00     0.001 A 
ATOM     18  C15 ZIN A   1      19.950   3.094  11.863  0.00  0.00     0.009 A 
ENDBRANCH   1  13
BRANCH   1  19
ATOM     19  C20 ZIN A   1      18.469   0.735   9.860  0.00  0.00    -0.037 A 
ATOM     20  C25 ZIN A   1      19.172   1.426   8.891  0.00  0.00     0.009 A 
ATOM     21  C24 ZIN A   1      18.877   1.234   7.554  0.00  0.00     0.001 A 
ATOM     22  C23 ZIN A   1      17.872   0.357   7.187  0.00  0.00     0.000 A 
ATOM     23  C22 ZIN A   1      17.167  -0.329   8.157  0.00  0.00     0.001 A 
ATOM     24  C21 ZIN A   1      17.465  -0.140   9.493  0.00  0.00     0.009 A 
ENDBRANCH   1  19
TORSDOF 7
ENDMDL
MODEL 6
REMARK VINA RESULT:      -6.4      2.074      5.015
REMARK  7 active torsions:
REMARK  status: ('A' for Active; 'I' for Inactive)
REMARK    1  A    between atoms: C2_2  and  C3_3 
REMARK    2  A    between atoms: C3_3  and  C5_5 
REMARK    3  A    between atoms: C5_5  and  C6_6 
REMARK    4  A    between atoms: C5_5  and  C14_13 
REMARK    5  A    between atoms: C5_5  and  C20_19 
REMARK    6  A    between atoms: C6_6  and  C7_7 
REMARK    7  A    between atoms: C7_7  and  N10_9 
ROOT
ATOM      1  C5  ZIN A   1      18.558  -0.861   9.758  0.00  0.00     0.076 C 
ENDROOT
BRANCH   1   2
ATOM      2  C3  ZIN A   1      17.358  -0.355  10.518  0.00  0.00     0.144 C 
ATOM      3  O4  ZIN A   1      16.692   0.545  10.066  0.00  0.00    -0.296 OA
BRANCH   2   4
ATOM      4  C2  ZIN A   1      16.992  -0.973  11.843  0.00  0.00     0.075 C 
ATOM      5  C1  ZIN A   1      17.263   0.031  12.966  0.00  0.00     0.013 C 
ENDBRANCH   2   4
ENDBRANCH   1   2
BRANCH   1   6
ATOM      6  C6  ZIN A   1      19.784  -0.023  10.123  0.00  0.00     0.060 C 
BRANCH   6   7
ATOM      7  C7  ZIN A   1      19.358   1.427  10.366  0.00  0.00     0.185 C 
ATOM      8  C9  ZIN A   1      19.519   2.228   9.072  0.00  0.00     0.040 C 
BRANCH   7   9
ATOM      9  N10 ZIN A   1      20.201   2.015  11.415  0.00  0.00    -0.075 N 
ATOM     10  H11 ZIN A   1      20.978   2.500  10.990  0.00  0.00     0.279 HD
ATOM     11  C12 ZIN A   1      19.407   2.965  12.207  0.00  0.00     0.269 C 
ATOM     12  C13 ZIN A   1      20.708   0.951  12.291  0.00  0.00     0.269 C 
ENDBRANCH   7   9
ENDBRANCH   6   7
ENDBRANCH   1   6
BRANCH   1  13
ATOM     13  C14 ZIN A   1      18.808  -2.302  10.118  0.00  0.00    -0.037 A 
ATOM     14  C19 ZIN A   1      18.032  -3.299   9.559  0.00  0.00     0.009 A 
ATOM     15  C18 ZIN A   1      18.265  -4.622   9.886  0.00  0.00     0.001 A 
ATOM     16  C17 ZIN A   1      19.268  -4.947  10.780  0.00  0.00     0.000 A 
ATOM     17  C16 ZIN A   1      20.042  -3.950  11.343  0.00  0.00     0.001 A 
ATOM     18  C15 ZIN A   1      19.812  -2.627  11.012  0.00  0.00     0.009 A 
ENDBRANCH   1  13
BRANCH   1  19
ATOM     19  C20 ZIN A   1      18.297  -0.751   8.277  0.00  0.00    -0.037 A 
ATOM     20  C25 ZIN A   1      19.267  -1.140   7.374  0.00  0.00     0.009 A 
ATOM     21  C24 ZIN A   1      19.026  -1.044   6.016  0.00  0.00     0.001 A 
ATOM     22  C23 ZIN A   1      17.817  -0.550   5.562  0.00  0.00     0.000 A 
ATOM     23  C22 ZIN A   1      16.848  -0.156   6.467  0.00  0.00     0.001 A 
ATOM     24  C21 ZIN A   1      17.089  -0.256   7.824  0.00  0.00     0.009 A 
ENDBRANCH   1  19
TORSDOF 7
ENDMDL
MODEL 7
REMARK VINA RESULT:      -6.2      1.423      2.126
REMARK  7 active torsions:
REMARK  status: ('A' for Active; 'I' for Inactive)
REMARK    1  A    between atoms: C2_2  and  C3_3 
REMARK    2  A    between atoms: C3_3  and  C5_5 
REMARK    3  A    between atoms: C5_5  and  C6_6 
REMARK    4  A    between atoms: C5_5  and  C14_13 
REMARK    5  A    between atoms: C5_5  and  C20_19 
REMARK    6  A    between atoms: C6_6  and  C7_7 
REMARK    7  A    between atoms: C7_7  and  N10_9 
ROOT
ATOM      1  C5  ZIN A   1      18.650  -0.736  12.549  0.00  0.00     0.076 C 
ENDROOT
BRANCH   1   2
ATOM      2  C3  ZIN A   1      19.992  -0.163  12.168  0.00  0.00     0.144 C 
ATOM      3  O4  ZIN A   1      20.397   0.836  12.711  0.00  0.00    -0.296 OA
BRANCH   2   4
ATOM      4  C2  ZIN A   1      20.826  -0.838  11.110  0.00  0.00     0.075 C 
ATOM      5  C1  ZIN A   1      20.536  -0.202   9.750  0.00  0.00     0.013 C 
ENDBRANCH   2   4
ENDBRANCH   1   2
BRANCH   1   6
ATOM      6  C6  ZIN A   1      17.538   0.128  11.952  0.00  0.00     0.060 C 
BRANCH   6   7
ATOM      7  C7  ZIN A   1      18.112   1.485  11.538  0.00  0.00     0.185 C 
ATOM      8  C9  ZIN A   1      17.679   2.551  12.548  0.00  0.00     0.040 C 
BRANCH   7   9
ATOM      9  N10 ZIN A   1      17.613   1.842  10.205  0.00  0.00    -0.075 N 
ATOM     10  H11 ZIN A   1      16.718   2.301  10.292  0.00  0.00     0.279 HD
ATOM     11  C12 ZIN A   1      18.566   2.749   9.551  0.00  0.00     0.269 C 
ATOM     12  C13 ZIN A   1      17.461   0.625   9.396  0.00  0.00     0.269 C 
ENDBRANCH   7   9
ENDBRANCH   6   7
ENDBRANCH   1   6
BRANCH   1  13
ATOM     13  C14 ZIN A   1      18.536  -2.141  12.017  0.00  0.00    -0.037 A 
ATOM     14  C19 ZIN A   1      19.616  -3.000  12.094  0.00  0.00     0.009 A 
ATOM     15  C18 ZIN A   1      19.508  -4.290  11.610  0.00  0.00     0.001 A 
ATOM     16  C17 ZIN A   1      18.324  -4.719  11.039  0.00  0.00     0.000 A 
ATOM     17  C16 ZIN A   1      17.246  -3.858  10.957  0.00  0.00     0.001 A 
ATOM     18  C15 ZIN A   1      17.352  -2.569  11.445  0.00  0.00     0.009 A 
ENDBRANCH   1  13
BRANCH   1  19
ATOM     19  C20 ZIN A   1      18.521  -0.756  14.051  0.00  0.00    -0.037 A 
ATOM     20  C25 ZIN A   1      17.508  -0.045  14.666  0.00  0.00     0.009 A 
ATOM     21  C24 ZIN A   1      17.386  -0.067  16.043  0.00  0.00     0.001 A 
ATOM     22  C23 ZIN A   1      18.283  -0.793  16.804  0.00  0.00     0.000 A 
ATOM     23  C22 ZIN A   1      19.299  -1.499  16.188  0.00  0.00     0.001 A 
ATOM     24  C21 ZIN A   1      19.418  -1.480  14.812  0.00  0.00     0.009 A 
ENDBRANCH   1  19
TORSDOF 7
ENDMDL
MODEL 8
REMARK VINA RESULT:      -6.1      2.161      5.006
REMARK  7 active torsions:
REMARK  status: ('A' for Active; 'I' for Inactive)
REMARK    1  A    between atoms: C2_2  and  C3_3 
REMARK    2  A    between atoms: C3_3  and  C5_5 
REMARK    3  A    between atoms: C5_5  and  C6_6 
REMARK    4  A    between atoms: C5_5  and  C14_13 
REMARK    5  A    between atoms: C5_5  and  C20_19 
REMARK    6  A    between atoms: C6_6  and  C7_7 
REMARK    7  A    between atoms: C7_7  and  N10_9 
ROOT
ATOM      1  C5  ZIN A   1      18.585  -0.104  13.028  0.00  0.00     0.076 C 
ENDROOT
BRANCH   1   2
ATOM      2  C3  ZIN A   1      17.342   0.494  12.421  0.00  0.00     0.144 C 
ATOM      3  O4  ZIN A   1      16.904   1.536  12.844  0.00  0.00    -0.296 OA
BRANCH   2   4
ATOM      4  C2  ZIN A   1      16.646  -0.211  11.284  0.00  0.00     0.075 C 
ATOM      5  C1  ZIN A   1      17.117   0.379   9.954  0.00  0.00     0.013 C 
ENDBRANCH   2   4
ENDBRANCH   1   2
BRANCH   1   6
ATOM      6  C6  ZIN A   1      19.753   0.870  12.864  0.00  0.00     0.060 C 
BRANCH   6   7
ATOM      7  C7  ZIN A   1      19.228   2.218  12.364  0.00  0.00     0.185 C 
ATOM      8  C9  ZIN A   1      19.739   2.469  10.944  0.00  0.00     0.040 C 
BRANCH   7   9
ATOM      9  N10 ZIN A   1      19.701   3.287  13.252  0.00  0.00    -0.075 N 
ATOM     10  H11 ZIN A   1      20.646   3.087  13.546  0.00  0.00     0.279 HD
ATOM     11  C12 ZIN A   1      19.673   4.569  12.533  0.00  0.00     0.269 C 
ATOM     12  C13 ZIN A   1      18.829   3.367  14.431  0.00  0.00     0.269 C 
ENDBRANCH   7   9
ENDBRANCH   6   7
ENDBRANCH   1   6
BRANCH   1  13
ATOM     13  C14 ZIN A   1      18.351  -0.366  14.493  0.00  0.00    -0.037 A 
ATOM     14  C19 ZIN A   1      19.240  -1.146  15.207  0.00  0.00     0.009 A 
ATOM     15  C18 ZIN A   1      19.027  -1.382  16.553  0.00  0.00     0.001 A 
ATOM     16  C17 ZIN A   1      17.919  -0.847  17.182  0.00  0.00     0.000 A 
ATOM     17  C16 ZIN A   1      17.026  -0.071  16.467  0.00  0.00     0.001 A 
ATOM     18  C15 ZIN A   1      17.241   0.169  15.122  0.00  0.00     0.009 A 
ENDBRANCH   1  13
BRANCH   1  19
ATOM     19  C20 ZIN A   1      18.910  -1.401  12.332  0.00  0.00    -0.037 A 
ATOM     20  C25 ZIN A   1      19.986  -1.470  11.467  0.00  0.00     0.009 A 
ATOM     21  C24 ZIN A   1      20.286  -2.661  10.832  0.00  0.00     0.001 A 
ATOM     22  C23 ZIN A   1      19.505  -3.779  11.055  0.00  0.00     0.000 A 
ATOM     23  C22 ZIN A   1      18.426  -3.708  11.917  0.00  0.00     0.001 A 
ATOM     24  C21 ZIN A   1      18.129  -2.519  12.554  0.00  0.00     0.009 A 
ENDBRANCH   1  19
TORSDOF 7
ENDMDL
MODEL 9
REMARK VINA RESULT:      -5.9      2.441      4.677
REMARK  7 active torsions:
REMARK  status: ('A' for Active; 'I' for Inactive)
REMARK    1  A    between atoms: C2_2  and  C3_3 
REMARK    2  A    between atoms: C3_3  and  C5_5 
REMARK    3  A    between atoms: C5_5  and  C6_6 
REMARK    4  A    between atoms: C5_5  and  C14_13 
REMARK    5  A    between atoms: C5_5  and  C20_19 
REMARK    6  A    between atoms: C6_6  and  C7_7 
REMARK    7  A    between atoms: C7_7  and  N10_9 
ROOT
ATOM      1  C5  ZIN A   1      18.304   1.672  12.588  0.00  0.00     0.076 C 
ENDROOT
BRANCH   1   2
ATOM      2  C3  ZIN A   1      19.695   1.667  12.006  0.00  0.00     0.144 C 
ATOM      3  O4  ZIN A   1      20.465   0.782  12.291  0.00  0.00    -0.296 OA
BRANCH   2   4
ATOM      4  C2  ZIN A   1      20.123   2.768  11.070  0.00  0.00     0.075 C 
ATOM      5  C1  ZIN A   1      20.863   3.849  11.859  0.00  0.00     0.013 C 
ENDBRANCH   2   4
ENDBRANCH   1   2
BRANCH   1   6
ATOM      6  C6  ZIN A   1      17.430   0.671  11.830  0.00  0.00     0.060 C 
BRANCH   6   7
ATOM      7  C7  ZIN A   1      18.222   0.086  10.658  0.00  0.00     0.185 C 
ATOM      8  C9  ZIN A   1      17.377   0.160   9.385  0.00  0.00     0.040 C 
BRANCH   7   9
ATOM      9  N10 ZIN A   1      18.556  -1.315  10.944  0.00  0.00    -0.075 N 
ATOM     10  H11 ZIN A   1      19.310  -1.352  11.614  0.00  0.00     0.279 HD
ATOM     11  C12 ZIN A   1      17.378  -1.998  11.496  0.00  0.00     0.269 C 
ATOM     12  C13 ZIN A   1      18.972  -1.982   9.703  0.00  0.00     0.269 C 
ENDBRANCH   7   9
ENDBRANCH   6   7
ENDBRANCH   1   6
BRANCH   1  13
ATOM     13  C14 ZIN A   1      18.367   1.285  14.042  0.00  0.00    -0.037 A 
ATOM     14  C19 ZIN A   1      19.197   1.973  14.906  0.00  0.00     0.009 A 
ATOM     15  C18 ZIN A   1      19.250   1.621  16.242  0.00  0.00     0.001 A 
ATOM     16  C17 ZIN A   1      18.481   0.572  16.712  0.00  0.00     0.000 A 
ATOM     17  C16 ZIN A   1      17.655  -0.120  15.847  0.00  0.00     0.001 A 
ATOM     18  C15 ZIN A   1      17.597   0.235  14.512  0.00  0.00     0.009 A 
ENDBRANCH   1  13
BRANCH   1  19
ATOM     19  C20 ZIN A   1      17.712   3.053  12.461  0.00  0.00    -0.037 A 
ATOM     20  C25 ZIN A   1      17.278   3.508  11.230  0.00  0.00     0.009 A 
ATOM     21  C24 ZIN A   1      16.731   4.772  11.115  0.00  0.00     0.001 A 
ATOM     22  C23 ZIN A   1      16.627   5.584  12.229  0.00  0.00     0.000 A 
ATOM     23  C22 ZIN A   1      17.065   5.130  13.458  0.00  0.00     0.001 A 
ATOM     24  C21 ZIN A   1      17.608   3.865  13.574  0.00  0.00     0.009 A 
ENDBRANCH   1  19
TORSDOF 7
ENDMDL
