MODEL 1
REMARK VINA RESULT:      -8.2      0.000      0.000
REMARK  7 active torsions:
REMARK  status: ('A' for Active; 'I' for Inactive)
REMARK    1  A    between atoms: O2_2  and  C3_3 
REMARK    2  A    between atoms: C3_3  and  C4_4 
REMARK    3  A    between atoms: C3_3  and  C10_10 
REMARK    4  A    between atoms: C3_3  and  C16_16 
REMARK    5  A    between atoms: C16_16  and  O18_17 
REMARK    6  A    between atoms: C16_16  and  C27_26 
REMARK    7  A    between atoms: O18_17  and  C19_18 
ROOT
ATOM      1  C3  ZIN A   1      18.761   1.585  11.472  0.00  0.00     0.151 C 
ENDROOT
BRANCH   1   2
ATOM      2  O2  ZIN A   1      20.149   1.761  11.764  0.00  0.00    -0.372 OA
ATOM      3  C1  ZIN A   1      20.567   3.127  11.799  0.00  0.00     0.203 C 
ENDBRANCH   1   2
BRANCH   1   4
ATOM      4  C4  ZIN A   1      18.141   2.922  11.154  0.00  0.00    -0.016 A 
ATOM      5  C9  ZIN A   1      17.354   3.559  12.096  0.00  0.00     0.011 A 
ATOM      6  C8  ZIN A   1      16.789   4.787  11.805  0.00  0.00     0.001 A 
ATOM      7  C7  ZIN A   1      17.002   5.372  10.572  0.00  0.00     0.000 A 
ATOM      8  C6  ZIN A   1      17.785   4.732   9.629  0.00  0.00     0.001 A 
ATOM      9  C5  ZIN A   1      18.354   3.507   9.921  0.00  0.00     0.011 A 
ENDBRANCH   1   4
BRANCH   1  10
ATOM     10  C10 ZIN A   1      18.610   0.666  10.287  0.00  0.00    -0.016 A 
ATOM     11  C15 ZIN A   1      17.507   0.777   9.463  0.00  0.00     0.011 A 
ATOM     12  C14 ZIN A   1      17.371  -0.063   8.374  0.00  0.00     0.001 A 
ATOM     13  C13 ZIN A   1      18.334  -1.020   8.114  0.00  0.00     0.000 A 
ATOM     14  C12 ZIN A   1      19.434  -1.134   8.942  0.00  0.00     0.001 A 
ATOM     15  C11 ZIN A   1      19.573  -0.291  10.029  0.00  0.00     0.011 A 
ENDBRANCH   1  10
BRANCH   1  16
ATOM     16  C16 ZIN A   1      18.059   0.974  12.686  0.00  0.00     0.276 C 
BRANCH  16  17
ATOM     17  O18 ZIN A   1      19.035   0.444  13.585  0.00  0.00    -0.299 OA
BRANCH  17  18
ATOM     18  C19 ZIN A   1      19.067   0.966  14.835  0.00  0.00     0.270 A 
ATOM     19  N26 ZIN A   1      19.048   0.149  15.876  0.00  0.00    -0.212 NA
ATOM     20  C24 ZIN A   1      19.084   0.625  17.110  0.00  0.00     0.037 A 
ATOM     21  C23 ZIN A   1      19.129   1.996  17.304  0.00  0.00     0.053 A 
ATOM     22  C25 ZIN A   1      19.068  -0.314  18.289  0.00  0.00     0.070 C 
ATOM     23  C21 ZIN A   1      19.143   2.822  16.191  0.00  0.00     0.037 A 
ATOM     24  N20 ZIN A   1      19.111   2.280  14.986  0.00  0.00    -0.212 NA
ATOM     25  C22 ZIN A   1      19.191   4.319  16.354  0.00  0.00     0.070 C 
ENDBRANCH  17  18
ENDBRANCH  16  17
BRANCH  16  26
ATOM     26  C27 ZIN A   1      17.143  -0.133  12.232  0.00  0.00     0.207 C 
ATOM     27  O28 ZIN A   1      16.034   0.132  11.797  0.00  0.00    -0.646 OA
ATOM     28  O29 ZIN A   1      17.508  -1.294  12.301  0.00  0.00    -0.646 OA
ENDBRANCH  16  26
ENDBRANCH   1  16
TORSDOF 7
ENDMDL
MODEL 2
REMARK VINA RESULT:      -8.2      0.044      1.846
REMARK  7 active torsions:
REMARK  status: ('A' for Active; 'I' for Inactive)
REMARK    1  A    between atoms: O2_2  and  C3_3 
REMARK    2  A    between atoms: C3_3  and  C4_4 
REMARK    3  A    between atoms: C3_3  and  C10_10 
REMARK    4  A    between atoms: C3_3  and  C16_16 
REMARK    5  A    between atoms: C16_16  and  O18_17 
REMARK    6  A    between atoms: C16_16  and  C27_26 
REMARK    7  A    between atoms: O18_17  and  C19_18 
ROOT
ATOM      1  C3  ZIN A   1      18.773   1.618  11.496  0.00  0.00     0.151 C 
ENDROOT
BRANCH   1   2
ATOM      2  O2  ZIN A   1      20.160   1.805  11.787  0.00  0.00    -0.372 OA
ATOM      3  C1  ZIN A   1      20.572   3.173  11.798  0.00  0.00     0.203 C 
ENDBRANCH   1   2
BRANCH   1   4
ATOM      4  C4  ZIN A   1      18.142   2.950  11.180  0.00  0.00    -0.016 A 
ATOM      5  C9  ZIN A   1      17.356   3.583  12.125  0.00  0.00     0.011 A 
ATOM      6  C8  ZIN A   1      16.781   4.806  11.836  0.00  0.00     0.001 A 
ATOM      7  C7  ZIN A   1      16.982   5.391  10.601  0.00  0.00     0.000 A 
ATOM      8  C6  ZIN A   1      17.765   4.756   9.655  0.00  0.00     0.001 A 
ATOM      9  C5  ZIN A   1      18.343   3.535   9.944  0.00  0.00     0.011 A 
ENDBRANCH   1   4
BRANCH   1  10
ATOM     10  C10 ZIN A   1      18.629   0.700  10.309  0.00  0.00    -0.016 A 
ATOM     11  C15 ZIN A   1      19.602  -0.243  10.043  0.00  0.00     0.011 A 
ATOM     12  C14 ZIN A   1      19.467  -1.089   8.957  0.00  0.00     0.001 A 
ATOM     13  C13 ZIN A   1      18.362  -0.984   8.133  0.00  0.00     0.000 A 
ATOM     14  C12 ZIN A   1      17.392  -0.036   8.396  0.00  0.00     0.001 A 
ATOM     15  C11 ZIN A   1      17.524   0.805   9.485  0.00  0.00     0.011 A 
ENDBRANCH   1  10
BRANCH   1  16
ATOM     16  C16 ZIN A   1      18.077   0.999  12.709  0.00  0.00     0.276 C 
BRANCH  16  17
ATOM     17  O18 ZIN A   1      19.058   0.478  13.607  0.00  0.00    -0.299 OA
BRANCH  17  18
ATOM     18  C19 ZIN A   1      19.082   0.995  14.859  0.00  0.00     0.270 A 
ATOM     19  N26 ZIN A   1      19.148   2.307  15.014  0.00  0.00    -0.212 NA
ATOM     20  C24 ZIN A   1      19.168   2.847  16.222  0.00  0.00     0.037 A 
ATOM     21  C23 ZIN A   1      19.131   2.017  17.332  0.00  0.00     0.053 A 
ATOM     22  C25 ZIN A   1      19.236   4.343  16.388  0.00  0.00     0.070 C 
ATOM     23  C21 ZIN A   1      19.067   0.647  17.133  0.00  0.00     0.037 A 
ATOM     24  N20 ZIN A   1      19.045   0.176  15.897  0.00  0.00    -0.212 NA
ATOM     25  C22 ZIN A   1      19.026  -0.293  18.310  0.00  0.00     0.070 C 
ENDBRANCH  17  18
ENDBRANCH  16  17
BRANCH  16  26
ATOM     26  C27 ZIN A   1      17.170  -0.115  12.254  0.00  0.00     0.207 C 
ATOM     27  O28 ZIN A   1      16.057   0.140  11.826  0.00  0.00    -0.646 OA
ATOM     28  O29 ZIN A   1      17.549  -1.273  12.316  0.00  0.00    -0.646 OA
ENDBRANCH  16  26
ENDBRANCH   1  16
TORSDOF 7
ENDMDL
MODEL 3
REMARK VINA RESULT:      -8.1      2.006      3.185
REMARK  7 active torsions:
REMARK  status: ('A' for Active; 'I' for Inactive)
REMARK    1  A    between atoms: O2_2  and  C3_3 
REMARK    2  A    between atoms: C3_3  and  C4_4 
REMARK    3  A    between atoms: C3_3  and  C10_10 
REMARK    4  A    between atoms: C3_3  and  C16_16 
REMARK    5  A    between atoms: C16_16  and  O18_17 
REMARK    6  A    between atoms: C16_16  and  C27_26 
REMARK    7  A    between atoms: O18_17  and  C19_18 
ROOT
ATOM      1  C3  ZIN A   1      19.261  -0.525  10.945  0.00  0.00     0.151 C 
ENDROOT
BRANCH   1   2
ATOM      2  O2  ZIN A   1      20.669  -0.349  11.114  0.00  0.00    -0.372 OA
ATOM      3  C1  ZIN A   1      21.019   0.653  12.070  0.00  0.00     0.203 C 
ENDBRANCH   1   2
BRANCH   1   4
ATOM      4  C4  ZIN A   1      18.868  -0.130   9.545  0.00  0.00    -0.016 A 
ATOM      5  C9  ZIN A   1      17.957  -0.896   8.841  0.00  0.00     0.011 A 
ATOM      6  C8  ZIN A   1      17.594  -0.532   7.558  0.00  0.00     0.001 A 
ATOM      7  C7  ZIN A   1      18.149   0.592   6.975  0.00  0.00     0.000 A 
ATOM      8  C6  ZIN A   1      19.063   1.355   7.677  0.00  0.00     0.001 A 
ATOM      9  C5  ZIN A   1      19.423   0.993   8.962  0.00  0.00     0.011 A 
ENDBRANCH   1   4
BRANCH   1  10
ATOM     10  C10 ZIN A   1      18.904  -1.970  11.179  0.00  0.00    -0.016 A 
ATOM     11  C15 ZIN A   1      17.578  -2.356  11.228  0.00  0.00     0.011 A 
ATOM     12  C14 ZIN A   1      17.252  -3.683  11.438  0.00  0.00     0.001 A 
ATOM     13  C13 ZIN A   1      18.252  -4.623  11.608  0.00  0.00     0.000 A 
ATOM     14  C12 ZIN A   1      19.577  -4.235  11.564  0.00  0.00     0.001 A 
ATOM     15  C11 ZIN A   1      19.904  -2.909  11.349  0.00  0.00     0.011 A 
ENDBRANCH   1  10
BRANCH   1  16
ATOM     16  C16 ZIN A   1      18.514   0.355  11.950  0.00  0.00     0.276 C 
BRANCH  16  17
ATOM     17  O18 ZIN A   1      18.274  -0.387  13.147  0.00  0.00    -0.299 OA
BRANCH  17  18
ATOM     18  C19 ZIN A   1      18.460   0.262  14.321  0.00  0.00     0.270 A 
ATOM     19  N26 ZIN A   1      18.710  -0.439  15.415  0.00  0.00    -0.212 NA
ATOM     20  C24 ZIN A   1      18.902   0.163  16.577  0.00  0.00     0.037 A 
ATOM     21  C23 ZIN A   1      18.827   1.546  16.641  0.00  0.00     0.053 A 
ATOM     22  C25 ZIN A   1      19.192  -0.645  17.816  0.00  0.00     0.070 C 
ATOM     23  C21 ZIN A   1      18.559   2.249  15.477  0.00  0.00     0.037 A 
ATOM     24  N20 ZIN A   1      18.383   1.583  14.348  0.00  0.00    -0.212 NA
ATOM     25  C22 ZIN A   1      18.468   3.753  15.500  0.00  0.00     0.070 C 
ENDBRANCH  17  18
ENDBRANCH  16  17
BRANCH  16  26
ATOM     26  C27 ZIN A   1      17.199   0.790  11.357  0.00  0.00     0.207 C 
ATOM     27  O28 ZIN A   1      17.118   1.856  10.770  0.00  0.00    -0.646 OA
ATOM     28  O29 ZIN A   1      16.215   0.078  11.467  0.00  0.00    -0.646 OA
ENDBRANCH  16  26
ENDBRANCH   1  16
TORSDOF 7
ENDMDL
MODEL 4
REMARK VINA RESULT:      -8.1      2.013      3.565
REMARK  7 active torsions:
REMARK  status: ('A' for Active; 'I' for Inactive)
REMARK    1  A    between atoms: O2_2  and  C3_3 
REMARK    2  A    between atoms: C3_3  and  C4_4 
REMARK    3  A    between atoms: C3_3  and  C10_10 
REMARK    4  A    between atoms: C3_3  and  C16_16 
REMARK    5  A    between atoms: C16_16  and  O18_17 
REMARK    6  A    between atoms: C16_16  and  C27_26 
REMARK    7  A    between atoms: O18_17  and  C19_18 
ROOT
ATOM      1  C3  ZIN A   1      19.262  -0.534  10.954  0.00  0.00     0.151 C 
ENDROOT
BRANCH   1   2
ATOM      2  O2  ZIN A   1      20.671  -0.363  11.125  0.00  0.00    -0.372 OA
ATOM      3  C1  ZIN A   1      21.023   0.655  12.064  0.00  0.00     0.203 C 
ENDBRANCH   1   2
BRANCH   1   4
ATOM      4  C4  ZIN A   1      18.874  -0.137   9.553  0.00  0.00    -0.016 A 
ATOM      5  C9  ZIN A   1      17.965  -0.902   8.845  0.00  0.00     0.011 A 
ATOM      6  C8  ZIN A   1      17.605  -0.535   7.562  0.00  0.00     0.001 A 
ATOM      7  C7  ZIN A   1      18.161   0.590   6.983  0.00  0.00     0.000 A 
ATOM      8  C6  ZIN A   1      19.073   1.352   7.689  0.00  0.00     0.001 A 
ATOM      9  C5  ZIN A   1      19.429   0.988   8.974  0.00  0.00     0.011 A 
ENDBRANCH   1   4
BRANCH   1  10
ATOM     10  C10 ZIN A   1      18.901  -1.979  11.185  0.00  0.00    -0.016 A 
ATOM     11  C15 ZIN A   1      17.574  -2.363  11.215  0.00  0.00     0.011 A 
ATOM     12  C14 ZIN A   1      17.243  -3.689  11.423  0.00  0.00     0.001 A 
ATOM     13  C13 ZIN A   1      18.239  -4.630  11.610  0.00  0.00     0.000 A 
ATOM     14  C12 ZIN A   1      19.566  -4.243  11.587  0.00  0.00     0.001 A 
ATOM     15  C11 ZIN A   1      19.897  -2.918  11.374  0.00  0.00     0.011 A 
ENDBRANCH   1  10
BRANCH   1  16
ATOM     16  C16 ZIN A   1      18.517   0.346  11.958  0.00  0.00     0.276 C 
BRANCH  16  17
ATOM     17  O18 ZIN A   1      18.266  -0.398  13.152  0.00  0.00    -0.299 OA
BRANCH  17  18
ATOM     18  C19 ZIN A   1      18.453   0.246  14.329  0.00  0.00     0.270 A 
ATOM     19  N26 ZIN A   1      18.387   1.567  14.359  0.00  0.00    -0.212 NA
ATOM     20  C24 ZIN A   1      18.559   2.228  15.493  0.00  0.00     0.037 A 
ATOM     21  C23 ZIN A   1      18.823   1.519  16.654  0.00  0.00     0.053 A 
ATOM     22  C25 ZIN A   1      18.476   3.732  15.518  0.00  0.00     0.070 C 
ATOM     23  C21 ZIN A   1      18.890   0.136  16.585  0.00  0.00     0.037 A 
ATOM     24  N20 ZIN A   1      18.702  -0.461  15.420  0.00  0.00    -0.212 NA
ATOM     25  C22 ZIN A   1      19.175  -0.676  17.822  0.00  0.00     0.070 C 
ENDBRANCH  17  18
ENDBRANCH  16  17
BRANCH  16  26
ATOM     26  C27 ZIN A   1      17.207   0.792  11.361  0.00  0.00     0.207 C 
ATOM     27  O28 ZIN A   1      17.133   1.865  10.785  0.00  0.00    -0.646 OA
ATOM     28  O29 ZIN A   1      16.220   0.082  11.456  0.00  0.00    -0.646 OA
ENDBRANCH  16  26
ENDBRANCH   1  16
TORSDOF 7
ENDMDL
MODEL 5
REMARK VINA RESULT:      -7.7      2.657      6.717
REMARK  7 active torsions:
REMARK  status: ('A' for Active; 'I' for Inactive)
REMARK    1  A    between atoms: O2_2  and  C3_3 
REMARK    2  A    between atoms: C3_3  and  C4_4 
REMARK    3  A    between atoms: C3_3  and  C10_10 
REMARK    4  A    between atoms: C3_3  and  C16_16 
REMARK    5  A    between atoms: C16_16  and  O18_17 
REMARK    6  A    between atoms: C16_16  and  C27_26 
REMARK    7  A    between atoms: O18_17  and  C19_18 
ROOT
ATOM      1  C3  ZIN A   1      19.219   0.561  12.000  0.00  0.00     0.151 C 
ENDROOT
BRANCH   1   2
ATOM      2  O2  ZIN A   1      20.639   0.417  11.912  0.00  0.00    -0.372 OA
ATOM      3  C1  ZIN A   1      21.062  -0.660  11.073  0.00  0.00     0.203 C 
ENDBRANCH   1   2
BRANCH   1   4
ATOM      4  C4  ZIN A   1      18.758   0.163  13.379  0.00  0.00    -0.016 A 
ATOM      5  C9  ZIN A   1      19.287  -0.962  13.986  0.00  0.00     0.011 A 
ATOM      6  C8  ZIN A   1      18.867  -1.324  15.252  0.00  0.00     0.001 A 
ATOM      7  C7  ZIN A   1      17.912  -0.569  15.906  0.00  0.00     0.000 A 
ATOM      8  C6  ZIN A   1      17.381   0.553  15.298  0.00  0.00     0.001 A 
ATOM      9  C5  ZIN A   1      17.804   0.918  14.033  0.00  0.00     0.011 A 
ENDBRANCH   1   4
BRANCH   1  10
ATOM     10  C10 ZIN A   1      18.843   1.997  11.740  0.00  0.00    -0.016 A 
ATOM     11  C15 ZIN A   1      19.731   3.010  12.045  0.00  0.00     0.011 A 
ATOM     12  C14 ZIN A   1      19.388   4.327  11.802  0.00  0.00     0.001 A 
ATOM     13  C13 ZIN A   1      18.152   4.631  11.262  0.00  0.00     0.000 A 
ATOM     14  C12 ZIN A   1      17.262   3.617  10.962  0.00  0.00     0.001 A 
ATOM     15  C11 ZIN A   1      17.607   2.300  11.200  0.00  0.00     0.011 A 
ENDBRANCH   1  10
BRANCH   1  16
ATOM     16  C16 ZIN A   1      18.550  -0.339  10.960  0.00  0.00     0.276 C 
BRANCH  16  17
ATOM     17  O18 ZIN A   1      18.438   0.365   9.721  0.00  0.00    -0.299 OA
BRANCH  17  18
ATOM     18  C19 ZIN A   1      18.658  -0.344   8.589  0.00  0.00     0.270 A 
ATOM     19  N26 ZIN A   1      18.802   0.299   7.442  0.00  0.00    -0.212 NA
ATOM     20  C24 ZIN A   1      19.023  -0.362   6.317  0.00  0.00     0.037 A 
ATOM     21  C23 ZIN A   1      19.092  -1.746   6.350  0.00  0.00     0.053 A 
ATOM     22  C25 ZIN A   1      19.192   0.381   5.016  0.00  0.00     0.070 C 
ATOM     23  C21 ZIN A   1      18.932  -2.388   7.568  0.00  0.00     0.037 A 
ATOM     24  N20 ZIN A   1      18.719  -1.664   8.654  0.00  0.00    -0.212 NA
ATOM     25  C22 ZIN A   1      18.998  -3.891   7.651  0.00  0.00     0.070 C 
ENDBRANCH  17  18
ENDBRANCH  16  17
BRANCH  16  26
ATOM     26  C27 ZIN A   1      17.177  -0.730  11.441  0.00  0.00     0.207 C 
ATOM     27  O28 ZIN A   1      17.005  -1.805  11.989  0.00  0.00    -0.646 OA
ATOM     28  O29 ZIN A   1      16.236   0.029  11.280  0.00  0.00    -0.646 OA
ENDBRANCH  16  26
ENDBRANCH   1  16
TORSDOF 7
ENDMDL
MODEL 6
REMARK VINA RESULT:      -7.7      3.013      6.199
REMARK  7 active torsions:
REMARK  status: ('A' for Active; 'I' for Inactive)
REMARK    1  A    between atoms: O2_2  and  C3_3 
REMARK    2  A    between atoms: C3_3  and  C4_4 
REMARK    3  A    between atoms: C3_3  and  C10_10 
REMARK    4  A    between atoms: C3_3  and  C16_16 
REMARK    5  A    between atoms: C16_16  and  O18_17 
REMARK    6  A    between atoms: C16_16  and  C27_26 
REMARK    7  A    between atoms: O18_17  and  C19_18 
ROOT
ATOM      1  C3  ZIN A   1      18.964   0.197  11.870  0.00  0.00     0.151 C 
ENDROOT
BRANCH   1   2
ATOM      2  O2  ZIN A   1      20.316  -0.059  11.484  0.00  0.00    -0.372 OA
ATOM      3  C1  ZIN A   1      21.285   0.650  12.259  0.00  0.00     0.203 C 
ENDBRANCH   1   2
BRANCH   1   4
ATOM      4  C4  ZIN A   1      18.846   0.120  13.370  0.00  0.00    -0.016 A 
ATOM      5  C9  ZIN A   1      19.186   1.213  14.146  0.00  0.00     0.011 A 
ATOM      6  C8  ZIN A   1      19.074   1.144  15.522  0.00  0.00     0.001 A 
ATOM      7  C7  ZIN A   1      18.632  -0.020  16.122  0.00  0.00     0.000 A 
ATOM      8  C6  ZIN A   1      18.295  -1.113  15.347  0.00  0.00     0.001 A 
ATOM      9  C5  ZIN A   1      18.404  -1.043  13.971  0.00  0.00     0.011 A 
ENDBRANCH   1   4
BRANCH   1  10
ATOM     10  C10 ZIN A   1      18.560   1.572  11.403  0.00  0.00    -0.016 A 
ATOM     11  C15 ZIN A   1      18.986   2.038  10.175  0.00  0.00     0.011 A 
ATOM     12  C14 ZIN A   1      18.611   3.298   9.746  0.00  0.00     0.001 A 
ATOM     13  C13 ZIN A   1      17.818   4.095  10.550  0.00  0.00     0.000 A 
ATOM     14  C12 ZIN A   1      17.397   3.630  11.782  0.00  0.00     0.001 A 
ATOM     15  C11 ZIN A   1      17.767   2.368  12.209  0.00  0.00     0.011 A 
ENDBRANCH   1  10
BRANCH   1  16
ATOM     16  C16 ZIN A   1      18.047  -0.849  11.233  0.00  0.00     0.276 C 
BRANCH  16  17
ATOM     17  O18 ZIN A   1      18.717  -1.463  10.130  0.00  0.00    -0.299 OA
BRANCH  17  18
ATOM     18  C19 ZIN A   1      18.656  -2.813  10.048  0.00  0.00     0.270 A 
ATOM     19  N26 ZIN A   1      19.140  -3.418   8.975  0.00  0.00    -0.212 NA
ATOM     20  C24 ZIN A   1      19.102  -4.736   8.865  0.00  0.00     0.037 A 
ATOM     21  C23 ZIN A   1      18.536  -5.482   9.887  0.00  0.00     0.053 A 
ATOM     22  C25 ZIN A   1      19.661  -5.415   7.642  0.00  0.00     0.070 C 
ATOM     23  C21 ZIN A   1      18.035  -4.816  10.994  0.00  0.00     0.037 A 
ATOM     24  N20 ZIN A   1      18.110  -3.497  11.041  0.00  0.00    -0.212 NA
ATOM     25  C22 ZIN A   1      17.410  -5.587  12.128  0.00  0.00     0.070 C 
ENDBRANCH  17  18
ENDBRANCH  16  17
BRANCH  16  26
ATOM     26  C27 ZIN A   1      16.786  -0.182  10.746  0.00  0.00     0.207 C 
ATOM     27  O28 ZIN A   1      15.867   0.025  11.520  0.00  0.00    -0.646 OA
ATOM     28  O29 ZIN A   1      16.685   0.150   9.576  0.00  0.00    -0.646 OA
ENDBRANCH  16  26
ENDBRANCH   1  16
TORSDOF 7
ENDMDL
MODEL 7
REMARK VINA RESULT:      -7.7      3.018      6.097
REMARK  7 active torsions:
REMARK  status: ('A' for Active; 'I' for Inactive)
REMARK    1  A    between atoms: O2_2  and  C3_3 
REMARK    2  A    between atoms: C3_3  and  C4_4 
REMARK    3  A    between atoms: C3_3  and  C10_10 
REMARK    4  A    between atoms: C3_3  and  C16_16 
REMARK    5  A    between atoms: C16_16  and  O18_17 
REMARK    6  A    between atoms: C16_16  and  C27_26 
REMARK    7  A    between atoms: O18_17  and  C19_18 
ROOT
ATOM      1  C3  ZIN A   1      18.964   0.186  11.869  0.00  0.00     0.151 C 
ENDROOT
BRANCH   1   2
ATOM      2  O2  ZIN A   1      20.315  -0.072  11.480  0.00  0.00    -0.372 OA
ATOM      3  C1  ZIN A   1      21.287   0.645  12.244  0.00  0.00     0.203 C 
ENDBRANCH   1   2
BRANCH   1   4
ATOM      4  C4  ZIN A   1      18.850   0.109  13.370  0.00  0.00    -0.016 A 
ATOM      5  C9  ZIN A   1      18.408  -1.055  13.970  0.00  0.00     0.011 A 
ATOM      6  C8  ZIN A   1      18.308  -1.127  15.347  0.00  0.00     0.001 A 
ATOM      7  C7  ZIN A   1      18.640  -0.033  16.123  0.00  0.00     0.000 A 
ATOM      8  C6  ZIN A   1      19.078   1.133  15.522  0.00  0.00     0.001 A 
ATOM      9  C5  ZIN A   1      19.182   1.204  14.146  0.00  0.00     0.011 A 
ENDBRANCH   1   4
BRANCH   1  10
ATOM     10  C10 ZIN A   1      18.562   1.563  11.405  0.00  0.00    -0.016 A 
ATOM     11  C15 ZIN A   1      17.762   2.355  12.204  0.00  0.00     0.011 A 
ATOM     12  C14 ZIN A   1      17.397   3.619  11.780  0.00  0.00     0.001 A 
ATOM     13  C13 ZIN A   1      17.824   4.086  10.550  0.00  0.00     0.000 A 
ATOM     14  C12 ZIN A   1      18.619   3.290   9.748  0.00  0.00     0.001 A 
ATOM     15  C11 ZIN A   1      18.989   2.028  10.175  0.00  0.00     0.011 A 
ENDBRANCH   1  10
BRANCH   1  16
ATOM     16  C16 ZIN A   1      18.043  -0.857  11.234  0.00  0.00     0.276 C 
BRANCH  16  17
ATOM     17  O18 ZIN A   1      18.711  -1.475  10.132  0.00  0.00    -0.299 OA
BRANCH  17  18
ATOM     18  C19 ZIN A   1      18.647  -2.826  10.054  0.00  0.00     0.270 A 
ATOM     19  N26 ZIN A   1      18.103  -3.505  11.051  0.00  0.00    -0.212 NA
ATOM     20  C24 ZIN A   1      18.020  -4.825  11.005  0.00  0.00     0.037 A 
ATOM     21  C23 ZIN A   1      18.521  -5.495   9.900  0.00  0.00     0.053 A 
ATOM     22  C25 ZIN A   1      17.393  -5.589  12.143  0.00  0.00     0.070 C 
ATOM     23  C21 ZIN A   1      19.088  -4.752   8.877  0.00  0.00     0.037 A 
ATOM     24  N20 ZIN A   1      19.134  -3.435   8.985  0.00  0.00    -0.212 NA
ATOM     25  C22 ZIN A   1      19.646  -5.438   7.657  0.00  0.00     0.070 C 
ENDBRANCH  17  18
ENDBRANCH  16  17
BRANCH  16  26
ATOM     26  C27 ZIN A   1      16.785  -0.186  10.746  0.00  0.00     0.207 C 
ATOM     27  O28 ZIN A   1      16.682   0.139   9.575  0.00  0.00    -0.646 OA
ATOM     28  O29 ZIN A   1      15.870   0.033  11.523  0.00  0.00    -0.646 OA
ENDBRANCH  16  26
ENDBRANCH   1  16
TORSDOF 7
ENDMDL
MODEL 8
REMARK VINA RESULT:      -7.6      2.640      6.472
REMARK  7 active torsions:
REMARK  status: ('A' for Active; 'I' for Inactive)
REMARK    1  A    between atoms: O2_2  and  C3_3 
REMARK    2  A    between atoms: C3_3  and  C4_4 
REMARK    3  A    between atoms: C3_3  and  C10_10 
REMARK    4  A    between atoms: C3_3  and  C16_16 
REMARK    5  A    between atoms: C16_16  and  O18_17 
REMARK    6  A    between atoms: C16_16  and  C27_26 
REMARK    7  A    between atoms: O18_17  and  C19_18 
ROOT
ATOM      1  C3  ZIN A   1      19.050   0.690  11.875  0.00  0.00     0.151 C 
ENDROOT
BRANCH   1   2
ATOM      2  O2  ZIN A   1      20.467   0.724  11.689  0.00  0.00    -0.372 OA
ATOM      3  C1  ZIN A   1      20.998  -0.445  11.063  0.00  0.00     0.203 C 
ENDBRANCH   1   2
BRANCH   1   4
ATOM      4  C4  ZIN A   1      18.738   0.235  13.278  0.00  0.00    -0.016 A 
ATOM      5  C9  ZIN A   1      17.707   0.829  13.983  0.00  0.00     0.011 A 
ATOM      6  C8  ZIN A   1      17.418   0.409  15.267  0.00  0.00     0.001 A 
ATOM      7  C7  ZIN A   1      18.164  -0.597  15.851  0.00  0.00     0.000 A 
ATOM      8  C6  ZIN A   1      19.197  -1.188  15.147  0.00  0.00     0.001 A 
ATOM      9  C5  ZIN A   1      19.484  -0.770  13.861  0.00  0.00     0.011 A 
ENDBRANCH   1   4
BRANCH   1  10
ATOM     10  C10 ZIN A   1      18.483   2.069  11.656  0.00  0.00    -0.016 A 
ATOM     11  C15 ZIN A   1      18.502   2.632  10.395  0.00  0.00     0.011 A 
ATOM     12  C14 ZIN A   1      17.978   3.895  10.194  0.00  0.00     0.001 A 
ATOM     13  C13 ZIN A   1      17.442   4.599  11.257  0.00  0.00     0.000 A 
ATOM     14  C12 ZIN A   1      17.428   4.038  12.519  0.00  0.00     0.001 A 
ATOM     15  C11 ZIN A   1      17.948   2.772  12.719  0.00  0.00     0.011 A 
ENDBRANCH   1  10
BRANCH   1  16
ATOM     16  C16 ZIN A   1      18.428  -0.283  10.873  0.00  0.00     0.276 C 
BRANCH  16  17
ATOM     17  O18 ZIN A   1      18.334   0.344   9.593  0.00  0.00    -0.299 OA
BRANCH  17  18
ATOM     18  C19 ZIN A   1      18.619  -0.420   8.512  0.00  0.00     0.270 A 
ATOM     19  N26 ZIN A   1      18.748  -1.728   8.661  0.00  0.00    -0.212 NA
ATOM     20  C24 ZIN A   1      19.021  -2.505   7.625  0.00  0.00     0.037 A 
ATOM     21  C23 ZIN A   1      19.184  -1.929   6.375  0.00  0.00     0.053 A 
ATOM     22  C25 ZIN A   1      19.160  -3.995   7.805  0.00  0.00     0.070 C 
ATOM     23  C21 ZIN A   1      19.046  -0.556   6.255  0.00  0.00     0.037 A 
ATOM     24  N20 ZIN A   1      18.767   0.160   7.332  0.00  0.00    -0.212 NA
ATOM     25  C22 ZIN A   1      19.215   0.113   4.916  0.00  0.00     0.070 C 
ENDBRANCH  17  18
ENDBRANCH  16  17
BRANCH  16  26
ATOM     26  C27 ZIN A   1      17.050  -0.675  11.342  0.00  0.00     0.207 C 
ATOM     27  O28 ZIN A   1      16.119   0.103  11.217  0.00  0.00    -0.646 OA
ATOM     28  O29 ZIN A   1      16.867  -1.769  11.848  0.00  0.00    -0.646 OA
ENDBRANCH  16  26
ENDBRANCH   1  16
TORSDOF 7
ENDMDL
MODEL 9
REMARK VINA RESULT:      -7.5      1.496      3.852
REMARK  7 active torsions:
REMARK  status: ('A' for Active; 'I' for Inactive)
REMARK    1  A    between atoms: O2_2  and  C3_3 
REMARK    2  A    between atoms: C3_3  and  C4_4 
REMARK    3  A    between atoms: C3_3  and  C10_10 
REMARK    4  A    between atoms: C3_3  and  C16_16 
REMARK    5  A    between atoms: C16_16  and  O18_17 
REMARK    6  A    between atoms: C16_16  and  C27_26 
REMARK    7  A    between atoms: O18_17  and  C19_18 
ROOT
ATOM      1  C3  ZIN A   1      18.077   1.108  11.171  0.00  0.00     0.151 C 
ENDROOT
BRANCH   1   2
ATOM      2  O2  ZIN A   1      16.696   0.931  11.494  0.00  0.00    -0.372 OA
ATOM      3  C1  ZIN A   1      16.414  -0.280  12.197  0.00  0.00     0.203 C 
ENDBRANCH   1   2
BRANCH   1   4
ATOM      4  C4  ZIN A   1      18.264   0.994   9.680  0.00  0.00    -0.016 A 
ATOM      5  C9  ZIN A   1      17.490   0.107   8.953  0.00  0.00     0.011 A 
ATOM      6  C8  ZIN A   1      17.659   0.006   7.585  0.00  0.00     0.001 A 
ATOM      7  C7  ZIN A   1      18.606   0.783   6.945  0.00  0.00     0.000 A 
ATOM      8  C6  ZIN A   1      19.381   1.666   7.673  0.00  0.00     0.001 A 
ATOM      9  C5  ZIN A   1      19.211   1.770   9.040  0.00  0.00     0.011 A 
ENDBRANCH   1   4
BRANCH   1  10
ATOM     10  C10 ZIN A   1      18.530   2.470  11.631  0.00  0.00    -0.016 A 
ATOM     11  C15 ZIN A   1      19.842   2.861  11.448  0.00  0.00     0.011 A 
ATOM     12  C14 ZIN A   1      20.255   4.112  11.866  0.00  0.00     0.001 A 
ATOM     13  C13 ZIN A   1      19.358   4.969  12.476  0.00  0.00     0.000 A 
ATOM     14  C12 ZIN A   1      18.046   4.575  12.664  0.00  0.00     0.001 A 
ATOM     15  C11 ZIN A   1      17.632   3.326  12.241  0.00  0.00     0.011 A 
ENDBRANCH   1  10
BRANCH   1  16
ATOM     16  C16 ZIN A   1      18.906   0.031  11.872  0.00  0.00     0.276 C 
BRANCH  16  17
ATOM     17  O18 ZIN A   1      19.771   0.642  12.831  0.00  0.00    -0.299 OA
BRANCH  17  18
ATOM     18  C19 ZIN A   1      19.383   0.596  14.128  0.00  0.00     0.270 A 
ATOM     19  N26 ZIN A   1      18.921  -0.541  14.623  0.00  0.00    -0.212 NA
ATOM     20  C24 ZIN A   1      18.537  -0.623  15.887  0.00  0.00     0.037 A 
ATOM     21  C23 ZIN A   1      18.614   0.504  16.690  0.00  0.00     0.053 A 
ATOM     22  C25 ZIN A   1      18.018  -1.924  16.443  0.00  0.00     0.070 C 
ATOM     23  C21 ZIN A   1      19.098   1.679  16.137  0.00  0.00     0.037 A 
ATOM     24  N20 ZIN A   1      19.469   1.689  14.868  0.00  0.00    -0.212 NA
ATOM     25  C22 ZIN A   1      19.199   2.929  16.972  0.00  0.00     0.070 C 
ENDBRANCH  17  18
ENDBRANCH  16  17
BRANCH  16  26
ATOM     26  C27 ZIN A   1      19.732  -0.712  10.853  0.00  0.00     0.207 C 
ATOM     27  O28 ZIN A   1      19.293  -1.723  10.332  0.00  0.00    -0.646 OA
ATOM     28  O29 ZIN A   1      20.839  -0.301  10.551  0.00  0.00    -0.646 OA
ENDBRANCH  16  26
ENDBRANCH   1  16
TORSDOF 7
ENDMDL
