MODEL 1
REMARK VINA RESULT:      -8.3      0.000      0.000
REMARK  5 active torsions:
REMARK  status: ('A' for Active; 'I' for Inactive)
REMARK    1  A    between atoms: C2_2  and  C4_4 
REMARK    2  A    between atoms: C4_4  and  C5_5 
REMARK    3  A    between atoms: C5_5  and  C6_6 
REMARK    4  A    between atoms: C8_8  and  C9_9 
REMARK    5  A    between atoms: C15_15  and  C16_16 
ROOT
ATOM      1  C6  ZIN A   1      19.225   1.748  11.518  0.00  0.00     0.147 A 
ATOM      2  N7  ZIN A   1      18.990   1.648  12.794  0.00  0.00    -0.225 NA
ATOM      3  C8  ZIN A   1      18.794   0.348  13.102  0.00  0.00     0.104 A 
ATOM      4  C15 ZIN A   1      18.920  -0.368  11.928  0.00  0.00     0.117 A 
ATOM      5  O22 ZIN A   1      19.184   0.532  10.956  0.00  0.00    -0.293 OA
ENDROOT
BRANCH   3   6
ATOM      6  C9  ZIN A   1      18.496  -0.205  14.444  0.00  0.00    -0.004 A 
ATOM      7  C14 ZIN A   1      19.314  -1.192  14.992  0.00  0.00     0.014 A 
ATOM      8  C13 ZIN A   1      19.035  -1.699  16.244  0.00  0.00     0.001 A 
ATOM      9  C12 ZIN A   1      17.939  -1.238  16.951  0.00  0.00     0.000 A 
ATOM     10  C11 ZIN A   1      17.120  -0.262  16.411  0.00  0.00     0.001 A 
ATOM     11  C10 ZIN A   1      17.393   0.257  15.161  0.00  0.00     0.014 A 
ENDBRANCH   3   6
BRANCH   4  12
ATOM     12  C16 ZIN A   1      18.788  -1.829  11.767  0.00  0.00     0.000 A 
ATOM     13  C21 ZIN A   1      17.523  -2.416  11.706  0.00  0.00     0.014 A 
ATOM     14  C20 ZIN A   1      17.408  -3.782  11.549  0.00  0.00     0.001 A 
ATOM     15  C19 ZIN A   1      18.541  -4.571  11.465  0.00  0.00     0.000 A 
ATOM     16  C18 ZIN A   1      19.799  -3.996  11.530  0.00  0.00     0.001 A 
ATOM     17  C17 ZIN A   1      19.929  -2.631  11.681  0.00  0.00     0.014 A 
ENDBRANCH   4  12
BRANCH   1  18
ATOM     18  C5  ZIN A   1      19.496   3.036  10.783  0.00  0.00     0.097 C 
BRANCH  18  19
ATOM     19  C4  ZIN A   1      18.353   3.314   9.805  0.00  0.00     0.121 C 
BRANCH  19  20
ATOM     20  C2  ZIN A   1      17.464   4.395  10.364  0.00  0.00     0.172 C 
ATOM     21  O1  ZIN A   1      17.513   5.523   9.904  0.00  0.00    -0.648 OA
ATOM     22  O3  ZIN A   1      16.693   4.141  11.274  0.00  0.00    -0.648 OA
ENDBRANCH  19  20
ENDBRANCH  18  19
ENDBRANCH   1  18
TORSDOF 5
ENDMDL
MODEL 2
REMARK VINA RESULT:      -8.2      0.658      3.920
REMARK  5 active torsions:
REMARK  status: ('A' for Active; 'I' for Inactive)
REMARK    1  A    between atoms: C2_2  and  C4_4 
REMARK    2  A    between atoms: C4_4  and  C5_5 
REMARK    3  A    between atoms: C5_5  and  C6_6 
REMARK    4  A    between atoms: C8_8  and  C9_9 
REMARK    5  A    between atoms: C15_15  and  C16_16 
ROOT
ATOM      1  C6  ZIN A   1      19.227   1.808  11.619  0.00  0.00     0.147 A 
ATOM      2  N7  ZIN A   1      19.196   0.629  11.071  0.00  0.00    -0.225 NA
ATOM      3  C8  ZIN A   1      18.921  -0.289  12.022  0.00  0.00     0.104 A 
ATOM      4  C15 ZIN A   1      18.780   0.395  13.213  0.00  0.00     0.117 A 
ATOM      5  O22 ZIN A   1      18.982   1.701  12.932  0.00  0.00    -0.293 OA
ENDROOT
BRANCH   3   6
ATOM      6  C9  ZIN A   1      18.796  -1.752  11.826  0.00  0.00    -0.004 A 
ATOM      7  C14 ZIN A   1      17.536  -2.341  11.727  0.00  0.00     0.014 A 
ATOM      8  C13 ZIN A   1      17.426  -3.703  11.539  0.00  0.00     0.001 A 
ATOM      9  C12 ZIN A   1      18.563  -4.486  11.461  0.00  0.00     0.000 A 
ATOM     10  C11 ZIN A   1      19.817  -3.910  11.564  0.00  0.00     0.001 A 
ATOM     11  C10 ZIN A   1      19.939  -2.546  11.746  0.00  0.00     0.014 A 
ENDBRANCH   3   6
BRANCH   4  12
ATOM     12  C16 ZIN A   1      18.474  -0.186  14.534  0.00  0.00     0.000 A 
ATOM     13  C21 ZIN A   1      17.366   0.258  15.257  0.00  0.00     0.014 A 
ATOM     14  C20 ZIN A   1      17.083  -0.295  16.489  0.00  0.00     0.001 A 
ATOM     15  C19 ZIN A   1      17.902  -1.279  17.014  0.00  0.00     0.000 A 
ATOM     16  C18 ZIN A   1      19.006  -1.720  16.306  0.00  0.00     0.001 A 
ATOM     17  C17 ZIN A   1      19.297  -1.180  15.070  0.00  0.00     0.014 A 
ENDBRANCH   4  12
BRANCH   1  18
ATOM     18  C5  ZIN A   1      19.503   3.098  10.889  0.00  0.00     0.097 C 
BRANCH  18  19
ATOM     19  C4  ZIN A   1      18.404   3.344   9.855  0.00  0.00     0.121 C 
BRANCH  19  20
ATOM     20  C2  ZIN A   1      17.468   4.412  10.360  0.00  0.00     0.172 C 
ATOM     21  O1  ZIN A   1      16.692   4.163  11.268  0.00  0.00    -0.648 OA
ATOM     22  O3  ZIN A   1      17.488   5.525   9.864  0.00  0.00    -0.648 OA
ENDBRANCH  19  20
ENDBRANCH  18  19
ENDBRANCH   1  18
TORSDOF 5
ENDMDL
MODEL 3
REMARK VINA RESULT:      -8.0      3.274      6.015
REMARK  5 active torsions:
REMARK  status: ('A' for Active; 'I' for Inactive)
REMARK    1  A    between atoms: C2_2  and  C4_4 
REMARK    2  A    between atoms: C4_4  and  C5_5 
REMARK    3  A    between atoms: C5_5  and  C6_6 
REMARK    4  A    between atoms: C8_8  and  C9_9 
REMARK    5  A    between atoms: C15_15  and  C16_16 
ROOT
ATOM      1  C6  ZIN A   1      19.028   1.264   7.797  0.00  0.00     0.147 A 
ATOM      2  N7  ZIN A   1      18.966   0.301   8.670  0.00  0.00    -0.225 NA
ATOM      3  C8  ZIN A   1      18.814   0.837   9.900  0.00  0.00     0.104 A 
ATOM      4  C15 ZIN A   1      18.786   2.207   9.743  0.00  0.00     0.117 A 
ATOM      5  O22 ZIN A   1      18.928   2.445   8.421  0.00  0.00    -0.293 OA
ENDROOT
BRANCH   3   6
ATOM      6  C9  ZIN A   1      18.701   0.093  11.177  0.00  0.00    -0.004 A 
ATOM      7  C14 ZIN A   1      17.471  -0.422  11.582  0.00  0.00     0.014 A 
ATOM      8  C13 ZIN A   1      17.374  -1.117  12.769  0.00  0.00     0.001 A 
ATOM      9  C12 ZIN A   1      18.492  -1.294  13.564  0.00  0.00     0.000 A 
ATOM     10  C11 ZIN A   1      19.715  -0.780  13.171  0.00  0.00     0.001 A 
ATOM     11  C10 ZIN A   1      19.826  -0.088  11.982  0.00  0.00     0.014 A 
ENDBRANCH   3   6
BRANCH   4  12
ATOM     12  C16 ZIN A   1      18.637   3.216  10.810  0.00  0.00     0.000 A 
ATOM     13  C21 ZIN A   1      19.737   3.581  11.589  0.00  0.00     0.014 A 
ATOM     14  C20 ZIN A   1      19.591   4.529  12.581  0.00  0.00     0.001 A 
ATOM     15  C19 ZIN A   1      18.356   5.108  12.813  0.00  0.00     0.000 A 
ATOM     16  C18 ZIN A   1      17.260   4.746  12.049  0.00  0.00     0.001 A 
ATOM     17  C17 ZIN A   1      17.393   3.804  11.050  0.00  0.00     0.014 A 
ENDBRANCH   4  12
BRANCH   1  18
ATOM     18  C5  ZIN A   1      19.196   1.078   6.310  0.00  0.00     0.097 C 
BRANCH  18  19
ATOM     19  C4  ZIN A   1      18.389  -0.138   5.854  0.00  0.00     0.121 C 
BRANCH  19  20
ATOM     20  C2  ZIN A   1      19.330  -1.235   5.429  0.00  0.00     0.172 C 
ATOM     21  O1  ZIN A   1      19.607  -2.135   6.204  0.00  0.00    -0.648 OA
ATOM     22  O3  ZIN A   1      19.810  -1.227   4.309  0.00  0.00    -0.648 OA
ENDBRANCH  19  20
ENDBRANCH  18  19
ENDBRANCH   1  18
TORSDOF 5
ENDMDL
MODEL 4
REMARK VINA RESULT:      -8.0      3.277      5.454
REMARK  5 active torsions:
REMARK  status: ('A' for Active; 'I' for Inactive)
REMARK    1  A    between atoms: C2_2  and  C4_4 
REMARK    2  A    between atoms: C4_4  and  C5_5 
REMARK    3  A    between atoms: C5_5  and  C6_6 
REMARK    4  A    between atoms: C8_8  and  C9_9 
REMARK    5  A    between atoms: C15_15  and  C16_16 
ROOT
ATOM      1  C6  ZIN A   1      19.026   1.206   7.693  0.00  0.00     0.147 A 
ATOM      2  N7  ZIN A   1      18.924   2.345   8.312  0.00  0.00    -0.225 NA
ATOM      3  C8  ZIN A   1      18.795   2.113   9.636  0.00  0.00     0.104 A 
ATOM      4  C15 ZIN A   1      18.821   0.744   9.809  0.00  0.00     0.117 A 
ATOM      5  O22 ZIN A   1      18.960   0.204   8.580  0.00  0.00    -0.293 OA
ENDROOT
BRANCH   3   6
ATOM      6  C9  ZIN A   1      18.649   3.134  10.700  0.00  0.00    -0.004 A 
ATOM      7  C14 ZIN A   1      17.424   3.771  10.898  0.00  0.00     0.014 A 
ATOM      8  C13 ZIN A   1      17.294   4.716  11.893  0.00  0.00     0.001 A 
ATOM      9  C12 ZIN A   1      18.379   5.043  12.687  0.00  0.00     0.000 A 
ATOM     10  C11 ZIN A   1      19.599   4.420  12.492  0.00  0.00     0.001 A 
ATOM     11  C10 ZIN A   1      19.740   3.467  11.503  0.00  0.00     0.014 A 
ENDBRANCH   3   6
BRANCH   4  12
ATOM     12  C16 ZIN A   1      18.712   0.014  11.088  0.00  0.00     0.000 A 
ATOM     13  C21 ZIN A   1      17.467  -0.429  11.538  0.00  0.00     0.014 A 
ATOM     14  C20 ZIN A   1      17.374  -1.116  12.731  0.00  0.00     0.001 A 
ATOM     15  C19 ZIN A   1      18.509  -1.355  13.486  0.00  0.00     0.000 A 
ATOM     16  C18 ZIN A   1      19.745  -0.913  13.049  0.00  0.00     0.001 A 
ATOM     17  C17 ZIN A   1      19.854  -0.231  11.855  0.00  0.00     0.014 A 
ENDBRANCH   4  12
BRANCH   1  18
ATOM     18  C5  ZIN A   1      19.187   1.038   6.203  0.00  0.00     0.097 C 
BRANCH  18  19
ATOM     19  C4  ZIN A   1      18.377  -0.172   5.736  0.00  0.00     0.121 C 
BRANCH  19  20
ATOM     20  C2  ZIN A   1      19.314  -1.300   5.386  0.00  0.00     0.172 C 
ATOM     21  O1  ZIN A   1      19.574  -2.156   6.216  0.00  0.00    -0.648 OA
ATOM     22  O3  ZIN A   1      19.809  -1.359   4.274  0.00  0.00    -0.648 OA
ENDBRANCH  19  20
ENDBRANCH  18  19
ENDBRANCH   1  18
TORSDOF 5
ENDMDL
MODEL 5
REMARK VINA RESULT:      -7.8      2.871      5.269
REMARK  5 active torsions:
REMARK  status: ('A' for Active; 'I' for Inactive)
REMARK    1  A    between atoms: C2_2  and  C4_4 
REMARK    2  A    between atoms: C4_4  and  C5_5 
REMARK    3  A    between atoms: C5_5  and  C6_6 
REMARK    4  A    between atoms: C8_8  and  C9_9 
REMARK    5  A    between atoms: C15_15  and  C16_16 
ROOT
ATOM      1  C6  ZIN A   1      17.911  -0.247  15.743  0.00  0.00     0.147 A 
ATOM      2  N7  ZIN A   1      18.031   0.778  14.951  0.00  0.00    -0.225 NA
ATOM      3  C8  ZIN A   1      18.267   0.336  13.697  0.00  0.00     0.104 A 
ATOM      4  C15 ZIN A   1      18.289  -1.043  13.754  0.00  0.00     0.117 A 
ATOM      5  O22 ZIN A   1      18.070  -1.378  15.043  0.00  0.00    -0.293 OA
ENDROOT
BRANCH   3   6
ATOM      6  C9  ZIN A   1      18.467   1.171  12.490  0.00  0.00    -0.004 A 
ATOM      7  C14 ZIN A   1      19.667   1.857  12.304  0.00  0.00     0.014 A 
ATOM      8  C13 ZIN A   1      19.848   2.629  11.176  0.00  0.00     0.001 A 
ATOM      9  C12 ZIN A   1      18.839   2.735  10.236  0.00  0.00     0.000 A 
ATOM     10  C11 ZIN A   1      17.644   2.062  10.418  0.00  0.00     0.001 A 
ATOM     11  C10 ZIN A   1      17.452   1.281  11.540  0.00  0.00     0.014 A 
ENDBRANCH   3   6
BRANCH   4  12
ATOM     12  C16 ZIN A   1      18.514  -1.970  12.627  0.00  0.00     0.000 A 
ATOM     13  C21 ZIN A   1      17.466  -2.288  11.761  0.00  0.00     0.014 A 
ATOM     14  C20 ZIN A   1      17.686  -3.151  10.706  0.00  0.00     0.001 A 
ATOM     15  C19 ZIN A   1      18.937  -3.709  10.513  0.00  0.00     0.000 A 
ATOM     16  C18 ZIN A   1      19.978  -3.402  11.371  0.00  0.00     0.001 A 
ATOM     17  C17 ZIN A   1      19.775  -2.536  12.426  0.00  0.00     0.014 A 
ENDBRANCH   4  12
BRANCH   1  18
ATOM     18  C5  ZIN A   1      17.642  -0.172  17.225  0.00  0.00     0.097 C 
BRANCH  18  19
ATOM     19  C4  ZIN A   1      17.844   1.265  17.708  0.00  0.00     0.121 C 
BRANCH  19  20
ATOM     20  C2  ZIN A   1      19.211   1.399  18.329  0.00  0.00     0.172 C 
ATOM     21  O1  ZIN A   1      19.574   2.474  18.776  0.00  0.00    -0.648 OA
ATOM     22  O3  ZIN A   1      19.951   0.433  18.388  0.00  0.00    -0.648 OA
ENDBRANCH  19  20
ENDBRANCH  18  19
ENDBRANCH   1  18
TORSDOF 5
ENDMDL
MODEL 6
REMARK VINA RESULT:      -7.8      2.929      5.686
REMARK  5 active torsions:
REMARK  status: ('A' for Active; 'I' for Inactive)
REMARK    1  A    between atoms: C2_2  and  C4_4 
REMARK    2  A    between atoms: C4_4  and  C5_5 
REMARK    3  A    between atoms: C5_5  and  C6_6 
REMARK    4  A    between atoms: C8_8  and  C9_9 
REMARK    5  A    between atoms: C15_15  and  C16_16 
ROOT
ATOM      1  C6  ZIN A   1      18.012  -0.224  14.689  0.00  0.00     0.147 A 
ATOM      2  N7  ZIN A   1      18.185  -1.461  14.325  0.00  0.00    -0.225 NA
ATOM      3  C8  ZIN A   1      18.325  -1.507  12.983  0.00  0.00     0.104 A 
ATOM      4  C15 ZIN A   1      18.227  -0.210  12.523  0.00  0.00     0.117 A 
ATOM      5  O22 ZIN A   1      18.027   0.569  13.608  0.00  0.00    -0.293 OA
ENDROOT
BRANCH   3   6
ATOM      6  C9  ZIN A   1      18.539  -2.720  12.161  0.00  0.00    -0.004 A 
ATOM      7  C14 ZIN A   1      19.834  -3.134  11.846  0.00  0.00     0.014 A 
ATOM      8  C13 ZIN A   1      20.027  -4.267  11.084  0.00  0.00     0.001 A 
ATOM      9  C12 ZIN A   1      18.940  -4.987  10.621  0.00  0.00     0.000 A 
ATOM     10  C11 ZIN A   1      17.653  -4.579  10.925  0.00  0.00     0.001 A 
ATOM     11  C10 ZIN A   1      17.447  -3.449  11.692  0.00  0.00     0.014 A 
ENDBRANCH   3   6
BRANCH   4  12
ATOM     12  C16 ZIN A   1      18.318   0.239  11.120  0.00  0.00     0.000 A 
ATOM     13  C21 ZIN A   1      19.377   1.049  10.710  0.00  0.00     0.014 A 
ATOM     14  C20 ZIN A   1      19.459   1.459   9.395  0.00  0.00     0.001 A 
ATOM     15  C19 ZIN A   1      18.487   1.079   8.487  0.00  0.00     0.000 A 
ATOM     16  C18 ZIN A   1      17.430   0.281   8.888  0.00  0.00     0.001 A 
ATOM     17  C17 ZIN A   1      17.340  -0.142  10.198  0.00  0.00     0.014 A 
ENDBRANCH   4  12
BRANCH   1  18
ATOM     18  C5  ZIN A   1      17.819   0.245  16.108  0.00  0.00     0.097 C 
BRANCH  18  19
ATOM     19  C4  ZIN A   1      18.999   1.126  16.519  0.00  0.00     0.121 C 
BRANCH  19  20
ATOM     20  C2  ZIN A   1      19.367   0.838  17.952  0.00  0.00     0.172 C 
ATOM     21  O1  ZIN A   1      19.801   1.730  18.661  0.00  0.00    -0.648 OA
ATOM     22  O3  ZIN A   1      19.227  -0.285  18.404  0.00  0.00    -0.648 OA
ENDBRANCH  19  20
ENDBRANCH  18  19
ENDBRANCH   1  18
TORSDOF 5
ENDMDL
MODEL 7
REMARK VINA RESULT:      -7.7      2.909      5.491
REMARK  5 active torsions:
REMARK  status: ('A' for Active; 'I' for Inactive)
REMARK    1  A    between atoms: C2_2  and  C4_4 
REMARK    2  A    between atoms: C4_4  and  C5_5 
REMARK    3  A    between atoms: C5_5  and  C6_6 
REMARK    4  A    between atoms: C8_8  and  C9_9 
REMARK    5  A    between atoms: C15_15  and  C16_16 
ROOT
ATOM      1  C6  ZIN A   1      17.870  -0.260  14.756  0.00  0.00     0.147 A 
ATOM      2  N7  ZIN A   1      17.876   0.504  13.703  0.00  0.00    -0.225 NA
ATOM      3  C8  ZIN A   1      18.128  -0.254  12.614  0.00  0.00     0.104 A 
ATOM      4  C15 ZIN A   1      18.282  -1.553  13.055  0.00  0.00     0.117 A 
ATOM      5  O22 ZIN A   1      18.121  -1.526  14.395  0.00  0.00    -0.293 OA
ENDROOT
BRANCH   3   6
ATOM      6  C9  ZIN A   1      18.223   0.219  11.214  0.00  0.00    -0.004 A 
ATOM      7  C14 ZIN A   1      17.280  -0.188  10.271  0.00  0.00     0.014 A 
ATOM      8  C13 ZIN A   1      17.372   0.261   8.970  0.00  0.00     0.001 A 
ATOM      9  C12 ZIN A   1      18.404   1.102   8.596  0.00  0.00     0.000 A 
ATOM     10  C11 ZIN A   1      19.346   1.505   9.525  0.00  0.00     0.001 A 
ATOM     11  C10 ZIN A   1      19.262   1.068  10.832  0.00  0.00     0.014 A 
ENDBRANCH   3   6
BRANCH   4  12
ATOM     12  C16 ZIN A   1      18.570  -2.738  12.224  0.00  0.00     0.000 A 
ATOM     13  C21 ZIN A   1      19.887  -3.051  11.882  0.00  0.00     0.014 A 
ATOM     14  C20 ZIN A   1      20.149  -4.164  11.110  0.00  0.00     0.001 A 
ATOM     15  C19 ZIN A   1      19.111  -4.963  10.665  0.00  0.00     0.000 A 
ATOM     16  C18 ZIN A   1      17.803  -4.656  10.996  0.00  0.00     0.001 A 
ATOM     17  C17 ZIN A   1      17.526  -3.549  11.773  0.00  0.00     0.014 A 
ENDBRANCH   4  12
BRANCH   1  18
ATOM     18  C5  ZIN A   1      17.625   0.209  16.168  0.00  0.00     0.097 C 
BRANCH  18  19
ATOM     19  C4  ZIN A   1      18.731   1.179  16.582  0.00  0.00     0.121 C 
BRANCH  19  20
ATOM     20  C2  ZIN A   1      19.203   0.841  17.973  0.00  0.00     0.172 C 
ATOM     21  O1  ZIN A   1      18.885  -0.220  18.483  0.00  0.00    -0.648 OA
ATOM     22  O3  ZIN A   1      19.904   1.626  18.587  0.00  0.00    -0.648 OA
ENDBRANCH  19  20
ENDBRANCH  18  19
ENDBRANCH   1  18
TORSDOF 5
ENDMDL
MODEL 8
REMARK VINA RESULT:      -7.6      2.953      5.742
REMARK  5 active torsions:
REMARK  status: ('A' for Active; 'I' for Inactive)
REMARK    1  A    between atoms: C2_2  and  C4_4 
REMARK    2  A    between atoms: C4_4  and  C5_5 
REMARK    3  A    between atoms: C5_5  and  C6_6 
REMARK    4  A    between atoms: C8_8  and  C9_9 
REMARK    5  A    between atoms: C15_15  and  C16_16 
ROOT
ATOM      1  C6  ZIN A   1      18.259  -0.197  14.397  0.00  0.00     0.147 A 
ATOM      2  N7  ZIN A   1      18.344  -1.462  14.101  0.00  0.00    -0.225 NA
ATOM      3  C8  ZIN A   1      18.421  -1.592  12.759  0.00  0.00     0.104 A 
ATOM      4  C15 ZIN A   1      18.377  -0.319  12.228  0.00  0.00     0.117 A 
ATOM      5  O22 ZIN A   1      18.270   0.530  13.272  0.00  0.00    -0.293 OA
ENDROOT
BRANCH   3   6
ATOM      6  C9  ZIN A   1      18.529  -2.861  12.002  0.00  0.00    -0.004 A 
ATOM      7  C14 ZIN A   1      17.395  -3.641  11.776  0.00  0.00     0.014 A 
ATOM      8  C13 ZIN A   1      17.502  -4.818  11.066  0.00  0.00     0.001 A 
ATOM      9  C12 ZIN A   1      18.732  -5.233  10.588  0.00  0.00     0.000 A 
ATOM     10  C11 ZIN A   1      19.862  -4.467  10.814  0.00  0.00     0.001 A 
ATOM     11  C10 ZIN A   1      19.767  -3.283  11.518  0.00  0.00     0.014 A 
ENDBRANCH   3   6
BRANCH   4  12
ATOM     12  C16 ZIN A   1      18.431   0.042  10.798  0.00  0.00     0.000 A 
ATOM     13  C21 ZIN A   1      17.332  -0.199   9.971  0.00  0.00     0.014 A 
ATOM     14  C20 ZIN A   1      17.387   0.148   8.637  0.00  0.00     0.001 A 
ATOM     15  C19 ZIN A   1      18.533   0.721   8.114  0.00  0.00     0.000 A 
ATOM     16  C18 ZIN A   1      19.628   0.957   8.926  0.00  0.00     0.001 A 
ATOM     17  C17 ZIN A   1      19.585   0.622  10.264  0.00  0.00     0.014 A 
ENDBRANCH   4  12
BRANCH   1  18
ATOM     18  C5  ZIN A   1      18.156   0.363  15.793  0.00  0.00     0.097 C 
BRANCH  18  19
ATOM     19  C4  ZIN A   1      18.949  -0.521  16.756  0.00  0.00     0.121 C 
BRANCH  19  20
ATOM     20  C2  ZIN A   1      19.099   0.185  18.079  0.00  0.00     0.172 C 
ATOM     21  O1  ZIN A   1      20.004   0.986  18.243  0.00  0.00    -0.648 OA
ATOM     22  O3  ZIN A   1      18.314  -0.040  18.984  0.00  0.00    -0.648 OA
ENDBRANCH  19  20
ENDBRANCH  18  19
ENDBRANCH   1  18
TORSDOF 5
ENDMDL
MODEL 9
REMARK VINA RESULT:      -7.4      2.823      4.428
REMARK  5 active torsions:
REMARK  status: ('A' for Active; 'I' for Inactive)
REMARK    1  A    between atoms: C2_2  and  C4_4 
REMARK    2  A    between atoms: C4_4  and  C5_5 
REMARK    3  A    between atoms: C5_5  and  C6_6 
REMARK    4  A    between atoms: C8_8  and  C9_9 
REMARK    5  A    between atoms: C15_15  and  C16_16 
ROOT
ATOM      1  C6  ZIN A   1      19.520   3.152  11.666  0.00  0.00     0.147 A 
ATOM      2  N7  ZIN A   1      19.506   1.969  12.208  0.00  0.00    -0.225 NA
ATOM      3  C8  ZIN A   1      19.161   1.063  11.268  0.00  0.00     0.104 A 
ATOM      4  C15 ZIN A   1      18.956   1.759  10.093  0.00  0.00     0.117 A 
ATOM      5  O22 ZIN A   1      19.182   3.060  10.373  0.00  0.00    -0.293 OA
ENDROOT
BRANCH   3   6
ATOM      6  C9  ZIN A   1      19.025  -0.399  11.461  0.00  0.00    -0.004 A 
ATOM      7  C14 ZIN A   1      20.063  -1.255  11.094  0.00  0.00     0.014 A 
ATOM      8  C13 ZIN A   1      19.932  -2.615  11.282  0.00  0.00     0.001 A 
ATOM      9  C12 ZIN A   1      18.768  -3.132  11.822  0.00  0.00     0.000 A 
ATOM     10  C11 ZIN A   1      17.732  -2.290  12.182  0.00  0.00     0.001 A 
ATOM     11  C10 ZIN A   1      17.854  -0.926  12.005  0.00  0.00     0.014 A 
ENDBRANCH   3   6
BRANCH   4  12
ATOM     12  C16 ZIN A   1      18.562   1.192   8.789  0.00  0.00     0.000 A 
ATOM     13  C21 ZIN A   1      17.520   0.267   8.712  0.00  0.00     0.014 A 
ATOM     14  C20 ZIN A   1      17.153  -0.254   7.488  0.00  0.00     0.001 A 
ATOM     15  C19 ZIN A   1      17.824   0.129   6.340  0.00  0.00     0.000 A 
ATOM     16  C18 ZIN A   1      18.863   1.041   6.410  0.00  0.00     0.001 A 
ATOM     17  C17 ZIN A   1      19.236   1.575   7.626  0.00  0.00     0.014 A 
ENDBRANCH   4  12
BRANCH   1  18
ATOM     18  C5  ZIN A   1      19.859   4.433  12.387  0.00  0.00     0.097 C 
BRANCH  18  19
ATOM     19  C4  ZIN A   1      18.638   4.914  13.171  0.00  0.00     0.121 C 
BRANCH  19  20
ATOM     20  C2  ZIN A   1      18.787   4.532  14.621  0.00  0.00     0.172 C 
ATOM     21  O1  ZIN A   1      18.115   3.626  15.085  0.00  0.00    -0.648 OA
ATOM     22  O3  ZIN A   1      19.583   5.124  15.329  0.00  0.00    -0.648 OA
ENDBRANCH  19  20
ENDBRANCH  18  19
ENDBRANCH   1  18
TORSDOF 5
ENDMDL
