MODEL 1
REMARK VINA RESULT:      -6.4      0.000      0.000
REMARK  5 active torsions:
REMARK  status: ('A' for Active; 'I' for Inactive)
REMARK    1  A    between atoms: N11_11  and  C12_12 
REMARK    2  A    between atoms: C12_12  and  C13_13 
REMARK    3  A    between atoms: C13_13  and  O15_14 
REMARK    4  A    between atoms: C13_13  and  C16_15 
REMARK    5  A    between atoms: C16_15  and  O17_16 
ROOT
ATOM      1  C1  ZIN A   1      18.998  -0.087   4.353  0.00  0.00     0.163 C 
ATOM      2  N2  ZIN A   1      19.052  -0.888   5.578  0.00  0.00    -0.286 N 
ATOM      3  C3  ZIN A   1      18.951  -0.271   6.814  0.00  0.00     0.167 A 
ATOM      4  C4  ZIN A   1      19.004  -1.052   7.961  0.00  0.00     0.151 A 
ATOM      5  C5  ZIN A   1      19.162  -2.450   7.834  0.00  0.00     0.282 A 
ATOM      6  O6  ZIN A   1      19.211  -3.156   8.825  0.00  0.00    -0.265 OA
ATOM      7  N7  ZIN A   1      19.254  -2.993   6.603  0.00  0.00    -0.269 N 
ATOM      8  C8  ZIN A   1      19.417  -4.442   6.464  0.00  0.00     0.164 C 
ATOM      9  C9  ZIN A   1      19.195  -2.225   5.501  0.00  0.00     0.332 A 
ATOM     10  O10 ZIN A   1      19.283  -2.750   4.407  0.00  0.00    -0.246 OA
ATOM     11  N11 ZIN A   1      18.880  -0.184   9.027  0.00  0.00    -0.331 N 
ATOM     12  C18 ZIN A   1      18.759   1.056   8.512  0.00  0.00     0.212 A 
ATOM     13  N19 ZIN A   1      18.801   0.998   7.206  0.00  0.00    -0.223 NA
ENDROOT
BRANCH  11  14
ATOM     14  C12 ZIN A   1      18.880  -0.542  10.447  0.00  0.00     0.164 C 
BRANCH  14  15
ATOM     15  C13 ZIN A   1      20.324  -0.656  10.943  0.00  0.00     0.160 C 
BRANCH  15  16
ATOM     16  O15 ZIN A   1      20.628  -2.027  11.212  0.00  0.00    -0.392 OA
ATOM     17  H28 ZIN A   1      21.575  -2.221  11.245  0.00  0.00     0.210 HD
ENDBRANCH  15  16
BRANCH  15  18
ATOM     18  C16 ZIN A   1      20.489   0.163  12.225  0.00  0.00     0.197 C 
BRANCH  18  19
ATOM     19  O17 ZIN A   1      21.794   0.746  12.253  0.00  0.00    -0.398 OA
ATOM     20  H31 ZIN A   1      22.480   0.194  11.855  0.00  0.00     0.209 HD
ENDBRANCH  18  19
ENDBRANCH  15  18
ENDBRANCH  14  15
ENDBRANCH  11  14
TORSDOF 5
ENDMDL
MODEL 2
REMARK VINA RESULT:      -6.3      5.082      9.241
REMARK  5 active torsions:
REMARK  status: ('A' for Active; 'I' for Inactive)
REMARK    1  A    between atoms: N11_11  and  C12_12 
REMARK    2  A    between atoms: C12_12  and  C13_13 
REMARK    3  A    between atoms: C13_13  and  O15_14 
REMARK    4  A    between atoms: C13_13  and  C16_15 
REMARK    5  A    between atoms: C16_15  and  O17_16 
ROOT
ATOM      1  C1  ZIN A   1      18.886   0.025  18.755  0.00  0.00     0.163 C 
ATOM      2  N2  ZIN A   1      18.981   0.820  17.529  0.00  0.00    -0.286 N 
ATOM      3  C3  ZIN A   1      18.860   0.204  16.293  0.00  0.00     0.167 A 
ATOM      4  C4  ZIN A   1      18.953   0.979  15.145  0.00  0.00     0.151 A 
ATOM      5  C5  ZIN A   1      19.171   2.369  15.269  0.00  0.00     0.282 A 
ATOM      6  O6  ZIN A   1      19.256   3.070  14.277  0.00  0.00    -0.265 OA
ATOM      7  N7  ZIN A   1      19.280   2.911  16.500  0.00  0.00    -0.269 N 
ATOM      8  C8  ZIN A   1      19.505   4.352  16.636  0.00  0.00     0.164 C 
ATOM      9  C9  ZIN A   1      19.182   2.149  17.603  0.00  0.00     0.332 A 
ATOM     10  O10 ZIN A   1      19.287   2.673  18.696  0.00  0.00    -0.246 OA
ATOM     11  N11 ZIN A   1      18.797   0.114  14.080  0.00  0.00    -0.331 N 
ATOM     12  C18 ZIN A   1      18.619  -1.118  14.597  0.00  0.00     0.212 A 
ATOM     13  N19 ZIN A   1      18.657  -1.058  15.904  0.00  0.00    -0.223 NA
ENDROOT
BRANCH  11  14
ATOM     14  C12 ZIN A   1      18.821   0.468  12.659  0.00  0.00     0.164 C 
BRANCH  14  15
ATOM     15  C13 ZIN A   1      20.271   0.544  12.177  0.00  0.00     0.160 C 
BRANCH  15  16
ATOM     16  O15 ZIN A   1      20.599   1.899  11.863  0.00  0.00    -0.392 OA
ATOM     17  H28 ZIN A   1      20.791   2.447  12.636  0.00  0.00     0.210 HD
ENDBRANCH  15  16
BRANCH  15  18
ATOM     18  C16 ZIN A   1      20.439  -0.324  10.928  0.00  0.00     0.197 C 
BRANCH  18  19
ATOM     19  O17 ZIN A   1      21.809  -0.711  10.797  0.00  0.00    -0.398 OA
ATOM     20  H31 ZIN A   1      22.192  -0.515   9.932  0.00  0.00     0.209 HD
ENDBRANCH  18  19
ENDBRANCH  15  18
ENDBRANCH  14  15
ENDBRANCH  11  14
TORSDOF 5
ENDMDL
MODEL 3
REMARK VINA RESULT:      -5.9      5.431      8.611
REMARK  5 active torsions:
REMARK  status: ('A' for Active; 'I' for Inactive)
REMARK    1  A    between atoms: N11_11  and  C12_12 
REMARK    2  A    between atoms: C12_12  and  C13_13 
REMARK    3  A    between atoms: C13_13  and  O15_14 
REMARK    4  A    between atoms: C13_13  and  C16_15 
REMARK    5  A    between atoms: C16_15  and  O17_16 
ROOT
ATOM      1  C1  ZIN A   1      19.412   4.272  16.853  0.00  0.00     0.163 C 
ATOM      2  N2  ZIN A   1      19.205   2.868  16.490  0.00  0.00    -0.286 N 
ATOM      3  C3  ZIN A   1      18.899   2.530  15.181  0.00  0.00     0.167 A 
ATOM      4  C4  ZIN A   1      18.708   1.192  14.861  0.00  0.00     0.151 A 
ATOM      5  C5  ZIN A   1      18.830   0.217  15.876  0.00  0.00     0.282 A 
ATOM      6  O6  ZIN A   1      18.667  -0.962  15.619  0.00  0.00    -0.265 OA
ATOM      7  N7  ZIN A   1      19.130   0.609  17.131  0.00  0.00    -0.269 N 
ATOM      8  C8  ZIN A   1      19.258  -0.396  18.189  0.00  0.00     0.164 C 
ATOM      9  C9  ZIN A   1      19.318   1.907  17.426  0.00  0.00     0.332 A 
ATOM     10  O10 ZIN A   1      19.586   2.222  18.570  0.00  0.00    -0.246 OA
ATOM     11  N11 ZIN A   1      18.422   1.154  13.511  0.00  0.00    -0.331 N 
ATOM     12  C18 ZIN A   1      18.447   2.427  13.068  0.00  0.00     0.212 A 
ATOM     13  N19 ZIN A   1      18.730   3.234  14.058  0.00  0.00    -0.223 NA
ENDROOT
BRANCH  11  14
ATOM     14  C12 ZIN A   1      18.143  -0.041  12.712  0.00  0.00     0.164 C 
BRANCH  14  15
ATOM     15  C13 ZIN A   1      19.449  -0.573  12.118  0.00  0.00     0.160 C 
BRANCH  15  16
ATOM     16  O15 ZIN A   1      20.170  -1.293  13.119  0.00  0.00    -0.392 OA
ATOM     17  H28 ZIN A   1      20.929  -0.814  13.479  0.00  0.00     0.210 HD
ENDBRANCH  15  16
BRANCH  15  18
ATOM     18  C16 ZIN A   1      20.298   0.601  11.623  0.00  0.00     0.197 C 
BRANCH  18  19
ATOM     19  O17 ZIN A   1      21.607   0.514  12.189  0.00  0.00    -0.398 OA
ATOM     20  H31 ZIN A   1      22.302   0.317  11.547  0.00  0.00     0.209 HD
ENDBRANCH  18  19
ENDBRANCH  15  18
ENDBRANCH  14  15
ENDBRANCH  11  14
TORSDOF 5
ENDMDL
MODEL 4
REMARK VINA RESULT:      -5.8      2.498      5.906
REMARK  5 active torsions:
REMARK  status: ('A' for Active; 'I' for Inactive)
REMARK    1  A    between atoms: N11_11  and  C12_12 
REMARK    2  A    between atoms: C12_12  and  C13_13 
REMARK    3  A    between atoms: C13_13  and  O15_14 
REMARK    4  A    between atoms: C13_13  and  C16_15 
REMARK    5  A    between atoms: C16_15  and  O17_16 
ROOT
ATOM      1  C1  ZIN A   1      16.937  -0.280  12.319  0.00  0.00     0.163 C 
ATOM      2  N2  ZIN A   1      17.510   0.169  11.047  0.00  0.00    -0.286 N 
ATOM      3  C3  ZIN A   1      17.875  -0.761  10.086  0.00  0.00     0.167 A 
ATOM      4  C4  ZIN A   1      18.416  -0.311   8.889  0.00  0.00     0.151 A 
ATOM      5  C5  ZIN A   1      18.579   1.077   8.686  0.00  0.00     0.282 A 
ATOM      6  O6  ZIN A   1      19.050   1.496   7.644  0.00  0.00    -0.265 OA
ATOM      7  N7  ZIN A   1      18.204   1.933   9.659  0.00  0.00    -0.269 N 
ATOM      8  C8  ZIN A   1      18.369   3.374   9.455  0.00  0.00     0.164 C 
ATOM      9  C9  ZIN A   1      17.676   1.484  10.811  0.00  0.00     0.332 A 
ATOM     10  O10 ZIN A   1      17.351   2.286  11.666  0.00  0.00    -0.246 OA
ATOM     11  N11 ZIN A   1      18.680  -1.438   8.136  0.00  0.00    -0.331 N 
ATOM     12  C18 ZIN A   1      18.304  -2.501   8.875  0.00  0.00     0.212 A 
ATOM     13  N19 ZIN A   1      17.830  -2.094  10.024  0.00  0.00    -0.223 NA
ENDROOT
BRANCH  11  14
ATOM     14  C12 ZIN A   1      19.259  -1.471   6.791  0.00  0.00     0.164 C 
BRANCH  14  15
ATOM     15  C13 ZIN A   1      19.242  -2.908   6.265  0.00  0.00     0.160 C 
BRANCH  15  16
ATOM     16  O15 ZIN A   1      20.505  -3.525   6.522  0.00  0.00    -0.392 OA
ATOM     17  H28 ZIN A   1      21.246  -3.114   6.057  0.00  0.00     0.210 HD
ENDBRANCH  15  16
BRANCH  15  18
ATOM     18  C16 ZIN A   1      18.978  -2.896   4.757  0.00  0.00     0.197 C 
BRANCH  18  19
ATOM     19  O17 ZIN A   1      19.586  -1.741   4.176  0.00  0.00    -0.398 OA
ATOM     20  H31 ZIN A   1      19.085  -1.359   3.443  0.00  0.00     0.209 HD
ENDBRANCH  18  19
ENDBRANCH  15  18
ENDBRANCH  14  15
ENDBRANCH  11  14
TORSDOF 5
ENDMDL
MODEL 5
REMARK VINA RESULT:      -5.8      1.782      5.067
REMARK  5 active torsions:
REMARK  status: ('A' for Active; 'I' for Inactive)
REMARK    1  A    between atoms: N11_11  and  C12_12 
REMARK    2  A    between atoms: C12_12  and  C13_13 
REMARK    3  A    between atoms: C13_13  and  O15_14 
REMARK    4  A    between atoms: C13_13  and  C16_15 
REMARK    5  A    between atoms: C16_15  and  O17_16 
ROOT
ATOM      1  C1  ZIN A   1      20.094   0.222  12.051  0.00  0.00     0.163 C 
ATOM      2  N2  ZIN A   1      19.567  -0.582  10.946  0.00  0.00    -0.286 N 
ATOM      3  C3  ZIN A   1      19.321   0.008   9.717  0.00  0.00     0.167 A 
ATOM      4  C4  ZIN A   1      18.821  -0.775   8.685  0.00  0.00     0.151 A 
ATOM      5  C5  ZIN A   1      18.578  -2.147   8.917  0.00  0.00     0.282 A 
ATOM      6  O6  ZIN A   1      18.141  -2.854   8.028  0.00  0.00    -0.265 OA
ATOM      7  N7  ZIN A   1      18.838  -2.663  10.136  0.00  0.00    -0.269 N 
ATOM      8  C8  ZIN A   1      18.589  -4.085  10.385  0.00  0.00     0.164 C 
ATOM      9  C9  ZIN A   1      19.327  -1.895  11.125  0.00  0.00     0.332 A 
ATOM     10  O10 ZIN A   1      19.548  -2.395  12.211  0.00  0.00    -0.246 OA
ATOM     11  N11 ZIN A   1      18.677   0.063   7.597  0.00  0.00    -0.331 N 
ATOM     12  C18 ZIN A   1      19.079   1.289   7.989  0.00  0.00     0.212 A 
ATOM     13  N19 ZIN A   1      19.458   1.249   9.241  0.00  0.00    -0.223 NA
ENDROOT
BRANCH  11  14
ATOM     14  C12 ZIN A   1      18.180  -0.308   6.270  0.00  0.00     0.164 C 
BRANCH  14  15
ATOM     15  C13 ZIN A   1      19.356  -0.723   5.384  0.00  0.00     0.160 C 
BRANCH  15  16
ATOM     16  O15 ZIN A   1      19.536   0.243   4.346  0.00  0.00    -0.392 OA
ATOM     17  H28 ZIN A   1      19.831  -0.133   3.505  0.00  0.00     0.210 HD
ENDBRANCH  15  16
BRANCH  15  18
ATOM     18  C16 ZIN A   1      19.067  -2.092   4.762  0.00  0.00     0.197 C 
BRANCH  18  19
ATOM     19  O17 ZIN A   1      19.738  -3.107   5.510  0.00  0.00    -0.398 OA
ATOM     20  H31 ZIN A   1      19.462  -3.162   6.435  0.00  0.00     0.209 HD
ENDBRANCH  18  19
ENDBRANCH  15  18
ENDBRANCH  14  15
ENDBRANCH  11  14
TORSDOF 5
ENDMDL
MODEL 6
REMARK VINA RESULT:      -5.7      5.222      8.166
REMARK  5 active torsions:
REMARK  status: ('A' for Active; 'I' for Inactive)
REMARK    1  A    between atoms: N11_11  and  C12_12 
REMARK    2  A    between atoms: C12_12  and  C13_13 
REMARK    3  A    between atoms: C13_13  and  O15_14 
REMARK    4  A    between atoms: C13_13  and  C16_15 
REMARK    5  A    between atoms: C16_15  and  O17_16 
ROOT
ATOM      1  C1  ZIN A   1      17.580   5.651  15.850  0.00  0.00     0.163 C 
ATOM      2  N2  ZIN A   1      17.581   4.833  14.634  0.00  0.00    -0.286 N 
ATOM      3  C3  ZIN A   1      18.092   3.546  14.667  0.00  0.00     0.167 A 
ATOM      4  C4  ZIN A   1      18.082   2.790  13.502  0.00  0.00     0.151 A 
ATOM      5  C5  ZIN A   1      17.552   3.355  12.320  0.00  0.00     0.282 A 
ATOM      6  O6  ZIN A   1      17.531   2.711  11.286  0.00  0.00    -0.265 OA
ATOM      7  N7  ZIN A   1      17.068   4.614  12.352  0.00  0.00    -0.269 N 
ATOM      8  C8  ZIN A   1      16.516   5.205  11.131  0.00  0.00     0.164 C 
ATOM      9  C9  ZIN A   1      17.079   5.332  13.488  0.00  0.00     0.332 A 
ATOM     10  O10 ZIN A   1      16.635   6.464  13.479  0.00  0.00    -0.246 OA
ATOM     11  N11 ZIN A   1      18.643   1.571  13.826  0.00  0.00    -0.331 N 
ATOM     12  C18 ZIN A   1      18.967   1.623  15.133  0.00  0.00     0.212 A 
ATOM     13  N19 ZIN A   1      18.639   2.790  15.623  0.00  0.00    -0.223 NA
ENDROOT
BRANCH  11  14
ATOM     14  C12 ZIN A   1      18.849   0.438  12.920  0.00  0.00     0.164 C 
BRANCH  14  15
ATOM     15  C13 ZIN A   1      20.301   0.430  12.437  0.00  0.00     0.160 C 
BRANCH  15  16
ATOM     16  O15 ZIN A   1      20.650   1.729  11.954  0.00  0.00    -0.392 OA
ATOM     17  H28 ZIN A   1      20.949   1.740  11.035  0.00  0.00     0.210 HD
ENDBRANCH  15  16
BRANCH  15  18
ATOM     18  C16 ZIN A   1      20.457  -0.592  11.308  0.00  0.00     0.197 C 
BRANCH  18  19
ATOM     19  O17 ZIN A   1      21.822  -0.633  10.888  0.00  0.00    -0.398 OA
ATOM     20  H31 ZIN A   1      22.278   0.216  10.949  0.00  0.00     0.209 HD
ENDBRANCH  18  19
ENDBRANCH  15  18
ENDBRANCH  14  15
ENDBRANCH  11  14
TORSDOF 5
ENDMDL
MODEL 7
REMARK VINA RESULT:      -5.7      5.627      9.024
REMARK  5 active torsions:
REMARK  status: ('A' for Active; 'I' for Inactive)
REMARK    1  A    between atoms: N11_11  and  C12_12 
REMARK    2  A    between atoms: C12_12  and  C13_13 
REMARK    3  A    between atoms: C13_13  and  O15_14 
REMARK    4  A    between atoms: C13_13  and  C16_15 
REMARK    5  A    between atoms: C16_15  and  O17_16 
ROOT
ATOM      1  C1  ZIN A   1      19.169  -0.348  18.283  0.00  0.00     0.163 C 
ATOM      2  N2  ZIN A   1      19.134   0.483  17.077  0.00  0.00    -0.286 N 
ATOM      3  C3  ZIN A   1      18.927  -0.102  15.839  0.00  0.00     0.167 A 
ATOM      4  C4  ZIN A   1      18.899   0.707  14.711  0.00  0.00     0.151 A 
ATOM      5  C5  ZIN A   1      19.082   2.100  14.858  0.00  0.00     0.282 A 
ATOM      6  O6  ZIN A   1      19.060   2.831  13.884  0.00  0.00    -0.265 OA
ATOM      7  N7  ZIN A   1      19.279   2.611  16.091  0.00  0.00    -0.269 N 
ATOM      8  C8  ZIN A   1      19.469   4.054  16.252  0.00  0.00     0.164 C 
ATOM      9  C9  ZIN A   1      19.299   1.816  17.175  0.00  0.00     0.332 A 
ATOM     10  O10 ZIN A   1      19.480   2.312  18.271  0.00  0.00    -0.246 OA
ATOM     11  N11 ZIN A   1      18.680  -0.132  13.637  0.00  0.00    -0.331 N 
ATOM     12  C18 ZIN A   1      18.585  -1.384  14.129  0.00  0.00     0.212 A 
ATOM     13  N19 ZIN A   1      18.732  -1.358  15.429  0.00  0.00    -0.223 NA
ENDROOT
BRANCH  11  14
ATOM     14  C12 ZIN A   1      18.571   0.261  12.230  0.00  0.00     0.164 C 
BRANCH  14  15
ATOM     15  C13 ZIN A   1      17.215   0.928  11.991  0.00  0.00     0.160 C 
BRANCH  15  16
ATOM     16  O15 ZIN A   1      16.291  -0.039  11.487  0.00  0.00    -0.392 OA
ATOM     17  H28 ZIN A   1      16.009  -0.693  12.141  0.00  0.00     0.210 HD
ENDBRANCH  15  16
BRANCH  15  18
ATOM     18  C16 ZIN A   1      17.375   2.059  10.972  0.00  0.00     0.197 C 
BRANCH  18  19
ATOM     19  O17 ZIN A   1      17.094   3.310  11.601  0.00  0.00    -0.398 OA
ATOM     20  H31 ZIN A   1      17.345   4.081  11.074  0.00  0.00     0.209 HD
ENDBRANCH  18  19
ENDBRANCH  15  18
ENDBRANCH  14  15
ENDBRANCH  11  14
TORSDOF 5
ENDMDL
MODEL 8
REMARK VINA RESULT:      -5.7      5.713      8.703
REMARK  5 active torsions:
REMARK  status: ('A' for Active; 'I' for Inactive)
REMARK    1  A    between atoms: N11_11  and  C12_12 
REMARK    2  A    between atoms: C12_12  and  C13_13 
REMARK    3  A    between atoms: C13_13  and  O15_14 
REMARK    4  A    between atoms: C13_13  and  C16_15 
REMARK    5  A    between atoms: C16_15  and  O17_16 
ROOT
ATOM      1  C1  ZIN A   1      19.127   2.871  18.371  0.00  0.00     0.163 C 
ATOM      2  N2  ZIN A   1      18.763   2.063  17.204  0.00  0.00    -0.286 N 
ATOM      3  C3  ZIN A   1      18.846   2.607  15.933  0.00  0.00     0.167 A 
ATOM      4  C4  ZIN A   1      18.496   1.821  14.842  0.00  0.00     0.151 A 
ATOM      5  C5  ZIN A   1      18.066   0.494  15.061  0.00  0.00     0.282 A 
ATOM      6  O6  ZIN A   1      17.755  -0.215  14.120  0.00  0.00    -0.265 OA
ATOM      7  N7  ZIN A   1      18.006   0.021  16.323  0.00  0.00    -0.269 N 
ATOM      8  C8  ZIN A   1      17.562  -1.355  16.557  0.00  0.00     0.164 C 
ATOM      9  C9  ZIN A   1      18.354   0.791  17.369  0.00  0.00     0.332 A 
ATOM     10  O10 ZIN A   1      18.286   0.330  18.492  0.00  0.00    -0.246 OA
ATOM     11  N11 ZIN A   1      18.674   2.610  13.723  0.00  0.00    -0.331 N 
ATOM     12  C18 ZIN A   1      19.112   3.811  14.154  0.00  0.00     0.212 A 
ATOM     13  N19 ZIN A   1      19.211   3.802  15.459  0.00  0.00    -0.223 NA
ENDROOT
BRANCH  11  14
ATOM     14  C12 ZIN A   1      18.433   2.218  12.333  0.00  0.00     0.164 C 
BRANCH  14  15
ATOM     15  C13 ZIN A   1      19.772   2.038  11.615  0.00  0.00     0.160 C 
BRANCH  15  16
ATOM     16  O15 ZIN A   1      19.607   2.313  10.222  0.00  0.00    -0.392 OA
ATOM     17  H28 ZIN A   1      19.217   1.584   9.720  0.00  0.00     0.210 HD
ENDBRANCH  15  16
BRANCH  15  18
ATOM     18  C16 ZIN A   1      20.258   0.598  11.796  0.00  0.00     0.197 C 
BRANCH  18  19
ATOM     19  O17 ZIN A   1      21.665   0.597  12.046  0.00  0.00    -0.398 OA
ATOM     20  H31 ZIN A   1      22.041   1.478  12.179  0.00  0.00     0.209 HD
ENDBRANCH  18  19
ENDBRANCH  15  18
ENDBRANCH  14  15
ENDBRANCH  11  14
TORSDOF 5
ENDMDL
MODEL 9
REMARK VINA RESULT:      -5.6      1.730      2.058
REMARK  5 active torsions:
REMARK  status: ('A' for Active; 'I' for Inactive)
REMARK    1  A    between atoms: N11_11  and  C12_12 
REMARK    2  A    between atoms: C12_12  and  C13_13 
REMARK    3  A    between atoms: C13_13  and  O15_14 
REMARK    4  A    between atoms: C13_13  and  C16_15 
REMARK    5  A    between atoms: C16_15  and  O17_16 
ROOT
ATOM      1  C1  ZIN A   1      19.031  -0.068   4.752  0.00  0.00     0.163 C 
ATOM      2  N2  ZIN A   1      19.107  -0.541   6.136  0.00  0.00    -0.286 N 
ATOM      3  C3  ZIN A   1      19.142   0.372   7.178  0.00  0.00     0.167 A 
ATOM      4  C4  ZIN A   1      19.214  -0.101   8.482  0.00  0.00     0.151 A 
ATOM      5  C5  ZIN A   1      19.250  -1.495   8.708  0.00  0.00     0.282 A 
ATOM      6  O6  ZIN A   1      19.313  -1.933   9.842  0.00  0.00    -0.265 OA
ATOM      7  N7  ZIN A   1      19.213  -2.333   7.651  0.00  0.00    -0.269 N 
ATOM      8  C8  ZIN A   1      19.250  -3.780   7.878  0.00  0.00     0.164 C 
ATOM      9  C9  ZIN A   1      19.138  -1.862   6.395  0.00  0.00     0.332 A 
ATOM     10  O10 ZIN A   1      19.107  -2.648   5.468  0.00  0.00    -0.246 OA
ATOM     11  N11 ZIN A   1      19.233   1.013   9.298  0.00  0.00    -0.331 N 
ATOM     12  C18 ZIN A   1      19.175   2.091   8.491  0.00  0.00     0.212 A 
ATOM     13  N19 ZIN A   1      19.121   1.706   7.242  0.00  0.00    -0.223 NA
ENDROOT
BRANCH  11  14
ATOM     14  C12 ZIN A   1      19.305   1.021  10.761  0.00  0.00     0.164 C 
BRANCH  14  15
ATOM     15  C13 ZIN A   1      19.401   2.465  11.257  0.00  0.00     0.160 C 
BRANCH  15  16
ATOM     16  O15 ZIN A   1      20.746   2.746  11.650  0.00  0.00    -0.392 OA
ATOM     17  H28 ZIN A   1      21.126   2.090  12.250  0.00  0.00     0.210 HD
ENDBRANCH  15  16
BRANCH  15  18
ATOM     18  C16 ZIN A   1      18.470   2.655  12.457  0.00  0.00     0.197 C 
BRANCH  18  19
ATOM     19  O17 ZIN A   1      19.244   2.968  13.617  0.00  0.00    -0.398 OA
ATOM     20  H31 ZIN A   1      18.749   2.922  14.445  0.00  0.00     0.209 HD
ENDBRANCH  18  19
ENDBRANCH  15  18
ENDBRANCH  14  15
ENDBRANCH  11  14
TORSDOF 5
ENDMDL
