MODEL 1
REMARK VINA RESULT:      -7.8      0.000      0.000
REMARK  6 active torsions:
REMARK  status: ('A' for Active; 'I' for Inactive)
REMARK    1  A    between atoms: C3_3  and  C4_4 
REMARK    2  A    between atoms: C10_10  and  N12_11 
REMARK       I    between atoms: N12_11  and  C13_12 
REMARK    3  A    between atoms: C13_12  and  C15_14 
REMARK    4  A    between atoms: C15_14  and  N17_15 
REMARK    5  A    between atoms: C15_14  and  C18_16 
REMARK    6  A    between atoms: C21_19  and  O22_20 
ROOT
ATOM      1  N12 ZIN A   1      18.716  -0.395  11.128  0.00  0.00    -0.343 N 
ATOM      2  C13 ZIN A   1      18.474   0.408  12.182  0.00  0.00     0.256 C 
ATOM      3  O14 ZIN A   1      17.334   0.714  12.462  0.00  0.00    -0.271 OA
ATOM      4  H32 ZIN A   1      19.628  -0.640  10.903  0.00  0.00     0.163 HD
ENDROOT
BRANCH   1   5
ATOM      5  C10 ZIN A   1      17.604  -0.899  10.320  0.00  0.00     0.210 C 
ATOM      6  C8  ZIN A   1      17.963  -2.054   9.413  0.00  0.00     0.251 C 
ATOM      7  N7  ZIN A   1      18.102  -1.321   8.316  0.00  0.00    -0.293 N 
ATOM      8  O9  ZIN A   1      18.082  -3.243   9.618  0.00  0.00    -0.271 OA
ATOM      9  C3  ZIN A   1      18.688  -1.321   7.042  0.00  0.00     0.118 C 
ATOM     10  C25 ZIN A   1      17.416  -0.186   8.992  0.00  0.00     0.187 C 
ATOM     11  C2  ZIN A   1      18.972  -0.172   6.440  0.00  0.00    -0.041 C 
ATOM     12  C1  ZIN A   1      19.650  -0.280   5.098  0.00  0.00     0.047 C 
ATOM     13  C28 ZIN A   1      18.706   1.213   6.930  0.00  0.00     0.112 C 
ATOM     14  S27 ZIN A   1      18.461   1.288   8.742  0.00  0.00    -0.136 SA
BRANCH   9  15
ATOM     15  C4  ZIN A   1      18.990  -2.595   6.372  0.00  0.00     0.227 C 
ATOM     16  O5  ZIN A   1      18.173  -3.095   5.612  0.00  0.00    -0.643 OA
ATOM     17  O6  ZIN A   1      20.060  -3.154   6.574  0.00  0.00    -0.643 OA
ENDBRANCH   9  15
ENDBRANCH   1   5
BRANCH   2  18
ATOM     18  C15 ZIN A   1      19.618   0.927  13.013  0.00  0.00     0.342 C 
BRANCH  18  19
ATOM     19  N17 ZIN A   1      20.870   0.298  12.571  0.00  0.00     0.096 N 
ATOM     20  H33 ZIN A   1      21.232  -0.324  13.278  0.00  0.00     0.314 HD
ATOM     21  H34 ZIN A   1      20.743  -0.186  11.695  0.00  0.00     0.314 HD
ENDBRANCH  18  19
BRANCH  18  22
ATOM     22  C18 ZIN A   1      19.376   0.597  14.464  0.00  0.00    -0.016 A 
ATOM     23  C24 ZIN A   1      19.235   1.613  15.389  0.00  0.00     0.012 A 
ATOM     24  C23 ZIN A   1      19.007   1.314  16.718  0.00  0.00     0.037 A 
ATOM     25  C21 ZIN A   1      18.930  -0.010  17.125  0.00  0.00     0.065 A 
ATOM     26  C20 ZIN A   1      19.076  -1.029  16.195  0.00  0.00     0.037 A 
ATOM     27  C19 ZIN A   1      19.298  -0.724  14.867  0.00  0.00     0.012 A 
BRANCH  25  28
ATOM     28  O22 ZIN A   1      18.711  -0.309  18.433  0.00  0.00    -0.361 OA
ATOM     29  H37 ZIN A   1      17.861   0.005  18.771  0.00  0.00     0.217 HD
ENDBRANCH  25  28
ENDBRANCH  18  22
ENDBRANCH   2  18
TORSDOF 6
ENDMDL
MODEL 2
REMARK VINA RESULT:      -7.7      2.427      8.598
REMARK  6 active torsions:
REMARK  status: ('A' for Active; 'I' for Inactive)
REMARK    1  A    between atoms: C3_3  and  C4_4 
REMARK    2  A    between atoms: C10_10  and  N12_11 
REMARK       I    between atoms: N12_11  and  C13_12 
REMARK    3  A    between atoms: C13_12  and  C15_14 
REMARK    4  A    between atoms: C15_14  and  N17_15 
REMARK    5  A    between atoms: C15_14  and  C18_16 
REMARK    6  A    between atoms: C21_19  and  O22_20 
ROOT
ATOM      1  N12 ZIN A   1      18.779   0.653  12.157  0.00  0.00    -0.343 N 
ATOM      2  C13 ZIN A   1      18.520  -0.120  11.085  0.00  0.00     0.256 C 
ATOM      3  O14 ZIN A   1      17.373  -0.349  10.765  0.00  0.00    -0.271 OA
ATOM      4  H32 ZIN A   1      19.697   0.836  12.414  0.00  0.00     0.163 HD
ENDROOT
BRANCH   1   5
ATOM      5  C10 ZIN A   1      17.675   1.216  12.938  0.00  0.00     0.210 C 
ATOM      6  C8  ZIN A   1      18.076   2.340  13.866  0.00  0.00     0.251 C 
ATOM      7  N7  ZIN A   1      18.140   1.592  14.960  0.00  0.00    -0.293 N 
ATOM      8  O9  ZIN A   1      18.272   3.522  13.675  0.00  0.00    -0.271 OA
ATOM      9  C3  ZIN A   1      18.688   1.546  16.249  0.00  0.00     0.118 C 
ATOM     10  C25 ZIN A   1      17.407   0.505  14.253  0.00  0.00     0.187 C 
ATOM     11  C2  ZIN A   1      18.885   0.378  16.848  0.00  0.00    -0.041 C 
ATOM     12  C1  ZIN A   1      19.529   0.434  18.209  0.00  0.00     0.047 C 
ATOM     13  C28 ZIN A   1      18.551  -0.985  16.337  0.00  0.00     0.112 C 
ATOM     14  S27 ZIN A   1      18.355  -1.031  14.519  0.00  0.00    -0.136 SA
BRANCH   9  15
ATOM     15  C4  ZIN A   1      19.046   2.795  16.940  0.00  0.00     0.227 C 
ATOM     16  O5  ZIN A   1      20.154   3.286  16.781  0.00  0.00    -0.643 OA
ATOM     17  O6  ZIN A   1      18.233   3.342  17.673  0.00  0.00    -0.643 OA
ENDBRANCH   9  15
ENDBRANCH   1   5
BRANCH   2  18
ATOM     18  C15 ZIN A   1      19.655  -0.700  10.281  0.00  0.00     0.342 C 
BRANCH  18  19
ATOM     19  N17 ZIN A   1      20.919  -0.077  10.697  0.00  0.00     0.096 N 
ATOM     20  H33 ZIN A   1      21.573  -0.770  11.028  0.00  0.00     0.314 HD
ATOM     21  H34 ZIN A   1      21.319   0.468   9.947  0.00  0.00     0.314 HD
ENDBRANCH  18  19
BRANCH  18  22
ATOM     22  C18 ZIN A   1      19.422  -0.432   8.816  0.00  0.00    -0.016 A 
ATOM     23  C24 ZIN A   1      19.329  -1.487   7.928  0.00  0.00     0.012 A 
ATOM     24  C23 ZIN A   1      19.110  -1.245   6.586  0.00  0.00     0.037 A 
ATOM     25  C21 ZIN A   1      18.993   0.059   6.128  0.00  0.00     0.065 A 
ATOM     26  C20 ZIN A   1      19.091   1.117   7.021  0.00  0.00     0.037 A 
ATOM     27  C19 ZIN A   1      19.305   0.869   8.363  0.00  0.00     0.012 A 
BRANCH  25  28
ATOM     28  O22 ZIN A   1      18.782   0.301   4.808  0.00  0.00    -0.361 OA
ATOM     29  H37 ZIN A   1      18.125  -0.280   4.401  0.00  0.00     0.217 HD
ENDBRANCH  25  28
ENDBRANCH  18  22
ENDBRANCH   2  18
TORSDOF 6
ENDMDL
MODEL 3
REMARK VINA RESULT:      -7.4      3.259      8.126
REMARK  6 active torsions:
REMARK  status: ('A' for Active; 'I' for Inactive)
REMARK    1  A    between atoms: C3_3  and  C4_4 
REMARK    2  A    between atoms: C10_10  and  N12_11 
REMARK       I    between atoms: N12_11  and  C13_12 
REMARK    3  A    between atoms: C13_12  and  C15_14 
REMARK    4  A    between atoms: C15_14  and  N17_15 
REMARK    5  A    between atoms: C15_14  and  C18_16 
REMARK    6  A    between atoms: C21_19  and  O22_20 
ROOT
ATOM      1  N12 ZIN A   1      18.888   0.149  12.738  0.00  0.00    -0.343 N 
ATOM      2  C13 ZIN A   1      19.174   0.062  11.424  0.00  0.00     0.256 C 
ATOM      3  O14 ZIN A   1      18.570   0.746  10.625  0.00  0.00    -0.271 OA
ATOM      4  H32 ZIN A   1      19.371  -0.399  13.377  0.00  0.00     0.163 HD
ENDROOT
BRANCH   1   5
ATOM      5  C10 ZIN A   1      17.847   1.069  13.202  0.00  0.00     0.210 C 
ATOM      6  C8  ZIN A   1      18.371   2.344  13.821  0.00  0.00     0.251 C 
ATOM      7  N7  ZIN A   1      18.233   1.947  15.079  0.00  0.00    -0.293 N 
ATOM      8  O9  ZIN A   1      18.777   3.378  13.333  0.00  0.00    -0.271 OA
ATOM      9  C3  ZIN A   1      18.678   2.201  16.384  0.00  0.00     0.118 C 
ATOM     10  C25 ZIN A   1      17.375   0.818  14.623  0.00  0.00     0.187 C 
ATOM     11  C2  ZIN A   1      18.632   1.243  17.302  0.00  0.00    -0.041 C 
ATOM     12  C1  ZIN A   1      19.184   1.600  18.658  0.00  0.00     0.047 C 
ATOM     13  C28 ZIN A   1      18.106  -0.147  17.154  0.00  0.00     0.112 C 
ATOM     14  S27 ZIN A   1      18.027  -0.693  15.410  0.00  0.00    -0.136 SA
BRANCH   9  15
ATOM     15  C4  ZIN A   1      19.196   3.532  16.737  0.00  0.00     0.227 C 
ATOM     16  O5  ZIN A   1      18.427   4.415  17.088  0.00  0.00    -0.643 OA
ATOM     17  O6  ZIN A   1      20.398   3.754  16.681  0.00  0.00    -0.643 OA
ENDBRANCH   9  15
ENDBRANCH   1   5
BRANCH   2  18
ATOM     18  C15 ZIN A   1      20.245  -0.884  10.947  0.00  0.00     0.342 C 
BRANCH  18  19
ATOM     19  N17 ZIN A   1      20.823  -0.379   9.694  0.00  0.00     0.096 N 
ATOM     20  H33 ZIN A   1      20.773   0.628   9.652  0.00  0.00     0.314 HD
ATOM     21  H34 ZIN A   1      21.773  -0.698   9.579  0.00  0.00     0.314 HD
ENDBRANCH  18  19
BRANCH  18  22
ATOM     22  C18 ZIN A   1      19.643  -2.245  10.709  0.00  0.00    -0.016 A 
ATOM     23  C24 ZIN A   1      19.807  -3.247  11.647  0.00  0.00     0.012 A 
ATOM     24  C23 ZIN A   1      19.252  -4.493  11.434  0.00  0.00     0.037 A 
ATOM     25  C21 ZIN A   1      18.538  -4.743  10.272  0.00  0.00     0.065 A 
ATOM     26  C20 ZIN A   1      18.377  -3.737   9.329  0.00  0.00     0.037 A 
ATOM     27  C19 ZIN A   1      18.930  -2.491   9.549  0.00  0.00     0.012 A 
BRANCH  25  28
ATOM     28  O22 ZIN A   1      17.995  -5.970  10.056  0.00  0.00    -0.361 OA
ATOM     29  H37 ZIN A   1      17.107  -6.077  10.424  0.00  0.00     0.217 HD
ENDBRANCH  25  28
ENDBRANCH  18  22
ENDBRANCH   2  18
TORSDOF 6
ENDMDL
MODEL 4
REMARK VINA RESULT:      -7.4      4.615      6.783
REMARK  6 active torsions:
REMARK  status: ('A' for Active; 'I' for Inactive)
REMARK    1  A    between atoms: C3_3  and  C4_4 
REMARK    2  A    between atoms: C10_10  and  N12_11 
REMARK       I    between atoms: N12_11  and  C13_12 
REMARK    3  A    between atoms: C13_12  and  C15_14 
REMARK    4  A    between atoms: C15_14  and  N17_15 
REMARK    5  A    between atoms: C15_14  and  C18_16 
REMARK    6  A    between atoms: C21_19  and  O22_20 
ROOT
ATOM      1  N12 ZIN A   1      18.032  -2.577   5.690  0.00  0.00    -0.343 N 
ATOM      2  C13 ZIN A   1      18.770  -1.571   5.181  0.00  0.00     0.256 C 
ATOM      3  O14 ZIN A   1      19.824  -1.810   4.631  0.00  0.00    -0.271 OA
ATOM      4  H32 ZIN A   1      17.189  -2.387   6.131  0.00  0.00     0.163 HD
ENDROOT
BRANCH   1   5
ATOM      5  C10 ZIN A   1      18.503  -3.960   5.579  0.00  0.00     0.210 C 
ATOM      6  C8  ZIN A   1      17.437  -5.004   5.822  0.00  0.00     0.251 C 
ATOM      7  N7  ZIN A   1      17.778  -5.251   7.080  0.00  0.00    -0.293 N 
ATOM      8  O9  ZIN A   1      16.568  -5.460   5.109  0.00  0.00    -0.271 OA
ATOM      9  C3  ZIN A   1      17.294  -5.784   8.282  0.00  0.00     0.118 C 
ATOM     10  C25 ZIN A   1      19.068  -4.537   6.865  0.00  0.00     0.187 C 
ATOM     11  C2  ZIN A   1      17.821  -5.403   9.440  0.00  0.00    -0.041 C 
ATOM     12  C1  ZIN A   1      17.194  -5.993  10.677  0.00  0.00     0.047 C 
ATOM     13  C28 ZIN A   1      18.954  -4.457   9.667  0.00  0.00     0.112 C 
ATOM     14  S27 ZIN A   1      19.252  -3.353   8.240  0.00  0.00    -0.136 SA
BRANCH   9  15
ATOM     15  C4  ZIN A   1      16.201  -6.768   8.262  0.00  0.00     0.227 C 
ATOM     16  O5  ZIN A   1      15.038  -6.391   8.293  0.00  0.00    -0.643 OA
ATOM     17  O6  ZIN A   1      16.455  -7.964   8.213  0.00  0.00    -0.643 OA
ENDBRANCH   9  15
ENDBRANCH   1   5
BRANCH   2  18
ATOM     18  C15 ZIN A   1      18.286  -0.149   5.295  0.00  0.00     0.342 C 
BRANCH  18  19
ATOM     19  N17 ZIN A   1      19.188   0.737   4.549  0.00  0.00     0.096 N 
ATOM     20  H33 ZIN A   1      18.995   0.701   3.559  0.00  0.00     0.314 HD
ATOM     21  H34 ZIN A   1      19.132   1.685   4.893  0.00  0.00     0.314 HD
ENDBRANCH  18  19
BRANCH  18  22
ATOM     22  C18 ZIN A   1      18.265   0.260   6.745  0.00  0.00    -0.016 A 
ATOM     23  C24 ZIN A   1      17.310  -0.262   7.597  0.00  0.00     0.012 A 
ATOM     24  C23 ZIN A   1      17.293   0.107   8.928  0.00  0.00     0.037 A 
ATOM     25  C21 ZIN A   1      18.229   1.012   9.408  0.00  0.00     0.065 A 
ATOM     26  C20 ZIN A   1      19.184   1.538   8.549  0.00  0.00     0.037 A 
ATOM     27  C19 ZIN A   1      19.200   1.161   7.221  0.00  0.00     0.012 A 
BRANCH  25  28
ATOM     28  O22 ZIN A   1      18.212   1.381  10.715  0.00  0.00    -0.361 OA
ATOM     29  H37 ZIN A   1      18.277   0.641  11.334  0.00  0.00     0.217 HD
ENDBRANCH  25  28
ENDBRANCH  18  22
ENDBRANCH   2  18
TORSDOF 6
ENDMDL
MODEL 5
REMARK VINA RESULT:      -7.4      2.509      3.244
REMARK  6 active torsions:
REMARK  status: ('A' for Active; 'I' for Inactive)
REMARK    1  A    between atoms: C3_3  and  C4_4 
REMARK    2  A    between atoms: C10_10  and  N12_11 
REMARK       I    between atoms: N12_11  and  C13_12 
REMARK    3  A    between atoms: C13_12  and  C15_14 
REMARK    4  A    between atoms: C15_14  and  N17_15 
REMARK    5  A    between atoms: C15_14  and  C18_16 
REMARK    6  A    between atoms: C21_19  and  O22_20 
ROOT
ATOM      1  N12 ZIN A   1      18.418   1.440  10.883  0.00  0.00    -0.343 N 
ATOM      2  C13 ZIN A   1      18.259   2.701  11.328  0.00  0.00     0.256 C 
ATOM      3  O14 ZIN A   1      17.150   3.192  11.376  0.00  0.00    -0.271 OA
ATOM      4  H32 ZIN A   1      19.305   1.047  10.844  0.00  0.00     0.163 HD
ENDROOT
BRANCH   1   5
ATOM      5  C10 ZIN A   1      17.254   0.661  10.456  0.00  0.00     0.210 C 
ATOM      6  C8  ZIN A   1      17.352  -0.819  10.747  0.00  0.00     0.251 C 
ATOM      7  N7  ZIN A   1      17.725  -1.170   9.523  0.00  0.00    -0.293 N 
ATOM      8  O9  ZIN A   1      17.155  -1.464  11.755  0.00  0.00    -0.271 OA
ATOM      9  C3  ZIN A   1      18.352  -2.193   8.799  0.00  0.00     0.118 C 
ATOM     10  C25 ZIN A   1      17.318   0.171   9.020  0.00  0.00     0.187 C 
ATOM     11  C2  ZIN A   1      18.946  -1.923   7.643  0.00  0.00    -0.041 C 
ATOM     12  C1  ZIN A   1      19.638  -3.080   6.969  0.00  0.00     0.047 C 
ATOM     13  C28 ZIN A   1      19.017  -0.613   6.929  0.00  0.00     0.112 C 
ATOM     14  S27 ZIN A   1      18.713   0.812   8.035  0.00  0.00    -0.136 SA
BRANCH   9  15
ATOM     15  C4  ZIN A   1      18.353  -3.569   9.321  0.00  0.00     0.227 C 
ATOM     16  O5  ZIN A   1      17.437  -4.330   9.041  0.00  0.00    -0.643 OA
ATOM     17  O6  ZIN A   1      19.270  -3.952  10.034  0.00  0.00    -0.643 OA
ENDBRANCH   9  15
ENDBRANCH   1   5
BRANCH   2  18
ATOM     18  C15 ZIN A   1      19.456   3.503  11.768  0.00  0.00     0.342 C 
BRANCH  18  19
ATOM     19  N17 ZIN A   1      20.674   2.700  11.596  0.00  0.00     0.096 N 
ATOM     20  H33 ZIN A   1      21.101   2.495  12.487  0.00  0.00     0.314 HD
ATOM     21  H34 ZIN A   1      20.479   1.851  11.086  0.00  0.00     0.314 HD
ENDBRANCH  18  19
BRANCH  18  22
ATOM     22  C18 ZIN A   1      19.303   3.879  13.220  0.00  0.00    -0.016 A 
ATOM     23  C24 ZIN A   1      18.893   2.933  14.139  0.00  0.00     0.012 A 
ATOM     24  C23 ZIN A   1      18.758   3.273  15.470  0.00  0.00     0.037 A 
ATOM     25  C21 ZIN A   1      19.023   4.571  15.884  0.00  0.00     0.065 A 
ATOM     26  C20 ZIN A   1      19.430   5.521  14.958  0.00  0.00     0.037 A 
ATOM     27  C19 ZIN A   1      19.569   5.173  13.628  0.00  0.00     0.012 A 
BRANCH  25  28
ATOM     28  O22 ZIN A   1      18.886   4.911  17.192  0.00  0.00    -0.361 OA
ATOM     29  H37 ZIN A   1      19.465   4.418  17.789  0.00  0.00     0.217 HD
ENDBRANCH  25  28
ENDBRANCH  18  22
ENDBRANCH   2  18
TORSDOF 6
ENDMDL
MODEL 6
REMARK VINA RESULT:      -7.3      2.624      8.342
REMARK  6 active torsions:
REMARK  status: ('A' for Active; 'I' for Inactive)
REMARK    1  A    between atoms: C3_3  and  C4_4 
REMARK    2  A    between atoms: C10_10  and  N12_11 
REMARK       I    between atoms: N12_11  and  C13_12 
REMARK    3  A    between atoms: C13_12  and  C15_14 
REMARK    4  A    between atoms: C15_14  and  N17_15 
REMARK    5  A    between atoms: C15_14  and  C18_16 
REMARK    6  A    between atoms: C21_19  and  O22_20 
ROOT
ATOM      1  N12 ZIN A   1      18.542   0.553  11.206  0.00  0.00    -0.343 N 
ATOM      2  C13 ZIN A   1      18.382  -0.393  10.259  0.00  0.00     0.256 C 
ATOM      3  O14 ZIN A   1      17.271  -0.796   9.987  0.00  0.00    -0.271 OA
ATOM      4  H32 ZIN A   1      19.431   0.875  11.424  0.00  0.00     0.163 HD
ENDROOT
BRANCH   1   5
ATOM      5  C10 ZIN A   1      17.376   1.094  11.907  0.00  0.00     0.210 C 
ATOM      6  C8  ZIN A   1      17.435   2.582  12.163  0.00  0.00     0.251 C 
ATOM      7  N7  ZIN A   1      17.836   2.483  13.423  0.00  0.00    -0.293 N 
ATOM      8  O9  ZIN A   1      17.197   3.539  11.457  0.00  0.00    -0.271 OA
ATOM      9  C3  ZIN A   1      18.463   3.197  14.454  0.00  0.00     0.118 C 
ATOM     10  C25 ZIN A   1      17.470   1.039  13.421  0.00  0.00     0.187 C 
ATOM     11  C2  ZIN A   1      19.095   2.549  15.425  0.00  0.00    -0.041 C 
ATOM     12  C1  ZIN A   1      19.784   3.409  16.454  0.00  0.00     0.047 C 
ATOM     13  C28 ZIN A   1      19.213   1.073  15.620  0.00  0.00     0.112 C 
ATOM     14  S27 ZIN A   1      18.906   0.129  14.083  0.00  0.00    -0.136 SA
BRANCH   9  15
ATOM     15  C4  ZIN A   1      18.422   4.668  14.459  0.00  0.00     0.227 C 
ATOM     16  O5  ZIN A   1      19.289   5.307  13.880  0.00  0.00    -0.643 OA
ATOM     17  O6  ZIN A   1      17.518   5.252  15.042  0.00  0.00    -0.643 OA
ENDBRANCH   9  15
ENDBRANCH   1   5
BRANCH   2  18
ATOM     18  C15 ZIN A   1      19.582  -0.949   9.538  0.00  0.00     0.342 C 
BRANCH  18  19
ATOM     19  N17 ZIN A   1      20.777  -0.180   9.908  0.00  0.00     0.096 N 
ATOM     20  H33 ZIN A   1      20.753   0.744   9.502  0.00  0.00     0.314 HD
ATOM     21  H34 ZIN A   1      20.880  -0.130  10.911  0.00  0.00     0.314 HD
ENDBRANCH  18  19
BRANCH  18  22
ATOM     22  C18 ZIN A   1      19.363  -0.853   8.050  0.00  0.00    -0.016 A 
ATOM     23  C24 ZIN A   1      19.152   0.380   7.461  0.00  0.00     0.012 A 
ATOM     24  C23 ZIN A   1      18.956   0.471   6.098  0.00  0.00     0.037 A 
ATOM     25  C21 ZIN A   1      18.962  -0.677   5.319  0.00  0.00     0.065 A 
ATOM     26  C20 ZIN A   1      19.170  -1.914   5.913  0.00  0.00     0.037 A 
ATOM     27  C19 ZIN A   1      19.370  -1.999   7.276  0.00  0.00     0.012 A 
BRANCH  25  28
ATOM     28  O22 ZIN A   1      18.765  -0.591   3.977  0.00  0.00    -0.361 OA
ATOM     29  H37 ZIN A   1      18.723  -1.447   3.530  0.00  0.00     0.217 HD
ENDBRANCH  25  28
ENDBRANCH  18  22
ENDBRANCH   2  18
TORSDOF 6
ENDMDL
MODEL 7
REMARK VINA RESULT:      -7.2      2.656      7.946
REMARK  6 active torsions:
REMARK  status: ('A' for Active; 'I' for Inactive)
REMARK    1  A    between atoms: C3_3  and  C4_4 
REMARK    2  A    between atoms: C10_10  and  N12_11 
REMARK       I    between atoms: N12_11  and  C13_12 
REMARK    3  A    between atoms: C13_12  and  C15_14 
REMARK    4  A    between atoms: C15_14  and  N17_15 
REMARK    5  A    between atoms: C15_14  and  C18_16 
REMARK    6  A    between atoms: C21_19  and  O22_20 
ROOT
ATOM      1  N12 ZIN A   1      18.861  -0.762   7.590  0.00  0.00    -0.343 N 
ATOM      2  C13 ZIN A   1      18.472  -1.039   6.331  0.00  0.00     0.256 C 
ATOM      3  O14 ZIN A   1      17.430  -0.586   5.904  0.00  0.00    -0.271 OA
ATOM      4  H32 ZIN A   1      19.694  -1.125   7.932  0.00  0.00     0.163 HD
ENDROOT
BRANCH   1   5
ATOM      5  C10 ZIN A   1      18.028   0.086   8.446  0.00  0.00     0.210 C 
ATOM      6  C8  ZIN A   1      18.799   0.905   9.454  0.00  0.00     0.251 C 
ATOM      7  N7  ZIN A   1      18.585   0.090  10.478  0.00  0.00    -0.293 N 
ATOM      8  O9  ZIN A   1      19.405   1.952   9.360  0.00  0.00    -0.271 OA
ATOM      9  C3  ZIN A   1      19.073  -0.263  11.744  0.00  0.00     0.118 C 
ATOM     10  C25 ZIN A   1      17.516  -0.597   9.702  0.00  0.00     0.187 C 
ATOM     11  C2  ZIN A   1      18.836  -1.473  12.236  0.00  0.00    -0.041 C 
ATOM     12  C1  ZIN A   1      19.451  -1.772  13.580  0.00  0.00     0.047 C 
ATOM     13  C28 ZIN A   1      18.040  -2.576  11.620  0.00  0.00     0.112 C 
ATOM     14  S27 ZIN A   1      17.851  -2.387   9.811  0.00  0.00    -0.136 SA
BRANCH   9  15
ATOM     15  C4  ZIN A   1      19.850   0.709  12.529  0.00  0.00     0.227 C 
ATOM     16  O5  ZIN A   1      21.065   0.768  12.400  0.00  0.00    -0.643 OA
ATOM     17  O6  ZIN A   1      19.280   1.460  13.309  0.00  0.00    -0.643 OA
ENDBRANCH   9  15
ENDBRANCH   1   5
BRANCH   2  18
ATOM     18  C15 ZIN A   1      19.329  -1.911   5.451  0.00  0.00     0.342 C 
BRANCH  18  19
ATOM     19  N17 ZIN A   1      18.984  -1.677   4.043  0.00  0.00     0.096 N 
ATOM     20  H33 ZIN A   1      19.385  -0.812   3.710  0.00  0.00     0.314 HD
ATOM     21  H34 ZIN A   1      19.271  -2.453   3.465  0.00  0.00     0.314 HD
ENDBRANCH  18  19
BRANCH  18  22
ATOM     22  C18 ZIN A   1      19.089  -3.360   5.792  0.00  0.00    -0.016 A 
ATOM     23  C24 ZIN A   1      18.009  -4.028   5.246  0.00  0.00     0.012 A 
ATOM     24  C23 ZIN A   1      17.789  -5.356   5.553  0.00  0.00     0.037 A 
ATOM     25  C21 ZIN A   1      18.648  -6.018   6.419  0.00  0.00     0.065 A 
ATOM     26  C20 ZIN A   1      19.729  -5.344   6.969  0.00  0.00     0.037 A 
ATOM     27  C19 ZIN A   1      19.946  -4.017   6.655  0.00  0.00     0.012 A 
BRANCH  25  28
ATOM     28  O22 ZIN A   1      18.432  -7.324   6.727  0.00  0.00    -0.361 OA
ATOM     29  H37 ZIN A   1      17.508  -7.598   6.650  0.00  0.00     0.217 HD
ENDBRANCH  25  28
ENDBRANCH  18  22
ENDBRANCH   2  18
TORSDOF 6
ENDMDL
MODEL 8
REMARK VINA RESULT:      -7.2      1.612      2.017
REMARK  6 active torsions:
REMARK  status: ('A' for Active; 'I' for Inactive)
REMARK    1  A    between atoms: C3_3  and  C4_4 
REMARK    2  A    between atoms: C10_10  and  N12_11 
REMARK       I    between atoms: N12_11  and  C13_12 
REMARK    3  A    between atoms: C13_12  and  C15_14 
REMARK    4  A    between atoms: C15_14  and  N17_15 
REMARK    5  A    between atoms: C15_14  and  C18_16 
REMARK    6  A    between atoms: C21_19  and  O22_20 
ROOT
ATOM      1  N12 ZIN A   1      18.693  -0.809  10.758  0.00  0.00    -0.343 N 
ATOM      2  C13 ZIN A   1      18.572  -0.792  12.100  0.00  0.00     0.256 C 
ATOM      3  O14 ZIN A   1      17.539  -1.156  12.620  0.00  0.00    -0.271 OA
ATOM      4  H32 ZIN A   1      19.520  -0.517  10.341  0.00  0.00     0.163 HD
ENDROOT
BRANCH   1   5
ATOM      5  C10 ZIN A   1      17.577  -1.266   9.927  0.00  0.00     0.210 C 
ATOM      6  C8  ZIN A   1      17.929  -2.376   8.964  0.00  0.00     0.251 C 
ATOM      7  N7  ZIN A   1      18.072  -1.590   7.904  0.00  0.00    -0.293 N 
ATOM      8  O9  ZIN A   1      18.041  -3.575   9.110  0.00  0.00    -0.271 OA
ATOM      9  C3  ZIN A   1      18.657  -1.530   6.632  0.00  0.00     0.118 C 
ATOM     10  C25 ZIN A   1      17.393  -0.486   8.637  0.00  0.00     0.187 C 
ATOM     11  C2  ZIN A   1      18.946  -0.354   6.087  0.00  0.00    -0.041 C 
ATOM     12  C1  ZIN A   1      19.623  -0.399   4.741  0.00  0.00     0.047 C 
ATOM     13  C28 ZIN A   1      18.689   1.006   6.646  0.00  0.00     0.112 C 
ATOM     14  S27 ZIN A   1      18.446   0.992   8.459  0.00  0.00    -0.136 SA
BRANCH   9  15
ATOM     15  C4  ZIN A   1      18.951  -2.771   5.898  0.00  0.00     0.227 C 
ATOM     16  O5  ZIN A   1      18.148  -3.206   5.084  0.00  0.00    -0.643 OA
ATOM     17  O6  ZIN A   1      20.000  -3.368   6.102  0.00  0.00    -0.643 OA
ENDBRANCH   9  15
ENDBRANCH   1   5
BRANCH   2  18
ATOM     18  C15 ZIN A   1      19.720  -0.322  12.955  0.00  0.00     0.342 C 
BRANCH  18  19
ATOM     19  N17 ZIN A   1      20.006  -1.326  13.987  0.00  0.00     0.096 N 
ATOM     20  H33 ZIN A   1      20.931  -1.199  14.371  0.00  0.00     0.314 HD
ATOM     21  H34 ZIN A   1      19.308  -1.306  14.716  0.00  0.00     0.314 HD
ENDBRANCH  18  19
BRANCH  18  22
ATOM     22  C18 ZIN A   1      19.355   0.984  13.612  0.00  0.00    -0.016 A 
ATOM     23  C24 ZIN A   1      19.212   2.126  12.847  0.00  0.00     0.012 A 
ATOM     24  C23 ZIN A   1      18.872   3.323  13.446  0.00  0.00     0.037 A 
ATOM     25  C21 ZIN A   1      18.685   3.381  14.819  0.00  0.00     0.065 A 
ATOM     26  C20 ZIN A   1      18.834   2.234  15.586  0.00  0.00     0.037 A 
ATOM     27  C19 ZIN A   1      19.168   1.039  14.981  0.00  0.00     0.012 A 
BRANCH  25  28
ATOM     28  O22 ZIN A   1      18.356   4.559  15.413  0.00  0.00    -0.361 OA
ATOM     29  H37 ZIN A   1      18.463   4.558  16.374  0.00  0.00     0.217 HD
ENDBRANCH  25  28
ENDBRANCH  18  22
ENDBRANCH   2  18
TORSDOF 6
ENDMDL
MODEL 9
REMARK VINA RESULT:      -7.2      1.660      2.113
REMARK  6 active torsions:
REMARK  status: ('A' for Active; 'I' for Inactive)
REMARK    1  A    between atoms: C3_3  and  C4_4 
REMARK    2  A    between atoms: C10_10  and  N12_11 
REMARK       I    between atoms: N12_11  and  C13_12 
REMARK    3  A    between atoms: C13_12  and  C15_14 
REMARK    4  A    between atoms: C15_14  and  N17_15 
REMARK    5  A    between atoms: C15_14  and  C18_16 
REMARK    6  A    between atoms: C21_19  and  O22_20 
ROOT
ATOM      1  N12 ZIN A   1      18.563  -0.778  11.942  0.00  0.00    -0.343 N 
ATOM      2  C13 ZIN A   1      18.351   0.272  12.760  0.00  0.00     0.256 C 
ATOM      3  O14 ZIN A   1      17.226   0.694  12.927  0.00  0.00    -0.271 OA
ATOM      4  H32 ZIN A   1      19.462  -1.115  11.808  0.00  0.00     0.163 HD
ENDROOT
BRANCH   1   5
ATOM      5  C10 ZIN A   1      17.435  -1.410  11.254  0.00  0.00     0.210 C 
ATOM      6  C8  ZIN A   1      17.596  -2.894  11.022  0.00  0.00     0.251 C 
ATOM      7  N7  ZIN A   1      17.987  -2.789   9.759  0.00  0.00    -0.293 N 
ATOM      8  O9  ZIN A   1      17.426  -3.853  11.745  0.00  0.00    -0.271 OA
ATOM      9  C3  ZIN A   1      18.660  -3.476   8.739  0.00  0.00     0.118 C 
ATOM     10  C25 ZIN A   1      17.523  -1.374   9.738  0.00  0.00     0.187 C 
ATOM     11  C2  ZIN A   1      19.244  -2.802   7.756  0.00  0.00    -0.041 C 
ATOM     12  C1  ZIN A   1      19.988  -3.630   6.739  0.00  0.00     0.047 C 
ATOM     13  C28 ZIN A   1      19.260  -1.325   7.536  0.00  0.00     0.112 C 
ATOM     14  S27 ZIN A   1      18.891  -0.379   9.057  0.00  0.00    -0.136 SA
BRANCH   9  15
ATOM     15  C4  ZIN A   1      18.720  -4.946   8.759  0.00  0.00     0.227 C 
ATOM     16  O5  ZIN A   1      19.635  -5.513   9.338  0.00  0.00    -0.643 OA
ATOM     17  O6  ZIN A   1      17.853  -5.600   8.196  0.00  0.00    -0.643 OA
ENDBRANCH   9  15
ENDBRANCH   1   5
BRANCH   2  18
ATOM     18  C15 ZIN A   1      19.511   0.922  13.468  0.00  0.00     0.342 C 
BRANCH  18  19
ATOM     19  N17 ZIN A   1      20.744   0.180  13.173  0.00  0.00     0.096 N 
ATOM     20  H33 ZIN A   1      20.708  -0.751  13.562  0.00  0.00     0.314 HD
ATOM     21  H34 ZIN A   1      20.920   0.149  12.180  0.00  0.00     0.314 HD
ENDBRANCH  18  19
BRANCH  18  22
ATOM     22  C18 ZIN A   1      19.262   0.912  14.954  0.00  0.00    -0.016 A 
ATOM     23  C24 ZIN A   1      19.235   2.101  15.658  0.00  0.00     0.012 A 
ATOM     24  C23 ZIN A   1      19.001   2.095  17.019  0.00  0.00     0.037 A 
ATOM     25  C21 ZIN A   1      18.804   0.893  17.683  0.00  0.00     0.065 A 
ATOM     26  C20 ZIN A   1      18.837  -0.300  16.975  0.00  0.00     0.037 A 
ATOM     27  C19 ZIN A   1      19.065  -0.288  15.613  0.00  0.00     0.012 A 
BRANCH  25  28
ATOM     28  O22 ZIN A   1      18.580   0.883  19.023  0.00  0.00    -0.361 OA
ATOM     29  H37 ZIN A   1      18.935   0.106  19.475  0.00  0.00     0.217 HD
ENDBRANCH  25  28
ENDBRANCH  18  22
ENDBRANCH   2  18
TORSDOF 6
ENDMDL
