MODEL 1
REMARK VINA RESULT:      -6.9      0.000      0.000
REMARK  9 active torsions:
REMARK  status: ('A' for Active; 'I' for Inactive)
REMARK    1  A    between atoms: C2_2  and  C4_4 
REMARK    2  A    between atoms: C4_4  and  O6_6 
REMARK    3  A    between atoms: O6_6  and  C7_7 
REMARK    4  A    between atoms: C7_7  and  O10_9 
REMARK    5  A    between atoms: O10_9  and  C11_10 
REMARK       I    between atoms: C11_10  and  N13_12 
REMARK    6  A    between atoms: N13_12  and  C14_13 
REMARK    7  A    between atoms: C14_13  and  C15_14 
REMARK    8  A    between atoms: C15_14  and  C16_15 
REMARK    9  A    between atoms: C16_15  and  C17_16 
ROOT
ATOM      1  C11 ZIN A   1      18.740  -2.469   9.282  0.00  0.00     0.362 C 
ATOM      2  O12 ZIN A   1      19.253  -3.266  10.043  0.00  0.00    -0.238 OA
ATOM      3  N13 ZIN A   1      18.826  -1.148   9.532  0.00  0.00    -0.336 N 
ATOM      4  H35 ZIN A   1      18.417  -0.512   8.924  0.00  0.00     0.164 HD
ENDROOT
BRANCH   3   5
ATOM      5  C14 ZIN A   1      19.537  -0.672  10.721  0.00  0.00     0.135 C 
BRANCH   5   6
ATOM      6  C15 ZIN A   1      18.979   0.691  11.137  0.00  0.00    -0.015 C 
ATOM      7  C24 ZIN A   1      18.186   1.294   9.975  0.00  0.00     0.012 C 
ATOM      8  C23 ZIN A   1      17.629   2.656  10.391  0.00  0.00     0.001 C 
ATOM      9  C22 ZIN A   1      18.784   3.590  10.758  0.00  0.00     0.000 C 
ATOM     10  C21 ZIN A   1      19.577   2.987  11.919  0.00  0.00     0.001 C 
ATOM     11  C20 ZIN A   1      20.134   1.625  11.504  0.00  0.00     0.012 C 
BRANCH   6  12
ATOM     12  C16 ZIN A   1      18.059   0.518  12.347  0.00  0.00     0.124 C 
BRANCH  12  13
ATOM     13  C17 ZIN A   1      16.924  -0.406  11.988  0.00  0.00     0.173 C 
ATOM     14  O18 ZIN A   1      15.871   0.052  11.579  0.00  0.00    -0.648 OA
ATOM     15  O19 ZIN A   1      17.059  -1.612  12.107  0.00  0.00    -0.648 OA
ENDBRANCH  12  13
ENDBRANCH   6  12
ENDBRANCH   5   6
ENDBRANCH   3   5
BRANCH   1  16
ATOM     16  O10 ZIN A   1      18.087  -2.907   8.189  0.00  0.00    -0.272 OA
BRANCH  16  17
ATOM     17  C7  ZIN A   1      18.798  -2.840   6.925  0.00  0.00     0.276 C 
ATOM     18  C9  ZIN A   1      19.815  -3.980   6.850  0.00  0.00     0.072 C 
BRANCH  17  19
ATOM     19  O6  ZIN A   1      19.489  -1.567   6.826  0.00  0.00    -0.289 OA
BRANCH  19  20
ATOM     20  C4  ZIN A   1      19.288  -0.850   5.709  0.00  0.00     0.264 C 
ATOM     21  O5  ZIN A   1      19.814  -1.185   4.673  0.00  0.00    -0.265 OA
BRANCH  20  22
ATOM     22  C2  ZIN A   1      18.408   0.372   5.746  0.00  0.00     0.077 C 
ATOM     23  C1  ZIN A   1      17.037  -0.003   6.312  0.00  0.00     0.020 C 
ATOM     24  C3  ZIN A   1      19.053   1.438   6.635  0.00  0.00     0.020 C 
ENDBRANCH  20  22
ENDBRANCH  19  20
ENDBRANCH  17  19
ENDBRANCH  16  17
ENDBRANCH   1  16
TORSDOF 9
ENDMDL
MODEL 2
REMARK VINA RESULT:      -6.8      2.823      3.765
REMARK  9 active torsions:
REMARK  status: ('A' for Active; 'I' for Inactive)
REMARK    1  A    between atoms: C2_2  and  C4_4 
REMARK    2  A    between atoms: C4_4  and  O6_6 
REMARK    3  A    between atoms: O6_6  and  C7_7 
REMARK    4  A    between atoms: C7_7  and  O10_9 
REMARK    5  A    between atoms: O10_9  and  C11_10 
REMARK       I    between atoms: C11_10  and  N13_12 
REMARK    6  A    between atoms: N13_12  and  C14_13 
REMARK    7  A    between atoms: C14_13  and  C15_14 
REMARK    8  A    between atoms: C15_14  and  C16_15 
REMARK    9  A    between atoms: C16_15  and  C17_16 
ROOT
ATOM      1  C11 ZIN A   1      19.658  -5.097   7.498  0.00  0.00     0.362 C 
ATOM      2  O12 ZIN A   1      20.619  -5.776   7.804  0.00  0.00    -0.238 OA
ATOM      3  N13 ZIN A   1      18.951  -4.460   8.451  0.00  0.00    -0.336 N 
ATOM      4  H35 ZIN A   1      18.184  -3.918   8.205  0.00  0.00     0.164 HD
ENDROOT
BRANCH   3   5
ATOM      5  C14 ZIN A   1      19.339  -4.585   9.858  0.00  0.00     0.135 C 
BRANCH   5   6
ATOM      6  C15 ZIN A   1      18.583  -3.547  10.690  0.00  0.00    -0.015 C 
ATOM      7  C24 ZIN A   1      18.417  -2.263   9.875  0.00  0.00     0.012 C 
ATOM      8  C23 ZIN A   1      17.661  -1.225  10.707  0.00  0.00     0.001 C 
ATOM      9  C22 ZIN A   1      18.449  -0.921  11.982  0.00  0.00     0.000 C 
ATOM     10  C21 ZIN A   1      18.616  -2.205  12.797  0.00  0.00     0.001 C 
ATOM     11  C20 ZIN A   1      19.372  -3.243  11.965  0.00  0.00     0.012 C 
BRANCH   6  12
ATOM     12  C16 ZIN A   1      17.205  -4.097  11.062  0.00  0.00     0.124 C 
BRANCH  12  13
ATOM     13  C17 ZIN A   1      17.323  -5.559  11.407  0.00  0.00     0.173 C 
ATOM     14  O18 ZIN A   1      17.460  -5.902  12.569  0.00  0.00    -0.648 OA
ATOM     15  O19 ZIN A   1      17.283  -6.399  10.525  0.00  0.00    -0.648 OA
ENDBRANCH  12  13
ENDBRANCH   6  12
ENDBRANCH   5   6
ENDBRANCH   3   5
BRANCH   1  16
ATOM     16  O10 ZIN A   1      19.301  -4.983   6.204  0.00  0.00    -0.272 OA
BRANCH  16  17
ATOM     17  C7  ZIN A   1      18.753  -3.706   5.782  0.00  0.00     0.276 C 
ATOM     18  C9  ZIN A   1      18.328  -3.793   4.315  0.00  0.00     0.072 C 
BRANCH  17  19
ATOM     19  O6  ZIN A   1      19.762  -2.673   5.933  0.00  0.00    -0.289 OA
BRANCH  19  20
ATOM     20  C4  ZIN A   1      19.384  -1.410   5.679  0.00  0.00     0.264 C 
ATOM     21  O5  ZIN A   1      19.871  -0.809   4.750  0.00  0.00    -0.265 OA
BRANCH  20  22
ATOM     22  C2  ZIN A   1      18.352  -0.742   6.550  0.00  0.00     0.077 C 
ATOM     23  C1  ZIN A   1      18.975   0.474   7.238  0.00  0.00     0.020 C 
ATOM     24  C3  ZIN A   1      17.171  -0.291   5.687  0.00  0.00     0.020 C 
ENDBRANCH  20  22
ENDBRANCH  19  20
ENDBRANCH  17  19
ENDBRANCH  16  17
ENDBRANCH   1  16
TORSDOF 9
ENDMDL
MODEL 3
REMARK VINA RESULT:      -6.8      2.240      3.822
REMARK  9 active torsions:
REMARK  status: ('A' for Active; 'I' for Inactive)
REMARK    1  A    between atoms: C2_2  and  C4_4 
REMARK    2  A    between atoms: C4_4  and  O6_6 
REMARK    3  A    between atoms: O6_6  and  C7_7 
REMARK    4  A    between atoms: C7_7  and  O10_9 
REMARK    5  A    between atoms: O10_9  and  C11_10 
REMARK       I    between atoms: C11_10  and  N13_12 
REMARK    6  A    between atoms: N13_12  and  C14_13 
REMARK    7  A    between atoms: C14_13  and  C15_14 
REMARK    8  A    between atoms: C15_14  and  C16_15 
REMARK    9  A    between atoms: C16_15  and  C17_16 
ROOT
ATOM      1  C11 ZIN A   1      19.132  -2.576  11.912  0.00  0.00     0.362 C 
ATOM      2  O12 ZIN A   1      18.963  -1.997  12.967  0.00  0.00    -0.238 OA
ATOM      3  N13 ZIN A   1      19.426  -1.876  10.799  0.00  0.00    -0.336 N 
ATOM      4  H35 ZIN A   1      19.561  -2.338   9.957  0.00  0.00     0.164 HD
ENDROOT
BRANCH   3   5
ATOM      5  C14 ZIN A   1      19.540  -0.416  10.861  0.00  0.00     0.135 C 
BRANCH   5   6
ATOM      6  C15 ZIN A   1      18.759   0.206   9.701  0.00  0.00    -0.015 C 
ATOM      7  C24 ZIN A   1      17.964  -0.884   8.978  0.00  0.00     0.012 C 
ATOM      8  C23 ZIN A   1      17.183  -0.262   7.819  0.00  0.00     0.001 C 
ATOM      9  C22 ZIN A   1      18.159   0.392   6.840  0.00  0.00     0.000 C 
ATOM     10  C21 ZIN A   1      18.954   1.482   7.562  0.00  0.00     0.001 C 
ATOM     11  C20 ZIN A   1      19.735   0.860   8.721  0.00  0.00     0.012 C 
BRANCH   6  12
ATOM     12  C16 ZIN A   1      17.796   1.264  10.244  0.00  0.00     0.124 C 
BRANCH  12  13
ATOM     13  C17 ZIN A   1      17.151   0.755  11.508  0.00  0.00     0.173 C 
ATOM     14  O18 ZIN A   1      16.169   0.037  11.443  0.00  0.00    -0.648 OA
ATOM     15  O19 ZIN A   1      17.612   1.063  12.594  0.00  0.00    -0.648 OA
ENDBRANCH  12  13
ENDBRANCH   6  12
ENDBRANCH   5   6
ENDBRANCH   3   5
BRANCH   1  16
ATOM     16  O10 ZIN A   1      19.026  -3.917  11.856  0.00  0.00    -0.272 OA
BRANCH  16  17
ATOM     17  C7  ZIN A   1      18.630  -4.495  10.584  0.00  0.00     0.276 C 
ATOM     18  C9  ZIN A   1      17.680  -5.668  10.830  0.00  0.00     0.072 C 
BRANCH  17  19
ATOM     19  O6  ZIN A   1      19.808  -4.966   9.879  0.00  0.00    -0.289 OA
BRANCH  19  20
ATOM     20  C4  ZIN A   1      19.707  -5.103   8.547  0.00  0.00     0.264 C 
ATOM     21  O5  ZIN A   1      20.306  -5.988   7.983  0.00  0.00    -0.265 OA
BRANCH  20  22
ATOM     22  C2  ZIN A   1      18.848  -4.152   7.755  0.00  0.00     0.077 C 
ATOM     23  C1  ZIN A   1      19.727  -3.349   6.794  0.00  0.00     0.020 C 
ATOM     24  C3  ZIN A   1      17.813  -4.947   6.955  0.00  0.00     0.020 C 
ENDBRANCH  20  22
ENDBRANCH  19  20
ENDBRANCH  17  19
ENDBRANCH  16  17
ENDBRANCH   1  16
TORSDOF 9
ENDMDL
MODEL 4
REMARK VINA RESULT:      -6.7      4.808      7.089
REMARK  9 active torsions:
REMARK  status: ('A' for Active; 'I' for Inactive)
REMARK    1  A    between atoms: C2_2  and  C4_4 
REMARK    2  A    between atoms: C4_4  and  O6_6 
REMARK    3  A    between atoms: O6_6  and  C7_7 
REMARK    4  A    between atoms: C7_7  and  O10_9 
REMARK    5  A    between atoms: O10_9  and  C11_10 
REMARK       I    between atoms: C11_10  and  N13_12 
REMARK    6  A    between atoms: N13_12  and  C14_13 
REMARK    7  A    between atoms: C14_13  and  C15_14 
REMARK    8  A    between atoms: C15_14  and  C16_15 
REMARK    9  A    between atoms: C16_15  and  C17_16 
ROOT
ATOM      1  C11 ZIN A   1      18.686   3.627  15.742  0.00  0.00     0.362 C 
ATOM      2  O12 ZIN A   1      19.756   3.732  16.309  0.00  0.00    -0.238 OA
ATOM      3  N13 ZIN A   1      18.246   2.415  15.351  0.00  0.00    -0.336 N 
ATOM      4  H35 ZIN A   1      17.392   2.332  14.899  0.00  0.00     0.164 HD
ENDROOT
BRANCH   3   5
ATOM      5  C14 ZIN A   1      19.058   1.223  15.609  0.00  0.00     0.135 C 
BRANCH   5   6
ATOM      6  C15 ZIN A   1      18.881   0.228  14.460  0.00  0.00    -0.015 C 
ATOM      7  C24 ZIN A   1      20.004   0.421  13.440  0.00  0.00     0.012 C 
ATOM      8  C23 ZIN A   1      19.828  -0.574  12.292  0.00  0.00     0.001 C 
ATOM      9  C22 ZIN A   1      18.477  -0.336  11.614  0.00  0.00     0.000 C 
ATOM     10  C21 ZIN A   1      17.353  -0.530  12.635  0.00  0.00     0.001 C 
ATOM     11  C20 ZIN A   1      17.530   0.465  13.783  0.00  0.00     0.012 C 
BRANCH   6  12
ATOM     12  C16 ZIN A   1      18.932  -1.199  15.010  0.00  0.00     0.124 C 
BRANCH  12  13
ATOM     13  C17 ZIN A   1      18.475  -1.201  16.446  0.00  0.00     0.173 C 
ATOM     14  O18 ZIN A   1      19.296  -1.172  17.347  0.00  0.00    -0.648 OA
ATOM     15  O19 ZIN A   1      17.285  -1.232  16.707  0.00  0.00    -0.648 OA
ENDBRANCH  12  13
ENDBRANCH   6  12
ENDBRANCH   5   6
ENDBRANCH   3   5
BRANCH   1  16
ATOM     16  O10 ZIN A   1      17.940   4.723  15.504  0.00  0.00    -0.272 OA
BRANCH  16  17
ATOM     17  C7  ZIN A   1      17.897   5.208  14.137  0.00  0.00     0.276 C 
ATOM     18  C9  ZIN A   1      16.999   6.444  14.061  0.00  0.00     0.072 C 
BRANCH  17  19
ATOM     19  O6  ZIN A   1      17.366   4.171  13.271  0.00  0.00    -0.289 OA
BRANCH  19  20
ATOM     20  C4  ZIN A   1      18.125   3.800  12.228  0.00  0.00     0.264 C 
ATOM     21  O5  ZIN A   1      19.289   3.522  12.396  0.00  0.00    -0.265 OA
BRANCH  20  22
ATOM     22  C2  ZIN A   1      17.526   3.731  10.847  0.00  0.00     0.077 C 
ATOM     23  C1  ZIN A   1      17.267   5.148  10.332  0.00  0.00     0.020 C 
ATOM     24  C3  ZIN A   1      18.497   3.015   9.905  0.00  0.00     0.020 C 
ENDBRANCH  20  22
ENDBRANCH  19  20
ENDBRANCH  17  19
ENDBRANCH  16  17
ENDBRANCH   1  16
TORSDOF 9
ENDMDL
MODEL 5
REMARK VINA RESULT:      -6.7      2.350      6.312
REMARK  9 active torsions:
REMARK  status: ('A' for Active; 'I' for Inactive)
REMARK    1  A    between atoms: C2_2  and  C4_4 
REMARK    2  A    between atoms: C4_4  and  O6_6 
REMARK    3  A    between atoms: O6_6  and  C7_7 
REMARK    4  A    between atoms: C7_7  and  O10_9 
REMARK    5  A    between atoms: O10_9  and  C11_10 
REMARK       I    between atoms: C11_10  and  N13_12 
REMARK    6  A    between atoms: N13_12  and  C14_13 
REMARK    7  A    between atoms: C14_13  and  C15_14 
REMARK    8  A    between atoms: C15_14  and  C16_15 
REMARK    9  A    between atoms: C16_15  and  C17_16 
ROOT
ATOM      1  C11 ZIN A   1      18.176  -1.188   7.744  0.00  0.00     0.362 C 
ATOM      2  O12 ZIN A   1      19.286  -1.097   7.257  0.00  0.00    -0.238 OA
ATOM      3  N13 ZIN A   1      17.672  -2.399   8.052  0.00  0.00    -0.336 N 
ATOM      4  H35 ZIN A   1      16.787  -2.471   8.440  0.00  0.00     0.164 HD
ENDROOT
BRANCH   3   5
ATOM      5  C14 ZIN A   1      18.462  -3.607   7.798  0.00  0.00     0.135 C 
BRANCH   5   6
ATOM      6  C15 ZIN A   1      18.459  -4.490   9.049  0.00  0.00    -0.015 C 
ATOM      7  C24 ZIN A   1      17.016  -4.763   9.476  0.00  0.00     0.012 C 
ATOM      8  C23 ZIN A   1      17.013  -5.645  10.726  0.00  0.00     0.001 C 
ATOM      9  C22 ZIN A   1      17.753  -4.930  11.857  0.00  0.00     0.000 C 
ATOM     10  C21 ZIN A   1      19.197  -4.656  11.429  0.00  0.00     0.001 C 
ATOM     11  C20 ZIN A   1      19.199  -3.774  10.180  0.00  0.00     0.012 C 
BRANCH   6  12
ATOM     12  C16 ZIN A   1      19.159  -5.814   8.739  0.00  0.00     0.124 C 
BRANCH  12  13
ATOM     13  C17 ZIN A   1      19.814  -5.733   7.384  0.00  0.00     0.173 C 
ATOM     14  O18 ZIN A   1      19.268  -6.226   6.412  0.00  0.00    -0.648 OA
ATOM     15  O19 ZIN A   1      20.890  -5.173   7.260  0.00  0.00    -0.648 OA
ENDBRANCH  12  13
ENDBRANCH   6  12
ENDBRANCH   5   6
ENDBRANCH   3   5
BRANCH   1  16
ATOM     16  O10 ZIN A   1      17.450  -0.078   7.976  0.00  0.00    -0.272 OA
BRANCH  16  17
ATOM     17  C7  ZIN A   1      17.530   0.496   9.307  0.00  0.00     0.276 C 
ATOM     18  C9  ZIN A   1      18.679   1.504   9.361  0.00  0.00     0.072 C 
BRANCH  17  19
ATOM     19  O6  ZIN A   1      17.766  -0.560  10.275  0.00  0.00    -0.289 OA
BRANCH  19  20
ATOM     20  C4  ZIN A   1      17.132  -0.459  11.454  0.00  0.00     0.264 C 
ATOM     21  O5  ZIN A   1      16.010  -0.011  11.500  0.00  0.00    -0.265 OA
BRANCH  20  22
ATOM     22  C2  ZIN A   1      17.817  -0.905  12.720  0.00  0.00     0.077 C 
ATOM     23  C1  ZIN A   1      19.316  -1.064  12.459  0.00  0.00     0.020 C 
ATOM     24  C3  ZIN A   1      17.598   0.142  13.814  0.00  0.00     0.020 C 
ENDBRANCH  20  22
ENDBRANCH  19  20
ENDBRANCH  17  19
ENDBRANCH  16  17
ENDBRANCH   1  16
TORSDOF 9
ENDMDL
MODEL 6
REMARK VINA RESULT:      -6.6      2.606      4.817
REMARK  9 active torsions:
REMARK  status: ('A' for Active; 'I' for Inactive)
REMARK    1  A    between atoms: C2_2  and  C4_4 
REMARK    2  A    between atoms: C4_4  and  O6_6 
REMARK    3  A    between atoms: O6_6  and  C7_7 
REMARK    4  A    between atoms: C7_7  and  O10_9 
REMARK    5  A    between atoms: O10_9  and  C11_10 
REMARK       I    between atoms: C11_10  and  N13_12 
REMARK    6  A    between atoms: N13_12  and  C14_13 
REMARK    7  A    between atoms: C14_13  and  C15_14 
REMARK    8  A    between atoms: C15_14  and  C16_15 
REMARK    9  A    between atoms: C16_15  and  C17_16 
ROOT
ATOM      1  C11 ZIN A   1      17.425   0.149  10.026  0.00  0.00     0.362 C 
ATOM      2  O12 ZIN A   1      17.596   1.306   9.696  0.00  0.00    -0.238 OA
ATOM      3  N13 ZIN A   1      17.294  -0.169  11.328  0.00  0.00    -0.336 N 
ATOM      4  H35 ZIN A   1      17.157  -1.092  11.591  0.00  0.00     0.164 HD
ENDROOT
BRANCH   3   5
ATOM      5  C14 ZIN A   1      17.359   0.882  12.348  0.00  0.00     0.135 C 
BRANCH   5   6
ATOM      6  C15 ZIN A   1      18.178   0.384  13.541  0.00  0.00    -0.015 C 
ATOM      7  C24 ZIN A   1      18.490  -1.103  13.361  0.00  0.00     0.012 C 
ATOM      8  C23 ZIN A   1      19.309  -1.600  14.554  0.00  0.00     0.001 C 
ATOM      9  C22 ZIN A   1      18.508  -1.399  15.842  0.00  0.00     0.000 C 
ATOM     10  C21 ZIN A   1      18.196   0.088  16.022  0.00  0.00     0.001 C 
ATOM     11  C20 ZIN A   1      17.377   0.585  14.829  0.00  0.00     0.012 C 
BRANCH   6  12
ATOM     12  C16 ZIN A   1      19.486   1.174  13.626  0.00  0.00     0.124 C 
BRANCH  12  13
ATOM     13  C17 ZIN A   1      20.073   1.325  12.246  0.00  0.00     0.173 C 
ATOM     14  O18 ZIN A   1      20.067   2.413  11.697  0.00  0.00    -0.648 OA
ATOM     15  O19 ZIN A   1      20.554   0.358  11.679  0.00  0.00    -0.648 OA
ENDBRANCH  12  13
ENDBRANCH   6  12
ENDBRANCH   5   6
ENDBRANCH   3   5
BRANCH   1  16
ATOM     16  O10 ZIN A   1      17.366  -0.816   9.088  0.00  0.00    -0.272 OA
BRANCH  16  17
ATOM     17  C7  ZIN A   1      18.434  -1.800   9.086  0.00  0.00     0.276 C 
ATOM     18  C9  ZIN A   1      19.202  -1.718   7.766  0.00  0.00     0.072 C 
BRANCH  17  19
ATOM     19  O6  ZIN A   1      17.868  -3.129   9.235  0.00  0.00    -0.289 OA
BRANCH  19  20
ATOM     20  C4  ZIN A   1      17.885  -3.664  10.466  0.00  0.00     0.264 C 
ATOM     21  O5  ZIN A   1      17.044  -3.348  11.274  0.00  0.00    -0.265 OA
BRANCH  20  22
ATOM     22  C2  ZIN A   1      18.952  -4.660  10.840  0.00  0.00     0.077 C 
ATOM     23  C1  ZIN A   1      19.482  -5.340   9.576  0.00  0.00     0.020 C 
ATOM     24  C3  ZIN A   1      20.099  -3.936  11.549  0.00  0.00     0.020 C 
ENDBRANCH  20  22
ENDBRANCH  19  20
ENDBRANCH  17  19
ENDBRANCH  16  17
ENDBRANCH   1  16
TORSDOF 9
ENDMDL
MODEL 7
REMARK VINA RESULT:      -6.6      4.456      6.960
REMARK  9 active torsions:
REMARK  status: ('A' for Active; 'I' for Inactive)
REMARK    1  A    between atoms: C2_2  and  C4_4 
REMARK    2  A    between atoms: C4_4  and  O6_6 
REMARK    3  A    between atoms: O6_6  and  C7_7 
REMARK    4  A    between atoms: C7_7  and  O10_9 
REMARK    5  A    between atoms: O10_9  and  C11_10 
REMARK       I    between atoms: C11_10  and  N13_12 
REMARK    6  A    between atoms: N13_12  and  C14_13 
REMARK    7  A    between atoms: C14_13  and  C15_14 
REMARK    8  A    between atoms: C15_14  and  C16_15 
REMARK    9  A    between atoms: C16_15  and  C17_16 
ROOT
ATOM      1  C11 ZIN A   1      18.585   1.723  16.285  0.00  0.00     0.362 C 
ATOM      2  O12 ZIN A   1      19.512   2.005  17.020  0.00  0.00    -0.238 OA
ATOM      3  N13 ZIN A   1      18.202   2.583  15.322  0.00  0.00    -0.336 N 
ATOM      4  H35 ZIN A   1      17.463   2.357  14.736  0.00  0.00     0.164 HD
ENDROOT
BRANCH   3   5
ATOM      5  C14 ZIN A   1      18.902   3.860  15.161  0.00  0.00     0.135 C 
BRANCH   5   6
ATOM      6  C15 ZIN A   1      18.703   4.374  13.733  0.00  0.00    -0.015 C 
ATOM      7  C24 ZIN A   1      17.305   4.981  13.599  0.00  0.00     0.012 C 
ATOM      8  C23 ZIN A   1      17.107   5.494  12.172  0.00  0.00     0.001 C 
ATOM      9  C22 ZIN A   1      17.254   4.333  11.187  0.00  0.00     0.000 C 
ATOM     10  C21 ZIN A   1      18.652   3.726  11.321  0.00  0.00     0.001 C 
ATOM     11  C20 ZIN A   1      18.850   3.212  12.748  0.00  0.00     0.012 C 
BRANCH   6  12
ATOM     12  C16 ZIN A   1      19.755   5.441  13.424  0.00  0.00     0.124 C 
BRANCH  12  13
ATOM     13  C17 ZIN A   1      20.050   6.233  14.672  0.00  0.00     0.173 C 
ATOM     14  O18 ZIN A   1      19.284   7.110  15.032  0.00  0.00    -0.648 OA
ATOM     15  O19 ZIN A   1      21.055   5.995  15.321  0.00  0.00    -0.648 OA
ENDBRANCH  12  13
ENDBRANCH   6  12
ENDBRANCH   5   6
ENDBRANCH   3   5
BRANCH   1  16
ATOM     16  O10 ZIN A   1      17.942   0.549  16.434  0.00  0.00    -0.272 OA
BRANCH  16  17
ATOM     17  C7  ZIN A   1      18.331  -0.533  15.548  0.00  0.00     0.276 C 
ATOM     18  C9  ZIN A   1      19.077  -1.604  16.345  0.00  0.00     0.072 C 
BRANCH  17  19
ATOM     19  O6  ZIN A   1      19.197  -0.016  14.504  0.00  0.00    -0.289 OA
BRANCH  19  20
ATOM     20  C4  ZIN A   1      18.996  -0.478  13.259  0.00  0.00     0.264 C 
ATOM     21  O5  ZIN A   1      19.906  -0.490  12.465  0.00  0.00    -0.265 OA
BRANCH  20  22
ATOM     22  C2  ZIN A   1      17.635  -0.982  12.854  0.00  0.00     0.077 C 
ATOM     23  C1  ZIN A   1      16.884   0.122  12.108  0.00  0.00     0.020 C 
ATOM     24  C3  ZIN A   1      17.794  -2.199  11.939  0.00  0.00     0.020 C 
ENDBRANCH  20  22
ENDBRANCH  19  20
ENDBRANCH  17  19
ENDBRANCH  16  17
ENDBRANCH   1  16
TORSDOF 9
ENDMDL
MODEL 8
REMARK VINA RESULT:      -6.5      1.702      5.711
REMARK  9 active torsions:
REMARK  status: ('A' for Active; 'I' for Inactive)
REMARK    1  A    between atoms: C2_2  and  C4_4 
REMARK    2  A    between atoms: C4_4  and  O6_6 
REMARK    3  A    between atoms: O6_6  and  C7_7 
REMARK    4  A    between atoms: C7_7  and  O10_9 
REMARK    5  A    between atoms: O10_9  and  C11_10 
REMARK       I    between atoms: C11_10  and  N13_12 
REMARK    6  A    between atoms: N13_12  and  C14_13 
REMARK    7  A    between atoms: C14_13  and  C15_14 
REMARK    8  A    between atoms: C15_14  and  C16_15 
REMARK    9  A    between atoms: C16_15  and  C17_16 
ROOT
ATOM      1  C11 ZIN A   1      17.327  -0.897  12.006  0.00  0.00     0.362 C 
ATOM      2  O12 ZIN A   1      16.991  -2.064  11.947  0.00  0.00    -0.238 OA
ATOM      3  N13 ZIN A   1      17.414  -0.163  10.880  0.00  0.00    -0.336 N 
ATOM      4  H35 ZIN A   1      17.681   0.768  10.927  0.00  0.00     0.164 HD
ENDROOT
BRANCH   3   5
ATOM      5  C14 ZIN A   1      17.104  -0.771   9.583  0.00  0.00     0.135 C 
BRANCH   5   6
ATOM      6  C15 ZIN A   1      18.087  -0.255   8.530  0.00  0.00    -0.015 C 
ATOM      7  C24 ZIN A   1      18.567   1.145   8.922  0.00  0.00     0.012 C 
ATOM      8  C23 ZIN A   1      19.549   1.660   7.869  0.00  0.00     0.001 C 
ATOM      9  C22 ZIN A   1      18.853   1.722   6.508  0.00  0.00     0.000 C 
ATOM     10  C21 ZIN A   1      18.374   0.323   6.117  0.00  0.00     0.001 C 
ATOM     11  C20 ZIN A   1      17.391  -0.193   7.169  0.00  0.00     0.012 C 
BRANCH   6  12
ATOM     12  C16 ZIN A   1      19.287  -1.200   8.446  0.00  0.00     0.124 C 
BRANCH  12  13
ATOM     13  C17 ZIN A   1      18.810  -2.627   8.529  0.00  0.00     0.173 C 
ATOM     14  O18 ZIN A   1      18.272  -3.146   7.566  0.00  0.00    -0.648 OA
ATOM     15  O19 ZIN A   1      18.963  -3.263   9.558  0.00  0.00    -0.648 OA
ENDBRANCH  12  13
ENDBRANCH   6  12
ENDBRANCH   5   6
ENDBRANCH   3   5
BRANCH   1  16
ATOM     16  O10 ZIN A   1      17.612  -0.339  13.198  0.00  0.00    -0.272 OA
BRANCH  16  17
ATOM     17  C7  ZIN A   1      18.544   0.775  13.198  0.00  0.00     0.276 C 
ATOM     18  C9  ZIN A   1      19.550   0.598  14.338  0.00  0.00     0.072 C 
BRANCH  17  19
ATOM     19  O6  ZIN A   1      17.815   2.016  13.385  0.00  0.00    -0.289 OA
BRANCH  19  20
ATOM     20  C4  ZIN A   1      17.821   2.886  12.363  0.00  0.00     0.264 C 
ATOM     21  O5  ZIN A   1      17.025   2.765  11.461  0.00  0.00    -0.265 OA
BRANCH  20  22
ATOM     22  C2  ZIN A   1      18.820   4.014  12.339  0.00  0.00     0.077 C 
ATOM     23  C1  ZIN A   1      19.174   4.412  13.773  0.00  0.00     0.020 C 
ATOM     24  C3  ZIN A   1      20.085   3.559  11.608  0.00  0.00     0.020 C 
ENDBRANCH  20  22
ENDBRANCH  19  20
ENDBRANCH  17  19
ENDBRANCH  16  17
ENDBRANCH   1  16
TORSDOF 9
ENDMDL
MODEL 9
REMARK VINA RESULT:      -6.5      2.440      5.268
REMARK  9 active torsions:
REMARK  status: ('A' for Active; 'I' for Inactive)
REMARK    1  A    between atoms: C2_2  and  C4_4 
REMARK    2  A    between atoms: C4_4  and  O6_6 
REMARK    3  A    between atoms: O6_6  and  C7_7 
REMARK    4  A    between atoms: C7_7  and  O10_9 
REMARK    5  A    between atoms: O10_9  and  C11_10 
REMARK       I    between atoms: C11_10  and  N13_12 
REMARK    6  A    between atoms: N13_12  and  C14_13 
REMARK    7  A    between atoms: C14_13  and  C15_14 
REMARK    8  A    between atoms: C15_14  and  C16_15 
REMARK    9  A    between atoms: C16_15  and  C17_16 
ROOT
ATOM      1  C11 ZIN A   1      18.909  -3.237   6.162  0.00  0.00     0.362 C 
ATOM      2  O12 ZIN A   1      19.032  -4.300   5.586  0.00  0.00    -0.238 OA
ATOM      3  N13 ZIN A   1      18.244  -3.178   7.332  0.00  0.00    -0.336 N 
ATOM      4  H35 ZIN A   1      18.146  -2.329   7.792  0.00  0.00     0.164 HD
ENDROOT
BRANCH   3   5
ATOM      5  C14 ZIN A   1      17.667  -4.395   7.909  0.00  0.00     0.135 C 
BRANCH   5   6
ATOM      6  C15 ZIN A   1      18.068  -4.501   9.382  0.00  0.00    -0.015 C 
ATOM      7  C24 ZIN A   1      16.820  -4.387  10.260  0.00  0.00     0.012 C 
ATOM      8  C23 ZIN A   1      17.222  -4.493  11.733  0.00  0.00     0.001 C 
ATOM      9  C22 ZIN A   1      18.194  -3.364  12.079  0.00  0.00     0.000 C 
ATOM     10  C21 ZIN A   1      19.442  -3.478  11.201  0.00  0.00     0.001 C 
ATOM     11  C20 ZIN A   1      19.040  -3.372   9.728  0.00  0.00     0.012 C 
BRANCH   6  12
ATOM     12  C16 ZIN A   1      18.745  -5.850   9.630  0.00  0.00     0.124 C 
BRANCH  12  13
ATOM     13  C17 ZIN A   1      19.418  -6.316   8.364  0.00  0.00     0.173 C 
ATOM     14  O18 ZIN A   1      18.820  -7.042   7.588  0.00  0.00    -0.648 OA
ATOM     15  O19 ZIN A   1      20.559  -5.966   8.116  0.00  0.00    -0.648 OA
ENDBRANCH  12  13
ENDBRANCH   6  12
ENDBRANCH   5   6
ENDBRANCH   3   5
BRANCH   1  16
ATOM     16  O10 ZIN A   1      19.439  -2.119   5.632  0.00  0.00    -0.272 OA
BRANCH  16  17
ATOM     17  C7  ZIN A   1      18.834  -0.856   6.015  0.00  0.00     0.276 C 
ATOM     18  C9  ZIN A   1      19.263   0.235   5.032  0.00  0.00     0.072 C 
BRANCH  17  19
ATOM     19  O6  ZIN A   1      19.268  -0.498   7.354  0.00  0.00    -0.289 OA
BRANCH  19  20
ATOM     20  C4  ZIN A   1      18.340   0.014   8.178  0.00  0.00     0.264 C 
ATOM     21  O5  ZIN A   1      17.176  -0.276   8.033  0.00  0.00    -0.265 OA
BRANCH  20  22
ATOM     22  C2  ZIN A   1      18.751   0.951   9.284  0.00  0.00     0.077 C 
ATOM     23  C1  ZIN A   1      19.044   2.334   8.699  0.00  0.00     0.020 C 
ATOM     24  C3  ZIN A   1      17.617   1.060  10.307  0.00  0.00     0.020 C 
ENDBRANCH  20  22
ENDBRANCH  19  20
ENDBRANCH  17  19
ENDBRANCH  16  17
ENDBRANCH   1  16
TORSDOF 9
ENDMDL
