MODEL 1
REMARK VINA RESULT:     -10.4      0.000      0.000
REMARK  5 active torsions:
REMARK  status: ('A' for Active; 'I' for Inactive)
REMARK    1  A    between atoms: N16_12  and  C17_13 
REMARK    2  A    between atoms: C17_13  and  C18_14 
REMARK    3  A    between atoms: C24_19  and  C26_20 
REMARK    4  A    between atoms: C26_20  and  N27_21 
REMARK    5  A    between atoms: N31_25  and  C32_26 
ROOT
ATOM      1  C18 RES d   1      18.490   0.452  10.853  0.00  0.00     0.010 C 
ATOM      2  C20 RES d   1      17.942   1.766  10.293  0.00  0.00     0.007 C 
ATOM      3  C21 RES d   1      18.889   2.295   9.215  0.00  0.00     0.000 C 
ATOM      4  C22 RES d   1      19.004   1.267   8.087  0.00  0.00     0.000 C 
ATOM      5  C23 RES d   1      19.552  -0.047   8.648  0.00  0.00     0.007 C 
ATOM      6  C24 RES d   1      18.603  -0.576   9.727  0.00  0.00     0.017 C 
ENDROOT
BRANCH   6   7
ATOM      7  C26 RES d   1      19.151  -1.889  10.288  0.00  0.00     0.240 C 
BRANCH   7   8
ATOM      8  N27 RES d   1      19.308  -2.860   9.196  0.00  0.00    -0.068 N 
ATOM      9  H28 RES d   1      20.171  -2.678   8.707  0.00  0.00     0.280 HD
ATOM     10  C42 RES d   1      19.342  -4.219   9.754  0.00  0.00     0.254 C 
ATOM     11  C41 RES d   1      19.621  -5.223   8.631  0.00  0.00     0.152 C 
ATOM     12  N31 RES d   1      18.619  -5.028   7.571  0.00  0.00    -0.361 N 
ATOM     13  C30 RES d   1      18.401  -3.663   7.067  0.00  0.00     0.152 C 
ATOM     14  C29 RES d   1      18.181  -2.732   8.264  0.00  0.00     0.254 C 
BRANCH  12  15
ATOM     15  C32 RES d   1      17.896  -6.106   7.060  0.00  0.00     0.145 A 
ATOM     16  C40 RES d   1      16.513  -6.338   7.447  0.00  0.00     0.029 A 
ATOM     17  C35 RES d   1      15.982  -7.475   6.809  0.00  0.00     0.037 A 
ATOM     18  C39 RES d   1      15.669  -5.610   8.310  0.00  0.00     0.017 A 
ATOM     19  S34 RES d   1      17.292  -8.118   5.814  0.00  0.00     0.014 SA
ATOM     20  C36 RES d   1      14.672  -7.873   7.035  0.00  0.00     0.021 A 
ATOM     21  N33 RES d   1      18.435  -6.939   6.232  0.00  0.00    -0.192 NA
ATOM     22  C37 RES d   1      13.876  -7.143   7.889  0.00  0.00     0.001 A 
ATOM     23  C38 RES d   1      14.386  -6.015   8.521  0.00  0.00     0.001 A 
ENDBRANCH  12  15
ENDBRANCH   7   8
ENDBRANCH   6   7
BRANCH   1  24
ATOM     24  C17 RES d   1      17.541  -0.077  11.932  0.00  0.00     0.140 C 
BRANCH  24  25
ATOM     25  N16 RES d   1      18.217  -0.054  13.231  0.00  0.00    -0.287 N 
ATOM     26  C2  RES d   1      18.708  -1.161  13.799  0.00  0.00     0.231 A 
ATOM     27  O1  RES d   1      18.666  -2.273  13.317  0.00  0.00    -0.272 OA
ATOM     28  C3  RES d   1      19.331  -0.809  15.131  0.00  0.00     0.096 A 
ATOM     29  C12 RES d   1      19.105   0.727  15.238  0.00  0.00     0.096 A 
ATOM     30  C5  RES d   1      18.457  -1.429  16.262  0.00  0.00    -0.000 C 
ATOM     31  C9  RES d   1      18.117   0.872  16.457  0.00  0.00    -0.000 C 
ATOM     32  C14 RES d   1      18.363   1.098  13.974  0.00  0.00     0.231 A 
ATOM     33  C8  RES d   1      18.961   0.490  17.711  0.00  0.00     0.006 C 
ATOM     34  C11 RES d   1      17.241  -0.438  16.269  0.00  0.00     0.011 C 
ATOM     35  C7  RES d   1      19.185  -1.033  17.582  0.00  0.00     0.006 C 
ATOM     36  O15 RES d   1      17.995   2.215  13.681  0.00  0.00    -0.272 OA
ENDBRANCH  24  25
ENDBRANCH   1  24
TORSDOF 5
ENDMDL
MODEL 2
REMARK VINA RESULT:     -10.4      3.321      6.266
REMARK  5 active torsions:
REMARK  status: ('A' for Active; 'I' for Inactive)
REMARK    1  A    between atoms: N16_12  and  C17_13 
REMARK    2  A    between atoms: C17_13  and  C18_14 
REMARK    3  A    between atoms: C24_19  and  C26_20 
REMARK    4  A    between atoms: C26_20  and  N27_21 
REMARK    5  A    between atoms: N31_25  and  C32_26 
ROOT
ATOM      1  C18 RES d   1      18.538   1.196  15.608  0.00  0.00     0.010 C 
ATOM      2  C20 RES d   1      18.875   0.755  17.033  0.00  0.00     0.007 C 
ATOM      3  C21 RES d   1      18.097  -0.518  17.370  0.00  0.00     0.000 C 
ATOM      4  C22 RES d   1      18.483  -1.627  16.389  0.00  0.00     0.000 C 
ATOM      5  C23 RES d   1      18.145  -1.186  14.962  0.00  0.00     0.007 C 
ATOM      6  C24 RES d   1      18.924   0.089  14.626  0.00  0.00     0.017 C 
ENDROOT
BRANCH   6   7
ATOM      7  C26 RES d   1      18.587   0.530  13.200  0.00  0.00     0.240 C 
BRANCH   7   8
ATOM      8  N27 RES d   1      18.640  -0.632  12.303  0.00  0.00    -0.068 N 
ATOM      9  H28 RES d   1      18.529  -1.477  12.842  0.00  0.00     0.280 HD
ATOM     10  C42 RES d   1      17.554  -0.537  11.318  0.00  0.00     0.254 C 
ATOM     11  C41 RES d   1      17.536  -1.803  10.456  0.00  0.00     0.152 C 
ATOM     12  N31 RES d   1      18.873  -1.985   9.868  0.00  0.00    -0.361 N 
ATOM     13  C30 RES d   1      20.037  -1.929  10.765  0.00  0.00     0.152 C 
ATOM     14  C29 RES d   1      19.936  -0.658  11.614  0.00  0.00     0.254 C 
BRANCH  12  15
ATOM     15  C32 RES d   1      19.030  -2.204   8.499  0.00  0.00     0.145 A 
ATOM     16  C40 RES d   1      19.039  -1.098   7.555  0.00  0.00     0.029 A 
ATOM     17  C35 RES d   1      19.215  -1.549   6.233  0.00  0.00     0.037 A 
ATOM     18  C39 RES d   1      18.922   0.290   7.769  0.00  0.00     0.017 A 
ATOM     19  S34 RES d   1      19.333  -3.307   6.342  0.00  0.00     0.014 SA
ATOM     20  C36 RES d   1      19.258  -0.653   5.174  0.00  0.00     0.021 A 
ATOM     21  N33 RES d   1      19.166  -3.398   8.025  0.00  0.00    -0.192 NA
ATOM     22  C37 RES d   1      19.135   0.696   5.417  0.00  0.00     0.001 A 
ATOM     23  C38 RES d   1      18.967   1.155   6.718  0.00  0.00     0.001 A 
ENDBRANCH  12  15
ENDBRANCH   7   8
ENDBRANCH   6   7
BRANCH   1  24
ATOM     24  C17 RES d   1      19.317   2.470  15.271  0.00  0.00     0.140 C 
BRANCH  24  25
ATOM     25  N16 RES d   1      18.443   3.634  15.437  0.00  0.00    -0.287 N 
ATOM     26  C2  RES d   1      17.716   4.129  14.429  0.00  0.00     0.231 A 
ATOM     27  O1  RES d   1      17.683   3.681  13.303  0.00  0.00    -0.272 OA
ATOM     28  C3  RES d   1      16.934   5.329  14.914  0.00  0.00     0.096 A 
ATOM     29  C12 RES d   1      17.350   5.446  16.409  0.00  0.00     0.096 A 
ATOM     30  C5  RES d   1      17.513   6.603  14.229  0.00  0.00    -0.000 C 
ATOM     31  C9  RES d   1      18.132   6.814  16.470  0.00  0.00    -0.000 C 
ATOM     32  C14 RES d   1      18.337   4.321  16.626  0.00  0.00     0.231 A 
ATOM     33  C8  RES d   1      17.046   7.912  16.255  0.00  0.00     0.006 C 
ATOM     34  C11 RES d   1      18.837   6.801  15.048  0.00  0.00     0.011 C 
ATOM     35  C7  RES d   1      16.637   7.773  14.772  0.00  0.00     0.006 C 
ATOM     36  O15 RES d   1      18.900   4.076  17.671  0.00  0.00    -0.272 OA
ENDBRANCH  24  25
ENDBRANCH   1  24
TORSDOF 5
ENDMDL
MODEL 3
REMARK VINA RESULT:     -10.3      3.354      9.299
REMARK  5 active torsions:
REMARK  status: ('A' for Active; 'I' for Inactive)
REMARK    1  A    between atoms: N16_12  and  C17_13 
REMARK    2  A    between atoms: C17_13  and  C18_14 
REMARK    3  A    between atoms: C24_19  and  C26_20 
REMARK    4  A    between atoms: C26_20  and  N27_21 
REMARK    5  A    between atoms: N31_25  and  C32_26 
ROOT
ATOM      1  C18 RES d   1      18.478  -2.500   7.980  0.00  0.00     0.010 C 
ATOM      2  C20 RES d   1      19.025  -2.357   6.558  0.00  0.00     0.007 C 
ATOM      3  C21 RES d   1      18.252  -1.262   5.822  0.00  0.00     0.000 C 
ATOM      4  C22 RES d   1      18.413   0.065   6.566  0.00  0.00     0.000 C 
ATOM      5  C23 RES d   1      17.866  -0.077   7.988  0.00  0.00     0.007 C 
ATOM      6  C24 RES d   1      18.640  -1.174   8.725  0.00  0.00     0.017 C 
ENDROOT
BRANCH   6   7
ATOM      7  C26 RES d   1      18.094  -1.316  10.146  0.00  0.00     0.240 C 
BRANCH   7   8
ATOM      8  N27 RES d   1      18.329  -0.070  10.889  0.00  0.00    -0.068 N 
ATOM      9  H28 RES d   1      18.359   0.704  10.243  0.00  0.00     0.280 HD
ATOM     10  C42 RES d   1      17.237   0.138  11.849  0.00  0.00     0.254 C 
ATOM     11  C41 RES d   1      17.420   1.492  12.541  0.00  0.00     0.152 C 
ATOM     12  N31 RES d   1      18.766   1.534  13.135  0.00  0.00    -0.361 N 
ATOM     13  C30 RES d   1      19.910   1.176  12.283  0.00  0.00     0.152 C 
ATOM     14  C29 RES d   1      19.609  -0.162  11.601  0.00  0.00     0.254 C 
BRANCH  12  15
ATOM     15  C32 RES d   1      18.950   1.902  14.468  0.00  0.00     0.145 A 
ATOM     16  C40 RES d   1      18.992   0.905  15.526  0.00  0.00     0.029 A 
ATOM     17  C35 RES d   1      19.191   1.499  16.787  0.00  0.00     0.037 A 
ATOM     18  C39 RES d   1      18.887  -0.499  15.467  0.00  0.00     0.017 A 
ATOM     19  S34 RES d   1      19.286   3.236  16.486  0.00  0.00     0.014 SA
ATOM     20  C36 RES d   1      19.268   0.724  17.936  0.00  0.00     0.021 A 
ATOM     21  N33 RES d   1      19.082   3.142  14.807  0.00  0.00    -0.192 NA
ATOM     22  C37 RES d   1      19.154  -0.645  17.843  0.00  0.00     0.001 A 
ATOM     23  C38 RES d   1      18.964  -1.244  16.604  0.00  0.00     0.001 A 
ENDBRANCH  12  15
ENDBRANCH   7   8
ENDBRANCH   6   7
BRANCH   1  24
ATOM     24  C17 RES d   1      19.253  -3.595   8.716  0.00  0.00     0.140 C 
BRANCH  24  25
ATOM     25  N16 RES d   1      18.553  -4.874   8.565  0.00  0.00    -0.287 N 
ATOM     26  C2  RES d   1      18.994  -5.836   7.747  0.00  0.00     0.231 A 
ATOM     27  O1  RES d   1      19.996  -5.772   7.068  0.00  0.00    -0.272 OA
ATOM     28  C3  RES d   1      18.053  -7.018   7.806  0.00  0.00     0.096 A 
ATOM     29  C12 RES d   1      16.966  -6.559   8.820  0.00  0.00     0.096 A 
ATOM     30  C5  RES d   1      17.315  -7.128   6.439  0.00  0.00    -0.000 C 
ATOM     31  C9  RES d   1      15.660  -6.459   7.944  0.00  0.00    -0.000 C 
ATOM     32  C14 RES d   1      17.378  -5.161   9.224  0.00  0.00     0.231 A 
ATOM     33  C8  RES d   1      15.297  -7.934   7.587  0.00  0.00     0.006 C 
ATOM     34  C11 RES d   1      16.278  -5.957   6.571  0.00  0.00     0.011 C 
ATOM     35  C7  RES d   1      16.392  -8.375   6.591  0.00  0.00     0.006 C 
ATOM     36  O15 RES d   1      16.779  -4.453  10.005  0.00  0.00    -0.272 OA
ENDBRANCH  24  25
ENDBRANCH   1  24
TORSDOF 5
ENDMDL
MODEL 4
REMARK VINA RESULT:     -10.1      5.325     10.919
REMARK  5 active torsions:
REMARK  status: ('A' for Active; 'I' for Inactive)
REMARK    1  A    between atoms: N16_12  and  C17_13 
REMARK    2  A    between atoms: C17_13  and  C18_14 
REMARK    3  A    between atoms: C24_19  and  C26_20 
REMARK    4  A    between atoms: C26_20  and  N27_21 
REMARK    5  A    between atoms: N31_25  and  C32_26 
ROOT
ATOM      1  C18 RES d   1      18.685  -0.157  11.966  0.00  0.00     0.010 C 
ATOM      2  C20 RES d   1      18.240  -1.489  12.571  0.00  0.00     0.007 C 
ATOM      3  C21 RES d   1      19.209  -1.891  13.685  0.00  0.00     0.000 C 
ATOM      4  C22 RES d   1      19.213  -0.814  14.771  0.00  0.00     0.000 C 
ATOM      5  C23 RES d   1      19.659   0.519  14.166  0.00  0.00     0.007 C 
ATOM      6  C24 RES d   1      18.689   0.921  13.051  0.00  0.00     0.017 C 
ENDROOT
BRANCH   6   7
ATOM      7  C26 RES d   1      19.134   2.254  12.445  0.00  0.00     0.240 C 
BRANCH   7   8
ATOM      8  N27 RES d   1      19.273   3.255  13.512  0.00  0.00    -0.068 N 
ATOM      9  H28 RES d   1      20.099   3.052  14.055  0.00  0.00     0.280 HD
ATOM     10  C42 RES d   1      19.399   4.590  12.913  0.00  0.00     0.254 C 
ATOM     11  C41 RES d   1      19.661   5.620  14.018  0.00  0.00     0.152 C 
ATOM     12  N31 RES d   1      18.593   5.505  15.024  0.00  0.00    -0.361 N 
ATOM     13  C30 RES d   1      18.287   4.169  15.558  0.00  0.00     0.152 C 
ATOM     14  C29 RES d   1      18.092   3.207  14.382  0.00  0.00     0.254 C 
BRANCH  12  15
ATOM     15  C32 RES d   1      17.892   6.631  15.458  0.00  0.00     0.145 A 
ATOM     16  C40 RES d   1      16.453   6.738  15.278  0.00  0.00     0.029 A 
ATOM     17  C35 RES d   1      15.958   7.951  15.793  0.00  0.00     0.037 A 
ATOM     18  C39 RES d   1      15.531   5.837  14.709  0.00  0.00     0.017 A 
ATOM     19  S34 RES d   1      17.365   8.810  16.425  0.00  0.00     0.014 SA
ATOM     20  C36 RES d   1      14.605   8.254  15.728  0.00  0.00     0.021 A 
ATOM     21  N33 RES d   1      18.501   7.618  16.027  0.00  0.00    -0.192 NA
ATOM     22  C37 RES d   1      13.732   7.353  15.160  0.00  0.00     0.001 A 
ATOM     23  C38 RES d   1      14.207   6.149  14.653  0.00  0.00     0.001 A 
ENDBRANCH  12  15
ENDBRANCH   7   8
ENDBRANCH   6   7
BRANCH   1  24
ATOM     24  C17 RES d   1      17.716   0.246  10.852  0.00  0.00     0.140 C 
BRANCH  24  25
ATOM     25  N16 RES d   1      18.354   0.035   9.550  0.00  0.00    -0.287 N 
ATOM     26  C2  RES d   1      18.857   1.044   8.830  0.00  0.00     0.231 A 
ATOM     27  O1  RES d   1      18.858   2.210   9.164  0.00  0.00    -0.272 OA
ATOM     28  C3  RES d   1      19.432   0.505   7.540  0.00  0.00     0.096 A 
ATOM     29  C12 RES d   1      19.163  -1.025   7.640  0.00  0.00     0.096 A 
ATOM     30  C5  RES d   1      18.543   0.999   6.361  0.00  0.00    -0.000 C 
ATOM     31  C9  RES d   1      18.137  -1.297   6.475  0.00  0.00    -0.000 C 
ATOM     32  C14 RES d   1      18.448  -1.207   8.960  0.00  0.00     0.231 A 
ATOM     33  C8  RES d   1      18.954  -1.106   5.161  0.00  0.00     0.006 C 
ATOM     34  C11 RES d   1      17.301   0.051   6.513  0.00  0.00     0.011 C 
ATOM     35  C7  RES d   1      19.222   0.414   5.085  0.00  0.00     0.006 C 
ATOM     36  O15 RES d   1      18.059  -2.265   9.405  0.00  0.00    -0.272 OA
ENDBRANCH  24  25
ENDBRANCH   1  24
TORSDOF 5
ENDMDL
MODEL 5
REMARK VINA RESULT:     -10.1      1.231      1.723
REMARK  5 active torsions:
REMARK  status: ('A' for Active; 'I' for Inactive)
REMARK    1  A    between atoms: N16_12  and  C17_13 
REMARK    2  A    between atoms: C17_13  and  C18_14 
REMARK    3  A    between atoms: C24_19  and  C26_20 
REMARK    4  A    between atoms: C26_20  and  N27_21 
REMARK    5  A    between atoms: N31_25  and  C32_26 
ROOT
ATOM      1  C18 RES d   1      18.510   0.939  11.079  0.00  0.00     0.010 C 
ATOM      2  C20 RES d   1      17.711   2.156  10.609  0.00  0.00     0.007 C 
ATOM      3  C21 RES d   1      18.559   2.978   9.636  0.00  0.00     0.000 C 
ATOM      4  C22 RES d   1      18.933   2.115   8.429  0.00  0.00     0.000 C 
ATOM      5  C23 RES d   1      19.732   0.897   8.900  0.00  0.00     0.007 C 
ATOM      6  C24 RES d   1      18.883   0.076   9.874  0.00  0.00     0.017 C 
ENDROOT
BRANCH   6   7
ATOM      7  C26 RES d   1      19.682  -1.141  10.344  0.00  0.00     0.240 C 
BRANCH   7   8
ATOM      8  N27 RES d   1      19.455  -2.263   9.423  0.00  0.00    -0.068 N 
ATOM      9  H28 RES d   1      20.287  -2.420   8.875  0.00  0.00     0.280 HD
ATOM     10  C42 RES d   1      19.144  -3.473  10.196  0.00  0.00     0.254 C 
ATOM     11  C41 RES d   1      19.021  -4.667   9.244  0.00  0.00     0.152 C 
ATOM     12  N31 RES d   1      18.029  -4.337   8.208  0.00  0.00    -0.361 N 
ATOM     13  C30 RES d   1      18.171  -3.058   7.495  0.00  0.00     0.152 C 
ATOM     14  C29 RES d   1      18.335  -1.940   8.530  0.00  0.00     0.254 C 
BRANCH  12  15
ATOM     15  C32 RES d   1      16.983  -5.213   7.913  0.00  0.00     0.145 A 
ATOM     16  C40 RES d   1      16.975  -5.989   6.683  0.00  0.00     0.029 A 
ATOM     17  C35 RES d   1      15.832  -6.805   6.595  0.00  0.00     0.037 A 
ATOM     18  C39 RES d   1      17.913  -6.050   5.632  0.00  0.00     0.017 A 
ATOM     19  S34 RES d   1      14.904  -6.484   8.062  0.00  0.00     0.014 SA
ATOM     20  C36 RES d   1      15.629  -7.634   5.500  0.00  0.00     0.021 A 
ATOM     21  N33 RES d   1      15.984  -5.356   8.719  0.00  0.00    -0.192 NA
ATOM     22  C37 RES d   1      16.561  -7.664   4.487  0.00  0.00     0.001 A 
ATOM     23  C38 RES d   1      17.698  -6.868   4.565  0.00  0.00     0.001 A 
ENDBRANCH  12  15
ENDBRANCH   7   8
ENDBRANCH   6   7
BRANCH   1  24
ATOM     24  C17 RES d   1      17.661   0.117  12.052  0.00  0.00     0.140 C 
BRANCH  24  25
ATOM     25  N16 RES d   1      18.303   0.103  13.369  0.00  0.00    -0.287 N 
ATOM     26  C2  RES d   1      18.824  -1.010  13.896  0.00  0.00     0.231 A 
ATOM     27  O1  RES d   1      18.839  -2.098  13.361  0.00  0.00    -0.272 OA
ATOM     28  C3  RES d   1      19.399  -0.701  15.260  0.00  0.00     0.096 A 
ATOM     29  C12 RES d   1      19.108   0.818  15.434  0.00  0.00     0.096 A 
ATOM     30  C5  RES d   1      18.522  -1.409  16.335  0.00  0.00    -0.000 C 
ATOM     31  C9  RES d   1      18.085   0.865  16.631  0.00  0.00    -0.000 C 
ATOM     32  C14 RES d   1      18.383   1.222  14.169  0.00  0.00     0.231 A 
ATOM     33  C8  RES d   1      18.912   0.455  17.888  0.00  0.00     0.006 C 
ATOM     34  C11 RES d   1      17.267  -0.467  16.357  0.00  0.00     0.011 C 
ATOM     35  C7  RES d   1      19.201  -1.050  17.693  0.00  0.00     0.006 C 
ATOM     36  O15 RES d   1      17.978   2.336  13.920  0.00  0.00    -0.272 OA
ENDBRANCH  24  25
ENDBRANCH   1  24
TORSDOF 5
ENDMDL
MODEL 6
REMARK VINA RESULT:     -10.0      3.901      9.182
REMARK  5 active torsions:
REMARK  status: ('A' for Active; 'I' for Inactive)
REMARK    1  A    between atoms: N16_12  and  C17_13 
REMARK    2  A    between atoms: C17_13  and  C18_14 
REMARK    3  A    between atoms: C24_19  and  C26_20 
REMARK    4  A    between atoms: C26_20  and  N27_21 
REMARK    5  A    between atoms: N31_25  and  C32_26 
ROOT
ATOM      1  C18 RES d   1      17.757  -3.654  10.126  0.00  0.00     0.010 C 
ATOM      2  C20 RES d   1      16.632  -4.681  10.270  0.00  0.00     0.007 C 
ATOM      3  C21 RES d   1      17.213  -6.010  10.756  0.00  0.00     0.000 C 
ATOM      4  C22 RES d   1      17.892  -5.804  12.112  0.00  0.00     0.000 C 
ATOM      5  C23 RES d   1      19.018  -4.777  11.968  0.00  0.00     0.007 C 
ATOM      6  C24 RES d   1      18.436  -3.448  11.481  0.00  0.00     0.017 C 
ENDROOT
BRANCH   6   7
ATOM      7  C26 RES d   1      19.561  -2.421  11.336  0.00  0.00     0.240 C 
BRANCH   7   8
ATOM      8  N27 RES d   1      19.500  -1.467  12.452  0.00  0.00    -0.068 N 
ATOM      9  H28 RES d   1      19.911  -1.885  13.273  0.00  0.00     0.280 HD
ATOM     10  C42 RES d   1      20.247  -0.253  12.097  0.00  0.00     0.254 C 
ATOM     11  C41 RES d   1      20.282   0.693  13.301  0.00  0.00     0.152 C 
ATOM     12  N31 RES d   1      18.899   0.939  13.741  0.00  0.00    -0.361 N 
ATOM     13  C30 RES d   1      18.025  -0.224  13.962  0.00  0.00     0.152 C 
ATOM     14  C29 RES d   1      18.098  -1.128  12.727  0.00  0.00     0.254 C 
BRANCH  12  15
ATOM     15  C32 RES d   1      18.431   2.238  13.941  0.00  0.00     0.145 A 
ATOM     16  C40 RES d   1      17.986   3.060  12.827  0.00  0.00     0.029 A 
ATOM     17  C35 RES d   1      17.553   4.327  13.260  0.00  0.00     0.037 A 
ATOM     18  C39 RES d   1      17.914   2.773  11.449  0.00  0.00     0.017 A 
ATOM     19  S34 RES d   1      17.772   4.331  15.012  0.00  0.00     0.014 SA
ATOM     20  C36 RES d   1      17.082   5.268  12.355  0.00  0.00     0.021 A 
ATOM     21  N33 RES d   1      18.384   2.756  15.124  0.00  0.00    -0.192 NA
ATOM     22  C37 RES d   1      17.031   4.958  11.015  0.00  0.00     0.001 A 
ATOM     23  C38 RES d   1      17.450   3.708  10.574  0.00  0.00     0.001 A 
ENDBRANCH  12  15
ENDBRANCH   7   8
ENDBRANCH   6   7
BRANCH   1  24
ATOM     24  C17 RES d   1      17.175  -2.325   9.640  0.00  0.00     0.140 C 
BRANCH  24  25
ATOM     25  N16 RES d   1      17.985  -1.813   8.532  0.00  0.00    -0.287 N 
ATOM     26  C2  RES d   1      18.397  -0.541   8.477  0.00  0.00     0.231 A 
ATOM     27  O1  RES d   1      18.167   0.305   9.314  0.00  0.00    -0.272 OA
ATOM     28  C3  RES d   1      19.198  -0.325   7.214  0.00  0.00     0.096 A 
ATOM     29  C12 RES d   1      19.174  -1.723   6.531  0.00  0.00     0.096 A 
ATOM     30  C5  RES d   1      18.382   0.604   6.267  0.00  0.00    -0.000 C 
ATOM     31  C9  RES d   1      18.348  -1.477   5.211  0.00  0.00    -0.000 C 
ATOM     32  C14 RES d   1      18.350  -2.592   7.455  0.00  0.00     0.231 A 
ATOM     33  C8  RES d   1      19.270  -0.595   4.315  0.00  0.00     0.006 C 
ATOM     34  C11 RES d   1      17.304  -0.400   5.727  0.00  0.00     0.011 C 
ATOM     35  C7  RES d   1      19.292   0.783   5.013  0.00  0.00     0.006 C 
ATOM     36  O15 RES d   1      18.091  -3.761   7.271  0.00  0.00    -0.272 OA
ENDBRANCH  24  25
ENDBRANCH   1  24
TORSDOF 5
ENDMDL
MODEL 7
REMARK VINA RESULT:      -9.6      3.784      9.363
REMARK  5 active torsions:
REMARK  status: ('A' for Active; 'I' for Inactive)
REMARK    1  A    between atoms: N16_12  and  C17_13 
REMARK    2  A    between atoms: C17_13  and  C18_14 
REMARK    3  A    between atoms: C24_19  and  C26_20 
REMARK    4  A    between atoms: C26_20  and  N27_21 
REMARK    5  A    between atoms: N31_25  and  C32_26 
ROOT
ATOM      1  C18 RES d   1      17.752  -3.620  10.062  0.00  0.00     0.010 C 
ATOM      2  C20 RES d   1      16.643  -4.657  10.250  0.00  0.00     0.007 C 
ATOM      3  C21 RES d   1      17.255  -5.979  10.718  0.00  0.00     0.000 C 
ATOM      4  C22 RES d   1      17.982  -5.762  12.046  0.00  0.00     0.000 C 
ATOM      5  C23 RES d   1      19.092  -4.725  11.858  0.00  0.00     0.007 C 
ATOM      6  C24 RES d   1      18.479  -3.403  11.389  0.00  0.00     0.017 C 
ENDROOT
BRANCH   6   7
ATOM      7  C26 RES d   1      19.588  -2.366  11.201  0.00  0.00     0.240 C 
BRANCH   7   8
ATOM      8  N27 RES d   1      19.114  -1.053  11.661  0.00  0.00    -0.068 N 
ATOM      9  H28 RES d   1      18.641  -0.584  10.904  0.00  0.00     0.280 HD
ATOM     10  C42 RES d   1      18.182  -1.236  12.780  0.00  0.00     0.254 C 
ATOM     11  C41 RES d   1      17.599   0.122  13.184  0.00  0.00     0.152 C 
ATOM     12  N31 RES d   1      18.713   1.041  13.467  0.00  0.00    -0.361 N 
ATOM     13  C30 RES d   1      19.784   1.161  12.465  0.00  0.00     0.152 C 
ATOM     14  C29 RES d   1      20.262  -0.246  12.094  0.00  0.00     0.254 C 
BRANCH  12  15
ATOM     15  C32 RES d   1      18.753   1.777  14.652  0.00  0.00     0.145 A 
ATOM     16  C40 RES d   1      18.823   1.117  15.947  0.00  0.00     0.029 A 
ATOM     17  C35 RES d   1      18.857   2.050  17.000  0.00  0.00     0.037 A 
ATOM     18  C39 RES d   1      18.877  -0.252  16.276  0.00  0.00     0.017 A 
ATOM     19  S34 RES d   1      18.784   3.639  16.232  0.00  0.00     0.014 SA
ATOM     20  C36 RES d   1      18.929   1.632  18.322  0.00  0.00     0.021 A 
ATOM     21  N33 RES d   1      18.721   3.068  14.638  0.00  0.00    -0.192 NA
ATOM     22  C37 RES d   1      18.975   0.286  18.608  0.00  0.00     0.001 A 
ATOM     23  C38 RES d   1      18.948  -0.645  17.577  0.00  0.00     0.001 A 
ENDBRANCH  12  15
ENDBRANCH   7   8
ENDBRANCH   6   7
BRANCH   1  24
ATOM     24  C17 RES d   1      17.139  -2.298   9.594  0.00  0.00     0.140 C 
BRANCH  24  25
ATOM     25  N16 RES d   1      17.957  -1.734   8.517  0.00  0.00    -0.287 N 
ATOM     26  C2  RES d   1      18.323  -0.448   8.498  0.00  0.00     0.231 A 
ATOM     27  O1  RES d   1      18.042   0.373   9.345  0.00  0.00    -0.272 OA
ATOM     28  C3  RES d   1      19.147  -0.177   7.259  0.00  0.00     0.096 A 
ATOM     29  C12 RES d   1      19.191  -1.561   6.549  0.00  0.00     0.096 A 
ATOM     30  C5  RES d   1      18.321   0.742   6.310  0.00  0.00    -0.000 C 
ATOM     31  C9  RES d   1      18.389  -1.317   5.214  0.00  0.00    -0.000 C 
ATOM     32  C14 RES d   1      18.376  -2.477   7.435  0.00  0.00     0.231 A 
ATOM     33  C8  RES d   1      19.300  -0.384   4.358  0.00  0.00     0.006 C 
ATOM     34  C11 RES d   1      17.294  -0.289   5.724  0.00  0.00     0.011 C 
ATOM     35  C7  RES d   1      19.254   0.979   5.084  0.00  0.00     0.006 C 
ATOM     36  O15 RES d   1      18.166  -3.651   7.221  0.00  0.00    -0.272 OA
ENDBRANCH  24  25
ENDBRANCH   1  24
TORSDOF 5
ENDMDL
MODEL 8
REMARK VINA RESULT:      -9.5      5.047     10.787
REMARK  5 active torsions:
REMARK  status: ('A' for Active; 'I' for Inactive)
REMARK    1  A    between atoms: N16_12  and  C17_13 
REMARK    2  A    between atoms: C17_13  and  C18_14 
REMARK    3  A    between atoms: C24_19  and  C26_20 
REMARK    4  A    between atoms: C26_20  and  N27_21 
REMARK    5  A    between atoms: N31_25  and  C32_26 
ROOT
ATOM      1  C18 RES d   1      18.498  -0.072  11.667  0.00  0.00     0.010 C 
ATOM      2  C20 RES d   1      17.740  -1.163  12.426  0.00  0.00     0.007 C 
ATOM      3  C21 RES d   1      18.604  -1.676  13.579  0.00  0.00     0.000 C 
ATOM      4  C22 RES d   1      18.924  -0.521  14.530  0.00  0.00     0.000 C 
ATOM      5  C23 RES d   1      19.683   0.570  13.771  0.00  0.00     0.007 C 
ATOM      6  C24 RES d   1      18.818   1.083  12.617  0.00  0.00     0.017 C 
ENDROOT
BRANCH   6   7
ATOM      7  C26 RES d   1      19.576   2.173  11.857  0.00  0.00     0.240 C 
BRANCH   7   8
ATOM      8  N27 RES d   1      19.054   3.492  12.242  0.00  0.00    -0.068 N 
ATOM      9  H28 RES d   1      18.947   4.063  11.418  0.00  0.00     0.280 HD
ATOM     10  C42 RES d   1      17.749   3.327  12.895  0.00  0.00     0.254 C 
ATOM     11  C41 RES d   1      17.152   4.707  13.192  0.00  0.00     0.152 C 
ATOM     12  N31 RES d   1      18.129   5.478  13.976  0.00  0.00    -0.361 N 
ATOM     13  C30 RES d   1      19.510   5.557  13.477  0.00  0.00     0.152 C 
ATOM     14  C29 RES d   1      19.996   4.138  13.165  0.00  0.00     0.254 C 
BRANCH  12  15
ATOM     15  C32 RES d   1      17.755   6.117  15.160  0.00  0.00     0.145 A 
ATOM     16  C40 RES d   1      17.799   5.423  16.437  0.00  0.00     0.029 A 
ATOM     17  C35 RES d   1      17.384   6.257  17.492  0.00  0.00     0.037 A 
ATOM     18  C39 RES d   1      18.195   4.107  16.752  0.00  0.00     0.017 A 
ATOM     19  S34 RES d   1      16.979   7.804  16.745  0.00  0.00     0.014 SA
ATOM     20  C36 RES d   1      17.356   5.792  18.800  0.00  0.00     0.021 A 
ATOM     21  N33 RES d   1      17.351   7.344  15.158  0.00  0.00    -0.192 NA
ATOM     22  C37 RES d   1      17.743   4.499  19.072  0.00  0.00     0.001 A 
ATOM     23  C38 RES d   1      18.160   3.667  18.039  0.00  0.00     0.001 A 
ENDBRANCH  12  15
ENDBRANCH   7   8
ENDBRANCH   6   7
BRANCH   1  24
ATOM     24  C17 RES d   1      17.633   0.441  10.514  0.00  0.00     0.140 C 
BRANCH  24  25
ATOM     25  N16 RES d   1      18.288   0.137   9.239  0.00  0.00    -0.287 N 
ATOM     26  C2  RES d   1      18.838   1.087   8.475  0.00  0.00     0.231 A 
ATOM     27  O1  RES d   1      18.870   2.269   8.743  0.00  0.00    -0.272 OA
ATOM     28  C3  RES d   1      19.419   0.458   7.229  0.00  0.00     0.096 A 
ATOM     29  C12 RES d   1      19.099  -1.054   7.409  0.00  0.00     0.096 A 
ATOM     30  C5  RES d   1      18.569   0.912   6.006  0.00  0.00    -0.000 C 
ATOM     31  C9  RES d   1      18.086  -1.359   6.240  0.00  0.00    -0.000 C 
ATOM     32  C14 RES d   1      18.353  -1.139   8.722  0.00  0.00     0.231 A 
ATOM     33  C8  RES d   1      18.934  -1.268   4.934  0.00  0.00     0.006 C 
ATOM     34  C11 RES d   1      17.294   0.014   6.185  0.00  0.00     0.011 C 
ATOM     35  C7  RES d   1      19.253   0.235   4.779  0.00  0.00     0.006 C 
ATOM     36  O15 RES d   1      17.922  -2.158   9.217  0.00  0.00    -0.272 OA
ENDBRANCH  24  25
ENDBRANCH   1  24
TORSDOF 5
ENDMDL
MODEL 9
REMARK VINA RESULT:      -9.4      3.448      6.159
REMARK  5 active torsions:
REMARK  status: ('A' for Active; 'I' for Inactive)
REMARK    1  A    between atoms: N16_12  and  C17_13 
REMARK    2  A    between atoms: C17_13  and  C18_14 
REMARK    3  A    between atoms: C24_19  and  C26_20 
REMARK    4  A    between atoms: C26_20  and  N27_21 
REMARK    5  A    between atoms: N31_25  and  C32_26 
ROOT
ATOM      1  C18 RES d   1      18.529   2.006  15.809  0.00  0.00     0.010 C 
ATOM      2  C20 RES d   1      19.197   1.929  17.182  0.00  0.00     0.007 C 
ATOM      3  C21 RES d   1      18.290   1.166  18.149  0.00  0.00     0.000 C 
ATOM      4  C22 RES d   1      18.053  -0.248  17.617  0.00  0.00     0.000 C 
ATOM      5  C23 RES d   1      17.383  -0.171  16.243  0.00  0.00     0.007 C 
ATOM      6  C24 RES d   1      18.292   0.593  15.276  0.00  0.00     0.017 C 
ENDROOT
BRANCH   6   7
ATOM      7  C26 RES d   1      17.624   0.670  13.902  0.00  0.00     0.240 C 
BRANCH   7   8
ATOM      8  N27 RES d   1      18.086  -0.448  13.068  0.00  0.00    -0.068 N 
ATOM      9  H28 RES d   1      18.346  -1.222  13.661  0.00  0.00     0.280 HD
ATOM     10  C42 RES d   1      17.002  -0.866  12.169  0.00  0.00     0.254 C 
ATOM     11  C41 RES d   1      17.443  -2.104  11.382  0.00  0.00     0.152 C 
ATOM     12  N31 RES d   1      18.711  -1.797  10.702  0.00  0.00    -0.361 N 
ATOM     13  C30 RES d   1      19.802  -1.217  11.500  0.00  0.00     0.152 C 
ATOM     14  C29 RES d   1      19.250  -0.021  12.282  0.00  0.00     0.254 C 
BRANCH  12  15
ATOM     15  C32 RES d   1      18.873  -2.048   9.339  0.00  0.00     0.145 A 
ATOM     16  C40 RES d   1      19.163  -3.386   8.848  0.00  0.00     0.029 A 
ATOM     17  C35 RES d   1      19.280  -3.408   7.446  0.00  0.00     0.037 A 
ATOM     18  C39 RES d   1      19.316  -4.603   9.543  0.00  0.00     0.017 A 
ATOM     19  S34 RES d   1      19.024  -1.742   6.921  0.00  0.00     0.014 SA
ATOM     20  C36 RES d   1      19.552  -4.590   6.771  0.00  0.00     0.021 A 
ATOM     21  N33 RES d   1      18.776  -1.099   8.468  0.00  0.00    -0.192 NA
ATOM     22  C37 RES d   1      19.702  -5.760   7.480  0.00  0.00     0.001 A 
ATOM     23  C38 RES d   1      19.583  -5.754   8.865  0.00  0.00     0.001 A 
ENDBRANCH  12  15
ENDBRANCH   7   8
ENDBRANCH   6   7
BRANCH   1  24
ATOM     24  C17 RES d   1      19.438   2.769  14.842  0.00  0.00     0.140 C 
BRANCH  24  25
ATOM     25  N16 RES d   1      18.996   4.164  14.754  0.00  0.00    -0.287 N 
ATOM     26  C2  RES d   1      19.510   5.125  15.529  0.00  0.00     0.231 A 
ATOM     27  O1  RES d   1      20.381   4.965  16.358  0.00  0.00    -0.272 OA
ATOM     28  C3  RES d   1      18.843   6.443  15.208  0.00  0.00     0.096 A 
ATOM     29  C12 RES d   1      17.827   6.066  14.090  0.00  0.00     0.096 A 
ATOM     30  C5  RES d   1      17.969   6.862  16.427  0.00  0.00    -0.000 C 
ATOM     31  C9  RES d   1      16.425   6.323  14.762  0.00  0.00    -0.000 C 
ATOM     32  C14 RES d   1      17.999   4.576  13.897  0.00  0.00     0.231 A 
ATOM     33  C8  RES d   1      16.323   7.872  14.908  0.00  0.00     0.006 C 
ATOM     34  C11 RES d   1      16.744   5.896  16.256  0.00  0.00     0.011 C 
ATOM     35  C7  RES d   1      17.344   8.229  16.011  0.00  0.00     0.006 C 
ATOM     36  O15 RES d   1      17.377   3.896  13.109  0.00  0.00    -0.272 OA
ENDBRANCH  24  25
ENDBRANCH   1  24
TORSDOF 5
ENDMDL
