MODEL 1
REMARK VINA RESULT:      -8.2      0.000      0.000
REMARK  3 active torsions:
REMARK  status: ('A' for Active; 'I' for Inactive)
REMARK    1  A    between atoms: C5_5  and  S6_6 
REMARK    2  A    between atoms: S6_6  and  C7_7 
REMARK    3  A    between atoms: C12_12  and  N13_13 
ROOT
ATOM      1  C7  ZIN A   1      18.349   3.289  11.512  0.00  0.00     0.027 A 
ATOM      2  C8  ZIN A   1      17.789   4.006  10.466  0.00  0.00     0.021 A 
ATOM      3  C9  ZIN A   1      16.929   5.055  10.730  0.00  0.00     0.001 A 
ATOM      4  C10 ZIN A   1      16.623   5.393  12.035  0.00  0.00     0.002 A 
ATOM      5  C11 ZIN A   1      17.177   4.683  13.085  0.00  0.00     0.025 A 
ATOM      6  C12 ZIN A   1      18.035   3.626  12.830  0.00  0.00     0.028 A 
ENDROOT
BRANCH   1   7
ATOM      7  S6  ZIN A   1      19.446   1.950  11.179  0.00  0.00    -0.088 SA
BRANCH   7   8
ATOM      8  C5  ZIN A   1      18.845   1.317   9.649  0.00  0.00     0.011 A 
ATOM      9  C4  ZIN A   1      19.450   1.689   8.455  0.00  0.00     0.020 A 
ATOM     10  C3  ZIN A   1      18.975   1.191   7.258  0.00  0.00     0.008 A 
ATOM     11  C2  ZIN A   1      17.900   0.322   7.245  0.00  0.00    -0.061 A 
ATOM     12  C1  ZIN A   1      17.385  -0.221   5.937  0.00  0.00     0.048 C 
ATOM     13  C21 ZIN A   1      17.292  -0.048   8.433  0.00  0.00     0.014 A 
ATOM     14  C19 ZIN A   1      17.764   0.443   9.633  0.00  0.00    -0.044 A 
ATOM     15  C20 ZIN A   1      17.104   0.036  10.926  0.00  0.00     0.049 C 
ENDBRANCH   7   8
ENDBRANCH   1   7
BRANCH   6  16
ATOM     16  N13 ZIN A   1      18.596   2.905  13.891  0.00  0.00    -0.279 NA
ATOM     17  C18 ZIN A   1      17.773   1.735  14.226  0.00  0.00     0.125 C 
ATOM     18  C17 ZIN A   1      18.459   0.933  15.334  0.00  0.00     0.284 C 
ATOM     19  N16 ZIN A   1      18.652   1.792  16.511  0.00  0.00     0.085 N 
ATOM     20  C15 ZIN A   1      19.475   2.962  16.175  0.00  0.00     0.284 C 
ATOM     21  H35 ZIN A   1      19.056   1.273  17.276  0.00  0.00     0.315 HD
ATOM     22  C14 ZIN A   1      18.789   3.765  15.067  0.00  0.00     0.125 C 
ENDBRANCH   6  16
TORSDOF 3
ENDMDL
MODEL 2
REMARK VINA RESULT:      -7.8      2.673      6.109
REMARK  3 active torsions:
REMARK  status: ('A' for Active; 'I' for Inactive)
REMARK    1  A    between atoms: C5_5  and  S6_6 
REMARK    2  A    between atoms: S6_6  and  C7_7 
REMARK    3  A    between atoms: C12_12  and  N13_13 
ROOT
ATOM      1  C7  ZIN A   1      19.619   1.851  11.437  0.00  0.00     0.027 A 
ATOM      2  C8  ZIN A   1      19.602   3.133  11.964  0.00  0.00     0.021 A 
ATOM      3  C9  ZIN A   1      18.844   4.118  11.361  0.00  0.00     0.001 A 
ATOM      4  C10 ZIN A   1      18.101   3.831  10.231  0.00  0.00     0.002 A 
ATOM      5  C11 ZIN A   1      18.112   2.554   9.698  0.00  0.00     0.025 A 
ATOM      6  C12 ZIN A   1      18.874   1.561  10.293  0.00  0.00     0.028 A 
ENDROOT
BRANCH   1   7
ATOM      7  S6  ZIN A   1      20.585   0.592  12.204  0.00  0.00    -0.088 SA
BRANCH   7   8
ATOM      8  C5  ZIN A   1      19.612   0.144  13.603  0.00  0.00     0.011 A 
ATOM      9  C4  ZIN A   1      19.316   1.088  14.578  0.00  0.00     0.020 A 
ATOM     10  C3  ZIN A   1      18.554   0.732  15.673  0.00  0.00     0.008 A 
ATOM     11  C2  ZIN A   1      18.084  -0.562  15.800  0.00  0.00    -0.061 A 
ATOM     12  C1  ZIN A   1      17.252  -0.946  16.996  0.00  0.00     0.048 C 
ATOM     13  C21 ZIN A   1      18.381  -1.506  14.833  0.00  0.00     0.014 A 
ATOM     14  C19 ZIN A   1      19.138  -1.156  13.734  0.00  0.00    -0.044 A 
ATOM     15  C20 ZIN A   1      19.456  -2.185  12.679  0.00  0.00     0.049 C 
ENDBRANCH   7   8
ENDBRANCH   1   7
BRANCH   6  16
ATOM     16  N13 ZIN A   1      18.887   0.269   9.755  0.00  0.00    -0.279 NA
ATOM     17  C18 ZIN A   1      19.179   0.302   8.315  0.00  0.00     0.125 C 
ATOM     18  C17 ZIN A   1      19.263  -1.131   7.782  0.00  0.00     0.284 C 
ATOM     19  N16 ZIN A   1      17.994  -1.824   8.044  0.00  0.00     0.085 N 
ATOM     20  C15 ZIN A   1      17.702  -1.855   9.484  0.00  0.00     0.284 C 
ATOM     21  H35 ZIN A   1      18.003  -2.755   7.656  0.00  0.00     0.315 HD
ATOM     22  C14 ZIN A   1      17.618  -0.423  10.017  0.00  0.00     0.125 C 
ENDBRANCH   6  16
TORSDOF 3
ENDMDL
MODEL 3
REMARK VINA RESULT:      -7.5      2.226      4.353
REMARK  3 active torsions:
REMARK  status: ('A' for Active; 'I' for Inactive)
REMARK    1  A    between atoms: C5_5  and  S6_6 
REMARK    2  A    between atoms: S6_6  and  C7_7 
REMARK    3  A    between atoms: C12_12  and  N13_13 
ROOT
ATOM      1  C7  ZIN A   1      18.160  -1.190  11.041  0.00  0.00     0.027 A 
ATOM      2  C8  ZIN A   1      18.505  -2.249  10.215  0.00  0.00     0.021 A 
ATOM      3  C9  ZIN A   1      19.301  -3.271  10.696  0.00  0.00     0.001 A 
ATOM      4  C10 ZIN A   1      19.756  -3.242  12.002  0.00  0.00     0.002 A 
ATOM      5  C11 ZIN A   1      19.416  -2.190  12.833  0.00  0.00     0.025 A 
ATOM      6  C12 ZIN A   1      18.624  -1.158  12.357  0.00  0.00     0.028 A 
ENDROOT
BRANCH   1   7
ATOM      7  S6  ZIN A   1      17.145   0.115  10.430  0.00  0.00    -0.088 SA
BRANCH   7   8
ATOM      8  C5  ZIN A   1      17.689   0.291   8.763  0.00  0.00     0.011 A 
ATOM      9  C4  ZIN A   1      17.122  -0.484   7.760  0.00  0.00     0.020 A 
ATOM     10  C3  ZIN A   1      17.552  -0.343   6.455  0.00  0.00     0.008 A 
ATOM     11  C2  ZIN A   1      18.543   0.569   6.145  0.00  0.00    -0.061 A 
ATOM     12  C1  ZIN A   1      19.008   0.721   4.720  0.00  0.00     0.048 C 
ATOM     13  C21 ZIN A   1      19.112   1.341   7.143  0.00  0.00     0.014 A 
ATOM     14  C19 ZIN A   1      18.685   1.208   8.449  0.00  0.00    -0.044 A 
ATOM     15  C20 ZIN A   1      19.303   2.053   9.534  0.00  0.00     0.049 C 
ENDBRANCH   7   8
ENDBRANCH   1   7
BRANCH   6  16
ATOM     16  N13 ZIN A   1      18.281  -0.092  13.197  0.00  0.00    -0.279 NA
ATOM     17  C18 ZIN A   1      19.340   0.925  13.217  0.00  0.00     0.125 C 
ATOM     18  C17 ZIN A   1      18.893   2.107  14.081  0.00  0.00     0.284 C 
ATOM     19  N16 ZIN A   1      18.597   1.632  15.440  0.00  0.00     0.085 N 
ATOM     20  C15 ZIN A   1      17.537   0.615  15.419  0.00  0.00     0.284 C 
ATOM     21  H35 ZIN A   1      18.349   2.400  16.046  0.00  0.00     0.315 HD
ATOM     22  C14 ZIN A   1      17.984  -0.567  14.555  0.00  0.00     0.125 C 
ENDBRANCH   6  16
TORSDOF 3
ENDMDL
MODEL 4
REMARK VINA RESULT:      -7.5      3.776      7.909
REMARK  3 active torsions:
REMARK  status: ('A' for Active; 'I' for Inactive)
REMARK    1  A    between atoms: C5_5  and  S6_6 
REMARK    2  A    between atoms: S6_6  and  C7_7 
REMARK    3  A    between atoms: C12_12  and  N13_13 
ROOT
ATOM      1  C7  ZIN A   1      18.464  -2.773  11.007  0.00  0.00     0.027 A 
ATOM      2  C8  ZIN A   1      18.048  -3.691  11.959  0.00  0.00     0.021 A 
ATOM      3  C9  ZIN A   1      17.244  -4.753  11.591  0.00  0.00     0.001 A 
ATOM      4  C10 ZIN A   1      16.851  -4.904  10.274  0.00  0.00     0.002 A 
ATOM      5  C11 ZIN A   1      17.261  -3.993   9.317  0.00  0.00     0.025 A 
ATOM      6  C12 ZIN A   1      18.063  -2.922   9.678  0.00  0.00     0.028 A 
ENDROOT
BRANCH   1   7
ATOM      7  S6  ZIN A   1      19.490  -1.418  11.473  0.00  0.00    -0.088 SA
BRANCH   7   8
ATOM      8  C5  ZIN A   1      18.889  -0.999  13.075  0.00  0.00     0.011 A 
ATOM      9  C4  ZIN A   1      19.507  -1.514  14.208  0.00  0.00     0.020 A 
ATOM     10  C3  ZIN A   1      19.032  -1.183  15.462  0.00  0.00     0.008 A 
ATOM     11  C2  ZIN A   1      17.943  -0.341  15.592  0.00  0.00    -0.061 A 
ATOM     12  C1  ZIN A   1      17.429   0.018  16.962  0.00  0.00     0.048 C 
ATOM     13  C21 ZIN A   1      17.323   0.170  14.465  0.00  0.00     0.014 A 
ATOM     14  C19 ZIN A   1      17.794  -0.152  13.209  0.00  0.00    -0.044 A 
ATOM     15  C20 ZIN A   1      17.120   0.409  11.983  0.00  0.00     0.049 C 
ENDBRANCH   7   8
ENDBRANCH   1   7
BRANCH   6  16
ATOM     16  N13 ZIN A   1      18.478  -1.999   8.711  0.00  0.00    -0.279 NA
ATOM     17  C18 ZIN A   1      17.477  -0.939   8.531  0.00  0.00     0.125 C 
ATOM     18  C17 ZIN A   1      18.003   0.090   7.527  0.00  0.00     0.284 C 
ATOM     19  N16 ZIN A   1      18.293  -0.579   6.251  0.00  0.00     0.085 N 
ATOM     20  C15 ZIN A   1      19.295  -1.640   6.432  0.00  0.00     0.284 C 
ATOM     21  H35 ZIN A   1      18.593   0.086   5.553  0.00  0.00     0.315 HD
ATOM     22  C14 ZIN A   1      18.769  -2.668   7.436  0.00  0.00     0.125 C 
ENDBRANCH   6  16
TORSDOF 3
ENDMDL
MODEL 5
REMARK VINA RESULT:      -7.4      2.977      5.665
REMARK  3 active torsions:
REMARK  status: ('A' for Active; 'I' for Inactive)
REMARK    1  A    between atoms: C5_5  and  S6_6 
REMARK    2  A    between atoms: S6_6  and  C7_7 
REMARK    3  A    between atoms: C12_12  and  N13_13 
ROOT
ATOM      1  C7  ZIN A   1      19.672   0.026  13.323  0.00  0.00     0.027 A 
ATOM      2  C8  ZIN A   1      19.621   0.693  14.537  0.00  0.00     0.021 A 
ATOM      3  C9  ZIN A   1      18.889   0.167  15.585  0.00  0.00     0.001 A 
ATOM      4  C10 ZIN A   1      18.207  -1.025  15.427  0.00  0.00     0.002 A 
ATOM      5  C11 ZIN A   1      18.252  -1.697  14.219  0.00  0.00     0.025 A 
ATOM      6  C12 ZIN A   1      18.978  -1.174  13.161  0.00  0.00     0.028 A 
ENDROOT
BRANCH   1   7
ATOM      7  S6  ZIN A   1      20.604   0.694  11.985  0.00  0.00    -0.088 SA
BRANCH   7   8
ATOM      8  C5  ZIN A   1      19.622   2.061  11.462  0.00  0.00     0.011 A 
ATOM      9  C4  ZIN A   1      19.507   3.185  12.270  0.00  0.00     0.020 A 
ATOM     10  C3  ZIN A   1      18.736   4.254  11.857  0.00  0.00     0.008 A 
ATOM     11  C2  ZIN A   1      18.080   4.207  10.641  0.00  0.00    -0.061 A 
ATOM     12  C1  ZIN A   1      17.240   5.376  10.193  0.00  0.00     0.048 C 
ATOM     13  C21 ZIN A   1      18.189   3.087   9.836  0.00  0.00     0.014 A 
ATOM     14  C19 ZIN A   1      18.961   2.017  10.240  0.00  0.00    -0.044 A 
ATOM     15  C20 ZIN A   1      19.084   0.799   9.360  0.00  0.00     0.049 C 
ENDBRANCH   7   8
ENDBRANCH   1   7
BRANCH   6  16
ATOM     16  N13 ZIN A   1      19.025  -1.853  11.938  0.00  0.00    -0.279 NA
ATOM     17  C18 ZIN A   1      17.676  -2.027  11.381  0.00  0.00     0.125 C 
ATOM     18  C17 ZIN A   1      17.777  -2.700  10.010  0.00  0.00     0.284 C 
ATOM     19  N16 ZIN A   1      18.456  -3.996  10.152  0.00  0.00     0.085 N 
ATOM     20  C15 ZIN A   1      19.805  -3.821  10.710  0.00  0.00     0.284 C 
ATOM     21  H35 ZIN A   1      18.490  -4.486   9.270  0.00  0.00     0.315 HD
ATOM     22  C14 ZIN A   1      19.704  -3.148  12.080  0.00  0.00     0.125 C 
ENDBRANCH   6  16
TORSDOF 3
ENDMDL
MODEL 6
REMARK VINA RESULT:      -7.4      3.944      7.275
REMARK  3 active torsions:
REMARK  status: ('A' for Active; 'I' for Inactive)
REMARK    1  A    between atoms: C5_5  and  S6_6 
REMARK    2  A    between atoms: S6_6  and  C7_7 
REMARK    3  A    between atoms: C12_12  and  N13_13 
ROOT
ATOM      1  C7  ZIN A   1      18.990  -0.732   7.411  0.00  0.00     0.027 A 
ATOM      2  C8  ZIN A   1      18.587   0.397   6.714  0.00  0.00     0.021 A 
ATOM      3  C9  ZIN A   1      18.035   0.271   5.453  0.00  0.00     0.001 A 
ATOM      4  C10 ZIN A   1      17.881  -0.979   4.883  0.00  0.00     0.002 A 
ATOM      5  C11 ZIN A   1      18.280  -2.111   5.571  0.00  0.00     0.025 A 
ATOM      6  C12 ZIN A   1      18.840  -1.994   6.833  0.00  0.00     0.028 A 
ENDROOT
BRANCH   1   7
ATOM      7  S6  ZIN A   1      19.694  -0.575   9.018  0.00  0.00    -0.088 SA
BRANCH   7   8
ATOM      8  C5  ZIN A   1      18.909   0.869   9.655  0.00  0.00     0.011 A 
ATOM      9  C4  ZIN A   1      19.305   2.127   9.219  0.00  0.00     0.020 A 
ATOM     10  C3  ZIN A   1      18.686   3.255   9.722  0.00  0.00     0.008 A 
ATOM     11  C2  ZIN A   1      17.675   3.135  10.657  0.00  0.00    -0.061 A 
ATOM     12  C1  ZIN A   1      17.003   4.368  11.201  0.00  0.00     0.048 C 
ATOM     13  C21 ZIN A   1      17.282   1.883  11.096  0.00  0.00     0.014 A 
ATOM     14  C19 ZIN A   1      17.892   0.751  10.595  0.00  0.00    -0.044 A 
ATOM     15  C20 ZIN A   1      17.459  -0.613  11.071  0.00  0.00     0.049 C 
ENDBRANCH   7   8
ENDBRANCH   1   7
BRANCH   6  16
ATOM     16  N13 ZIN A   1      19.245  -3.138   7.530  0.00  0.00    -0.279 NA
ATOM     17  C18 ZIN A   1      19.958  -4.069   6.646  0.00  0.00     0.125 C 
ATOM     18  C17 ZIN A   1      20.451  -5.267   7.461  0.00  0.00     0.284 C 
ATOM     19  N16 ZIN A   1      19.305  -5.927   8.102  0.00  0.00     0.085 N 
ATOM     20  C15 ZIN A   1      18.592  -4.994   8.987  0.00  0.00     0.284 C 
ATOM     21  H35 ZIN A   1      19.596  -6.751   8.605  0.00  0.00     0.315 HD
ATOM     22  C14 ZIN A   1      18.099  -3.797   8.171  0.00  0.00     0.125 C 
ENDBRANCH   6  16
TORSDOF 3
ENDMDL
MODEL 7
REMARK VINA RESULT:      -7.3      4.700      7.697
REMARK  3 active torsions:
REMARK  status: ('A' for Active; 'I' for Inactive)
REMARK    1  A    between atoms: C5_5  and  S6_6 
REMARK    2  A    between atoms: S6_6  and  C7_7 
REMARK    3  A    between atoms: C12_12  and  N13_13 
ROOT
ATOM      1  C7  ZIN A   1      18.588  -2.396   9.765  0.00  0.00     0.027 A 
ATOM      2  C8  ZIN A   1      19.508  -1.847  10.645  0.00  0.00     0.021 A 
ATOM      3  C9  ZIN A   1      20.177  -2.658  11.542  0.00  0.00     0.001 A 
ATOM      4  C10 ZIN A   1      19.932  -4.018  11.566  0.00  0.00     0.002 A 
ATOM      5  C11 ZIN A   1      19.015  -4.575  10.692  0.00  0.00     0.025 A 
ATOM      6  C12 ZIN A   1      18.336  -3.769   9.794  0.00  0.00     0.028 A 
ENDROOT
BRANCH   1   7
ATOM      7  S6  ZIN A   1      17.733  -1.365   8.620  0.00  0.00    -0.088 SA
BRANCH   7   8
ATOM      8  C5  ZIN A   1      17.888   0.237   9.339  0.00  0.00     0.011 A 
ATOM      9  C4  ZIN A   1      17.311   0.506  10.573  0.00  0.00     0.020 A 
ATOM     10  C3  ZIN A   1      17.435   1.763  11.131  0.00  0.00     0.008 A 
ATOM     11  C2  ZIN A   1      18.133   2.753  10.465  0.00  0.00    -0.061 A 
ATOM     12  C1  ZIN A   1      18.266   4.123  11.078  0.00  0.00     0.048 C 
ATOM     13  C21 ZIN A   1      18.706   2.489   9.234  0.00  0.00     0.014 A 
ATOM     14  C19 ZIN A   1      18.590   1.234   8.671  0.00  0.00    -0.044 A 
ATOM     15  C20 ZIN A   1      19.219   0.947   7.331  0.00  0.00     0.049 C 
ENDBRANCH   7   8
ENDBRANCH   1   7
BRANCH   6  16
ATOM     16  N13 ZIN A   1      17.408  -4.331   8.909  0.00  0.00    -0.279 NA
ATOM     17  C18 ZIN A   1      16.434  -5.163   9.627  0.00  0.00     0.125 C 
ATOM     18  C17 ZIN A   1      15.393  -5.693   8.638  0.00  0.00     0.284 C 
ATOM     19  N16 ZIN A   1      16.068  -6.467   7.586  0.00  0.00     0.085 N 
ATOM     20  C15 ZIN A   1      17.043  -5.633   6.868  0.00  0.00     0.284 C 
ATOM     21  H35 ZIN A   1      15.400  -6.872   6.948  0.00  0.00     0.315 HD
ATOM     22  C14 ZIN A   1      18.084  -5.103   7.857  0.00  0.00     0.125 C 
ENDBRANCH   6  16
TORSDOF 3
ENDMDL
MODEL 8
REMARK VINA RESULT:      -7.3      3.039      4.941
REMARK  3 active torsions:
REMARK  status: ('A' for Active; 'I' for Inactive)
REMARK    1  A    between atoms: C5_5  and  S6_6 
REMARK    2  A    between atoms: S6_6  and  C7_7 
REMARK    3  A    between atoms: C12_12  and  N13_13 
ROOT
ATOM      1  C7  ZIN A   1      19.183  -0.373  13.103  0.00  0.00     0.027 A 
ATOM      2  C8  ZIN A   1      19.045  -1.406  14.019  0.00  0.00     0.021 A 
ATOM      3  C9  ZIN A   1      18.329  -1.206  15.184  0.00  0.00     0.001 A 
ATOM      4  C10 ZIN A   1      17.749   0.022  15.442  0.00  0.00     0.002 A 
ATOM      5  C11 ZIN A   1      17.882   1.058  14.534  0.00  0.00     0.025 A 
ATOM      6  C12 ZIN A   1      18.603   0.868  13.367  0.00  0.00     0.028 A 
ENDROOT
BRANCH   1   7
ATOM      7  S6  ZIN A   1      20.095  -0.625  11.617  0.00  0.00    -0.088 SA
BRANCH   7   8
ATOM      8  C5  ZIN A   1      19.504  -2.185  11.049  0.00  0.00     0.011 A 
ATOM      9  C4  ZIN A   1      20.104  -3.359  11.485  0.00  0.00     0.020 A 
ATOM     10  C3  ZIN A   1      19.637  -4.579  11.037  0.00  0.00     0.008 A 
ATOM     11  C2  ZIN A   1      18.574  -4.634  10.156  0.00  0.00    -0.061 A 
ATOM     12  C1  ZIN A   1      18.067  -5.967   9.670  0.00  0.00     0.048 C 
ATOM     13  C21 ZIN A   1      17.976  -3.466   9.716  0.00  0.00     0.014 A 
ATOM     14  C19 ZIN A   1      18.434  -2.243  10.163  0.00  0.00    -0.044 A 
ATOM     15  C20 ZIN A   1      17.778  -0.972   9.687  0.00  0.00     0.049 C 
ENDBRANCH   7   8
ENDBRANCH   1   7
BRANCH   6  16
ATOM     16  N13 ZIN A   1      18.739   1.916  12.448  0.00  0.00    -0.279 NA
ATOM     17  C18 ZIN A   1      19.095   3.169  13.127  0.00  0.00     0.125 C 
ATOM     18  C17 ZIN A   1      19.312   4.268  12.084  0.00  0.00     0.284 C 
ATOM     19  N16 ZIN A   1      18.087   4.433  11.288  0.00  0.00     0.085 N 
ATOM     20  C15 ZIN A   1      17.732   3.179  10.609  0.00  0.00     0.284 C 
ATOM     21  H35 ZIN A   1      18.185   5.187  10.625  0.00  0.00     0.315 HD
ATOM     22  C14 ZIN A   1      17.515   2.080  11.652  0.00  0.00     0.125 C 
ENDBRANCH   6  16
TORSDOF 3
ENDMDL
MODEL 9
REMARK VINA RESULT:      -7.2      3.101      4.950
REMARK  3 active torsions:
REMARK  status: ('A' for Active; 'I' for Inactive)
REMARK    1  A    between atoms: C5_5  and  S6_6 
REMARK    2  A    between atoms: S6_6  and  C7_7 
REMARK    3  A    between atoms: C12_12  and  N13_13 
ROOT
ATOM      1  C7  ZIN A   1      18.964  -0.090  14.977  0.00  0.00     0.027 A 
ATOM      2  C8  ZIN A   1      18.569  -1.342  15.425  0.00  0.00     0.021 A 
ATOM      3  C9  ZIN A   1      17.985  -1.479  16.670  0.00  0.00     0.001 A 
ATOM      4  C10 ZIN A   1      17.793  -0.370  17.474  0.00  0.00     0.002 A 
ATOM      5  C11 ZIN A   1      18.183   0.883  17.035  0.00  0.00     0.025 A 
ATOM      6  C12 ZIN A   1      18.775   1.028  15.791  0.00  0.00     0.028 A 
ENDROOT
BRANCH   1   7
ATOM      7  S6  ZIN A   1      19.710   0.087  13.391  0.00  0.00    -0.088 SA
BRANCH   7   8
ATOM      8  C5  ZIN A   1      19.143  -1.340  12.525  0.00  0.00     0.011 A 
ATOM      9  C4  ZIN A   1      19.940  -2.476  12.459  0.00  0.00     0.020 A 
ATOM     10  C3  ZIN A   1      19.492  -3.592  11.779  0.00  0.00     0.008 A 
ATOM     11  C2  ZIN A   1      18.253  -3.580  11.166  0.00  0.00    -0.061 A 
ATOM     12  C1  ZIN A   1      17.768  -4.799  10.426  0.00  0.00     0.048 C 
ATOM     13  C21 ZIN A   1      17.459  -2.448  11.227  0.00  0.00     0.014 A 
ATOM     14  C19 ZIN A   1      17.898  -1.331  11.908  0.00  0.00    -0.044 A 
ATOM     15  C20 ZIN A   1      17.030  -0.100  11.978  0.00  0.00     0.049 C 
ENDBRANCH   7   8
ENDBRANCH   1   7
BRANCH   6  16
ATOM     16  N13 ZIN A   1      19.172   2.295  15.346  0.00  0.00    -0.279 NA
ATOM     17  C18 ZIN A   1      19.538   3.159  16.477  0.00  0.00     0.125 C 
ATOM     18  C17 ZIN A   1      20.040   4.503  15.946  0.00  0.00     0.284 C 
ATOM     19  N16 ZIN A   1      18.991   5.128  15.128  0.00  0.00     0.085 N 
ATOM     20  C15 ZIN A   1      18.624   4.263  13.998  0.00  0.00     0.284 C 
ATOM     21  H35 ZIN A   1      19.276   6.041  14.807  0.00  0.00     0.315 HD
ATOM     22  C14 ZIN A   1      18.122   2.918  14.528  0.00  0.00     0.125 C 
ENDBRANCH   6  16
TORSDOF 3
ENDMDL
