MODEL 1
REMARK VINA RESULT:      -8.4      0.000      0.000
REMARK  5 active torsions:
REMARK  status: ('A' for Active; 'I' for Inactive)
REMARK    1  A    between atoms: C8_7  and  O9_8 
REMARK    2  A    between atoms: C16_15  and  O17_16 
REMARK    3  A    between atoms: C20_19  and  C21_20 
REMARK       I    between atoms: C21_20  and  N22_21 
REMARK    4  A    between atoms: C26_25  and  N28_26 
REMARK    5  A    between atoms: C33_30  and  O35_31 
ROOT
ATOM      1  C1  ZIN A   1      17.947   0.318   7.298  0.00  0.00     0.016 C 
ATOM      2  C2  ZIN A   1      18.623  -0.049   8.622  0.00  0.00     0.027 C 
ATOM      3  C4  ZIN A   1      18.479   1.095   9.589  0.00  0.00    -0.038 A 
ATOM      4  C5  ZIN A   1      18.303   2.380   9.131  0.00  0.00     0.009 A 
ATOM      5  C6  ZIN A   1      18.187   3.432  10.026  0.00  0.00     0.003 A 
ATOM      6  C7  ZIN A   1      18.246   3.204  11.387  0.00  0.00     0.037 A 
ATOM      7  C8  ZIN A   1      18.417   1.913  11.868  0.00  0.00     0.079 A 
ATOM      8  C10 ZIN A   1      18.527   0.848  10.966  0.00  0.00     0.041 A 
ATOM      9  C11 ZIN A   1      18.714  -0.530  11.441  0.00  0.00     0.131 C 
ATOM     10  O12 ZIN A   1      19.117  -0.764  12.710  0.00  0.00    -0.190 OA
ATOM     11  C13 ZIN A   1      18.476  -1.586  10.581  0.00  0.00     0.036 C 
ATOM     12  C14 ZIN A   1      18.719  -2.882  11.022  0.00  0.00     0.200 C 
ATOM     13  O15 ZIN A   1      19.158  -3.033  12.146  0.00  0.00    -0.289 OA
ATOM     14  C16 ZIN A   1      18.472  -4.103  10.187  0.00  0.00     0.183 C 
ATOM     15  C18 ZIN A   1      19.764  -4.814   9.928  0.00  0.00     0.147 C 
ATOM     16  O19 ZIN A   1      20.701  -4.816  10.889  0.00  0.00    -0.192 OA
ATOM     17  C20 ZIN A   1      20.031  -5.462   8.748  0.00  0.00     0.115 C 
ATOM     18  C24 ZIN A   1      19.044  -5.460   7.672  0.00  0.00     0.201 C 
ATOM     19  O25 ZIN A   1      19.331  -5.910   6.582  0.00  0.00    -0.290 OA
ATOM     20  C26 ZIN A   1      17.672  -4.901   7.920  0.00  0.00     0.306 C 
ATOM     21  C31 ZIN A   1      17.718  -3.765   8.922  0.00  0.00     0.105 C 
ATOM     22  C33 ZIN A   1      18.282  -2.497   8.283  0.00  0.00     0.138 C 
ATOM     23  C36 ZIN A   1      17.967  -1.304   9.194  0.00  0.00     0.063 C 
ENDROOT
BRANCH  17  24
ATOM     24  C21 ZIN A   1      21.315  -6.159   8.568  0.00  0.00     0.255 C 
ATOM     25  N22 ZIN A   1      22.243  -5.655   7.731  0.00  0.00    -0.366 N 
ATOM     26  H46 ZIN A   1      22.038  -4.875   7.193  0.00  0.00     0.159 HD
ATOM     27  H47 ZIN A   1      23.116  -6.072   7.668  0.00  0.00     0.159 HD
ATOM     28  O23 ZIN A   1      21.537  -7.190   9.174  0.00  0.00    -0.268 OA
ENDBRANCH  17  24
BRANCH  14  29
ATOM     29  O17 ZIN A   1      17.657  -4.992  10.954  0.00  0.00    -0.374 OA
ATOM     30  H45 ZIN A   1      16.718  -4.961  10.724  0.00  0.00     0.211 HD
ENDBRANCH  14  29
BRANCH  20  31
ATOM     31  N28 ZIN A   1      16.804  -5.966   8.438  0.00  0.00     0.092 N 
ATOM     32  C29 ZIN A   1      15.411  -5.508   8.541  0.00  0.00     0.310 C 
ATOM     33  C30 ZIN A   1      16.900  -7.175   7.609  0.00  0.00     0.310 C 
ENDBRANCH  20  31
BRANCH  22  34
ATOM     34  O35 ZIN A   1      17.680  -2.298   7.003  0.00  0.00    -0.394 OA
ATOM     35  H54 ZIN A   1      18.257  -1.867   6.358  0.00  0.00     0.210 HD
ENDBRANCH  22  34
BRANCH   7  36
ATOM     36  O9  ZIN A   1      18.476   1.686  13.205  0.00  0.00    -0.360 OA
ATOM     37  H44 ZIN A   1      18.113   0.831  13.474  0.00  0.00     0.217 HD
ENDBRANCH   7  36
TORSDOF 5
ENDMDL
MODEL 2
REMARK VINA RESULT:      -8.2      4.604      9.532
REMARK  5 active torsions:
REMARK  status: ('A' for Active; 'I' for Inactive)
REMARK    1  A    between atoms: C8_7  and  O9_8 
REMARK    2  A    between atoms: C16_15  and  O17_16 
REMARK    3  A    between atoms: C20_19  and  C21_20 
REMARK       I    between atoms: C21_20  and  N22_21 
REMARK    4  A    between atoms: C26_25  and  N28_26 
REMARK    5  A    between atoms: C33_30  and  O35_31 
ROOT
ATOM      1  C1  ZIN A   1      17.809  -0.512  14.946  0.00  0.00     0.016 C 
ATOM      2  C2  ZIN A   1      18.622   0.008  13.758  0.00  0.00     0.027 C 
ATOM      3  C4  ZIN A   1      18.655  -1.042  12.679  0.00  0.00    -0.038 A 
ATOM      4  C5  ZIN A   1      18.488  -2.371  12.992  0.00  0.00     0.009 A 
ATOM      5  C6  ZIN A   1      18.535  -3.334  11.996  0.00  0.00     0.003 A 
ATOM      6  C7  ZIN A   1      18.748  -2.973  10.681  0.00  0.00     0.037 A 
ATOM      7  C8  ZIN A   1      18.912  -1.636  10.345  0.00  0.00     0.079 A 
ATOM      8  C10 ZIN A   1      18.859  -0.660  11.348  0.00  0.00     0.041 A 
ATOM      9  C11 ZIN A   1      19.034   0.764  11.029  0.00  0.00     0.131 C 
ATOM     10  O12 ZIN A   1      19.577   1.136   9.849  0.00  0.00    -0.190 OA
ATOM     11  C13 ZIN A   1      18.641   1.721  11.946  0.00  0.00     0.036 C 
ATOM     12  C14 ZIN A   1      18.871   3.062  11.660  0.00  0.00     0.200 C 
ATOM     13  O15 ZIN A   1      19.436   3.339  10.619  0.00  0.00    -0.289 OA
ATOM     14  C16 ZIN A   1      18.463   4.186  12.565  0.00  0.00     0.183 C 
ATOM     15  C18 ZIN A   1      19.677   4.917  13.051  0.00  0.00     0.147 C 
ATOM     16  O19 ZIN A   1      20.723   5.048  12.220  0.00  0.00    -0.192 OA
ATOM     17  C20 ZIN A   1      19.766   5.456  14.309  0.00  0.00     0.115 C 
ATOM     18  C24 ZIN A   1      18.655   5.313  15.247  0.00  0.00     0.201 C 
ATOM     19  O25 ZIN A   1      18.784   5.665  16.401  0.00  0.00    -0.290 OA
ATOM     20  C26 ZIN A   1      17.353   4.728  14.777  0.00  0.00     0.306 C 
ATOM     21  C31 ZIN A   1      17.577   3.698  13.689  0.00  0.00     0.105 C 
ATOM     22  C33 ZIN A   1      18.122   2.397  14.275  0.00  0.00     0.138 C 
ATOM     23  C36 ZIN A   1      17.980   1.287  13.226  0.00  0.00     0.063 C 
ENDROOT
BRANCH  17  24
ATOM     24  C21 ZIN A   1      20.981   6.181  14.713  0.00  0.00     0.255 C 
ATOM     25  N22 ZIN A   1      21.848   5.612  15.575  0.00  0.00    -0.366 N 
ATOM     26  H46 ZIN A   1      21.635   4.760  15.986  0.00  0.00     0.159 HD
ATOM     27  H47 ZIN A   1      22.684   6.057  15.784  0.00  0.00     0.159 HD
ATOM     28  O23 ZIN A   1      21.203   7.291  14.270  0.00  0.00    -0.268 OA
ENDBRANCH  17  24
BRANCH  14  29
ATOM     29  O17 ZIN A   1      17.705   5.114  11.787  0.00  0.00    -0.374 OA
ATOM     30  H45 ZIN A   1      17.630   5.992  12.186  0.00  0.00     0.211 HD
ENDBRANCH  14  29
BRANCH  20  31
ATOM     31  N28 ZIN A   1      16.503   5.806  14.253  0.00  0.00     0.092 N 
ATOM     32  C29 ZIN A   1      15.169   5.770  14.869  0.00  0.00     0.310 C 
ATOM     33  C30 ZIN A   1      17.136   7.117  14.445  0.00  0.00     0.310 C 
ENDBRANCH  20  31
BRANCH  22  34
ATOM     34  O35 ZIN A   1      17.378   2.051  15.445  0.00  0.00    -0.394 OA
ATOM     35  H54 ZIN A   1      17.711   1.270  15.907  0.00  0.00     0.210 HD
ENDBRANCH  22  34
BRANCH   7  36
ATOM     36  O9  ZIN A   1      19.123  -1.277   9.054  0.00  0.00    -0.360 OA
ATOM     37  H44 ZIN A   1      19.864  -0.669   8.931  0.00  0.00     0.217 HD
ENDBRANCH   7  36
TORSDOF 5
ENDMDL
MODEL 3
REMARK VINA RESULT:      -7.1      3.040      5.419
REMARK  5 active torsions:
REMARK  status: ('A' for Active; 'I' for Inactive)
REMARK    1  A    between atoms: C8_7  and  O9_8 
REMARK    2  A    between atoms: C16_15  and  O17_16 
REMARK    3  A    between atoms: C20_19  and  C21_20 
REMARK       I    between atoms: C21_20  and  N22_21 
REMARK    4  A    between atoms: C26_25  and  N28_26 
REMARK    5  A    between atoms: C33_30  and  O35_31 
ROOT
ATOM      1  C1  ZIN A   1      16.560  -4.977  11.245  0.00  0.00     0.016 C 
ATOM      2  C2  ZIN A   1      16.999  -4.103  10.068  0.00  0.00     0.027 C 
ATOM      3  C4  ZIN A   1      17.905  -3.011  10.569  0.00  0.00    -0.038 A 
ATOM      4  C5  ZIN A   1      17.831  -2.585  11.876  0.00  0.00     0.009 A 
ATOM      5  C6  ZIN A   1      18.657  -1.568  12.327  0.00  0.00     0.003 A 
ATOM      6  C7  ZIN A   1      19.564  -0.971  11.474  0.00  0.00     0.037 A 
ATOM      7  C8  ZIN A   1      19.658  -1.391  10.155  0.00  0.00     0.079 A 
ATOM      8  C10 ZIN A   1      18.829  -2.423   9.697  0.00  0.00     0.041 A 
ATOM      9  C11 ZIN A   1      18.898  -2.889   8.305  0.00  0.00     0.131 C 
ATOM     10  O12 ZIN A   1      19.501  -2.131   7.363  0.00  0.00    -0.190 OA
ATOM     11  C13 ZIN A   1      18.342  -4.108   7.966  0.00  0.00     0.036 C 
ATOM     12  C14 ZIN A   1      18.356  -4.508   6.635  0.00  0.00     0.200 C 
ATOM     13  O15 ZIN A   1      18.839  -3.752   5.813  0.00  0.00    -0.289 OA
ATOM     14  C16 ZIN A   1      17.807  -5.819   6.156  0.00  0.00     0.183 C 
ATOM     15  C18 ZIN A   1      16.654  -5.582   5.230  0.00  0.00     0.147 C 
ATOM     16  O19 ZIN A   1      16.691  -4.514   4.418  0.00  0.00    -0.192 OA
ATOM     17  C20 ZIN A   1      15.561  -6.410   5.178  0.00  0.00     0.115 C 
ATOM     18  C24 ZIN A   1      15.478  -7.569   6.063  0.00  0.00     0.201 C 
ATOM     19  O25 ZIN A   1      14.456  -8.220   6.119  0.00  0.00    -0.290 OA
ATOM     20  C26 ZIN A   1      16.663  -7.952   6.904  0.00  0.00     0.306 C 
ATOM     21  C31 ZIN A   1      17.462  -6.730   7.311  0.00  0.00     0.105 C 
ATOM     22  C33 ZIN A   1      16.744  -5.952   8.412  0.00  0.00     0.138 C 
ATOM     23  C36 ZIN A   1      17.734  -4.964   9.044  0.00  0.00     0.063 C 
ENDROOT
BRANCH  17  24
ATOM     24  C21 ZIN A   1      14.472  -6.129   4.229  0.00  0.00     0.255 C 
ATOM     25  N22 ZIN A   1      14.664  -6.323   2.909  0.00  0.00    -0.366 N 
ATOM     26  H46 ZIN A   1      15.540  -6.574   2.577  0.00  0.00     0.159 HD
ATOM     27  H47 ZIN A   1      13.925  -6.209   2.291  0.00  0.00     0.159 HD
ATOM     28  O23 ZIN A   1      13.401  -5.724   4.636  0.00  0.00    -0.268 OA
ENDBRANCH  17  24
BRANCH  14  29
ATOM     29  O17 ZIN A   1      18.829  -6.460   5.389  0.00  0.00    -0.374 OA
ATOM     30  H45 ZIN A   1      19.101  -7.320   5.737  0.00  0.00     0.211 HD
ENDBRANCH  14  29
BRANCH  20  31
ATOM     31  N28 ZIN A   1      17.526  -8.858   6.135  0.00  0.00     0.092 N 
ATOM     32  C29 ZIN A   1      17.852 -10.061   6.914  0.00  0.00     0.310 C 
ATOM     33  C30 ZIN A   1      16.906  -9.214   4.852  0.00  0.00     0.310 C 
ENDBRANCH  20  31
BRANCH  22  34
ATOM     34  O35 ZIN A   1      16.268  -6.859   9.407  0.00  0.00    -0.394 OA
ATOM     35  H54 ZIN A   1      15.464  -6.566   9.857  0.00  0.00     0.210 HD
ENDBRANCH  22  34
BRANCH   7  36
ATOM     36  O9  ZIN A   1      20.547  -0.806   9.314  0.00  0.00    -0.360 OA
ATOM     37  H44 ZIN A   1      20.729  -1.319   8.515  0.00  0.00     0.217 HD
ENDBRANCH   7  36
TORSDOF 5
ENDMDL
MODEL 4
REMARK VINA RESULT:      -7.1      4.003      6.908
REMARK  5 active torsions:
REMARK  status: ('A' for Active; 'I' for Inactive)
REMARK    1  A    between atoms: C8_7  and  O9_8 
REMARK    2  A    between atoms: C16_15  and  O17_16 
REMARK    3  A    between atoms: C20_19  and  C21_20 
REMARK       I    between atoms: C21_20  and  N22_21 
REMARK    4  A    between atoms: C26_25  and  N28_26 
REMARK    5  A    between atoms: C33_30  and  O35_31 
ROOT
ATOM      1  C1  ZIN A   1      17.378  -7.275   8.658  0.00  0.00     0.016 C 
ATOM      2  C2  ZIN A   1      17.322  -5.824   8.175  0.00  0.00     0.027 C 
ATOM      3  C4  ZIN A   1      18.020  -4.939   9.173  0.00  0.00    -0.038 A 
ATOM      4  C5  ZIN A   1      18.131  -5.323  10.490  0.00  0.00     0.009 A 
ATOM      5  C6  ZIN A   1      18.761  -4.496  11.407  0.00  0.00     0.003 A 
ATOM      6  C7  ZIN A   1      19.286  -3.282  11.012  0.00  0.00     0.037 A 
ATOM      7  C8  ZIN A   1      19.189  -2.882   9.687  0.00  0.00     0.079 A 
ATOM      8  C10 ZIN A   1      18.559  -3.716   8.756  0.00  0.00     0.041 A 
ATOM      9  C11 ZIN A   1      18.435  -3.322   7.346  0.00  0.00     0.131 C 
ATOM     10  O12 ZIN A   1      18.613  -2.032   6.982  0.00  0.00    -0.190 OA
ATOM     11  C13 ZIN A   1      18.134  -4.278   6.394  0.00  0.00     0.036 C 
ATOM     12  C14 ZIN A   1      17.955  -3.881   5.074  0.00  0.00     0.200 C 
ATOM     13  O15 ZIN A   1      18.047  -2.697   4.813  0.00  0.00    -0.289 OA
ATOM     14  C16 ZIN A   1      17.653  -4.832   3.955  0.00  0.00     0.183 C 
ATOM     15  C18 ZIN A   1      16.303  -4.531   3.379  0.00  0.00     0.147 C 
ATOM     16  O19 ZIN A   1      15.900  -3.252   3.322  0.00  0.00    -0.192 OA
ATOM     17  C20 ZIN A   1      15.462  -5.507   2.908  0.00  0.00     0.115 C 
ATOM     18  C24 ZIN A   1      15.860  -6.911   2.975  0.00  0.00     0.201 C 
ATOM     19  O25 ZIN A   1      15.065  -7.783   2.690  0.00  0.00    -0.290 OA
ATOM     20  C26 ZIN A   1      17.256  -7.271   3.396  0.00  0.00     0.306 C 
ATOM     21  C31 ZIN A   1      17.801  -6.270   4.395  0.00  0.00     0.105 C 
ATOM     22  C33 ZIN A   1      17.172  -6.477   5.772  0.00  0.00     0.138 C 
ATOM     23  C36 ZIN A   1      18.004  -5.717   6.813  0.00  0.00     0.063 C 
ENDROOT
BRANCH  17  24
ATOM     24  C21 ZIN A   1      14.158  -5.139   2.335  0.00  0.00     0.255 C 
ATOM     25  N22 ZIN A   1      14.086  -4.661   1.076  0.00  0.00    -0.366 N 
ATOM     26  H46 ZIN A   1      14.899  -4.490   0.576  0.00  0.00     0.159 HD
ATOM     27  H47 ZIN A   1      13.222  -4.488   0.673  0.00  0.00     0.159 HD
ATOM     28  O23 ZIN A   1      13.146  -5.265   2.997  0.00  0.00    -0.268 OA
ENDBRANCH  17  24
BRANCH  14  29
ATOM     29  O17 ZIN A   1      18.607  -4.596   2.918  0.00  0.00    -0.374 OA
ATOM     30  H45 ZIN A   1      19.064  -3.746   2.990  0.00  0.00     0.211 HD
ENDBRANCH  14  29
BRANCH  20  31
ATOM     31  N28 ZIN A   1      18.126  -7.293   2.213  0.00  0.00     0.092 N 
ATOM     32  C29 ZIN A   1      18.899  -8.542   2.150  0.00  0.00     0.310 C 
ATOM     33  C30 ZIN A   1      17.347  -7.094   0.983  0.00  0.00     0.310 C 
ENDBRANCH  20  31
BRANCH  22  34
ATOM     34  O35 ZIN A   1      17.162  -7.871   6.088  0.00  0.00    -0.394 OA
ATOM     35  H54 ZIN A   1      18.041  -8.254   6.211  0.00  0.00     0.210 HD
ENDBRANCH  22  34
BRANCH   7  36
ATOM     36  O9  ZIN A   1      19.703  -1.688   9.295  0.00  0.00    -0.360 OA
ATOM     37  H44 ZIN A   1      20.423  -1.368   9.854  0.00  0.00     0.217 HD
ENDBRANCH   7  36
TORSDOF 5
ENDMDL
MODEL 5
REMARK VINA RESULT:      -6.5      6.396     11.319
REMARK  5 active torsions:
REMARK  status: ('A' for Active; 'I' for Inactive)
REMARK    1  A    between atoms: C8_7  and  O9_8 
REMARK    2  A    between atoms: C16_15  and  O17_16 
REMARK    3  A    between atoms: C20_19  and  C21_20 
REMARK       I    between atoms: C21_20  and  N22_21 
REMARK    4  A    between atoms: C26_25  and  N28_26 
REMARK    5  A    between atoms: C33_30  and  O35_31 
ROOT
ATOM      1  C1  ZIN A   1      17.007   4.120  11.012  0.00  0.00     0.016 C 
ATOM      2  C2  ZIN A   1      17.351   3.410  12.324  0.00  0.00     0.027 C 
ATOM      3  C4  ZIN A   1      18.242   2.232  12.034  0.00  0.00    -0.038 A 
ATOM      4  C5  ZIN A   1      18.221   1.627  10.798  0.00  0.00     0.009 A 
ATOM      5  C6  ZIN A   1      19.033   0.533  10.542  0.00  0.00     0.003 A 
ATOM      6  C7  ZIN A   1      19.871   0.037  11.522  0.00  0.00     0.037 A 
ATOM      7  C8  ZIN A   1      19.909   0.638  12.772  0.00  0.00     0.079 A 
ATOM      8  C10 ZIN A   1      19.096   1.748  13.032  0.00  0.00     0.041 A 
ATOM      9  C11 ZIN A   1      19.108   2.405  14.346  0.00  0.00     0.131 C 
ATOM     10  O12 ZIN A   1      19.631   1.772  15.419  0.00  0.00    -0.190 OA
ATOM     11  C13 ZIN A   1      18.579   3.675  14.478  0.00  0.00     0.036 C 
ATOM     12  C14 ZIN A   1      18.537   4.260  15.739  0.00  0.00     0.200 C 
ATOM     13  O15 ZIN A   1      18.948   3.616  16.684  0.00  0.00    -0.289 OA
ATOM     14  C16 ZIN A   1      18.013   5.641  15.996  0.00  0.00     0.183 C 
ATOM     15  C18 ZIN A   1      16.804   5.571  16.878  0.00  0.00     0.147 C 
ATOM     16  O19 ZIN A   1      16.758   4.629  17.832  0.00  0.00    -0.192 OA
ATOM     17  C20 ZIN A   1      15.741   6.429  16.750  0.00  0.00     0.115 C 
ATOM     18  C24 ZIN A   1      15.748   7.452  15.707  0.00  0.00     0.201 C 
ATOM     19  O25 ZIN A   1      14.754   8.119  15.502  0.00  0.00    -0.290 OA
ATOM     20  C26 ZIN A   1      16.989   7.678  14.891  0.00  0.00     0.306 C 
ATOM     21  C31 ZIN A   1      17.763   6.388  14.707  0.00  0.00     0.105 C 
ATOM     22  C33 ZIN A   1      17.076   5.482  13.686  0.00  0.00     0.138 C 
ATOM     23  C36 ZIN A   1      18.061   4.387  13.258  0.00  0.00     0.063 C 
ENDROOT
BRANCH  17  24
ATOM     24  C21 ZIN A   1      14.594   6.318  17.664  0.00  0.00     0.255 C 
ATOM     25  N22 ZIN A   1      14.774   6.471  18.992  0.00  0.00    -0.366 N 
ATOM     26  H46 ZIN A   1      15.668   6.580  19.350  0.00  0.00     0.159 HD
ATOM     27  H47 ZIN A   1      14.008   6.472  19.587  0.00  0.00     0.159 HD
ATOM     28  O23 ZIN A   1      13.484   6.089  17.223  0.00  0.00    -0.268 OA
ENDBRANCH  17  24
BRANCH  14  29
ATOM     29  O17 ZIN A   1      19.015   6.355  16.723  0.00  0.00    -0.374 OA
ATOM     30  H45 ZIN A   1      19.668   6.795  16.163  0.00  0.00     0.211 HD
ENDBRANCH  14  29
BRANCH  20  31
ATOM     31  N28 ZIN A   1      17.842   8.659  15.573  0.00  0.00     0.092 N 
ATOM     32  C29 ZIN A   1      18.415   9.615  14.615  0.00  0.00     0.310 C 
ATOM     33  C30 ZIN A   1      17.101   9.356  16.633  0.00  0.00     0.310 C 
ENDBRANCH  20  31
BRANCH  22  34
ATOM     34  O35 ZIN A   1      16.687   6.252  12.547  0.00  0.00    -0.394 OA
ATOM     35  H54 ZIN A   1      15.841   6.708  12.650  0.00  0.00     0.210 HD
ENDBRANCH  22  34
BRANCH   7  36
ATOM     36  O9  ZIN A   1      20.731   0.153  13.737  0.00  0.00    -0.360 OA
ATOM     37  H44 ZIN A   1      21.478   0.730  13.943  0.00  0.00     0.217 HD
ENDBRANCH   7  36
TORSDOF 5
ENDMDL
MODEL 6
REMARK VINA RESULT:      -6.5      3.160      7.539
REMARK  5 active torsions:
REMARK  status: ('A' for Active; 'I' for Inactive)
REMARK    1  A    between atoms: C8_7  and  O9_8 
REMARK    2  A    between atoms: C16_15  and  O17_16 
REMARK    3  A    between atoms: C20_19  and  C21_20 
REMARK       I    between atoms: C21_20  and  N22_21 
REMARK    4  A    between atoms: C26_25  and  N28_26 
REMARK    5  A    between atoms: C33_30  and  O35_31 
ROOT
ATOM      1  C1  ZIN A   1      20.737  -4.160  11.884  0.00  0.00     0.016 C 
ATOM      2  C2  ZIN A   1      20.098  -3.328  10.771  0.00  0.00     0.027 C 
ATOM      3  C4  ZIN A   1      19.668  -4.238   9.651  0.00  0.00    -0.038 A 
ATOM      4  C5  ZIN A   1      20.283  -5.454   9.464  0.00  0.00     0.009 A 
ATOM      5  C6  ZIN A   1      19.894  -6.281   8.422  0.00  0.00     0.003 A 
ATOM      6  C7  ZIN A   1      18.885  -5.896   7.561  0.00  0.00     0.037 A 
ATOM      7  C8  ZIN A   1      18.249  -4.675   7.738  0.00  0.00     0.079 A 
ATOM      8  C10 ZIN A   1      18.635  -3.840   8.794  0.00  0.00     0.041 A 
ATOM      9  C11 ZIN A   1      17.987  -2.539   9.007  0.00  0.00     0.131 C 
ATOM     10  O12 ZIN A   1      17.257  -1.972   8.021  0.00  0.00    -0.190 OA
ATOM     11  C13 ZIN A   1      18.129  -1.898  10.224  0.00  0.00     0.036 C 
ATOM     12  C14 ZIN A   1      17.565  -0.639  10.391  0.00  0.00     0.200 C 
ATOM     13  O15 ZIN A   1      16.987  -0.138   9.446  0.00  0.00    -0.289 OA
ATOM     14  C16 ZIN A   1      17.631   0.137  11.673  0.00  0.00     0.183 C 
ATOM     15  C18 ZIN A   1      18.406   1.402  11.464  0.00  0.00     0.147 C 
ATOM     16  O19 ZIN A   1      18.302   2.032  10.284  0.00  0.00    -0.192 OA
ATOM     17  C20 ZIN A   1      19.218   1.943  12.429  0.00  0.00     0.115 C 
ATOM     18  C24 ZIN A   1      19.372   1.272  13.717  0.00  0.00     0.201 C 
ATOM     19  O25 ZIN A   1      20.194   1.670  14.516  0.00  0.00    -0.290 OA
ATOM     20  C26 ZIN A   1      18.509   0.088  14.049  0.00  0.00     0.306 C 
ATOM     21  C31 ZIN A   1      18.170  -0.707  12.804  0.00  0.00     0.105 C 
ATOM     22  C33 ZIN A   1      19.372  -1.526  12.337  0.00  0.00     0.138 C 
ATOM     23  C36 ZIN A   1      18.891  -2.578  11.329  0.00  0.00     0.063 C 
ENDROOT
BRANCH  17  24
ATOM     24  C21 ZIN A   1      19.935   3.200  12.164  0.00  0.00     0.255 C 
ATOM     25  N22 ZIN A   1      21.160   3.172  11.603  0.00  0.00    -0.366 N 
ATOM     26  H46 ZIN A   1      21.601   2.323  11.443  0.00  0.00     0.159 HD
ATOM     27  H47 ZIN A   1      21.601   4.001  11.361  0.00  0.00     0.159 HD
ATOM     28  O23 ZIN A   1      19.422   4.265  12.451  0.00  0.00    -0.268 OA
ENDBRANCH  17  24
BRANCH  14  29
ATOM     29  O17 ZIN A   1      16.298   0.521  12.015  0.00  0.00    -0.374 OA
ATOM     30  H45 ZIN A   1      15.620  -0.095  11.705  0.00  0.00     0.211 HD
ENDBRANCH  14  29
BRANCH  20  31
ATOM     31  N28 ZIN A   1      17.266   0.558  14.673  0.00  0.00     0.092 N 
ATOM     32  C29 ZIN A   1      16.962  -0.212  15.887  0.00  0.00     0.310 C 
ATOM     33  C30 ZIN A   1      17.335   1.996  14.967  0.00  0.00     0.310 C 
ENDBRANCH  20  31
BRANCH  22  34
ATOM     34  O35 ZIN A   1      19.974  -2.175  13.459  0.00  0.00    -0.394 OA
ATOM     35  H54 ZIN A   1      19.756  -1.773  14.310  0.00  0.00     0.210 HD
ENDBRANCH  22  34
BRANCH   7  36
ATOM     36  O9  ZIN A   1      17.258  -4.293   6.894  0.00  0.00    -0.360 OA
ATOM     37  H44 ZIN A   1      17.275  -4.744   6.039  0.00  0.00     0.217 HD
ENDBRANCH   7  36
TORSDOF 5
ENDMDL
MODEL 7
REMARK VINA RESULT:      -6.4      4.604      6.827
REMARK  5 active torsions:
REMARK  status: ('A' for Active; 'I' for Inactive)
REMARK    1  A    between atoms: C8_7  and  O9_8 
REMARK    2  A    between atoms: C16_15  and  O17_16 
REMARK    3  A    between atoms: C20_19  and  C21_20 
REMARK       I    between atoms: C21_20  and  N22_21 
REMARK    4  A    between atoms: C26_25  and  N28_26 
REMARK    5  A    between atoms: C33_30  and  O35_31 
ROOT
ATOM      1  C1  ZIN A   1      20.061  -5.386   7.128  0.00  0.00     0.016 C 
ATOM      2  C2  ZIN A   1      18.745  -5.891   7.725  0.00  0.00     0.027 C 
ATOM      3  C4  ZIN A   1      18.588  -5.347   9.119  0.00  0.00    -0.038 A 
ATOM      4  C5  ZIN A   1      19.692  -4.980   9.855  0.00  0.00     0.009 A 
ATOM      5  C6  ZIN A   1      19.542  -4.494  11.145  0.00  0.00     0.003 A 
ATOM      6  C7  ZIN A   1      18.286  -4.371  11.706  0.00  0.00     0.037 A 
ATOM      7  C8  ZIN A   1      17.161  -4.729  10.976  0.00  0.00     0.079 A 
ATOM      8  C10 ZIN A   1      17.309  -5.214   9.671  0.00  0.00     0.041 A 
ATOM      9  C11 ZIN A   1      16.140  -5.608   8.873  0.00  0.00     0.131 C 
ATOM     10  O12 ZIN A   1      14.949  -5.831   9.473  0.00  0.00    -0.190 OA
ATOM     11  C13 ZIN A   1      16.265  -5.748   7.503  0.00  0.00     0.036 C 
ATOM     12  C14 ZIN A   1      15.169  -6.184   6.767  0.00  0.00     0.200 C 
ATOM     13  O15 ZIN A   1      14.144  -6.449   7.366  0.00  0.00    -0.289 OA
ATOM     14  C16 ZIN A   1      15.181  -6.346   5.277  0.00  0.00     0.183 C 
ATOM     15  C18 ZIN A   1      14.971  -7.785   4.918  0.00  0.00     0.147 C 
ATOM     16  O19 ZIN A   1      14.154  -8.525   5.684  0.00  0.00    -0.192 OA
ATOM     17  C20 ZIN A   1      15.579  -8.378   3.841  0.00  0.00     0.115 C 
ATOM     18  C24 ZIN A   1      16.491  -7.608   3.000  0.00  0.00     0.201 C 
ATOM     19  O25 ZIN A   1      17.136  -8.164   2.134  0.00  0.00    -0.290 OA
ATOM     20  C26 ZIN A   1      16.628  -6.127   3.209  0.00  0.00     0.306 C 
ATOM     21  C31 ZIN A   1      16.434  -5.761   4.666  0.00  0.00     0.105 C 
ATOM     22  C33 ZIN A   1      17.662  -6.142   5.492  0.00  0.00     0.138 C 
ATOM     23  C36 ZIN A   1      17.582  -5.431   6.849  0.00  0.00     0.063 C 
ENDROOT
BRANCH  17  24
ATOM     24  C21 ZIN A   1      15.311  -9.792   3.534  0.00  0.00     0.255 C 
ATOM     25  N22 ZIN A   1      14.126 -10.152   3.001  0.00  0.00    -0.366 N 
ATOM     26  H46 ZIN A   1      13.423  -9.493   2.890  0.00  0.00     0.159 HD
ATOM     27  H47 ZIN A   1      13.976 -11.071   2.730  0.00  0.00     0.159 HD
ATOM     28  O23 ZIN A   1      16.157 -10.635   3.760  0.00  0.00    -0.268 OA
ENDBRANCH  17  24
BRANCH  14  29
ATOM     29  O17 ZIN A   1      14.065  -5.622   4.754  0.00  0.00    -0.374 OA
ATOM     30  H45 ZIN A   1      14.257  -4.695   4.555  0.00  0.00     0.211 HD
ENDBRANCH  14  29
BRANCH  20  31
ATOM     31  N28 ZIN A   1      15.620  -5.432   2.398  0.00  0.00     0.092 N 
ATOM     32  C29 ZIN A   1      15.919  -3.996   2.305  0.00  0.00     0.310 C 
ATOM     33  C30 ZIN A   1      15.510  -6.034   1.063  0.00  0.00     0.310 C 
ENDBRANCH  20  31
BRANCH  22  34
ATOM     34  O35 ZIN A   1      18.846  -5.735   4.804  0.00  0.00    -0.394 OA
ATOM     35  H54 ZIN A   1      19.405  -6.469   4.514  0.00  0.00     0.210 HD
ENDBRANCH  22  34
BRANCH   7  36
ATOM     36  O9  ZIN A   1      15.926  -4.609  11.525  0.00  0.00    -0.360 OA
ATOM     37  H44 ZIN A   1      15.219  -4.990  10.987  0.00  0.00     0.217 HD
ENDBRANCH   7  36
TORSDOF 5
ENDMDL
MODEL 8
REMARK VINA RESULT:      -5.8      1.933      4.005
REMARK  5 active torsions:
REMARK  status: ('A' for Active; 'I' for Inactive)
REMARK    1  A    between atoms: C8_7  and  O9_8 
REMARK    2  A    between atoms: C16_15  and  O17_16 
REMARK    3  A    between atoms: C20_19  and  C21_20 
REMARK       I    between atoms: C21_20  and  N22_21 
REMARK    4  A    between atoms: C26_25  and  N28_26 
REMARK    5  A    between atoms: C33_30  and  O35_31 
ROOT
ATOM      1  C1  ZIN A   1      17.432  -1.320  12.035  0.00  0.00     0.016 C 
ATOM      2  C2  ZIN A   1      17.429  -0.735  10.620  0.00  0.00     0.027 C 
ATOM      3  C4  ZIN A   1      17.622   0.756  10.696  0.00  0.00    -0.038 A 
ATOM      4  C5  ZIN A   1      17.269   1.450  11.831  0.00  0.00     0.009 A 
ATOM      5  C6  ZIN A   1      17.434   2.825  11.889  0.00  0.00     0.003 A 
ATOM      6  C7  ZIN A   1      17.956   3.514  10.812  0.00  0.00     0.037 A 
ATOM      7  C8  ZIN A   1      18.324   2.830   9.662  0.00  0.00     0.079 A 
ATOM      8  C10 ZIN A   1      18.165   1.440   9.602  0.00  0.00     0.041 A 
ATOM      9  C11 ZIN A   1      18.539   0.686   8.398  0.00  0.00     0.131 C 
ATOM     10  O12 ZIN A   1      18.723   1.326   7.223  0.00  0.00    -0.190 OA
ATOM     11  C13 ZIN A   1      18.702  -0.685   8.476  0.00  0.00     0.036 C 
ATOM     12  C14 ZIN A   1      18.992  -1.396   7.317  0.00  0.00     0.200 C 
ATOM     13  O15 ZIN A   1      19.068  -0.781   6.270  0.00  0.00    -0.289 OA
ATOM     14  C16 ZIN A   1      19.216  -2.878   7.286  0.00  0.00     0.183 C 
ATOM     15  C18 ZIN A   1      18.157  -3.537   6.457  0.00  0.00     0.147 C 
ATOM     16  O19 ZIN A   1      17.690  -2.890   5.379  0.00  0.00    -0.192 OA
ATOM     17  C20 ZIN A   1      17.644  -4.774   6.755  0.00  0.00     0.115 C 
ATOM     18  C24 ZIN A   1      18.114  -5.497   7.934  0.00  0.00     0.201 C 
ATOM     19  O25 ZIN A   1      17.565  -6.524   8.277  0.00  0.00    -0.290 OA
ATOM     20  C26 ZIN A   1      19.279  -4.966   8.720  0.00  0.00     0.306 C 
ATOM     21  C31 ZIN A   1      19.320  -3.452   8.680  0.00  0.00     0.105 C 
ATOM     22  C33 ZIN A   1      18.245  -2.855   9.587  0.00  0.00     0.138 C 
ATOM     23  C36 ZIN A   1      18.556  -1.369   9.808  0.00  0.00     0.063 C 
ENDROOT
BRANCH  17  24
ATOM     24  C21 ZIN A   1      16.619  -5.372   5.885  0.00  0.00     0.255 C 
ATOM     25  N22 ZIN A   1      15.390  -5.632   6.373  0.00  0.00    -0.366 N 
ATOM     26  H46 ZIN A   1      15.203  -5.494   7.315  0.00  0.00     0.159 HD
ATOM     27  H47 ZIN A   1      14.693  -5.956   5.782  0.00  0.00     0.159 HD
ATOM     28  O23 ZIN A   1      16.882  -5.633   4.727  0.00  0.00    -0.268 OA
ENDBRANCH  17  24
BRANCH  14  29
ATOM     29  O17 ZIN A   1      20.463  -3.113   6.627  0.00  0.00    -0.374 OA
ATOM     30  H45 ZIN A   1      20.458  -3.880   6.039  0.00  0.00     0.211 HD
ENDBRANCH  14  29
BRANCH  20  31
ATOM     31  N28 ZIN A   1      20.525  -5.496   8.151  0.00  0.00     0.092 N 
ATOM     32  C29 ZIN A   1      21.177  -6.424   9.085  0.00  0.00     0.310 C 
ATOM     33  C30 ZIN A   1      20.279  -6.141   6.854  0.00  0.00     0.310 C 
ENDBRANCH  20  31
BRANCH  22  34
ATOM     34  O35 ZIN A   1      18.243  -3.538  10.842  0.00  0.00    -0.394 OA
ATOM     35  H54 ZIN A   1      19.102  -3.907  11.091  0.00  0.00     0.210 HD
ENDBRANCH  22  34
BRANCH   7  36
ATOM     36  O9  ZIN A   1      18.837   3.504   8.602  0.00  0.00    -0.360 OA
ATOM     37  H44 ZIN A   1      19.617   4.034   8.813  0.00  0.00     0.217 HD
ENDBRANCH   7  36
TORSDOF 5
ENDMDL
MODEL 9
REMARK VINA RESULT:      -5.7      2.875      4.923
REMARK  5 active torsions:
REMARK  status: ('A' for Active; 'I' for Inactive)
REMARK    1  A    between atoms: C8_7  and  O9_8 
REMARK    2  A    between atoms: C16_15  and  O17_16 
REMARK    3  A    between atoms: C20_19  and  C21_20 
REMARK       I    between atoms: C21_20  and  N22_21 
REMARK    4  A    between atoms: C26_25  and  N28_26 
REMARK    5  A    between atoms: C33_30  and  O35_31 
ROOT
ATOM      1  C1  ZIN A   1      20.638   4.175  11.492  0.00  0.00     0.016 C 
ATOM      2  C2  ZIN A   1      20.053   3.361  12.648  0.00  0.00     0.027 C 
ATOM      3  C4  ZIN A   1      19.624   4.294  13.748  0.00  0.00    -0.038 A 
ATOM      4  C5  ZIN A   1      20.207   5.534  13.880  0.00  0.00     0.009 A 
ATOM      5  C6  ZIN A   1      19.819   6.382  14.905  0.00  0.00     0.003 A 
ATOM      6  C7  ZIN A   1      18.844   5.996  15.804  0.00  0.00     0.037 A 
ATOM      7  C8  ZIN A   1      18.241   4.752  15.683  0.00  0.00     0.079 A 
ATOM      8  C10 ZIN A   1      18.625   3.895  14.645  0.00  0.00     0.041 A 
ATOM      9  C11 ZIN A   1      18.011   2.569  14.490  0.00  0.00     0.131 C 
ATOM     10  O12 ZIN A   1      17.324   2.014  15.513  0.00  0.00    -0.190 OA
ATOM     11  C13 ZIN A   1      18.141   1.893  13.291  0.00  0.00     0.036 C 
ATOM     12  C14 ZIN A   1      17.612   0.612  13.179  0.00  0.00     0.200 C 
ATOM     13  O15 ZIN A   1      17.073   0.127  14.155  0.00  0.00    -0.289 OA
ATOM     14  C16 ZIN A   1      17.669  -0.203  11.922  0.00  0.00     0.183 C 
ATOM     15  C18 ZIN A   1      18.487  -1.437  12.151  0.00  0.00     0.147 C 
ATOM     16  O19 ZIN A   1      18.432  -2.030  13.353  0.00  0.00    -0.192 OA
ATOM     17  C20 ZIN A   1      19.290  -1.985  11.183  0.00  0.00     0.115 C 
ATOM     18  C24 ZIN A   1      19.391  -1.352   9.871  0.00  0.00     0.201 C 
ATOM     19  O25 ZIN A   1      20.205  -1.752   9.063  0.00  0.00    -0.290 OA
ATOM     20  C26 ZIN A   1      18.485  -0.205   9.524  0.00  0.00     0.306 C 
ATOM     21  C31 ZIN A   1      18.154   0.620  10.750  0.00  0.00     0.105 C 
ATOM     22  C33 ZIN A   1      19.342   1.488  11.160  0.00  0.00     0.138 C 
ATOM     23  C36 ZIN A   1      18.855   2.558  12.146  0.00  0.00     0.063 C 
ENDROOT
BRANCH  17  24
ATOM     24  C21 ZIN A   1      20.051  -3.212  11.469  0.00  0.00     0.255 C 
ATOM     25  N22 ZIN A   1      21.398  -3.175  11.507  0.00  0.00    -0.366 N 
ATOM     26  H46 ZIN A   1      21.868  -2.360  11.272  0.00  0.00     0.159 HD
ATOM     27  H47 ZIN A   1      21.897  -3.965  11.767  0.00  0.00     0.159 HD
ATOM     28  O23 ZIN A   1      19.465  -4.257  11.672  0.00  0.00    -0.268 OA
ENDBRANCH  17  24
BRANCH  14  29
ATOM     29  O17 ZIN A   1      16.340  -0.636  11.627  0.00  0.00    -0.374 OA
ATOM     30  H45 ZIN A   1      16.298  -1.399  11.035  0.00  0.00     0.211 HD
ENDBRANCH  14  29
BRANCH  20  31
ATOM     31  N28 ZIN A   1      17.242  -0.732   8.947  0.00  0.00     0.092 N 
ATOM     32  C29 ZIN A   1      16.927  -0.067   7.675  0.00  0.00     0.310 C 
ATOM     33  C30 ZIN A   1      17.317  -2.189   8.774  0.00  0.00     0.310 C 
ENDBRANCH  20  31
BRANCH  22  34
ATOM     34  O35 ZIN A   1      19.896   2.117  10.002  0.00  0.00    -0.394 OA
ATOM     35  H54 ZIN A   1      20.839   2.318  10.076  0.00  0.00     0.210 HD
ENDBRANCH  22  34
BRANCH   7  36
ATOM     36  O9  ZIN A   1      17.283   4.369  16.565  0.00  0.00    -0.360 OA
ATOM     37  H44 ZIN A   1      16.401   4.291  16.178  0.00  0.00     0.217 HD
ENDBRANCH   7  36
TORSDOF 5
ENDMDL
