MODEL 1
REMARK VINA RESULT:      -5.2      0.000      0.000
REMARK  1 active torsions:
REMARK  status: ('A' for Active; 'I' for Inactive)
REMARK    1  A    between atoms: N1_1  and  C5_5 
ROOT
ATOM      1  C5  <0> d   1      20.083   1.140  11.713  0.00  0.00     0.124 C 
ATOM      2  C6  <0> d   1      19.042   0.754  12.766  0.00  0.00     0.043 C 
ATOM      3  C7  <0> d   1      17.666   1.265  12.334  0.00  0.00    -0.012 C 
ATOM      4  C8  <0> d   1      17.288   0.639  10.990  0.00  0.00     0.009 C 
ATOM      5  C9  <0> d   1      18.330   1.024   9.937  0.00  0.00    -0.012 C 
ATOM      6  C10 <0> d   1      18.372   2.548   9.796  0.00  0.00     0.009 C 
ATOM      7  C11 <0> d   1      18.750   3.174  11.140  0.00  0.00    -0.012 C 
ATOM      8  C12 <0> d   1      17.709   2.787  12.193  0.00  0.00     0.009 C 
ATOM      9  C13 <0> d   1      20.126   2.663  11.572  0.00  0.00     0.043 C 
ATOM     10  C14 <0> d   1      19.705   0.514  10.369  0.00  0.00     0.043 C 
ENDROOT
BRANCH   1  11
ATOM     11  N1  <0> d   1      21.404   0.649  12.128  0.00  0.00    -0.070 N 
ATOM     12  H2  <0> d   1      21.512  -0.312  11.839  0.00  0.00     0.275 HD
ATOM     13  H3  <0> d   1      21.485   0.710  13.132  0.00  0.00     0.275 HD
ATOM     14  H4  <0> d   1      22.122   1.212  11.698  0.00  0.00     0.275 HD
ENDBRANCH   1  11
TORSDOF 1
ENDMDL
MODEL 2
REMARK VINA RESULT:      -5.2      0.001      2.260
REMARK  1 active torsions:
REMARK  status: ('A' for Active; 'I' for Inactive)
REMARK    1  A    between atoms: N1_1  and  C5_5 
ROOT
ATOM      1  C5  <0> d   1      20.083   1.139  11.713  0.00  0.00     0.124 C 
ATOM      2  C6  <0> d   1      20.126   2.663  11.571  0.00  0.00     0.043 C 
ATOM      3  C7  <0> d   1      18.750   3.174  11.139  0.00  0.00    -0.012 C 
ATOM      4  C8  <0> d   1      17.709   2.788  12.192  0.00  0.00     0.009 C 
ATOM      5  C9  <0> d   1      17.666   1.265  12.333  0.00  0.00    -0.012 C 
ATOM      6  C10 <0> d   1      17.289   0.638  10.989  0.00  0.00     0.009 C 
ATOM      7  C11 <0> d   1      18.330   1.024   9.936  0.00  0.00    -0.012 C 
ATOM      8  C12 <0> d   1      18.373   2.547   9.795  0.00  0.00     0.009 C 
ATOM      9  C13 <0> d   1      19.705   0.513  10.369  0.00  0.00     0.043 C 
ATOM     10  C14 <0> d   1      19.042   0.754  12.765  0.00  0.00     0.043 C 
ENDROOT
BRANCH   1  11
ATOM     11  N1  <0> d   1      21.403   0.649  12.128  0.00  0.00    -0.070 N 
ATOM     12  H2  <0> d   1      22.119   1.267  11.775  0.00  0.00     0.275 HD
ATOM     13  H3  <0> d   1      21.550  -0.279  11.759  0.00  0.00     0.275 HD
ATOM     14  H4  <0> d   1      21.451   0.622  13.136  0.00  0.00     0.275 HD
ENDBRANCH   1  11
TORSDOF 1
ENDMDL
MODEL 3
REMARK VINA RESULT:      -5.2      0.001      2.260
REMARK  1 active torsions:
REMARK  status: ('A' for Active; 'I' for Inactive)
REMARK    1  A    between atoms: N1_1  and  C5_5 
ROOT
ATOM      1  C5  <0> d   1      20.083   1.140  11.713  0.00  0.00     0.124 C 
ATOM      2  C6  <0> d   1      19.706   0.513  10.368  0.00  0.00     0.043 C 
ATOM      3  C7  <0> d   1      18.330   1.024   9.936  0.00  0.00    -0.012 C 
ATOM      4  C8  <0> d   1      18.373   2.547   9.795  0.00  0.00     0.009 C 
ATOM      5  C9  <0> d   1      18.751   3.174  11.139  0.00  0.00    -0.012 C 
ATOM      6  C10 <0> d   1      17.709   2.788  12.192  0.00  0.00     0.009 C 
ATOM      7  C11 <0> d   1      17.666   1.265  12.333  0.00  0.00    -0.012 C 
ATOM      8  C12 <0> d   1      17.289   0.639  10.989  0.00  0.00     0.009 C 
ATOM      9  C13 <0> d   1      19.042   0.754  12.766  0.00  0.00     0.043 C 
ATOM     10  C14 <0> d   1      20.125   2.662  11.572  0.00  0.00     0.043 C 
ENDROOT
BRANCH   1  11
ATOM     11  N1  <0> d   1      21.403   0.649  12.128  0.00  0.00    -0.070 N 
ATOM     12  H2  <0> d   1      21.296  -0.006  12.888  0.00  0.00     0.275 HD
ATOM     13  H3  <0> d   1      21.972   1.426  12.432  0.00  0.00     0.275 HD
ATOM     14  H4  <0> d   1      21.852   0.189  11.349  0.00  0.00     0.275 HD
ENDBRANCH   1  11
TORSDOF 1
ENDMDL
MODEL 4
REMARK VINA RESULT:      -5.2      1.247      2.172
REMARK  1 active torsions:
REMARK  status: ('A' for Active; 'I' for Inactive)
REMARK    1  A    between atoms: N1_1  and  C5_5 
ROOT
ATOM      1  C5  <0> d   1      19.928  -0.064  10.572  0.00  0.00     0.124 C 
ATOM      2  C6  <0> d   1      19.634   1.040  11.591  0.00  0.00     0.043 C 
ATOM      3  C7  <0> d   1      18.205   1.549  11.393  0.00  0.00    -0.012 C 
ATOM      4  C8  <0> d   1      17.221   0.395  11.593  0.00  0.00     0.009 C 
ATOM      5  C9  <0> d   1      17.515  -0.709  10.575  0.00  0.00    -0.012 C 
ATOM      6  C10 <0> d   1      17.364  -0.150   9.158  0.00  0.00     0.009 C 
ATOM      7  C11 <0> d   1      18.348   1.005   8.958  0.00  0.00    -0.012 C 
ATOM      8  C12 <0> d   1      18.053   2.108   9.977  0.00  0.00     0.009 C 
ATOM      9  C13 <0> d   1      19.777   0.496   9.156  0.00  0.00     0.043 C 
ATOM     10  C14 <0> d   1      18.944  -1.217  10.772  0.00  0.00     0.043 C 
ENDROOT
BRANCH   1  11
ATOM     11  N1  <0> d   1      21.300  -0.551  10.762  0.00  0.00    -0.070 N 
ATOM     12  H2  <0> d   1      21.557  -1.146   9.988  0.00  0.00     0.275 HD
ATOM     13  H3  <0> d   1      21.355  -1.076  11.622  0.00  0.00     0.275 HD
ATOM     14  H4  <0> d   1      21.933   0.234  10.807  0.00  0.00     0.275 HD
ENDBRANCH   1  11
TORSDOF 1
ENDMDL
MODEL 5
REMARK VINA RESULT:      -5.2      1.242      3.014
REMARK  1 active torsions:
REMARK  status: ('A' for Active; 'I' for Inactive)
REMARK    1  A    between atoms: N1_1  and  C5_5 
ROOT
ATOM      1  C5  <0> d   1      19.938  -0.051  10.563  0.00  0.00     0.124 C 
ATOM      2  C6  <0> d   1      19.795   0.464   9.128  0.00  0.00     0.043 C 
ATOM      3  C7  <0> d   1      18.377   0.999   8.918  0.00  0.00    -0.012 C 
ATOM      4  C8  <0> d   1      18.113   2.143   9.899  0.00  0.00     0.009 C 
ATOM      5  C9  <0> d   1      18.256   1.628  11.334  0.00  0.00    -0.012 C 
ATOM      6  C10 <0> d   1      17.246   0.504  11.575  0.00  0.00     0.009 C 
ATOM      7  C11 <0> d   1      17.510  -0.640  10.594  0.00  0.00    -0.012 C 
ATOM      8  C12 <0> d   1      17.367  -0.124   9.160  0.00  0.00     0.009 C 
ATOM      9  C13 <0> d   1      18.928  -1.174  10.804  0.00  0.00     0.043 C 
ATOM     10  C14 <0> d   1      19.674   1.092  11.543  0.00  0.00     0.043 C 
ENDROOT
BRANCH   1  11
ATOM     11  N1  <0> d   1      21.299  -0.565  10.764  0.00  0.00    -0.070 N 
ATOM     12  H2  <0> d   1      21.644  -0.261  11.662  0.00  0.00     0.275 HD
ATOM     13  H3  <0> d   1      21.903  -0.213  10.036  0.00  0.00     0.275 HD
ATOM     14  H4  <0> d   1      21.286  -1.573  10.732  0.00  0.00     0.275 HD
ENDBRANCH   1  11
TORSDOF 1
ENDMDL
MODEL 6
REMARK VINA RESULT:      -5.2      4.696      5.970
REMARK  1 active torsions:
REMARK  status: ('A' for Active; 'I' for Inactive)
REMARK    1  A    between atoms: N1_1  and  C5_5 
ROOT
ATOM      1  C5  <0> d   1      18.781   0.892  17.692  0.00  0.00     0.124 C 
ATOM      2  C6  <0> d   1      17.262   0.705  17.729  0.00  0.00     0.043 C 
ATOM      3  C7  <0> d   1      16.835  -0.228  16.594  0.00  0.00    -0.012 C 
ATOM      4  C8  <0> d   1      17.520  -1.585  16.765  0.00  0.00     0.009 C 
ATOM      5  C9  <0> d   1      19.039  -1.398  16.727  0.00  0.00    -0.012 C 
ATOM      6  C10 <0> d   1      19.444  -0.787  15.384  0.00  0.00     0.009 C 
ATOM      7  C11 <0> d   1      18.759   0.570  15.213  0.00  0.00    -0.012 C 
ATOM      8  C12 <0> d   1      17.241   0.383  15.252  0.00  0.00     0.009 C 
ATOM      9  C13 <0> d   1      19.186   1.503  16.349  0.00  0.00     0.043 C 
ATOM     10  C14 <0> d   1      19.466  -0.465  17.861  0.00  0.00     0.043 C 
ENDROOT
BRANCH   1  11
ATOM     11  N1  <0> d   1      19.190   1.787  18.781  0.00  0.00    -0.070 N 
ATOM     12  H2  <0> d   1      19.396   1.243  19.605  0.00  0.00     0.275 HD
ATOM     13  H3  <0> d   1      18.443   2.435  18.983  0.00  0.00     0.275 HD
ATOM     14  H4  <0> d   1      20.014   2.301  18.503  0.00  0.00     0.275 HD
ENDBRANCH   1  11
TORSDOF 1
ENDMDL
MODEL 7
REMARK VINA RESULT:      -5.0      1.481      2.999
REMARK  1 active torsions:
REMARK  status: ('A' for Active; 'I' for Inactive)
REMARK    1  A    between atoms: N1_1  and  C5_5 
ROOT
ATOM      1  C5  <0> d   1      20.122   0.300  12.301  0.00  0.00     0.124 C 
ATOM      2  C6  <0> d   1      19.733  -0.707  11.216  0.00  0.00     0.043 C 
ATOM      3  C7  <0> d   1      18.253  -1.067  11.361  0.00  0.00    -0.012 C 
ATOM      4  C8  <0> d   1      17.404   0.197  11.211  0.00  0.00     0.009 C 
ATOM      5  C9  <0> d   1      17.793   1.204  12.297  0.00  0.00    -0.012 C 
ATOM      6  C10 <0> d   1      17.551   0.587  13.676  0.00  0.00     0.009 C 
ATOM      7  C11 <0> d   1      18.399  -0.678  13.825  0.00  0.00    -0.012 C 
ATOM      8  C12 <0> d   1      18.010  -1.683  12.739  0.00  0.00     0.009 C 
ATOM      9  C13 <0> d   1      19.879  -0.318  13.680  0.00  0.00     0.043 C 
ATOM     10  C14 <0> d   1      19.273   1.563  12.152  0.00  0.00     0.043 C 
ENDROOT
BRANCH   1  11
ATOM     11  N1  <0> d   1      21.542   0.644  12.162  0.00  0.00    -0.070 N 
ATOM     12  H2  <0> d   1      22.102  -0.019  12.677  0.00  0.00     0.275 HD
ATOM     13  H3  <0> d   1      21.702   1.572  12.526  0.00  0.00     0.275 HD
ATOM     14  H4  <0> d   1      21.802   0.617  11.187  0.00  0.00     0.275 HD
ENDBRANCH   1  11
TORSDOF 1
ENDMDL
MODEL 8
REMARK VINA RESULT:      -4.9      1.743      2.837
REMARK  1 active torsions:
REMARK  status: ('A' for Active; 'I' for Inactive)
REMARK    1  A    between atoms: N1_1  and  C5_5 
ROOT
ATOM      1  C5  <0> d   1      19.710   0.798  12.312  0.00  0.00     0.124 C 
ATOM      2  C6  <0> d   1      20.155   0.236  13.664  0.00  0.00     0.043 C 
ATOM      3  C7  <0> d   1      19.159  -0.829  14.127  0.00  0.00    -0.012 C 
ATOM      4  C8  <0> d   1      19.106  -1.959  13.096  0.00  0.00     0.009 C 
ATOM      5  C9  <0> d   1      18.661  -1.397  11.744  0.00  0.00    -0.012 C 
ATOM      6  C10 <0> d   1      17.272  -0.769  11.886  0.00  0.00     0.009 C 
ATOM      7  C11 <0> d   1      17.325   0.361  12.916  0.00  0.00    -0.012 C 
ATOM      8  C12 <0> d   1      17.771  -0.203  14.267  0.00  0.00     0.009 C 
ATOM      9  C13 <0> d   1      18.321   1.426  12.453  0.00  0.00     0.043 C 
ATOM     10  C14 <0> d   1      19.656  -0.331  11.283  0.00  0.00     0.043 C 
ENDROOT
BRANCH   1  11
ATOM     11  N1  <0> d   1      20.666   1.821  11.869  0.00  0.00    -0.070 N 
ATOM     12  H2  <0> d   1      20.169   2.576  11.422  0.00  0.00     0.275 HD
ATOM     13  H3  <0> d   1      21.316   1.413  11.214  0.00  0.00     0.275 HD
ATOM     14  H4  <0> d   1      21.172   2.177  12.666  0.00  0.00     0.275 HD
ENDBRANCH   1  11
TORSDOF 1
ENDMDL
MODEL 9
REMARK VINA RESULT:      -4.8      1.781      3.433
REMARK  1 active torsions:
REMARK  status: ('A' for Active; 'I' for Inactive)
REMARK    1  A    between atoms: N1_1  and  C5_5 
ROOT
ATOM      1  C5  <0> d   1      19.781   0.707  12.322  0.00  0.00     0.124 C 
ATOM      2  C6  <0> d   1      18.383   1.330  12.351  0.00  0.00     0.043 C 
ATOM      3  C7  <0> d   1      17.372   0.288  12.833  0.00  0.00    -0.012 C 
ATOM      4  C8  <0> d   1      17.752  -0.179  14.240  0.00  0.00     0.009 C 
ATOM      5  C9  <0> d   1      19.150  -0.801  14.210  0.00  0.00    -0.012 C 
ATOM      6  C10 <0> d   1      19.155  -1.998  13.257  0.00  0.00     0.009 C 
ATOM      7  C11 <0> d   1      18.775  -1.531  11.850  0.00  0.00    -0.012 C 
ATOM      8  C12 <0> d   1      17.377  -0.908  11.881  0.00  0.00     0.009 C 
ATOM      9  C13 <0> d   1      19.787  -0.490  11.368  0.00  0.00     0.043 C 
ATOM     10  C14 <0> d   1      20.161   0.240  13.727  0.00  0.00     0.043 C 
ENDROOT
BRANCH   1  11
ATOM     11  N1  <0> d   1      20.752   1.707  11.858  0.00  0.00    -0.070 N 
ATOM     12  H2  <0> d   1      20.666   1.822  10.859  0.00  0.00     0.275 HD
ATOM     13  H3  <0> d   1      21.687   1.398  12.081  0.00  0.00     0.275 HD
ATOM     14  H4  <0> d   1      20.571   2.589  12.315  0.00  0.00     0.275 HD
ENDBRANCH   1  11
TORSDOF 1
ENDMDL
