MODEL 1
REMARK VINA RESULT:      -4.2      0.000      0.000
REMARK  4 active torsions:
REMARK  status: ('A' for Active; 'I' for Inactive)
REMARK    1  A    between atoms: C2_2  and  O4_4 
REMARK    2  A    between atoms: O4_4  and  C5_5 
REMARK    3  A    between atoms: C5_5  and  C8_7 
REMARK    4  A    between atoms: C8_7  and  N9_8 
ROOT
ATOM      1  C5  <0> d   1      18.233  -0.424  16.533  0.00  0.00     0.153 C 
ATOM      2  C7  <0> d   1      17.270  -1.568  16.854  0.00  0.00     0.042 C 
ENDROOT
BRANCH   1   3
ATOM      3  O4  <0> d   1      19.108  -0.194  17.668  0.00  0.00    -0.315 OA
BRANCH   3   4
ATOM      4  C2  <0> d   1      18.944   0.956  18.341  0.00  0.00     0.255 C 
ATOM      5  C1  <0> d   1      17.562   1.405  18.741  0.00  0.00     0.126 C 
ATOM      6  O3  <0> d   1      19.905   1.631  18.628  0.00  0.00    -0.266 OA
ENDBRANCH   3   4
ENDBRANCH   1   3
BRANCH   1   7
ATOM      7  C8  <0> d   1      19.073  -0.792  15.308  0.00  0.00     0.268 C 
BRANCH   7   8
ATOM      8  N9  <0> d   1      18.753   0.119  14.202  0.00  0.00    -0.076 N 
ATOM      9  C10 <0> d   1      17.808  -0.535  13.286  0.00  0.00     0.271 C 
ATOM     10  C11 <0> d   1      18.147   1.346  14.736  0.00  0.00     0.271 C 
ATOM     11  C12 <0> d   1      19.984   0.458  13.475  0.00  0.00     0.271 C 
ENDBRANCH   7   8
ENDBRANCH   1   7
TORSDOF 4
ENDMDL
MODEL 2
REMARK VINA RESULT:      -4.2      7.572      9.693
REMARK  4 active torsions:
REMARK  status: ('A' for Active; 'I' for Inactive)
REMARK    1  A    between atoms: C2_2  and  O4_4 
REMARK    2  A    between atoms: O4_4  and  C5_5 
REMARK    3  A    between atoms: C5_5  and  C8_7 
REMARK    4  A    between atoms: C8_7  and  N9_8 
ROOT
ATOM      1  C5  <0> d   1      19.167  -2.161   7.233  0.00  0.00     0.153 C 
ATOM      2  C7  <0> d   1      19.713  -3.553   6.907  0.00  0.00     0.042 C 
ENDROOT
BRANCH   1   3
ATOM      3  O4  <0> d   1      18.534  -1.601   6.053  0.00  0.00    -0.315 OA
BRANCH   3   4
ATOM      4  C2  <0> d   1      19.212  -0.651   5.390  0.00  0.00     0.255 C 
ATOM      5  C1  <0> d   1      19.062   0.796   5.783  0.00  0.00     0.126 C 
ATOM      6  O3  <0> d   1      19.945  -0.957   4.478  0.00  0.00    -0.266 OA
ENDBRANCH   3   4
ENDBRANCH   1   3
BRANCH   1   7
ATOM      7  C8  <0> d   1      18.140  -2.267   8.361  0.00  0.00     0.268 C 
BRANCH   7   8
ATOM      8  N9  <0> d   1      18.337  -1.164   9.310  0.00  0.00    -0.076 N 
ATOM      9  C10 <0> d   1      18.090  -1.643  10.677  0.00  0.00     0.271 C 
ATOM     10  C11 <0> d   1      19.716  -0.669   9.207  0.00  0.00     0.271 C 
ATOM     11  C12 <0> d   1      17.402  -0.075   8.997  0.00  0.00     0.271 C 
ENDBRANCH   7   8
ENDBRANCH   1   7
TORSDOF 4
ENDMDL
MODEL 3
REMARK VINA RESULT:      -4.1      4.862      6.291
REMARK  4 active torsions:
REMARK  status: ('A' for Active; 'I' for Inactive)
REMARK    1  A    between atoms: C2_2  and  O4_4 
REMARK    2  A    between atoms: O4_4  and  C5_5 
REMARK    3  A    between atoms: C5_5  and  C8_7 
REMARK    4  A    between atoms: C8_7  and  N9_8 
ROOT
ATOM      1  C5  <0> d   1      18.124   2.850  11.187  0.00  0.00     0.153 C 
ATOM      2  C7  <0> d   1      18.891   2.554   9.897  0.00  0.00     0.042 C 
ENDROOT
BRANCH   1   3
ATOM      3  O4  <0> d   1      16.894   3.554  10.868  0.00  0.00    -0.315 OA
BRANCH   3   4
ATOM      4  C2  <0> d   1      16.895   4.886  11.028  0.00  0.00     0.255 C 
ATOM      5  C1  <0> d   1      16.537   5.486  12.364  0.00  0.00     0.126 C 
ATOM      6  O3  <0> d   1      17.184   5.606  10.101  0.00  0.00    -0.266 OA
ENDBRANCH   3   4
ENDBRANCH   1   3
BRANCH   1   7
ATOM      7  C8  <0> d   1      17.790   1.537  11.896  0.00  0.00     0.268 C 
BRANCH   7   8
ATOM      8  N9  <0> d   1      18.505   1.476  13.178  0.00  0.00    -0.076 N 
ATOM      9  C10 <0> d   1      18.813   2.838  13.632  0.00  0.00     0.271 C 
ATOM     10  C11 <0> d   1      17.663   0.805  14.177  0.00  0.00     0.271 C 
ATOM     11  C12 <0> d   1      19.754   0.722  13.007  0.00  0.00     0.271 C 
ENDBRANCH   7   8
ENDBRANCH   1   7
TORSDOF 4
ENDMDL
MODEL 4
REMARK VINA RESULT:      -4.0      4.858      6.428
REMARK  4 active torsions:
REMARK  status: ('A' for Active; 'I' for Inactive)
REMARK    1  A    between atoms: C2_2  and  O4_4 
REMARK    2  A    between atoms: O4_4  and  C5_5 
REMARK    3  A    between atoms: C5_5  and  C8_7 
REMARK    4  A    between atoms: C8_7  and  N9_8 
ROOT
ATOM      1  C5  <0> d   1      18.734   1.546  11.040  0.00  0.00     0.153 C 
ATOM      2  C7  <0> d   1      19.650   2.680  11.504  0.00  0.00     0.042 C 
ENDROOT
BRANCH   1   3
ATOM      3  O4  <0> d   1      17.619   1.416  11.962  0.00  0.00    -0.315 OA
BRANCH   3   4
ATOM      4  C2  <0> d   1      17.017   0.218  12.024  0.00  0.00     0.255 C 
ATOM      5  C1  <0> d   1      17.737  -0.958  12.634  0.00  0.00     0.126 C 
ATOM      6  O3  <0> d   1      15.897   0.082  11.592  0.00  0.00    -0.266 OA
ENDBRANCH   3   4
ENDBRANCH   1   3
BRANCH   1   7
ATOM      7  C8  <0> d   1      18.203   1.860   9.640  0.00  0.00     0.268 C 
BRANCH   7   8
ATOM      8  N9  <0> d   1      18.595   0.788   8.716  0.00  0.00    -0.076 N 
ATOM      9  C10 <0> d   1      19.137   1.376   7.484  0.00  0.00     0.271 C 
ATOM     10  C11 <0> d   1      19.619  -0.055   9.348  0.00  0.00     0.271 C 
ATOM     11  C12 <0> d   1      17.420  -0.032   8.391  0.00  0.00     0.271 C 
ENDBRANCH   7   8
ENDBRANCH   1   7
TORSDOF 4
ENDMDL
MODEL 5
REMARK VINA RESULT:      -4.0      4.957      6.226
REMARK  4 active torsions:
REMARK  status: ('A' for Active; 'I' for Inactive)
REMARK    1  A    between atoms: C2_2  and  O4_4 
REMARK    2  A    between atoms: O4_4  and  C5_5 
REMARK    3  A    between atoms: C5_5  and  C8_7 
REMARK    4  A    between atoms: C8_7  and  N9_8 
ROOT
ATOM      1  C5  <0> d   1      18.518   1.929  10.592  0.00  0.00     0.153 C 
ATOM      2  C7  <0> d   1      18.836   2.260   9.133  0.00  0.00     0.042 C 
ENDROOT
BRANCH   1   3
ATOM      3  O4  <0> d   1      17.270   2.565  10.973  0.00  0.00    -0.315 OA
BRANCH   3   4
ATOM      4  C2  <0> d   1      17.321   3.871  11.280  0.00  0.00     0.255 C 
ATOM      5  C1  <0> d   1      18.517   4.428  12.010  0.00  0.00     0.126 C 
ATOM      6  O3  <0> d   1      16.408   4.601  10.972  0.00  0.00    -0.266 OA
ENDBRANCH   3   4
ENDBRANCH   1   3
BRANCH   1   7
ATOM      7  C8  <0> d   1      18.388   0.413  10.755  0.00  0.00     0.268 C 
BRANCH   7   8
ATOM      8  N9  <0> d   1      19.465  -0.081  11.623  0.00  0.00    -0.076 N 
ATOM      9  C10 <0> d   1      20.562  -0.599  10.795  0.00  0.00     0.271 C 
ATOM     10  C11 <0> d   1      19.961   1.017  12.463  0.00  0.00     0.271 C 
ATOM     11  C12 <0> d   1      18.948  -1.157  12.480  0.00  0.00     0.271 C 
ENDBRANCH   7   8
ENDBRANCH   1   7
TORSDOF 4
ENDMDL
MODEL 6
REMARK VINA RESULT:      -4.0      7.224      9.144
REMARK  4 active torsions:
REMARK  status: ('A' for Active; 'I' for Inactive)
REMARK    1  A    between atoms: C2_2  and  O4_4 
REMARK    2  A    between atoms: O4_4  and  C5_5 
REMARK    3  A    between atoms: C5_5  and  C8_7 
REMARK    4  A    between atoms: C8_7  and  N9_8 
ROOT
ATOM      1  C5  <0> d   1      18.850   1.047   8.358  0.00  0.00     0.153 C 
ATOM      2  C7  <0> d   1      18.985   2.378   9.100  0.00  0.00     0.042 C 
ENDROOT
BRANCH   1   3
ATOM      3  O4  <0> d   1      19.207   1.232   6.963  0.00  0.00    -0.315 OA
BRANCH   3   4
ATOM      4  C2  <0> d   1      18.534   0.503   6.060  0.00  0.00     0.255 C 
ATOM      5  C1  <0> d   1      19.219   0.044   4.798  0.00  0.00     0.126 C 
ATOM      6  O3  <0> d   1      17.377   0.213   6.258  0.00  0.00    -0.266 OA
ENDBRANCH   3   4
ENDBRANCH   1   3
BRANCH   1   7
ATOM      7  C8  <0> d   1      19.784   0.014   8.991  0.00  0.00     0.268 C 
BRANCH   7   8
ATOM      8  N9  <0> d   1      18.999  -1.137   9.457  0.00  0.00    -0.076 N 
ATOM      9  C10 <0> d   1      17.611  -0.718   9.694  0.00  0.00     0.271 C 
ATOM     10  C11 <0> d   1      19.024  -2.193   8.437  0.00  0.00     0.271 C 
ATOM     11  C12 <0> d   1      19.577  -1.649  10.706  0.00  0.00     0.271 C 
ENDBRANCH   7   8
ENDBRANCH   1   7
TORSDOF 4
ENDMDL
MODEL 7
REMARK VINA RESULT:      -4.0      1.262      2.498
REMARK  4 active torsions:
REMARK  status: ('A' for Active; 'I' for Inactive)
REMARK    1  A    between atoms: C2_2  and  O4_4 
REMARK    2  A    between atoms: O4_4  and  C5_5 
REMARK    3  A    between atoms: C5_5  and  C8_7 
REMARK    4  A    between atoms: C8_7  and  N9_8 
ROOT
ATOM      1  C5  <0> d   1      18.815   1.783  15.732  0.00  0.00     0.153 C 
ATOM      2  C7  <0> d   1      18.985   3.274  15.433  0.00  0.00     0.042 C 
ENDROOT
BRANCH   1   3
ATOM      3  O4  <0> d   1      18.303   1.614  17.080  0.00  0.00    -0.315 OA
BRANCH   3   4
ATOM      4  C2  <0> d   1      19.180   1.232  18.021  0.00  0.00     0.255 C 
ATOM      5  C1  <0> d   1      19.414  -0.234  18.283  0.00  0.00     0.126 C 
ATOM      6  O3  <0> d   1      19.782   2.063  18.659  0.00  0.00    -0.266 OA
ENDBRANCH   3   4
ENDBRANCH   1   3
BRANCH   1   7
ATOM      7  C8  <0> d   1      17.832   1.170  14.732  0.00  0.00     0.268 C 
BRANCH   7   8
ATOM      8  N9  <0> d   1      18.465   0.029  14.058  0.00  0.00    -0.076 N 
ATOM      9  C10 <0> d   1      19.867   0.352  13.760  0.00  0.00     0.271 C 
ATOM     10  C11 <0> d   1      18.409  -1.149  14.934  0.00  0.00     0.271 C 
ATOM     11  C12 <0> d   1      17.752  -0.257  12.807  0.00  0.00     0.271 C 
ENDBRANCH   7   8
ENDBRANCH   1   7
TORSDOF 4
ENDMDL
MODEL 8
REMARK VINA RESULT:      -3.9      4.830      6.296
REMARK  4 active torsions:
REMARK  status: ('A' for Active; 'I' for Inactive)
REMARK    1  A    between atoms: C2_2  and  O4_4 
REMARK    2  A    between atoms: O4_4  and  C5_5 
REMARK    3  A    between atoms: C5_5  and  C8_7 
REMARK    4  A    between atoms: C8_7  and  N9_8 
ROOT
ATOM      1  C5  <0> d   1      17.934   0.243  10.044  0.00  0.00     0.153 C 
ATOM      2  C7  <0> d   1      17.370  -0.149   8.677  0.00  0.00     0.042 C 
ENDROOT
BRANCH   1   3
ATOM      3  O4  <0> d   1      17.099   1.273  10.636  0.00  0.00    -0.315 OA
BRANCH   3   4
ATOM      4  C2  <0> d   1      17.632   2.499  10.749  0.00  0.00     0.255 C 
ATOM      5  C1  <0> d   1      18.984   2.792  10.150  0.00  0.00     0.126 C 
ATOM      6  O3  <0> d   1      17.028   3.370  11.330  0.00  0.00    -0.266 OA
ENDBRANCH   3   4
ENDBRANCH   1   3
BRANCH   1   7
ATOM      7  C8  <0> d   1      17.954  -0.984  10.957  0.00  0.00     0.268 C 
BRANCH   7   8
ATOM      8  N9  <0> d   1      19.270  -1.095  11.600  0.00  0.00    -0.076 N 
ATOM      9  C10 <0> d   1      19.289  -0.278  12.821  0.00  0.00     0.271 C 
ATOM     10  C11 <0> d   1      19.531  -2.498  11.946  0.00  0.00     0.271 C 
ATOM     11  C12 <0> d   1      20.308  -0.618  10.676  0.00  0.00     0.271 C 
ENDBRANCH   7   8
ENDBRANCH   1   7
TORSDOF 4
ENDMDL
MODEL 9
REMARK VINA RESULT:      -3.9      7.841      9.819
REMARK  4 active torsions:
REMARK  status: ('A' for Active; 'I' for Inactive)
REMARK    1  A    between atoms: C2_2  and  O4_4 
REMARK    2  A    between atoms: O4_4  and  C5_5 
REMARK    3  A    between atoms: C5_5  and  C8_7 
REMARK    4  A    between atoms: C8_7  and  N9_8 
ROOT
ATOM      1  C5  <0> d   1      18.340  -0.158   6.947  0.00  0.00     0.153 C 
ATOM      2  C7  <0> d   1      16.981   0.021   6.268  0.00  0.00     0.042 C 
ENDROOT
BRANCH   1   3
ATOM      3  O4  <0> d   1      19.355  -0.413   5.940  0.00  0.00    -0.315 OA
BRANCH   3   4
ATOM      4  C2  <0> d   1      19.448  -1.668   5.473  0.00  0.00     0.255 C 
ATOM      5  C1  <0> d   1      19.399  -2.834   6.428  0.00  0.00     0.126 C 
ATOM      6  O3  <0> d   1      19.570  -1.864   4.287  0.00  0.00    -0.266 OA
ENDBRANCH   3   4
ENDBRANCH   1   3
BRANCH   1   7
ATOM      7  C8  <0> d   1      18.697   1.114   7.719  0.00  0.00     0.268 C 
BRANCH   7   8
ATOM      8  N9  <0> d   1      18.855   0.795   9.144  0.00  0.00    -0.076 N 
ATOM      9  C10 <0> d   1      19.204   2.015   9.883  0.00  0.00     0.271 C 
ATOM     10  C11 <0> d   1      17.596   0.248   9.667  0.00  0.00     0.271 C 
ATOM     11  C12 <0> d   1      19.925  -0.199   9.307  0.00  0.00     0.271 C 
ENDBRANCH   7   8
ENDBRANCH   1   7
TORSDOF 4
ENDMDL
