MODEL 1
REMARK VINA RESULT:      -5.8      0.000      0.000
REMARK  3 active torsions:
REMARK  status: ('A' for Active; 'I' for Inactive)
REMARK    1  A    between atoms: C2_2  and  C3_3 
REMARK    2  A    between atoms: C3_3  and  C6_5 
REMARK    3  A    between atoms: C6_5  and  C7_6 
ROOT
ATOM      1  C6  <0> d   1      18.057   0.739  11.640  0.00  0.00     0.127 A 
ATOM      2  C9  <0> d   1      16.906  -0.250  11.652  0.00  0.00     0.266 A 
ATOM      3  O10 <0> d   1      15.759   0.120  11.512  0.00  0.00    -0.270 OA
ATOM      4  N11 <0> d   1      17.205  -1.554  11.824  0.00  0.00    -0.157 NA
ATOM      5  C12 <0> d   1      18.464  -1.977  11.979  0.00  0.00     0.351 A 
ATOM      6  O13 <0> d   1      18.644  -3.170  12.127  0.00  0.00    -0.244 OA
ATOM      7  N14 <0> d   1      19.542  -1.184  11.982  0.00  0.00    -0.276 N 
ATOM      8  C15 <0> d   1      19.444   0.154  11.823  0.00  0.00     0.244 A 
ATOM      9  O16 <0> d   1      20.429   0.860  11.830  0.00  0.00    -0.272 OA
ATOM     10  H30 <0> d   1      20.419  -1.581  12.102  0.00  0.00     0.173 HD
ENDROOT
BRANCH   1  11
ATOM     11  C3  <0> d   1      18.029   1.487  10.305  0.00  0.00     0.008 C 
ATOM     12  C5  <0> d   1      18.573   2.902  10.503  0.00  0.00     0.011 C 
BRANCH  11  13
ATOM     13  C2  <0> d   1      18.895   0.744   9.286  0.00  0.00     0.001 C 
ATOM     14  C1  <0> d   1      19.259   1.690   8.140  0.00  0.00     0.005 C 
ENDBRANCH  11  13
ENDBRANCH   1  11
BRANCH   1  15
ATOM     15  C7  <0> d   1      17.818   1.756  12.757  0.00  0.00     0.025 C 
ATOM     16  C8  <0> d   1      17.798   1.036  14.108  0.00  0.00     0.007 C 
ENDBRANCH   1  15
TORSDOF 3
ENDMDL
MODEL 2
REMARK VINA RESULT:      -5.7      2.354      3.204
REMARK  3 active torsions:
REMARK  status: ('A' for Active; 'I' for Inactive)
REMARK    1  A    between atoms: C2_2  and  C3_3 
REMARK    2  A    between atoms: C3_3  and  C6_5 
REMARK    3  A    between atoms: C6_5  and  C7_6 
ROOT
ATOM      1  C6  <0> d   1      18.640   2.683  11.060  0.00  0.00     0.127 A 
ATOM      2  C9  <0> d   1      17.616   1.673  11.543  0.00  0.00     0.266 A 
ATOM      3  O10 <0> d   1      16.856   1.130  10.769  0.00  0.00    -0.270 OA
ATOM      4  N11 <0> d   1      17.583   1.401  12.864  0.00  0.00    -0.157 NA
ATOM      5  C12 <0> d   1      18.415   1.991  13.729  0.00  0.00     0.351 A 
ATOM      6  O13 <0> d   1      18.317   1.687  14.902  0.00  0.00    -0.244 OA
ATOM      7  N14 <0> d   1      19.348   2.891  13.399  0.00  0.00    -0.276 N 
ATOM      8  C15 <0> d   1      19.534   3.292  12.123  0.00  0.00     0.244 A 
ATOM      9  O16 <0> d   1      20.382   4.109  11.838  0.00  0.00    -0.272 OA
ATOM     10  H30 <0> d   1      19.908   3.267  14.096  0.00  0.00     0.173 HD
ENDROOT
BRANCH   1  11
ATOM     11  C3  <0> d   1      19.533   1.998  10.022  0.00  0.00     0.008 C 
ATOM     12  C5  <0> d   1      19.603   0.500  10.321  0.00  0.00     0.011 C 
BRANCH  11  13
ATOM     13  C2  <0> d   1      18.948   2.213   8.625  0.00  0.00     0.001 C 
ATOM     14  C1  <0> d   1      18.965   0.890   7.856  0.00  0.00     0.005 C 
ENDBRANCH  11  13
ENDBRANCH   1  11
BRANCH   1  15
ATOM     15  C7  <0> d   1      17.889   3.819  10.361  0.00  0.00     0.025 C 
ATOM     16  C8  <0> d   1      17.001   4.543  11.375  0.00  0.00     0.007 C 
ENDBRANCH   1  15
TORSDOF 3
ENDMDL
MODEL 3
REMARK VINA RESULT:      -5.7      2.046      4.160
REMARK  3 active torsions:
REMARK  status: ('A' for Active; 'I' for Inactive)
REMARK    1  A    between atoms: C2_2  and  C3_3 
REMARK    2  A    between atoms: C3_3  and  C6_5 
REMARK    3  A    between atoms: C6_5  and  C7_6 
ROOT
ATOM      1  C6  <0> d   1      18.279  -0.505  11.146  0.00  0.00     0.127 A 
ATOM      2  C9  <0> d   1      17.127   0.464  11.338  0.00  0.00     0.266 A 
ATOM      3  O10 <0> d   1      16.008   0.068  11.588  0.00  0.00    -0.270 OA
ATOM      4  N11 <0> d   1      17.394   1.781  11.221  0.00  0.00    -0.157 NA
ATOM      5  C12 <0> d   1      18.623   2.233  10.947  0.00  0.00     0.351 A 
ATOM      6  O13 <0> d   1      18.774   3.436  10.860  0.00  0.00    -0.244 OA
ATOM      7  N14 <0> d   1      19.698   1.458  10.761  0.00  0.00    -0.276 N 
ATOM      8  C15 <0> d   1      19.630   0.112  10.839  0.00  0.00     0.244 A 
ATOM      9  O16 <0> d   1      20.612  -0.578  10.668  0.00  0.00    -0.272 OA
ATOM     10  H30 <0> d   1      20.551   1.876  10.565  0.00  0.00     0.173 HD
ENDROOT
BRANCH   1  11
ATOM     11  C3  <0> d   1      18.416  -1.341  12.421  0.00  0.00     0.008 C 
ATOM     12  C5  <0> d   1      19.023  -2.702  12.075  0.00  0.00     0.011 C 
BRANCH  11  13
ATOM     13  C2  <0> d   1      19.326  -0.613  13.412  0.00  0.00     0.001 C 
ATOM     14  C1  <0> d   1      19.165  -1.232  14.802  0.00  0.00     0.005 C 
ENDBRANCH  11  13
ENDBRANCH   1  11
BRANCH   1  15
ATOM     15  C7  <0> d   1      17.915  -1.450   9.998  0.00  0.00     0.025 C 
ATOM     16  C8  <0> d   1      17.691  -0.638   8.721  0.00  0.00     0.007 C 
ENDBRANCH   1  15
TORSDOF 3
ENDMDL
MODEL 4
REMARK VINA RESULT:      -5.6      1.722      3.198
REMARK  3 active torsions:
REMARK  status: ('A' for Active; 'I' for Inactive)
REMARK    1  A    between atoms: C2_2  and  C3_3 
REMARK    2  A    between atoms: C3_3  and  C6_5 
REMARK    3  A    between atoms: C6_5  and  C7_6 
ROOT
ATOM      1  C6  <0> d   1      18.107  -0.170  10.537  0.00  0.00     0.127 A 
ATOM      2  C9  <0> d   1      19.597  -0.095  10.814  0.00  0.00     0.266 A 
ATOM      3  O10 <0> d   1      20.411  -0.355   9.953  0.00  0.00    -0.270 OA
ATOM      4  N11 <0> d   1      19.983   0.272  12.054  0.00  0.00    -0.157 NA
ATOM      5  C12 <0> d   1      19.098   0.562  13.014  0.00  0.00     0.351 A 
ATOM      6  O13 <0> d   1      19.533   0.885  14.102  0.00  0.00    -0.244 OA
ATOM      7  N14 <0> d   1      17.769   0.524  12.865  0.00  0.00    -0.276 N 
ATOM      8  C15 <0> d   1      17.191   0.179  11.694  0.00  0.00     0.244 A 
ATOM      9  O16 <0> d   1      15.986   0.148  11.574  0.00  0.00    -0.272 OA
ATOM     10  H30 <0> d   1      17.204   0.752  13.620  0.00  0.00     0.173 HD
ENDROOT
BRANCH   1  11
ATOM     11  C3  <0> d   1      17.790   0.776   9.377  0.00  0.00     0.008 C 
ATOM     12  C5  <0> d   1      18.624   2.050   9.516  0.00  0.00     0.011 C 
BRANCH  11  13
ATOM     13  C2  <0> d   1      18.125   0.088   8.052  0.00  0.00     0.001 C 
ATOM     14  C1  <0> d   1      18.830   1.081   7.126  0.00  0.00     0.005 C 
ENDBRANCH  11  13
ENDBRANCH   1  11
BRANCH   1  15
ATOM     15  C7  <0> d   1      17.782  -1.596  10.087  0.00  0.00     0.025 C 
ATOM     16  C8  <0> d   1      17.970  -2.558  11.262  0.00  0.00     0.007 C 
ENDBRANCH   1  15
TORSDOF 3
ENDMDL
MODEL 5
REMARK VINA RESULT:      -5.4      2.401      3.837
REMARK  3 active torsions:
REMARK  status: ('A' for Active; 'I' for Inactive)
REMARK    1  A    between atoms: C2_2  and  C3_3 
REMARK    2  A    between atoms: C3_3  and  C6_5 
REMARK    3  A    between atoms: C6_5  and  C7_6 
ROOT
ATOM      1  C6  <0> d   1      18.528   1.919  11.933  0.00  0.00     0.127 A 
ATOM      2  C9  <0> d   1      17.815   2.706  10.848  0.00  0.00     0.266 A 
ATOM      3  O10 <0> d   1      16.888   3.442  11.113  0.00  0.00    -0.270 OA
ATOM      4  N11 <0> d   1      18.251   2.557   9.580  0.00  0.00    -0.157 NA
ATOM      5  C12 <0> d   1      19.272   1.749   9.273  0.00  0.00     0.351 A 
ATOM      6  O13 <0> d   1      19.600   1.676   8.105  0.00  0.00    -0.244 OA
ATOM      7  N14 <0> d   1      19.960   1.018  10.157  0.00  0.00    -0.276 N 
ATOM      8  C15 <0> d   1      19.672   1.034  11.476  0.00  0.00     0.244 A 
ATOM      9  O16 <0> d   1      20.303   0.365  12.265  0.00  0.00    -0.272 OA
ATOM     10  H30 <0> d   1      20.688   0.459   9.841  0.00  0.00     0.173 HD
ENDROOT
BRANCH   1  11
ATOM     11  C3  <0> d   1      19.075   2.911  12.961  0.00  0.00     0.008 C 
ATOM     12  C5  <0> d   1      19.588   4.159  12.241  0.00  0.00     0.011 C 
BRANCH  11  13
ATOM     13  C2  <0> d   1      17.960   3.304  13.932  0.00  0.00     0.001 C 
ATOM     14  C1  <0> d   1      18.005   4.815  14.175  0.00  0.00     0.005 C 
ENDBRANCH  11  13
ENDBRANCH   1  11
BRANCH   1  15
ATOM     15  C7  <0> d   1      17.493   1.035  12.632  0.00  0.00     0.025 C 
ATOM     16  C8  <0> d   1      16.888   0.058  11.621  0.00  0.00     0.007 C 
ENDBRANCH   1  15
TORSDOF 3
ENDMDL
MODEL 6
REMARK VINA RESULT:      -5.4      1.723      4.188
REMARK  3 active torsions:
REMARK  status: ('A' for Active; 'I' for Inactive)
REMARK    1  A    between atoms: C2_2  and  C3_3 
REMARK    2  A    between atoms: C3_3  and  C6_5 
REMARK    3  A    between atoms: C6_5  and  C7_6 
ROOT
ATOM      1  C6  <0> d   1      18.167   0.281  12.301  0.00  0.00     0.127 A 
ATOM      2  C9  <0> d   1      19.592   0.314  11.779  0.00  0.00     0.266 A 
ATOM      3  O10 <0> d   1      20.532   0.475  12.529  0.00  0.00    -0.270 OA
ATOM      4  N11 <0> d   1      19.774   0.158  10.451  0.00  0.00    -0.157 NA
ATOM      5  C12 <0> d   1      18.748  -0.021   9.612  0.00  0.00     0.351 A 
ATOM      6  O13 <0> d   1      19.002  -0.154   8.431  0.00  0.00    -0.244 OA
ATOM      7  N14 <0> d   1      17.461  -0.065   9.977  0.00  0.00    -0.276 N 
ATOM      8  C15 <0> d   1      17.079   0.072  11.265  0.00  0.00     0.244 A 
ATOM      9  O16 <0> d   1      15.910   0.032  11.581  0.00  0.00    -0.272 OA
ATOM     10  H30 <0> d   1      16.783  -0.198   9.297  0.00  0.00     0.173 HD
ENDROOT
BRANCH   1  11
ATOM     11  C3  <0> d   1      18.064  -0.844  13.333  0.00  0.00     0.008 C 
ATOM     12  C5  <0> d   1      18.742  -2.101  12.786  0.00  0.00     0.011 C 
BRANCH  11  13
ATOM     13  C2  <0> d   1      18.756  -0.413  14.628  0.00  0.00     0.001 C 
ATOM     14  C1  <0> d   1      18.318  -1.332  15.770  0.00  0.00     0.005 C 
ENDBRANCH  11  13
ENDBRANCH   1  11
BRANCH   1  15
ATOM     15  C7  <0> d   1      17.896   1.606  13.017  0.00  0.00     0.025 C 
ATOM     16  C8  <0> d   1      17.916   2.749  12.000  0.00  0.00     0.007 C 
ENDBRANCH   1  15
TORSDOF 3
ENDMDL
MODEL 7
REMARK VINA RESULT:      -5.4      1.624      3.381
REMARK  3 active torsions:
REMARK  status: ('A' for Active; 'I' for Inactive)
REMARK    1  A    between atoms: C2_2  and  C3_3 
REMARK    2  A    between atoms: C3_3  and  C6_5 
REMARK    3  A    between atoms: C6_5  and  C7_6 
ROOT
ATOM      1  C6  <0> d   1      18.127   1.479  11.308  0.00  0.00     0.127 A 
ATOM      2  C9  <0> d   1      19.535   1.596  11.863  0.00  0.00     0.266 A 
ATOM      3  O10 <0> d   1      20.290   2.466  11.483  0.00  0.00    -0.270 OA
ATOM      4  N11 <0> d   1      19.915   0.697  12.795  0.00  0.00    -0.157 NA
ATOM      5  C12 <0> d   1      19.094  -0.268  13.224  0.00  0.00     0.351 A 
ATOM      6  O13 <0> d   1      19.518  -1.035  14.066  0.00  0.00    -0.244 OA
ATOM      7  N14 <0> d   1      17.840  -0.450  12.796  0.00  0.00    -0.276 N 
ATOM      8  C15 <0> d   1      17.279   0.350  11.864  0.00  0.00     0.244 A 
ATOM      9  O16 <0> d   1      16.142   0.173  11.484  0.00  0.00    -0.272 OA
ATOM     10  H30 <0> d   1      17.317  -1.180  13.165  0.00  0.00     0.173 HD
ENDROOT
BRANCH   1  11
ATOM     11  C3  <0> d   1      17.398   2.798  11.576  0.00  0.00     0.008 C 
ATOM     12  C5  <0> d   1      17.802   3.333  12.951  0.00  0.00     0.011 C 
BRANCH  11  13
ATOM     13  C2  <0> d   1      17.777   3.817  10.500  0.00  0.00     0.001 C 
ATOM     14  C1  <0> d   1      17.002   5.116  10.733  0.00  0.00     0.005 C 
ENDBRANCH  11  13
ENDBRANCH   1  11
BRANCH   1  15
ATOM     15  C7  <0> d   1      18.231   1.295   9.793  0.00  0.00     0.025 C 
ATOM     16  C8  <0> d   1      19.012   0.016   9.486  0.00  0.00     0.007 C 
ENDBRANCH   1  15
TORSDOF 3
ENDMDL
MODEL 8
REMARK VINA RESULT:      -5.3      1.799      2.381
REMARK  3 active torsions:
REMARK  status: ('A' for Active; 'I' for Inactive)
REMARK    1  A    between atoms: C2_2  and  C3_3 
REMARK    2  A    between atoms: C3_3  and  C6_5 
REMARK    3  A    between atoms: C6_5  and  C7_6 
ROOT
ATOM      1  C6  <0> d   1      18.168   0.084  10.326  0.00  0.00     0.127 A 
ATOM      2  C9  <0> d   1      17.252  -0.170  11.509  0.00  0.00     0.266 A 
ATOM      3  O10 <0> d   1      16.081   0.142  11.475  0.00  0.00    -0.270 OA
ATOM      4  N11 <0> d   1      17.790  -0.756  12.599  0.00  0.00    -0.157 NA
ATOM      5  C12 <0> d   1      19.080  -1.106  12.652  0.00  0.00     0.351 A 
ATOM      6  O13 <0> d   1      19.480  -1.629  13.673  0.00  0.00    -0.244 OA
ATOM      7  N14 <0> d   1      19.961  -0.924  11.662  0.00  0.00    -0.276 N 
ATOM      8  C15 <0> d   1      19.612  -0.352  10.490  0.00  0.00     0.244 A 
ATOM      9  O16 <0> d   1      20.421  -0.192   9.603  0.00  0.00    -0.272 OA
ATOM     10  H30 <0> d   1      20.880  -1.210  11.791  0.00  0.00     0.173 HD
ENDROOT
BRANCH   1  11
ATOM     11  C3  <0> d   1      17.587  -0.642   9.109  0.00  0.00     0.008 C 
ATOM     12  C5  <0> d   1      17.924   0.143   7.840  0.00  0.00     0.011 C 
BRANCH  11  13
ATOM     13  C2  <0> d   1      18.190  -2.045   9.017  0.00  0.00     0.001 C 
ATOM     14  C1  <0> d   1      18.504  -2.369   7.556  0.00  0.00     0.005 C 
ENDBRANCH  11  13
ENDBRANCH   1  11
BRANCH   1  15
ATOM     15  C7  <0> d   1      18.155   1.585  10.032  0.00  0.00     0.025 C 
ATOM     16  C8  <0> d   1      18.743   2.344  11.223  0.00  0.00     0.007 C 
ENDBRANCH   1  15
TORSDOF 3
ENDMDL
MODEL 9
REMARK VINA RESULT:      -5.3      1.984      3.101
REMARK  3 active torsions:
REMARK  status: ('A' for Active; 'I' for Inactive)
REMARK    1  A    between atoms: C2_2  and  C3_3 
REMARK    2  A    between atoms: C3_3  and  C6_5 
REMARK    3  A    between atoms: C6_5  and  C7_6 
ROOT
ATOM      1  C6  <0> d   1      18.159   0.354  10.021  0.00  0.00     0.127 A 
ATOM      2  C9  <0> d   1      19.257  -0.690   9.950  0.00  0.00     0.266 A 
ATOM      3  O10 <0> d   1      19.167  -1.648   9.210  0.00  0.00    -0.270 OA
ATOM      4  N11 <0> d   1      20.337  -0.515  10.739  0.00  0.00    -0.157 NA
ATOM      5  C12 <0> d   1      20.451   0.536  11.560  0.00  0.00     0.351 A 
ATOM      6  O13 <0> d   1      21.458   0.616  12.235  0.00  0.00    -0.244 OA
ATOM      7  N14 <0> d   1      19.539   1.505  11.690  0.00  0.00    -0.276 N 
ATOM      8  C15 <0> d   1      18.389   1.504  10.982  0.00  0.00     0.244 A 
ATOM      9  O16 <0> d   1      17.570   2.389  11.112  0.00  0.00    -0.272 OA
ATOM     10  H30 <0> d   1      19.708   2.230  12.313  0.00  0.00     0.173 HD
ENDROOT
BRANCH   1  11
ATOM     11  C3  <0> d   1      17.965   0.938   8.619  0.00  0.00     0.008 C 
ATOM     12  C5  <0> d   1      19.314   1.404   8.070  0.00  0.00     0.011 C 
BRANCH  11  13
ATOM     13  C2  <0> d   1      17.382  -0.135   7.697  0.00  0.00     0.001 C 
ATOM     14  C1  <0> d   1      17.677   0.230   6.240  0.00  0.00     0.005 C 
ENDBRANCH  11  13
ENDBRANCH   1  11
BRANCH   1  15
ATOM     15  C7  <0> d   1      16.862  -0.351  10.423  0.00  0.00     0.025 C 
ATOM     16  C8  <0> d   1      17.005  -0.915  11.838  0.00  0.00     0.007 C 
ENDBRANCH   1  15
TORSDOF 3
ENDMDL
