MODEL 1
REMARK VINA RESULT:      -5.9      0.000      0.000
REMARK  7 active torsions:
REMARK  status: ('A' for Active; 'I' for Inactive)
REMARK    1  A    between atoms: C2_2  and  N4_4 
REMARK    2  A    between atoms: N4_4  and  C7_7 
REMARK    3  A    between atoms: C7_7  and  C8_8 
REMARK    4  A    between atoms: C8_8  and  O10_9 
REMARK    5  A    between atoms: C8_8  and  C11_10 
REMARK    6  A    between atoms: C14_13  and  O15_14 
REMARK    7  A    between atoms: C16_15  and  O17_16 
ROOT
ATOM      1  C11 <0> d   1      19.692  -0.165   9.554  0.00  0.00    -0.025 A 
ATOM      2  C12 <0> d   1      19.701   1.126   9.062  0.00  0.00     0.012 A 
ATOM      3  C13 <0> d   1      19.146   1.402   7.826  0.00  0.00     0.040 A 
ATOM      4  C14 <0> d   1      18.580   0.383   7.078  0.00  0.00     0.098 A 
ATOM      5  C16 <0> d   1      18.571  -0.918   7.573  0.00  0.00     0.099 A 
ATOM      6  C18 <0> d   1      19.133  -1.189   8.810  0.00  0.00     0.049 A 
ENDROOT
BRANCH   1   7
ATOM      7  C8  <0> d   1      20.297  -0.461  10.902  0.00  0.00     0.177 C 
BRANCH   7   8
ATOM      8  C7  <0> d   1      19.626  -1.699  11.501  0.00  0.00     0.269 C 
BRANCH   8   9
ATOM      9  N4  <0> d   1      20.560  -2.834  11.451  0.00  0.00    -0.069 N 
ATOM     10  H5  <0> d   1      21.180  -2.792  12.246  0.00  0.00     0.277 HD
ATOM     11  H6  <0> d   1      21.099  -2.788  10.600  0.00  0.00     0.277 HD
BRANCH   9  12
ATOM     12  C2  <0> d   1      19.803  -4.092  11.485  0.00  0.00     0.178 C 
ATOM     13  C1  <0> d   1      18.342  -3.798  11.831  0.00  0.00     0.039 C 
ATOM     14  C3  <0> d   1      19.877  -4.770  10.115  0.00  0.00     0.039 C 
ENDBRANCH   9  12
ENDBRANCH   8   9
ENDBRANCH   7   8
BRANCH   7  15
ATOM     15  O10 <0> d   1      21.697  -0.703  10.753  0.00  0.00    -0.389 OA
ATOM     16  H28 <0> d   1      21.944  -1.071   9.892  0.00  0.00     0.210 HD
ENDBRANCH   7  15
ENDBRANCH   1   7
BRANCH   5  17
ATOM     17  O17 <0> d   1      18.018  -1.922   6.842  0.00  0.00    -0.358 OA
ATOM     18  H32 <0> d   1      17.153  -1.706   6.466  0.00  0.00     0.217 HD
ENDBRANCH   5  17
BRANCH   4  19
ATOM     19  O15 <0> d   1      18.034   0.653   5.861  0.00  0.00    -0.358 OA
ATOM     20  H31 <0> d   1      18.480   1.362   5.378  0.00  0.00     0.217 HD
ENDBRANCH   4  19
TORSDOF 7
ENDMDL
MODEL 2
REMARK VINA RESULT:      -5.9      3.756      6.408
REMARK  7 active torsions:
REMARK  status: ('A' for Active; 'I' for Inactive)
REMARK    1  A    between atoms: C2_2  and  N4_4 
REMARK    2  A    between atoms: N4_4  and  C7_7 
REMARK    3  A    between atoms: C7_7  and  C8_8 
REMARK    4  A    between atoms: C8_8  and  O10_9 
REMARK    5  A    between atoms: C8_8  and  C11_10 
REMARK    6  A    between atoms: C14_13  and  O15_14 
REMARK    7  A    between atoms: C16_15  and  O17_16 
ROOT
ATOM      1  C11 <0> d   1      19.584  -0.100  13.244  0.00  0.00    -0.025 A 
ATOM      2  C12 <0> d   1      19.232  -1.180  14.030  0.00  0.00     0.012 A 
ATOM      3  C13 <0> d   1      18.367  -1.011  15.096  0.00  0.00     0.040 A 
ATOM      4  C14 <0> d   1      17.852   0.244  15.378  0.00  0.00     0.098 A 
ATOM      5  C16 <0> d   1      18.208   1.332  14.587  0.00  0.00     0.099 A 
ATOM      6  C18 <0> d   1      19.078   1.157  13.524  0.00  0.00     0.049 A 
ENDROOT
BRANCH   1   7
ATOM      7  C8  <0> d   1      20.526  -0.289  12.083  0.00  0.00     0.177 C 
BRANCH   7   8
ATOM      8  C7  <0> d   1      19.758  -0.113  10.771  0.00  0.00     0.269 C 
BRANCH   8   9
ATOM      9  N4  <0> d   1      20.045   1.216  10.211  0.00  0.00    -0.069 N 
ATOM     10  H5  <0> d   1      20.829   1.151   9.579  0.00  0.00     0.277 HD
ATOM     11  H6  <0> d   1      20.269   1.854  10.959  0.00  0.00     0.277 HD
BRANCH   9  12
ATOM     12  C2  <0> d   1      18.867   1.705   9.484  0.00  0.00     0.178 C 
ATOM     13  C1  <0> d   1      18.517   3.113   9.970  0.00  0.00     0.039 C 
ATOM     14  C3  <0> d   1      19.173   1.743   7.984  0.00  0.00     0.039 C 
ENDBRANCH   9  12
ENDBRANCH   8   9
ENDBRANCH   7   8
BRANCH   7  15
ATOM     15  O10 <0> d   1      21.573   0.680  12.157  0.00  0.00    -0.389 OA
ATOM     16  H28 <0> d   1      21.941   0.928  11.297  0.00  0.00     0.210 HD
ENDBRANCH   7  15
ENDBRANCH   1   7
BRANCH   5  17
ATOM     17  O17 <0> d   1      17.706   2.566  14.861  0.00  0.00    -0.358 OA
ATOM     18  H32 <0> d   1      18.196   3.049  15.541  0.00  0.00     0.217 HD
ENDBRANCH   5  17
BRANCH   4  19
ATOM     19  O15 <0> d   1      17.002   0.412  16.427  0.00  0.00    -0.358 OA
ATOM     20  H31 <0> d   1      17.100   1.260  16.881  0.00  0.00     0.217 HD
ENDBRANCH   4  19
TORSDOF 7
ENDMDL
MODEL 3
REMARK VINA RESULT:      -5.7      2.385      2.938
REMARK  7 active torsions:
REMARK  status: ('A' for Active; 'I' for Inactive)
REMARK    1  A    between atoms: C2_2  and  N4_4 
REMARK    2  A    between atoms: N4_4  and  C7_7 
REMARK    3  A    between atoms: C7_7  and  C8_8 
REMARK    4  A    between atoms: C8_8  and  O10_9 
REMARK    5  A    between atoms: C8_8  and  C11_10 
REMARK    6  A    between atoms: C14_13  and  O15_14 
REMARK    7  A    between atoms: C16_15  and  O17_16 
ROOT
ATOM      1  C11 <0> d   1      19.558   0.545  10.755  0.00  0.00    -0.025 A 
ATOM      2  C12 <0> d   1      18.324   1.108  10.494  0.00  0.00     0.012 A 
ATOM      3  C13 <0> d   1      17.550   0.633   9.450  0.00  0.00     0.040 A 
ATOM      4  C14 <0> d   1      18.013  -0.409   8.664  0.00  0.00     0.098 A 
ATOM      5  C16 <0> d   1      19.257  -0.976   8.926  0.00  0.00     0.099 A 
ATOM      6  C18 <0> d   1      20.029  -0.493   9.970  0.00  0.00     0.049 A 
ENDROOT
BRANCH   1   7
ATOM      7  C8  <0> d   1      20.398   1.065  11.894  0.00  0.00     0.177 C 
BRANCH   7   8
ATOM      8  C7  <0> d   1      19.685   0.787  13.219  0.00  0.00     0.269 C 
BRANCH   8   9
ATOM      9  N4  <0> d   1      20.181  -0.474  13.787  0.00  0.00    -0.069 N 
ATOM     10  H5  <0> d   1      20.790  -0.275  14.567  0.00  0.00     0.277 HD
ATOM     11  H6  <0> d   1      20.693  -0.982  13.082  0.00  0.00     0.277 HD
BRANCH   9  12
ATOM     12  C2  <0> d   1      19.045  -1.284  14.246  0.00  0.00     0.178 C 
ATOM     13  C1  <0> d   1      19.015  -1.297  15.776  0.00  0.00     0.039 C 
ATOM     14  C3  <0> d   1      17.742  -0.684  13.715  0.00  0.00     0.039 C 
ENDBRANCH   9  12
ENDBRANCH   8   9
ENDBRANCH   7   8
BRANCH   7  15
ATOM     15  O10 <0> d   1      21.666   0.407  11.888  0.00  0.00    -0.389 OA
ATOM     16  H28 <0> d   1      22.379   0.923  12.292  0.00  0.00     0.210 HD
ENDBRANCH   7  15
ENDBRANCH   1   7
BRANCH   5  17
ATOM     17  O17 <0> d   1      19.715  -1.999   8.156  0.00  0.00    -0.358 OA
ATOM     18  H32 <0> d   1      20.611  -2.290   8.379  0.00  0.00     0.217 HD
ENDBRANCH   5  17
BRANCH   4  19
ATOM     19  O15 <0> d   1      17.253  -0.876   7.637  0.00  0.00    -0.358 OA
ATOM     20  H31 <0> d   1      17.644  -0.737   6.763  0.00  0.00     0.217 HD
ENDBRANCH   4  19
TORSDOF 7
ENDMDL
MODEL 4
REMARK VINA RESULT:      -5.7      3.000      3.908
REMARK  7 active torsions:
REMARK  status: ('A' for Active; 'I' for Inactive)
REMARK    1  A    between atoms: C2_2  and  N4_4 
REMARK    2  A    between atoms: N4_4  and  C7_7 
REMARK    3  A    between atoms: C7_7  and  C8_8 
REMARK    4  A    between atoms: C8_8  and  O10_9 
REMARK    5  A    between atoms: C8_8  and  C11_10 
REMARK    6  A    between atoms: C14_13  and  O15_14 
REMARK    7  A    between atoms: C16_15  and  O17_16 
ROOT
ATOM      1  C11 <0> d   1      19.647   1.585  11.244  0.00  0.00    -0.025 A 
ATOM      2  C12 <0> d   1      19.189   1.606   9.940  0.00  0.00     0.012 A 
ATOM      3  C13 <0> d   1      18.518   2.715   9.457  0.00  0.00     0.040 A 
ATOM      4  C14 <0> d   1      18.304   3.808  10.281  0.00  0.00     0.098 A 
ATOM      5  C16 <0> d   1      18.765   3.787  11.595  0.00  0.00     0.099 A 
ATOM      6  C18 <0> d   1      19.432   2.671  12.074  0.00  0.00     0.049 A 
ENDROOT
BRANCH   1   7
ATOM      7  C8  <0> d   1      20.378   0.375  11.765  0.00  0.00     0.177 C 
BRANCH   7   8
ATOM      8  C7  <0> d   1      20.471  -0.679  10.659  0.00  0.00     0.269 C 
BRANCH   8   9
ATOM      9  N4  <0> d   1      20.581  -2.014  11.264  0.00  0.00    -0.069 N 
ATOM     10  H5  <0> d   1      20.650  -1.924  12.267  0.00  0.00     0.277 HD
ATOM     11  H6  <0> d   1      21.405  -2.476  10.911  0.00  0.00     0.277 HD
BRANCH   9  12
ATOM     12  C2  <0> d   1      19.391  -2.804  10.924  0.00  0.00     0.178 C 
ATOM     13  C1  <0> d   1      18.405  -2.770  12.094  0.00  0.00     0.039 C 
ATOM     14  C3  <0> d   1      18.725  -2.215   9.679  0.00  0.00     0.039 C 
ENDBRANCH   9  12
ENDBRANCH   8   9
ENDBRANCH   7   8
BRANCH   7  15
ATOM     15  O10 <0> d   1      21.694   0.754  12.174  0.00  0.00    -0.389 OA
ATOM     16  H28 <0> d   1      22.354   0.707  11.469  0.00  0.00     0.210 HD
ENDBRANCH   7  15
ENDBRANCH   1   7
BRANCH   5  17
ATOM     17  O17 <0> d   1      18.556   4.857  12.407  0.00  0.00    -0.358 OA
ATOM     18  H32 <0> d   1      18.730   4.681  13.343  0.00  0.00     0.217 HD
ENDBRANCH   5  17
BRANCH   4  19
ATOM     19  O15 <0> d   1      17.644   4.899   9.808  0.00  0.00    -0.358 OA
ATOM     20  H31 <0> d   1      17.410   5.544  10.490  0.00  0.00     0.217 HD
ENDBRANCH   4  19
TORSDOF 7
ENDMDL
MODEL 5
REMARK VINA RESULT:      -5.7      3.231      4.558
REMARK  7 active torsions:
REMARK  status: ('A' for Active; 'I' for Inactive)
REMARK    1  A    between atoms: C2_2  and  N4_4 
REMARK    2  A    between atoms: N4_4  and  C7_7 
REMARK    3  A    between atoms: C7_7  and  C8_8 
REMARK    4  A    between atoms: C8_8  and  O10_9 
REMARK    5  A    between atoms: C8_8  and  C11_10 
REMARK    6  A    between atoms: C14_13  and  O15_14 
REMARK    7  A    between atoms: C16_15  and  O17_16 
ROOT
ATOM      1  C11 <0> d   1      18.901   0.065   7.892  0.00  0.00    -0.025 A 
ATOM      2  C12 <0> d   1      18.756   0.855   6.768  0.00  0.00     0.012 A 
ATOM      3  C13 <0> d   1      18.973   0.321   5.511  0.00  0.00     0.040 A 
ATOM      4  C14 <0> d   1      19.338  -1.008   5.377  0.00  0.00     0.098 A 
ATOM      5  C16 <0> d   1      19.484  -1.804   6.510  0.00  0.00     0.099 A 
ATOM      6  C18 <0> d   1      19.270  -1.262   7.766  0.00  0.00     0.049 A 
ENDROOT
BRANCH   1   7
ATOM      7  C8  <0> d   1      18.662   0.651   9.260  0.00  0.00     0.177 C 
BRANCH   7   8
ATOM      8  C7  <0> d   1      19.003   2.143   9.241  0.00  0.00     0.269 C 
BRANCH   8   9
ATOM      9  N4  <0> d   1      19.621   2.520  10.520  0.00  0.00    -0.069 N 
ATOM     10  H5  <0> d   1      20.537   2.908  10.348  0.00  0.00     0.277 HD
ATOM     11  H6  <0> d   1      19.707   1.703  11.105  0.00  0.00     0.277 HD
BRANCH   9  12
ATOM     12  C2  <0> d   1      18.783   3.520  11.193  0.00  0.00     0.178 C 
ATOM     13  C1  <0> d   1      17.838   4.162  10.175  0.00  0.00     0.039 C 
ATOM     14  C3  <0> d   1      17.963   2.842  12.294  0.00  0.00     0.039 C 
ENDBRANCH   9  12
ENDBRANCH   8   9
ENDBRANCH   7   8
BRANCH   7  15
ATOM     15  O10 <0> d   1      17.289   0.481   9.618  0.00  0.00    -0.389 OA
ATOM     16  H28 <0> d   1      16.839  -0.224   9.129  0.00  0.00     0.210 HD
ENDBRANCH   7  15
ENDBRANCH   1   7
BRANCH   5  17
ATOM     17  O17 <0> d   1      19.843  -3.110   6.383  0.00  0.00    -0.358 OA
ATOM     18  H32 <0> d   1      20.633  -3.251   5.843  0.00  0.00     0.217 HD
ENDBRANCH   5  17
BRANCH   4  19
ATOM     19  O15 <0> d   1      19.553  -1.535   4.142  0.00  0.00    -0.358 OA
ATOM     20  H31 <0> d   1      19.987  -2.399   4.152  0.00  0.00     0.217 HD
ENDBRANCH   4  19
TORSDOF 7
ENDMDL
MODEL 6
REMARK VINA RESULT:      -5.7      4.105      5.608
REMARK  7 active torsions:
REMARK  status: ('A' for Active; 'I' for Inactive)
REMARK    1  A    between atoms: C2_2  and  N4_4 
REMARK    2  A    between atoms: N4_4  and  C7_7 
REMARK    3  A    between atoms: C7_7  and  C8_8 
REMARK    4  A    between atoms: C8_8  and  O10_9 
REMARK    5  A    between atoms: C8_8  and  C11_10 
REMARK    6  A    between atoms: C14_13  and  O15_14 
REMARK    7  A    between atoms: C16_15  and  O17_16 
ROOT
ATOM      1  C11 <0> d   1      18.865   0.155  13.018  0.00  0.00    -0.025 A 
ATOM      2  C12 <0> d   1      18.056  -0.952  12.841  0.00  0.00     0.012 A 
ATOM      3  C13 <0> d   1      18.421  -1.943  11.948  0.00  0.00     0.040 A 
ATOM      4  C14 <0> d   1      19.599  -1.827  11.229  0.00  0.00     0.098 A 
ATOM      5  C16 <0> d   1      20.414  -0.713  11.408  0.00  0.00     0.099 A 
ATOM      6  C18 <0> d   1      20.040   0.279  12.300  0.00  0.00     0.049 A 
ENDROOT
BRANCH   1   7
ATOM      7  C8  <0> d   1      18.463   1.232  13.993  0.00  0.00     0.177 C 
BRANCH   7   8
ATOM      8  C7  <0> d   1      17.451   0.664  14.990  0.00  0.00     0.269 C 
BRANCH   8   9
ATOM      9  N4  <0> d   1      17.844   1.041  16.355  0.00  0.00    -0.069 N 
ATOM     10  H5  <0> d   1      17.210   1.746  16.704  0.00  0.00     0.277 HD
ATOM     11  H6  <0> d   1      18.783   1.410  16.345  0.00  0.00     0.277 HD
BRANCH   9  12
ATOM     12  C2  <0> d   1      17.789  -0.141  17.225  0.00  0.00     0.178 C 
ATOM     13  C1  <0> d   1      18.426  -1.332  16.506  0.00  0.00     0.039 C 
ATOM     14  C3  <0> d   1      18.555   0.143  18.520  0.00  0.00     0.039 C 
ENDBRANCH   9  12
ENDBRANCH   8   9
ENDBRANCH   7   8
BRANCH   7  15
ATOM     15  O10 <0> d   1      19.619   1.691  14.697  0.00  0.00    -0.389 OA
ATOM     16  H28 <0> d   1      20.327   1.035  14.762  0.00  0.00     0.210 HD
ENDBRANCH   7  15
ENDBRANCH   1   7
BRANCH   5  17
ATOM     17  O17 <0> d   1      21.571  -0.595  10.703  0.00  0.00    -0.358 OA
ATOM     18  H32 <0> d   1      22.207   0.022  11.091  0.00  0.00     0.217 HD
ENDBRANCH   5  17
BRANCH   4  19
ATOM     19  O15 <0> d   1      19.960  -2.801  10.350  0.00  0.00    -0.358 OA
ATOM     20  H31 <0> d   1      20.369  -3.574  10.764  0.00  0.00     0.217 HD
ENDBRANCH   4  19
TORSDOF 7
ENDMDL
MODEL 7
REMARK VINA RESULT:      -5.6      3.867      6.460
REMARK  7 active torsions:
REMARK  status: ('A' for Active; 'I' for Inactive)
REMARK    1  A    between atoms: C2_2  and  N4_4 
REMARK    2  A    between atoms: N4_4  and  C7_7 
REMARK    3  A    between atoms: C7_7  and  C8_8 
REMARK    4  A    between atoms: C8_8  and  O10_9 
REMARK    5  A    between atoms: C8_8  and  C11_10 
REMARK    6  A    between atoms: C14_13  and  O15_14 
REMARK    7  A    between atoms: C16_15  and  O17_16 
ROOT
ATOM      1  C11 <0> d   1      19.678   0.058  13.419  0.00  0.00    -0.025 A 
ATOM      2  C12 <0> d   1      19.185   1.330  13.640  0.00  0.00     0.012 A 
ATOM      3  C13 <0> d   1      18.432   1.597  14.770  0.00  0.00     0.040 A 
ATOM      4  C14 <0> d   1      18.170   0.588  15.681  0.00  0.00     0.098 A 
ATOM      5  C16 <0> d   1      18.665  -0.694  15.458  0.00  0.00     0.099 A 
ATOM      6  C18 <0> d   1      19.415  -0.956  14.323  0.00  0.00     0.049 A 
ENDROOT
BRANCH   1   7
ATOM      7  C8  <0> d   1      20.499  -0.228  12.188  0.00  0.00     0.177 C 
BRANCH   7   8
ATOM      8  C7  <0> d   1      19.628  -0.046  10.943  0.00  0.00     0.269 C 
BRANCH   8   9
ATOM      9  N4  <0> d   1      20.009   1.197  10.257  0.00  0.00    -0.069 N 
ATOM     10  H5  <0> d   1      20.779   1.012   9.630  0.00  0.00     0.277 HD
ATOM     11  H6  <0> d   1      20.288   1.885  10.939  0.00  0.00     0.277 HD
BRANCH   9  12
ATOM     12  C2  <0> d   1      18.864   1.703   9.489  0.00  0.00     0.178 C 
ATOM     13  C1  <0> d   1      18.522   3.119   9.957  0.00  0.00     0.039 C 
ATOM     14  C3  <0> d   1      19.218   1.728   8.000  0.00  0.00     0.039 C 
ENDBRANCH   9  12
ENDBRANCH   8   9
ENDBRANCH   7   8
BRANCH   7  15
ATOM     15  O10 <0> d   1      21.604   0.676  12.133  0.00  0.00    -0.389 OA
ATOM     16  H28 <0> d   1      21.527   1.351  11.444  0.00  0.00     0.210 HD
ENDBRANCH   7  15
ENDBRANCH   1   7
BRANCH   5  17
ATOM     17  O17 <0> d   1      18.409  -1.688  16.350  0.00  0.00    -0.358 OA
ATOM     18  H32 <0> d   1      19.198  -2.162  16.649  0.00  0.00     0.217 HD
ENDBRANCH   5  17
BRANCH   4  19
ATOM     19  O15 <0> d   1      17.429   0.848  16.792  0.00  0.00    -0.358 OA
ATOM     20  H31 <0> d   1      16.579   1.271  16.608  0.00  0.00     0.217 HD
ENDBRANCH   4  19
TORSDOF 7
ENDMDL
MODEL 8
REMARK VINA RESULT:      -5.6      3.878      5.893
REMARK  7 active torsions:
REMARK  status: ('A' for Active; 'I' for Inactive)
REMARK    1  A    between atoms: C2_2  and  N4_4 
REMARK    2  A    between atoms: N4_4  and  C7_7 
REMARK    3  A    between atoms: C7_7  and  C8_8 
REMARK    4  A    between atoms: C8_8  and  O10_9 
REMARK    5  A    between atoms: C8_8  and  C11_10 
REMARK    6  A    between atoms: C14_13  and  O15_14 
REMARK    7  A    between atoms: C16_15  and  O17_16 
ROOT
ATOM      1  C11 <0> d   1      19.680   0.174  13.709  0.00  0.00    -0.025 A 
ATOM      2  C12 <0> d   1      19.398  -0.907  14.522  0.00  0.00     0.012 A 
ATOM      3  C13 <0> d   1      18.544  -0.761  15.600  0.00  0.00     0.040 A 
ATOM      4  C14 <0> d   1      17.969   0.471  15.866  0.00  0.00     0.098 A 
ATOM      5  C16 <0> d   1      18.254   1.560  15.047  0.00  0.00     0.099 A 
ATOM      6  C18 <0> d   1      19.114   1.408  13.972  0.00  0.00     0.049 A 
ENDROOT
BRANCH   1   7
ATOM      7  C8  <0> d   1      20.611   0.009  12.535  0.00  0.00     0.177 C 
BRANCH   7   8
ATOM      8  C7  <0> d   1      19.894  -0.756  11.420  0.00  0.00     0.269 C 
BRANCH   8   9
ATOM      9  N4  <0> d   1      20.533  -2.067  11.238  0.00  0.00    -0.069 N 
ATOM     10  H5  <0> d   1      21.396  -2.095  11.760  0.00  0.00     0.277 HD
ATOM     11  H6  <0> d   1      20.727  -2.214  10.259  0.00  0.00     0.277 HD
BRANCH   9  12
ATOM     12  C2  <0> d   1      19.633  -3.122  11.723  0.00  0.00     0.178 C 
ATOM     13  C1  <0> d   1      18.180  -2.695  11.498  0.00  0.00     0.039 C 
ATOM     14  C3  <0> d   1      19.908  -4.419  10.959  0.00  0.00     0.039 C 
ENDBRANCH   9  12
ENDBRANCH   8   9
ENDBRANCH   7   8
BRANCH   7  15
ATOM     15  O10 <0> d   1      21.001   1.297  12.053  0.00  0.00    -0.389 OA
ATOM     16  H28 <0> d   1      20.421   1.653  11.365  0.00  0.00     0.210 HD
ENDBRANCH   7  15
ENDBRANCH   1   7
BRANCH   5  17
ATOM     17  O17 <0> d   1      17.693   2.772  15.305  0.00  0.00    -0.358 OA
ATOM     18  H32 <0> d   1      17.644   3.355  14.535  0.00  0.00     0.217 HD
ENDBRANCH   5  17
BRANCH   4  19
ATOM     19  O15 <0> d   1      17.130   0.617  16.926  0.00  0.00    -0.358 OA
ATOM     20  H31 <0> d   1      17.478   0.264  17.756  0.00  0.00     0.217 HD
ENDBRANCH   4  19
TORSDOF 7
ENDMDL
MODEL 9
REMARK VINA RESULT:      -5.6      2.492      5.476
REMARK  7 active torsions:
REMARK  status: ('A' for Active; 'I' for Inactive)
REMARK    1  A    between atoms: C2_2  and  N4_4 
REMARK    2  A    between atoms: N4_4  and  C7_7 
REMARK    3  A    between atoms: C7_7  and  C8_8 
REMARK    4  A    between atoms: C8_8  and  O10_9 
REMARK    5  A    between atoms: C8_8  and  C11_10 
REMARK    6  A    between atoms: C14_13  and  O15_14 
REMARK    7  A    between atoms: C16_15  and  O17_16 
ROOT
ATOM      1  C11 <0> d   1      18.846  -1.495  10.054  0.00  0.00    -0.025 A 
ATOM      2  C12 <0> d   1      18.084  -1.895  11.134  0.00  0.00     0.012 A 
ATOM      3  C13 <0> d   1      18.476  -1.569  12.420  0.00  0.00     0.040 A 
ATOM      4  C14 <0> d   1      19.636  -0.841  12.626  0.00  0.00     0.098 A 
ATOM      5  C16 <0> d   1      20.405  -0.439  11.538  0.00  0.00     0.099 A 
ATOM      6  C18 <0> d   1      20.009  -0.772  10.253  0.00  0.00     0.049 A 
ENDROOT
BRANCH   1   7
ATOM      7  C8  <0> d   1      18.414  -1.851   8.654  0.00  0.00     0.177 C 
BRANCH   7   8
ATOM      8  C7  <0> d   1      17.749  -0.637   8.003  0.00  0.00     0.269 C 
BRANCH   8   9
ATOM      9  N4  <0> d   1      17.601  -0.876   6.560  0.00  0.00    -0.069 N 
ATOM     10  H5  <0> d   1      16.624  -0.997   6.338  0.00  0.00     0.277 HD
ATOM     11  H6  <0> d   1      18.110  -1.708   6.303  0.00  0.00     0.277 HD
BRANCH   9  12
ATOM     12  C2  <0> d   1      18.133   0.274   5.817  0.00  0.00     0.178 C 
ATOM     13  C1  <0> d   1      18.851   1.218   6.784  0.00  0.00     0.039 C 
ATOM     14  C3  <0> d   1      19.119  -0.217   4.755  0.00  0.00     0.039 C 
ENDBRANCH   9  12
ENDBRANCH   8   9
ENDBRANCH   7   8
BRANCH   7  15
ATOM     15  O10 <0> d   1      19.557  -2.237   7.887  0.00  0.00    -0.389 OA
ATOM     16  H28 <0> d   1      19.705  -3.193   7.855  0.00  0.00     0.210 HD
ENDBRANCH   7  15
ENDBRANCH   1   7
BRANCH   5  17
ATOM     17  O17 <0> d   1      21.545   0.275  11.736  0.00  0.00    -0.358 OA
ATOM     18  H32 <0> d   1      21.755   0.433  12.667  0.00  0.00     0.217 HD
ENDBRANCH   5  17
BRANCH   4  19
ATOM     19  O15 <0> d   1      20.024  -0.521  13.890  0.00  0.00    -0.358 OA
ATOM     20  H31 <0> d   1      20.739  -1.073  14.235  0.00  0.00     0.217 HD
ENDBRANCH   4  19
TORSDOF 7
ENDMDL
