MODEL 1
REMARK VINA RESULT:      -7.2      0.000      0.000
REMARK  6 active torsions:
REMARK  status: ('A' for Active; 'I' for Inactive)
REMARK    1  A    between atoms: N2_2  and  C5_5 
REMARK    2  A    between atoms: C5_5  and  C6_6 
REMARK    3  A    between atoms: C6_6  and  C7_7 
REMARK    4  A    between atoms: C7_7  and  O9_8 
REMARK    5  A    between atoms: C7_7  and  C20_19 
REMARK    6  A    between atoms: O9_8  and  C10_9 
ROOT
ATOM      1  C7  ZIN A   1      18.996   2.332  12.792  0.00  0.00     0.170 C 
ENDROOT
BRANCH   1   2
ATOM      2  C6  ZIN A   1      19.385   1.078  12.007  0.00  0.00     0.065 C 
BRANCH   2   3
ATOM      3  C5  ZIN A   1      20.808   0.662  12.383  0.00  0.00     0.234 C 
BRANCH   3   4
ATOM      4  N2  ZIN A   1      21.359  -0.205  11.332  0.00  0.00    -0.079 N 
ATOM      5  C1  ZIN A   1      20.331  -0.454  10.313  0.00  0.00     0.266 C 
ATOM      6  H3  ZIN A   1      21.651  -1.081  11.737  0.00  0.00     0.276 HD
ATOM      7  H4  ZIN A   1      22.153   0.248  10.904  0.00  0.00     0.276 HD
ENDBRANCH   3   4
ENDBRANCH   2   3
ENDBRANCH   1   2
BRANCH   1   8
ATOM      8  O9  ZIN A   1      18.065   1.982  13.818  0.00  0.00    -0.340 OA
BRANCH   8   9
ATOM      9  C10 ZIN A   1      18.464   2.169  15.102  0.00  0.00     0.080 A 
ATOM     10  C19 ZIN A   1      18.633   3.434  15.594  0.00  0.00     0.038 A 
ATOM     11  C18 ZIN A   1      19.037   3.642  16.909  0.00  0.00     0.004 A 
ATOM     12  C17 ZIN A   1      19.286   2.594  17.742  0.00  0.00     0.012 A 
ATOM     13  C16 ZIN A   1      19.131   1.278  17.274  0.00  0.00    -0.023 A 
ATOM     14  C11 ZIN A   1      18.714   1.060  15.938  0.00  0.00     0.007 A 
ATOM     15  C15 ZIN A   1      19.379   0.174  18.106  0.00  0.00     0.012 A 
ATOM     16  C12 ZIN A   1      18.559  -0.254  15.469  0.00  0.00     0.015 A 
ATOM     17  C13 ZIN A   1      18.809  -1.300  16.304  0.00  0.00     0.001 A 
ATOM     18  C14 ZIN A   1      19.219  -1.087  17.618  0.00  0.00     0.001 A 
ENDBRANCH   8   9
ENDBRANCH   1   8
BRANCH   1  19
ATOM     19  C20 ZIN A   1      18.363   3.332  11.859  0.00  0.00     0.012 A 
ATOM     20  S24 ZIN A   1      17.254   4.609  12.341  0.00  0.00    -0.104 SA
ATOM     21  C23 ZIN A   1      17.116   5.159  10.677  0.00  0.00     0.050 A 
ATOM     22  C22 ZIN A   1      17.866   4.389   9.887  0.00  0.00     0.008 A 
ATOM     23  C21 ZIN A   1      18.554   3.380  10.540  0.00  0.00     0.018 A 
ENDBRANCH   1  19
TORSDOF 6
ENDMDL
MODEL 2
REMARK VINA RESULT:      -7.0      3.893      7.249
REMARK  6 active torsions:
REMARK  status: ('A' for Active; 'I' for Inactive)
REMARK    1  A    between atoms: N2_2  and  C5_5 
REMARK    2  A    between atoms: C5_5  and  C6_6 
REMARK    3  A    between atoms: C6_6  and  C7_7 
REMARK    4  A    between atoms: C7_7  and  O9_8 
REMARK    5  A    between atoms: C7_7  and  C20_19 
REMARK    6  A    between atoms: O9_8  and  C10_9 
ROOT
ATOM      1  C7  ZIN A   1      18.403  -2.077  11.237  0.00  0.00     0.170 C 
ENDROOT
BRANCH   1   2
ATOM      2  C6  ZIN A   1      18.248  -1.876  12.746  0.00  0.00     0.065 C 
BRANCH   2   3
ATOM      3  C5  ZIN A   1      19.416  -1.040  13.272  0.00  0.00     0.234 C 
BRANCH   3   4
ATOM      4  N2  ZIN A   1      20.369  -0.790  12.182  0.00  0.00    -0.079 N 
ATOM      5  C1  ZIN A   1      20.881   0.582  12.285  0.00  0.00     0.266 C 
ATOM      6  H3  ZIN A   1      19.905  -0.911  11.295  0.00  0.00     0.276 HD
ATOM      7  H4  ZIN A   1      21.137  -1.441  12.251  0.00  0.00     0.276 HD
ENDBRANCH   3   4
ENDBRANCH   2   3
ENDBRANCH   1   2
BRANCH   1   8
ATOM      8  O9  ZIN A   1      17.472  -1.239  10.547  0.00  0.00    -0.340 OA
BRANCH   8   9
ATOM      9  C10 ZIN A   1      17.989  -0.297   9.719  0.00  0.00     0.080 A 
ATOM     10  C19 ZIN A   1      18.513  -0.656   8.508  0.00  0.00     0.038 A 
ATOM     11  C18 ZIN A   1      19.043   0.300   7.646  0.00  0.00     0.004 A 
ATOM     12  C17 ZIN A   1      19.063   1.618   7.986  0.00  0.00     0.012 A 
ATOM     13  C16 ZIN A   1      18.540   2.029   9.224  0.00  0.00    -0.023 A 
ATOM     14  C11 ZIN A   1      17.994   1.061  10.103  0.00  0.00     0.007 A 
ATOM     15  C15 ZIN A   1      18.545   3.380   9.607  0.00  0.00     0.012 A 
ATOM     16  C12 ZIN A   1      17.472   1.470  11.340  0.00  0.00     0.015 A 
ATOM     17  C13 ZIN A   1      17.494   2.788  11.678  0.00  0.00     0.001 A 
ATOM     18  C14 ZIN A   1      18.030   3.741  10.814  0.00  0.00     0.001 A 
ENDBRANCH   8   9
ENDBRANCH   1   8
BRANCH   1  19
ATOM     19  C20 ZIN A   1      18.132  -3.519  10.893  0.00  0.00     0.012 A 
ATOM     20  S24 ZIN A   1      18.724  -4.348   9.459  0.00  0.00    -0.104 SA
ATOM     21  C23 ZIN A   1      17.932  -5.837   9.956  0.00  0.00     0.050 A 
ATOM     22  C22 ZIN A   1      17.293  -5.640  11.110  0.00  0.00     0.008 A 
ATOM     23  C21 ZIN A   1      17.403  -4.361  11.626  0.00  0.00     0.018 A 
ENDBRANCH   1  19
TORSDOF 6
ENDMDL
MODEL 3
REMARK VINA RESULT:      -7.0      4.058      7.688
REMARK  6 active torsions:
REMARK  status: ('A' for Active; 'I' for Inactive)
REMARK    1  A    between atoms: N2_2  and  C5_5 
REMARK    2  A    between atoms: C5_5  and  C6_6 
REMARK    3  A    between atoms: C6_6  and  C7_7 
REMARK    4  A    between atoms: C7_7  and  O9_8 
REMARK    5  A    between atoms: C7_7  and  C20_19 
REMARK    6  A    between atoms: O9_8  and  C10_9 
ROOT
ATOM      1  C7  ZIN A   1      18.293  -1.701  11.331  0.00  0.00     0.170 C 
ENDROOT
BRANCH   1   2
ATOM      2  C6  ZIN A   1      18.027  -1.509  12.826  0.00  0.00     0.065 C 
BRANCH   2   3
ATOM      3  C5  ZIN A   1      19.343  -1.629  13.597  0.00  0.00     0.234 C 
BRANCH   3   4
ATOM      4  N2  ZIN A   1      20.157  -0.428  13.367  0.00  0.00    -0.079 N 
ATOM      5  C1  ZIN A   1      19.570   0.707  14.092  0.00  0.00     0.266 C 
ATOM      6  H3  ZIN A   1      20.180  -0.221  12.380  0.00  0.00     0.276 HD
ATOM      7  H4  ZIN A   1      21.096  -0.589  13.699  0.00  0.00     0.276 HD
ENDBRANCH   3   4
ENDBRANCH   2   3
ENDBRANCH   1   2
BRANCH   1   8
ATOM      8  O9  ZIN A   1      17.389  -0.888  10.579  0.00  0.00    -0.340 OA
BRANCH   8   9
ATOM      9  C10 ZIN A   1      17.916   0.186   9.938  0.00  0.00     0.080 A 
ATOM     10  C19 ZIN A   1      18.208   1.328  10.631  0.00  0.00     0.038 A 
ATOM     11  C18 ZIN A   1      18.753   2.436   9.988  0.00  0.00     0.004 A 
ATOM     12  C17 ZIN A   1      19.002   2.420   8.650  0.00  0.00     0.012 A 
ATOM     13  C16 ZIN A   1      18.710   1.268   7.899  0.00  0.00    -0.023 A 
ATOM     14  C11 ZIN A   1      18.161   0.135   8.549  0.00  0.00     0.007 A 
ATOM     15  C15 ZIN A   1      18.954   1.217   6.517  0.00  0.00     0.012 A 
ATOM     16  C12 ZIN A   1      17.869  -1.016   7.800  0.00  0.00     0.015 A 
ATOM     17  C13 ZIN A   1      18.118  -1.029   6.462  0.00  0.00     0.001 A 
ATOM     18  C14 ZIN A   1      18.658   0.084   5.822  0.00  0.00     0.001 A 
ENDBRANCH   8   9
ENDBRANCH   1   8
BRANCH   1  19
ATOM     19  C20 ZIN A   1      18.088  -3.149  10.967  0.00  0.00     0.012 A 
ATOM     20  S24 ZIN A   1      19.078  -4.061   9.835  0.00  0.00    -0.104 SA
ATOM     21  C23 ZIN A   1      18.106  -5.501  10.097  0.00  0.00     0.050 A 
ATOM     22  C22 ZIN A   1      17.134  -5.232  10.971  0.00  0.00     0.008 A 
ATOM     23  C21 ZIN A   1      17.124  -3.934  11.451  0.00  0.00     0.018 A 
ENDBRANCH   1  19
TORSDOF 6
ENDMDL
MODEL 4
REMARK VINA RESULT:      -7.0      3.054      6.740
REMARK  6 active torsions:
REMARK  status: ('A' for Active; 'I' for Inactive)
REMARK    1  A    between atoms: N2_2  and  C5_5 
REMARK    2  A    between atoms: C5_5  and  C6_6 
REMARK    3  A    between atoms: C6_6  and  C7_7 
REMARK    4  A    between atoms: C7_7  and  O9_8 
REMARK    5  A    between atoms: C7_7  and  C20_19 
REMARK    6  A    between atoms: O9_8  and  C10_9 
ROOT
ATOM      1  C7  ZIN A   1      19.424  -0.912  12.364  0.00  0.00     0.170 C 
ENDROOT
BRANCH   1   2
ATOM      2  C6  ZIN A   1      19.741  -0.904  13.861  0.00  0.00     0.065 C 
BRANCH   2   3
ATOM      3  C5  ZIN A   1      18.865   0.136  14.562  0.00  0.00     0.234 C 
BRANCH   3   4
ATOM      4  N2  ZIN A   1      19.600   1.403  14.668  0.00  0.00    -0.079 N 
ATOM      5  C1  ZIN A   1      18.806   2.365  15.445  0.00  0.00     0.266 C 
ATOM      6  H3  ZIN A   1      19.768   1.773  13.745  0.00  0.00     0.276 HD
ATOM      7  H4  ZIN A   1      20.481   1.243  15.132  0.00  0.00     0.276 HD
ENDBRANCH   3   4
ENDBRANCH   2   3
ENDBRANCH   1   2
BRANCH   1   8
ATOM      8  O9  ZIN A   1      18.451   0.096  12.078  0.00  0.00    -0.340 OA
BRANCH   8   9
ATOM      9  C10 ZIN A   1      18.649   0.842  10.961  0.00  0.00     0.080 A 
ATOM     10  C19 ZIN A   1      19.264   0.299   9.868  0.00  0.00     0.038 A 
ATOM     11  C18 ZIN A   1      19.469   1.051   8.715  0.00  0.00     0.004 A 
ATOM     12  C17 ZIN A   1      19.072   2.351   8.644  0.00  0.00     0.012 A 
ATOM     13  C16 ZIN A   1      18.441   2.950   9.748  0.00  0.00    -0.023 A 
ATOM     14  C11 ZIN A   1      18.225   2.188  10.923  0.00  0.00     0.007 A 
ATOM     15  C15 ZIN A   1      18.020   4.289   9.710  0.00  0.00     0.012 A 
ATOM     16  C12 ZIN A   1      17.595   2.785  12.026  0.00  0.00     0.015 A 
ATOM     17  C13 ZIN A   1      17.201   4.086  11.953  0.00  0.00     0.001 A 
ATOM     18  C14 ZIN A   1      17.413   4.836  10.799  0.00  0.00     0.001 A 
ENDBRANCH   8   9
ENDBRANCH   1   8
BRANCH   1  19
ATOM     19  C20 ZIN A   1      18.879  -2.261  11.973  0.00  0.00     0.012 A 
ATOM     20  S24 ZIN A   1      19.852  -3.673  11.579  0.00  0.00    -0.104 SA
ATOM     21  C23 ZIN A   1      18.404  -4.629  11.296  0.00  0.00     0.050 A 
ATOM     22  C22 ZIN A   1      17.323  -3.874  11.496  0.00  0.00     0.008 A 
ATOM     23  C21 ZIN A   1      17.585  -2.567  11.869  0.00  0.00     0.018 A 
ENDBRANCH   1  19
TORSDOF 6
ENDMDL
MODEL 5
REMARK VINA RESULT:      -7.0      3.950      7.994
REMARK  6 active torsions:
REMARK  status: ('A' for Active; 'I' for Inactive)
REMARK    1  A    between atoms: N2_2  and  C5_5 
REMARK    2  A    between atoms: C5_5  and  C6_6 
REMARK    3  A    between atoms: C6_6  and  C7_7 
REMARK    4  A    between atoms: C7_7  and  O9_8 
REMARK    5  A    between atoms: C7_7  and  C20_19 
REMARK    6  A    between atoms: O9_8  and  C10_9 
ROOT
ATOM      1  C7  ZIN A   1      18.317  -1.447  10.528  0.00  0.00     0.170 C 
ENDROOT
BRANCH   1   2
ATOM      2  C6  ZIN A   1      18.057  -2.941  10.731  0.00  0.00     0.065 C 
BRANCH   2   3
ATOM      3  C5  ZIN A   1      19.310  -3.604  11.306  0.00  0.00     0.234 C 
BRANCH   3   4
ATOM      4  N2  ZIN A   1      20.122  -4.150  10.210  0.00  0.00    -0.079 N 
ATOM      5  C1  ZIN A   1      19.409  -5.272   9.585  0.00  0.00     0.266 C 
ATOM      6  H3  ZIN A   1      21.004  -4.473  10.574  0.00  0.00     0.276 HD
ATOM      7  H4  ZIN A   1      20.285  -3.431   9.522  0.00  0.00     0.276 HD
ENDBRANCH   3   4
ENDBRANCH   2   3
ENDBRANCH   1   2
BRANCH   1   8
ATOM      8  O9  ZIN A   1      19.460  -1.273   9.687  0.00  0.00    -0.340 OA
BRANCH   8   9
ATOM      9  C10 ZIN A   1      19.296  -0.507   8.578  0.00  0.00     0.080 A 
ATOM     10  C19 ZIN A   1      19.189   0.851   8.688  0.00  0.00     0.038 A 
ATOM     11  C18 ZIN A   1      19.026   1.650   7.560  0.00  0.00     0.004 A 
ATOM     12  C17 ZIN A   1      18.959   1.103   6.315  0.00  0.00     0.012 A 
ATOM     13  C16 ZIN A   1      19.060  -0.291   6.158  0.00  0.00    -0.023 A 
ATOM     14  C11 ZIN A   1      19.231  -1.108   7.303  0.00  0.00     0.007 A 
ATOM     15  C15 ZIN A   1      18.995  -0.889   4.889  0.00  0.00     0.012 A 
ATOM     16  C12 ZIN A   1      19.331  -2.500   7.148  0.00  0.00     0.015 A 
ATOM     17  C13 ZIN A   1      19.263  -3.044   5.902  0.00  0.00     0.001 A 
ATOM     18  C14 ZIN A   1      19.094  -2.241   4.776  0.00  0.00     0.001 A 
ENDBRANCH   8   9
ENDBRANCH   1   8
BRANCH   1  19
ATOM     19  C20 ZIN A   1      18.573  -0.797  11.863  0.00  0.00     0.012 A 
ATOM     20  S24 ZIN A   1      20.043   0.059  12.311  0.00  0.00    -0.104 SA
ATOM     21  C23 ZIN A   1      19.395   0.400  13.908  0.00  0.00     0.050 A 
ATOM     22  C22 ZIN A   1      18.173  -0.125  14.017  0.00  0.00     0.008 A 
ATOM     23  C21 ZIN A   1      17.720  -0.786  12.889  0.00  0.00     0.018 A 
ENDBRANCH   1  19
TORSDOF 6
ENDMDL
MODEL 6
REMARK VINA RESULT:      -7.0      2.053      5.896
REMARK  6 active torsions:
REMARK  status: ('A' for Active; 'I' for Inactive)
REMARK    1  A    between atoms: N2_2  and  C5_5 
REMARK    2  A    between atoms: C5_5  and  C6_6 
REMARK    3  A    between atoms: C6_6  and  C7_7 
REMARK    4  A    between atoms: C7_7  and  O9_8 
REMARK    5  A    between atoms: C7_7  and  C20_19 
REMARK    6  A    between atoms: O9_8  and  C10_9 
ROOT
ATOM      1  C7  ZIN A   1      17.871   0.580  14.008  0.00  0.00     0.170 C 
ENDROOT
BRANCH   1   2
ATOM      2  C6  ZIN A   1      17.996  -0.912  13.691  0.00  0.00     0.065 C 
BRANCH   2   3
ATOM      3  C5  ZIN A   1      19.468  -1.324  13.751  0.00  0.00     0.234 C 
BRANCH   3   4
ATOM      4  N2  ZIN A   1      19.727  -2.361  12.743  0.00  0.00    -0.079 N 
ATOM      5  C1  ZIN A   1      18.480  -2.680  12.036  0.00  0.00     0.266 C 
ATOM      6  H3  ZIN A   1      20.079  -3.190  13.197  0.00  0.00     0.276 HD
ATOM      7  H4  ZIN A   1      20.411  -2.024  12.083  0.00  0.00     0.276 HD
ENDBRANCH   3   4
ENDBRANCH   2   3
ENDBRANCH   1   2
BRANCH   1   8
ATOM      8  O9  ZIN A   1      18.918   1.296  13.350  0.00  0.00    -0.340 OA
BRANCH   8   9
ATOM      9  C10 ZIN A   1      18.551   2.153  12.362  0.00  0.00     0.080 A 
ATOM     10  C19 ZIN A   1      17.880   3.306  12.664  0.00  0.00     0.038 A 
ATOM     11  C18 ZIN A   1      17.502   4.196  11.663  0.00  0.00     0.004 A 
ATOM     12  C17 ZIN A   1      17.779   3.942  10.355  0.00  0.00     0.012 A 
ATOM     13  C16 ZIN A   1      18.462   2.765  10.002  0.00  0.00    -0.023 A 
ATOM     14  C11 ZIN A   1      18.854   1.858  11.017  0.00  0.00     0.007 A 
ATOM     15  C15 ZIN A   1      18.764   2.471   8.662  0.00  0.00     0.012 A 
ATOM     16  C12 ZIN A   1      19.536   0.682  10.665  0.00  0.00     0.015 A 
ATOM     17  C13 ZIN A   1      19.811   0.430   9.356  0.00  0.00     0.001 A 
ATOM     18  C14 ZIN A   1      19.425   1.321   8.357  0.00  0.00     0.001 A 
ENDBRANCH   8   9
ENDBRANCH   1   8
BRANCH   1  19
ATOM     19  C20 ZIN A   1      17.980   0.787  15.497  0.00  0.00     0.012 A 
ATOM     20  S24 ZIN A   1      18.948   2.029  16.281  0.00  0.00    -0.104 SA
ATOM     21  C23 ZIN A   1      18.436   1.471  17.867  0.00  0.00     0.050 A 
ATOM     22  C22 ZIN A   1      17.612   0.431  17.730  0.00  0.00     0.008 A 
ATOM     23  C21 ZIN A   1      17.361   0.053  16.423  0.00  0.00     0.018 A 
ENDBRANCH   1  19
TORSDOF 6
ENDMDL
MODEL 7
REMARK VINA RESULT:      -6.9      3.337      7.275
REMARK  6 active torsions:
REMARK  status: ('A' for Active; 'I' for Inactive)
REMARK    1  A    between atoms: N2_2  and  C5_5 
REMARK    2  A    between atoms: C5_5  and  C6_6 
REMARK    3  A    between atoms: C6_6  and  C7_7 
REMARK    4  A    between atoms: C7_7  and  O9_8 
REMARK    5  A    between atoms: C7_7  and  C20_19 
REMARK    6  A    between atoms: O9_8  and  C10_9 
ROOT
ATOM      1  C7  ZIN A   1      18.492  -1.860  11.359  0.00  0.00     0.170 C 
ENDROOT
BRANCH   1   2
ATOM      2  C6  ZIN A   1      18.567  -3.385  11.452  0.00  0.00     0.065 C 
BRANCH   2   3
ATOM      3  C5  ZIN A   1      20.008  -3.840  11.215  0.00  0.00     0.234 C 
BRANCH   3   4
ATOM      4  N2  ZIN A   1      20.129  -4.403   9.864  0.00  0.00    -0.079 N 
ATOM      5  C1  ZIN A   1      18.959  -5.243   9.577  0.00  0.00     0.266 C 
ATOM      6  H3  ZIN A   1      20.967  -4.962   9.806  0.00  0.00     0.276 HD
ATOM      7  H4  ZIN A   1      20.178  -3.654   9.190  0.00  0.00     0.276 HD
ENDBRANCH   3   4
ENDBRANCH   2   3
ENDBRANCH   1   2
BRANCH   1   8
ATOM      8  O9  ZIN A   1      19.630  -1.369  10.647  0.00  0.00    -0.340 OA
BRANCH   8   9
ATOM      9  C10 ZIN A   1      19.449  -0.260   9.886  0.00  0.00     0.080 A 
ATOM     10  C19 ZIN A   1      19.427   0.978  10.465  0.00  0.00     0.038 A 
ATOM     11  C18 ZIN A   1      19.247   2.125   9.698  0.00  0.00     0.004 A 
ATOM     12  C17 ZIN A   1      19.077   2.048   8.349  0.00  0.00     0.012 A 
ATOM     13  C16 ZIN A   1      19.087   0.794   7.714  0.00  0.00    -0.023 A 
ATOM     14  C11 ZIN A   1      19.275  -0.376   8.490  0.00  0.00     0.007 A 
ATOM     15  C15 ZIN A   1      18.914   0.678   6.325  0.00  0.00     0.012 A 
ATOM     16  C12 ZIN A   1      19.284  -1.630   7.857  0.00  0.00     0.015 A 
ATOM     17  C13 ZIN A   1      19.113  -1.704   6.509  0.00  0.00     0.001 A 
ATOM     18  C14 ZIN A   1      18.928  -0.553   5.745  0.00  0.00     0.001 A 
ENDBRANCH   8   9
ENDBRANCH   1   8
BRANCH   1  19
ATOM     19  C20 ZIN A   1      18.476  -1.273  12.747  0.00  0.00     0.012 A 
ATOM     20  S24 ZIN A   1      17.382  -0.014  13.304  0.00  0.00    -0.104 SA
ATOM     21  C23 ZIN A   1      18.112  -0.046  14.904  0.00  0.00     0.050 A 
ATOM     22  C22 ZIN A   1      19.093  -0.949  14.930  0.00  0.00     0.008 A 
ATOM     23  C21 ZIN A   1      19.294  -1.626  13.740  0.00  0.00     0.018 A 
ENDBRANCH   1  19
TORSDOF 6
ENDMDL
MODEL 8
REMARK VINA RESULT:      -6.9      4.137      7.994
REMARK  6 active torsions:
REMARK  status: ('A' for Active; 'I' for Inactive)
REMARK    1  A    between atoms: N2_2  and  C5_5 
REMARK    2  A    between atoms: C5_5  and  C6_6 
REMARK    3  A    between atoms: C6_6  and  C7_7 
REMARK    4  A    between atoms: C7_7  and  O9_8 
REMARK    5  A    between atoms: C7_7  and  C20_19 
REMARK    6  A    between atoms: O9_8  and  C10_9 
ROOT
ATOM      1  C7  ZIN A   1      18.278  -1.948  10.856  0.00  0.00     0.170 C 
ENDROOT
BRANCH   1   2
ATOM      2  C6  ZIN A   1      17.812  -1.798  12.306  0.00  0.00     0.065 C 
BRANCH   2   3
ATOM      3  C5  ZIN A   1      19.030  -1.666  13.222  0.00  0.00     0.234 C 
BRANCH   3   4
ATOM      4  N2  ZIN A   1      20.090  -0.925  12.524  0.00  0.00    -0.079 N 
ATOM      5  C1  ZIN A   1      20.198   0.425  13.091  0.00  0.00     0.266 C 
ATOM      6  H3  ZIN A   1      19.865  -0.861  11.543  0.00  0.00     0.276 HD
ATOM      7  H4  ZIN A   1      20.968  -1.409  12.637  0.00  0.00     0.276 HD
ENDBRANCH   3   4
ENDBRANCH   2   3
ENDBRANCH   1   2
BRANCH   1   8
ATOM      8  O9  ZIN A   1      17.411  -1.204   9.998  0.00  0.00    -0.340 OA
BRANCH   8   9
ATOM      9  C10 ZIN A   1      17.932  -0.101   9.402  0.00  0.00     0.080 A 
ATOM     10  C19 ZIN A   1      18.103   1.052  10.115  0.00  0.00     0.038 A 
ATOM     11  C18 ZIN A   1      18.640   2.190   9.519  0.00  0.00     0.004 A 
ATOM     12  C17 ZIN A   1      19.003   2.190   8.207  0.00  0.00     0.012 A 
ATOM     13  C16 ZIN A   1      18.838   1.026   7.436  0.00  0.00    -0.023 A 
ATOM     14  C11 ZIN A   1      18.297  -0.136   8.039  0.00  0.00     0.007 A 
ATOM     15  C15 ZIN A   1      19.201   0.992   6.080  0.00  0.00     0.012 A 
ATOM     16  C12 ZIN A   1      18.131  -1.298   7.270  0.00  0.00     0.015 A 
ATOM     17  C13 ZIN A   1      18.494  -1.295   5.958  0.00  0.00     0.001 A 
ATOM     18  C14 ZIN A   1      19.027  -0.152   5.364  0.00  0.00     0.001 A 
ENDBRANCH   8   9
ENDBRANCH   1   8
BRANCH   1  19
ATOM     19  C20 ZIN A   1      18.243  -3.403  10.466  0.00  0.00     0.012 A 
ATOM     20  S24 ZIN A   1      17.057  -4.576  11.027  0.00  0.00    -0.104 SA
ATOM     21  C23 ZIN A   1      17.821  -5.846  10.082  0.00  0.00     0.050 A 
ATOM     22  C22 ZIN A   1      18.876  -5.349   9.434  0.00  0.00     0.008 A 
ATOM     23  C21 ZIN A   1      19.109  -4.001   9.647  0.00  0.00     0.018 A 
ENDBRANCH   1  19
TORSDOF 6
ENDMDL
MODEL 9
REMARK VINA RESULT:      -6.9      2.766      4.652
REMARK  6 active torsions:
REMARK  status: ('A' for Active; 'I' for Inactive)
REMARK    1  A    between atoms: N2_2  and  C5_5 
REMARK    2  A    between atoms: C5_5  and  C6_6 
REMARK    3  A    between atoms: C6_6  and  C7_7 
REMARK    4  A    between atoms: C7_7  and  O9_8 
REMARK    5  A    between atoms: C7_7  and  C20_19 
REMARK    6  A    between atoms: O9_8  and  C10_9 
ROOT
ATOM      1  C7  ZIN A   1      19.421  -0.837  11.235  0.00  0.00     0.170 C 
ENDROOT
BRANCH   1   2
ATOM      2  C6  ZIN A   1      20.297  -0.430  10.048  0.00  0.00     0.065 C 
BRANCH   2   3
ATOM      3  C5  ZIN A   1      19.427   0.216   8.969  0.00  0.00     0.234 C 
BRANCH   3   4
ATOM      4  N2  ZIN A   1      19.854   1.606   8.762  0.00  0.00    -0.079 N 
ATOM      5  C1  ZIN A   1      18.831   2.517   9.292  0.00  0.00     0.266 C 
ATOM      6  H3  ZIN A   1      19.979   1.776   7.776  0.00  0.00     0.276 HD
ATOM      7  H4  ZIN A   1      20.726   1.765   9.243  0.00  0.00     0.276 HD
ENDBRANCH   3   4
ENDBRANCH   2   3
ENDBRANCH   1   2
BRANCH   1   8
ATOM      8  O9  ZIN A   1      20.078  -0.486  12.455  0.00  0.00    -0.340 OA
BRANCH   8   9
ATOM      9  C10 ZIN A   1      19.447   0.408  13.258  0.00  0.00     0.080 A 
ATOM     10  C19 ZIN A   1      19.349   1.719  12.886  0.00  0.00     0.038 A 
ATOM     11  C18 ZIN A   1      18.701   2.647  13.697  0.00  0.00     0.004 A 
ATOM     12  C17 ZIN A   1      18.154   2.278  14.888  0.00  0.00     0.012 A 
ATOM     13  C16 ZIN A   1      18.239   0.940  15.311  0.00  0.00    -0.023 A 
ATOM     14  C11 ZIN A   1      18.892  -0.009  14.486  0.00  0.00     0.007 A 
ATOM     15  C15 ZIN A   1      17.686   0.525  16.534  0.00  0.00     0.012 A 
ATOM     16  C12 ZIN A   1      18.977  -1.346  14.908  0.00  0.00     0.015 A 
ATOM     17  C13 ZIN A   1      18.431  -1.712  16.099  0.00  0.00     0.001 A 
ATOM     18  C14 ZIN A   1      17.788  -0.779  16.911  0.00  0.00     0.001 A 
ENDBRANCH   8   9
ENDBRANCH   1   8
BRANCH   1  19
ATOM     19  C20 ZIN A   1      19.189  -2.326  11.200  0.00  0.00     0.012 A 
ATOM     20  S24 ZIN A   1      17.698  -3.109  10.693  0.00  0.00    -0.104 SA
ATOM     21  C23 ZIN A   1      18.395  -4.696  10.988  0.00  0.00     0.050 A 
ATOM     22  C22 ZIN A   1      19.645  -4.559  11.435  0.00  0.00     0.008 A 
ATOM     23  C21 ZIN A   1      20.082  -3.252  11.552  0.00  0.00     0.018 A 
ENDBRANCH   1  19
TORSDOF 6
ENDMDL
