MODEL 1
REMARK VINA RESULT:      -7.6      0.000      0.000
REMARK  6 active torsions:
REMARK  status: ('A' for Active; 'I' for Inactive)
REMARK    1  A    between atoms: C5_5  and  C6_6 
REMARK    2  A    between atoms: C6_6  and  O7_7 
REMARK    3  A    between atoms: O7_7  and  C8_8 
REMARK    4  A    between atoms: C8_8  and  C10_9 
REMARK    5  A    between atoms: C8_8  and  C17_16 
REMARK    6  A    between atoms: C10_9  and  N11_10 
ROOT
ATOM      1  C8  <0> d   1      19.221  -0.756  13.148  0.00  0.00     0.174 C 
ENDROOT
BRANCH   1   2
ATOM      2  O7  <0> d   1      20.301  -0.055  12.527  0.00  0.00    -0.375 OA
BRANCH   2   3
ATOM      3  C6  <0> d   1      19.962   1.258  12.080  0.00  0.00     0.207 C 
BRANCH   3   4
ATOM      4  C5  <0> d   1      19.668   1.227  10.603  0.00  0.00    -0.035 A 
ATOM      5  C4  <0> d   1      19.105   2.329   9.986  0.00  0.00     0.011 A 
ATOM      6  C3  <0> d   1      18.835   2.300   8.630  0.00  0.00     0.024 A 
ATOM      7  C2  <0> d   1      19.129   1.167   7.891  0.00  0.00     0.034 A 
ATOM      8 Cl1  <0> d   1      18.791   1.131   6.189  0.00  0.00    -0.084 Cl
ATOM      9  C26 <0> d   1      19.687   0.063   8.510  0.00  0.00     0.024 A 
ATOM     10  C25 <0> d   1      19.961   0.096   9.864  0.00  0.00     0.011 A 
ENDBRANCH   3   4
ENDBRANCH   2   3
ENDBRANCH   1   2
BRANCH   1  11
ATOM     11  C10 <0> d   1      19.642  -1.201  14.551  0.00  0.00     0.166 C 
BRANCH  11  12
ATOM     12  N11 <0> d   1      18.704  -0.656  15.537  0.00  0.00    -0.349 N 
ATOM     13  C16 <0> d   1      17.660   0.162  15.283  0.00  0.00     0.182 A 
ATOM     14  N14 <0> d   1      17.057   0.432  16.408  0.00  0.00    -0.361 N 
ATOM     15  C13 <0> d   1      17.694  -0.190  17.411  0.00  0.00     0.106 A 
ATOM     16  H15 <0> d   1      16.274   0.997  16.505  0.00  0.00     0.166 HD
ATOM     17  C12 <0> d   1      18.727  -0.876  16.888  0.00  0.00     0.108 A 
ENDBRANCH  11  12
ENDBRANCH   1  11
BRANCH   1  18
ATOM     18  C17 <0> d   1      18.865  -1.965  12.323  0.00  0.00    -0.006 A 
ATOM     19  C23 <0> d   1      17.684  -1.986  11.601  0.00  0.00     0.044 A 
ATOM     20  C22 <0> d   1      17.360  -3.095  10.839  0.00  0.00     0.048 A 
ATOM     21 Cl24 <0> d   1      16.618  -0.618  11.641  0.00  0.00    -0.084 Cl
ATOM     22  C20 <0> d   1      18.211  -4.185  10.809  0.00  0.00     0.035 A 
ATOM     23  C19 <0> d   1      19.387  -4.165  11.535  0.00  0.00     0.024 A 
ATOM     24 Cl21 <0> d   1      17.801  -5.579   9.858  0.00  0.00    -0.084 Cl
ATOM     25  C18 <0> d   1      19.714  -3.055  12.293  0.00  0.00     0.013 A 
ENDBRANCH   1  18
TORSDOF 6
ENDMDL
MODEL 2
REMARK VINA RESULT:      -7.5      3.667      6.042
REMARK  6 active torsions:
REMARK  status: ('A' for Active; 'I' for Inactive)
REMARK    1  A    between atoms: C5_5  and  C6_6 
REMARK    2  A    between atoms: C6_6  and  O7_7 
REMARK    3  A    between atoms: O7_7  and  C8_8 
REMARK    4  A    between atoms: C8_8  and  C10_9 
REMARK    5  A    between atoms: C8_8  and  C17_16 
REMARK    6  A    between atoms: C10_9  and  N11_10 
ROOT
ATOM      1  C8  <0> d   1      18.498   0.042   9.299  0.00  0.00     0.174 C 
ENDROOT
BRANCH   1   2
ATOM      2  O7  <0> d   1      18.100   1.360   8.918  0.00  0.00    -0.375 OA
BRANCH   2   3
ATOM      3  C6  <0> d   1      19.113   2.350   9.102  0.00  0.00     0.207 C 
BRANCH   3   4
ATOM      4  C5  <0> d   1      18.783   3.190  10.308  0.00  0.00    -0.035 A 
ATOM      5  C4  <0> d   1      17.577   3.864  10.373  0.00  0.00     0.011 A 
ATOM      6  C3  <0> d   1      17.274   4.635  11.480  0.00  0.00     0.024 A 
ATOM      7  C2  <0> d   1      18.178   4.732  12.523  0.00  0.00     0.034 A 
ATOM      8 Cl1  <0> d   1      17.798   5.699  13.913  0.00  0.00    -0.084 Cl
ATOM      9  C26 <0> d   1      19.387   4.062  12.455  0.00  0.00     0.024 A 
ATOM     10  C25 <0> d   1      19.686   3.288  11.350  0.00  0.00     0.011 A 
ENDBRANCH   3   4
ENDBRANCH   2   3
ENDBRANCH   1   2
BRANCH   1  11
ATOM     11  C10 <0> d   1      17.631  -0.984   8.564  0.00  0.00     0.166 C 
BRANCH  11  12
ATOM     12  N11 <0> d   1      18.482  -2.059   8.046  0.00  0.00    -0.349 N 
ATOM     13  C16 <0> d   1      18.914  -3.139   8.731  0.00  0.00     0.182 A 
ATOM     14  N14 <0> d   1      19.645  -3.873   7.938  0.00  0.00    -0.361 N 
ATOM     15  C13 <0> d   1      19.711  -3.289   6.732  0.00  0.00     0.106 A 
ATOM     16  H15 <0> d   1      20.076  -4.707   8.182  0.00  0.00     0.166 HD
ATOM     17  C12 <0> d   1      18.990  -2.154   6.778  0.00  0.00     0.108 A 
ENDBRANCH  11  12
ENDBRANCH   1  11
BRANCH   1  18
ATOM     18  C17 <0> d   1      18.324  -0.127  10.785  0.00  0.00    -0.006 A 
ATOM     19  C23 <0> d   1      19.414  -0.443  11.578  0.00  0.00     0.044 A 
ATOM     20  C22 <0> d   1      19.255  -0.592  12.944  0.00  0.00     0.048 A 
ATOM     21 Cl24 <0> d   1      20.982  -0.638  10.859  0.00  0.00    -0.084 Cl
ATOM     22  C20 <0> d   1      18.005  -0.437  13.516  0.00  0.00     0.035 A 
ATOM     23  C19 <0> d   1      16.916  -0.127  12.722  0.00  0.00     0.024 A 
ATOM     24 Cl21 <0> d   1      17.805  -0.631  15.229  0.00  0.00    -0.084 Cl
ATOM     25  C18 <0> d   1      17.075   0.027  11.358  0.00  0.00     0.013 A 
ENDBRANCH   1  18
TORSDOF 6
ENDMDL
MODEL 3
REMARK VINA RESULT:      -7.4      4.146      6.524
REMARK  6 active torsions:
REMARK  status: ('A' for Active; 'I' for Inactive)
REMARK    1  A    between atoms: C5_5  and  C6_6 
REMARK    2  A    between atoms: C6_6  and  O7_7 
REMARK    3  A    between atoms: O7_7  and  C8_8 
REMARK    4  A    between atoms: C8_8  and  C10_9 
REMARK    5  A    between atoms: C8_8  and  C17_16 
REMARK    6  A    between atoms: C10_9  and  N11_10 
ROOT
ATOM      1  C8  <0> d   1      18.084   1.095  10.381  0.00  0.00     0.174 C 
ENDROOT
BRANCH   1   2
ATOM      2  O7  <0> d   1      17.261   2.257  10.497  0.00  0.00    -0.375 OA
BRANCH   2   3
ATOM      3  C6  <0> d   1      17.953   3.486  10.272  0.00  0.00     0.207 C 
BRANCH   3   4
ATOM      4  C5  <0> d   1      18.051   4.252  11.566  0.00  0.00    -0.035 A 
ATOM      5  C4  <0> d   1      19.251   4.299  12.253  0.00  0.00     0.011 A 
ATOM      6  C3  <0> d   1      19.342   5.001  13.440  0.00  0.00     0.024 A 
ATOM      7  C2  <0> d   1      18.231   5.657  13.941  0.00  0.00     0.034 A 
ATOM      8 Cl1  <0> d   1      18.345   6.540  15.431  0.00  0.00    -0.084 Cl
ATOM      9  C26 <0> d   1      17.030   5.605  13.257  0.00  0.00     0.024 A 
ATOM     10  C25 <0> d   1      16.942   4.907  12.068  0.00  0.00     0.011 A 
ENDBRANCH   3   4
ENDBRANCH   2   3
ENDBRANCH   1   2
BRANCH   1  11
ATOM     11  C10 <0> d   1      17.402   0.077   9.465  0.00  0.00     0.166 C 
BRANCH  11  12
ATOM     12  N11 <0> d   1      17.830   0.301   8.081  0.00  0.00    -0.349 N 
ATOM     13  C16 <0> d   1      17.181  -0.101   6.967  0.00  0.00     0.182 A 
ATOM     14  N14 <0> d   1      17.865   0.283   5.924  0.00  0.00    -0.361 N 
ATOM     15  C13 <0> d   1      18.966   0.930   6.331  0.00  0.00     0.106 A 
ATOM     16  H15 <0> d   1      17.617   0.123   5.000  0.00  0.00     0.166 HD
ATOM     17  C12 <0> d   1      18.964   0.953   7.677  0.00  0.00     0.108 A 
ENDBRANCH  11  12
ENDBRANCH   1  11
BRANCH   1  18
ATOM     18  C17 <0> d   1      18.291   0.486  11.743  0.00  0.00    -0.006 A 
ATOM     19  C23 <0> d   1      19.411  -0.287  11.992  0.00  0.00     0.044 A 
ATOM     20  C22 <0> d   1      19.604  -0.841  13.245  0.00  0.00     0.048 A 
ATOM     21 Cl24 <0> d   1      20.582  -0.549  10.738  0.00  0.00    -0.084 Cl
ATOM     22  C20 <0> d   1      18.670  -0.632  14.245  0.00  0.00     0.035 A 
ATOM     23  C19 <0> d   1      17.547   0.136  13.992  0.00  0.00     0.024 A 
ATOM     24 Cl21 <0> d   1      18.907  -1.334  15.814  0.00  0.00    -0.084 Cl
ATOM     25  C18 <0> d   1      17.358   0.694  12.742  0.00  0.00     0.013 A 
ENDBRANCH   1  18
TORSDOF 6
ENDMDL
MODEL 4
REMARK VINA RESULT:      -7.4      2.563      5.154
REMARK  6 active torsions:
REMARK  status: ('A' for Active; 'I' for Inactive)
REMARK    1  A    between atoms: C5_5  and  C6_6 
REMARK    2  A    between atoms: C6_6  and  O7_7 
REMARK    3  A    between atoms: O7_7  and  C8_8 
REMARK    4  A    between atoms: C8_8  and  C10_9 
REMARK    5  A    between atoms: C8_8  and  C17_16 
REMARK    6  A    between atoms: C10_9  and  N11_10 
ROOT
ATOM      1  C8  <0> d   1      18.330   0.356  11.901  0.00  0.00     0.174 C 
ENDROOT
BRANCH   1   2
ATOM      2  O7  <0> d   1      17.649  -0.703  12.577  0.00  0.00    -0.375 OA
BRANCH   2   3
ATOM      3  C6  <0> d   1      18.512  -1.728  13.071  0.00  0.00     0.207 C 
BRANCH   3   4
ATOM      4  C5  <0> d   1      18.549  -2.870  12.090  0.00  0.00    -0.035 A 
ATOM      5  C4  <0> d   1      17.383  -3.294  11.478  0.00  0.00     0.011 A 
ATOM      6  C3  <0> d   1      17.416  -4.342  10.577  0.00  0.00     0.024 A 
ATOM      7  C2  <0> d   1      18.617  -4.967  10.289  0.00  0.00     0.034 A 
ATOM      8 Cl1  <0> d   1      18.659  -6.283   9.157  0.00  0.00    -0.084 Cl
ATOM      9  C26 <0> d   1      19.781  -4.547  10.905  0.00  0.00     0.024 A 
ATOM     10  C25 <0> d   1      19.747  -3.496  11.801  0.00  0.00     0.011 A 
ENDBRANCH   3   4
ENDBRANCH   2   3
ENDBRANCH   1   2
BRANCH   1  11
ATOM     11  C10 <0> d   1      17.574   1.669  12.116  0.00  0.00     0.166 C 
BRANCH  11  12
ATOM     12  N11 <0> d   1      18.533   2.755  12.333  0.00  0.00    -0.349 N 
ATOM     13  C16 <0> d   1      19.763   2.859  11.783  0.00  0.00     0.182 A 
ATOM     14  N14 <0> d   1      20.318   3.961  12.207  0.00  0.00    -0.361 N 
ATOM     15  C13 <0> d   1      19.476   4.588  13.041  0.00  0.00     0.106 A 
ATOM     16  H15 <0> d   1      21.203   4.274  11.962  0.00  0.00     0.166 HD
ATOM     17  C12 <0> d   1      18.353   3.851  13.133  0.00  0.00     0.108 A 
ENDBRANCH  11  12
ENDBRANCH   1  11
BRANCH   1  18
ATOM     18  C17 <0> d   1      18.396   0.051  10.427  0.00  0.00    -0.006 A 
ATOM     19  C23 <0> d   1      19.601  -0.307   9.848  0.00  0.00     0.044 A 
ATOM     20  C22 <0> d   1      19.660  -0.593   8.496  0.00  0.00     0.048 A 
ATOM     21 Cl24 <0> d   1      21.035  -0.409  10.821  0.00  0.00    -0.084 Cl
ATOM     22  C20 <0> d   1      18.517  -0.511   7.721  0.00  0.00     0.035 A 
ATOM     23  C19 <0> d   1      17.314  -0.148   8.300  0.00  0.00     0.024 A 
ATOM     24 Cl21 <0> d   1      18.593  -0.863   6.023  0.00  0.00    -0.084 Cl
ATOM     25  C18 <0> d   1      17.254   0.133   9.652  0.00  0.00     0.013 A 
ENDBRANCH   1  18
TORSDOF 6
ENDMDL
MODEL 5
REMARK VINA RESULT:      -7.3      2.861      5.175
REMARK  6 active torsions:
REMARK  status: ('A' for Active; 'I' for Inactive)
REMARK    1  A    between atoms: C5_5  and  C6_6 
REMARK    2  A    between atoms: C6_6  and  O7_7 
REMARK    3  A    between atoms: O7_7  and  C8_8 
REMARK    4  A    between atoms: C8_8  and  C10_9 
REMARK    5  A    between atoms: C8_8  and  C17_16 
REMARK    6  A    between atoms: C10_9  and  N11_10 
ROOT
ATOM      1  C8  <0> d   1      18.246  -1.102  11.823  0.00  0.00     0.174 C 
ENDROOT
BRANCH   1   2
ATOM      2  O7  <0> d   1      17.091  -0.575  11.167  0.00  0.00    -0.375 OA
BRANCH   2   3
ATOM      3  C6  <0> d   1      17.265   0.748  10.656  0.00  0.00     0.207 C 
BRANCH   3   4
ATOM      4  C5  <0> d   1      17.781   0.677   9.243  0.00  0.00    -0.035 A 
ATOM      5  C4  <0> d   1      17.254  -0.247   8.359  0.00  0.00     0.011 A 
ATOM      6  C3  <0> d   1      17.727  -0.313   7.062  0.00  0.00     0.024 A 
ATOM      7  C2  <0> d   1      18.729   0.548   6.648  0.00  0.00     0.034 A 
ATOM      8 Cl1  <0> d   1      19.323   0.466   5.019  0.00  0.00    -0.084 Cl
ATOM      9  C26 <0> d   1      19.260   1.468   7.534  0.00  0.00     0.024 A 
ATOM     10  C25 <0> d   1      18.782   1.535   8.829  0.00  0.00     0.011 A 
ENDBRANCH   3   4
ENDBRANCH   2   3
ENDBRANCH   1   2
BRANCH   1  11
ATOM     11  C10 <0> d   1      18.040  -2.593  12.097  0.00  0.00     0.166 C 
BRANCH  11  12
ATOM     12  N11 <0> d   1      18.688  -3.378  11.043  0.00  0.00    -0.349 N 
ATOM     13  C16 <0> d   1      19.872  -4.021  11.136  0.00  0.00     0.182 A 
ATOM     14  N14 <0> d   1      20.118  -4.611   9.999  0.00  0.00    -0.361 N 
ATOM     15  C13 <0> d   1      19.114  -4.361   9.145  0.00  0.00     0.106 A 
ATOM     16  H15 <0> d   1      20.904  -5.143   9.800  0.00  0.00     0.166 HD
ATOM     17  C12 <0> d   1      18.209  -3.592   9.778  0.00  0.00     0.108 A 
ENDBRANCH  11  12
ENDBRANCH   1  11
BRANCH   1  18
ATOM     18  C17 <0> d   1      18.460  -0.377  13.125  0.00  0.00    -0.006 A 
ATOM     19  C23 <0> d   1      19.579   0.421  13.297  0.00  0.00     0.044 A 
ATOM     20  C22 <0> d   1      19.772   1.091  14.492  0.00  0.00     0.048 A 
ATOM     21 Cl24 <0> d   1      20.730   0.589  12.010  0.00  0.00    -0.084 Cl
ATOM     22  C20 <0> d   1      18.853   0.956  15.517  0.00  0.00     0.035 A 
ATOM     23  C19 <0> d   1      17.739   0.155  15.347  0.00  0.00     0.024 A 
ATOM     24 Cl21 <0> d   1      19.100   1.792  17.019  0.00  0.00    -0.084 Cl
ATOM     25  C18 <0> d   1      17.543  -0.512  14.151  0.00  0.00     0.013 A 
ENDBRANCH   1  18
TORSDOF 6
ENDMDL
MODEL 6
REMARK VINA RESULT:      -7.2      2.196      4.992
REMARK  6 active torsions:
REMARK  status: ('A' for Active; 'I' for Inactive)
REMARK    1  A    between atoms: C5_5  and  C6_6 
REMARK    2  A    between atoms: C6_6  and  O7_7 
REMARK    3  A    between atoms: O7_7  and  C8_8 
REMARK    4  A    between atoms: C8_8  and  C10_9 
REMARK    5  A    between atoms: C8_8  and  C17_16 
REMARK    6  A    between atoms: C10_9  and  N11_10 
ROOT
ATOM      1  C8  <0> d   1      18.229   0.611  12.208  0.00  0.00     0.174 C 
ENDROOT
BRANCH   1   2
ATOM      2  O7  <0> d   1      17.552  -0.613  12.502  0.00  0.00    -0.375 OA
BRANCH   2   3
ATOM      3  C6  <0> d   1      18.391  -1.621  13.069  0.00  0.00     0.207 C 
BRANCH   3   4
ATOM      4  C5  <0> d   1      18.534  -2.762  12.096  0.00  0.00    -0.035 A 
ATOM      5  C4  <0> d   1      17.416  -3.286  11.474  0.00  0.00     0.011 A 
ATOM      6  C3  <0> d   1      17.547  -4.333  10.582  0.00  0.00     0.024 A 
ATOM      7  C2  <0> d   1      18.799  -4.857  10.311  0.00  0.00     0.034 A 
ATOM      8 Cl1  <0> d   1      18.965  -6.172   9.189  0.00  0.00    -0.084 Cl
ATOM      9  C26 <0> d   1      19.917  -4.337  10.938  0.00  0.00     0.024 A 
ATOM     10  C25 <0> d   1      19.784  -3.286  11.826  0.00  0.00     0.011 A 
ENDBRANCH   3   4
ENDBRANCH   2   3
ENDBRANCH   1   2
BRANCH   1  11
ATOM     11  C10 <0> d   1      17.436   1.784  12.786  0.00  0.00     0.166 C 
BRANCH  11  12
ATOM     12  N11 <0> d   1      18.168   2.357  13.919  0.00  0.00    -0.349 N 
ATOM     13  C16 <0> d   1      19.028   1.704  14.729  0.00  0.00     0.182 A 
ATOM     14  N14 <0> d   1      19.483   2.543  15.618  0.00  0.00    -0.361 N 
ATOM     15  C13 <0> d   1      18.930   3.747  15.414  0.00  0.00     0.106 A 
ATOM     16  H15 <0> d   1      20.119   2.329  16.319  0.00  0.00     0.166 HD
ATOM     17  C12 <0> d   1      18.104   3.653  14.356  0.00  0.00     0.108 A 
ENDBRANCH  11  12
ENDBRANCH   1  11
BRANCH   1  18
ATOM     18  C17 <0> d   1      18.350   0.772  10.715  0.00  0.00    -0.006 A 
ATOM     19  C23 <0> d   1      19.227   1.705  10.189  0.00  0.00     0.044 A 
ATOM     20  C22 <0> d   1      19.342   1.849   8.817  0.00  0.00     0.048 A 
ATOM     21 Cl24 <0> d   1      20.193   2.682  11.248  0.00  0.00    -0.084 Cl
ATOM     22  C20 <0> d   1      18.571   1.069   7.974  0.00  0.00     0.035 A 
ATOM     23  C19 <0> d   1      17.690   0.142   8.500  0.00  0.00     0.024 A 
ATOM     24 Cl21 <0> d   1      18.709   1.256   6.253  0.00  0.00    -0.084 Cl
ATOM     25  C18 <0> d   1      17.579  -0.006   9.871  0.00  0.00     0.013 A 
ENDBRANCH   1  18
TORSDOF 6
ENDMDL
MODEL 7
REMARK VINA RESULT:      -7.2      3.383      5.487
REMARK  6 active torsions:
REMARK  status: ('A' for Active; 'I' for Inactive)
REMARK    1  A    between atoms: C5_5  and  C6_6 
REMARK    2  A    between atoms: C6_6  and  O7_7 
REMARK    3  A    between atoms: O7_7  and  C8_8 
REMARK    4  A    between atoms: C8_8  and  C10_9 
REMARK    5  A    between atoms: C8_8  and  C17_16 
REMARK    6  A    between atoms: C10_9  and  N11_10 
ROOT
ATOM      1  C8  <0> d   1      18.638   1.955  10.581  0.00  0.00     0.174 C 
ENDROOT
BRANCH   1   2
ATOM      2  O7  <0> d   1      19.009   3.325  10.410  0.00  0.00    -0.375 OA
BRANCH   2   3
ATOM      3  C6  <0> d   1      17.961   4.253  10.698  0.00  0.00     0.207 C 
BRANCH   3   4
ATOM      4  C5  <0> d   1      18.176   4.844  12.067  0.00  0.00    -0.035 A 
ATOM      5  C4  <0> d   1      19.433   4.818  12.643  0.00  0.00     0.011 A 
ATOM      6  C3  <0> d   1      19.630   5.361  13.899  0.00  0.00     0.024 A 
ATOM      7  C2  <0> d   1      18.568   5.931  14.579  0.00  0.00     0.034 A 
ATOM      8 Cl1  <0> d   1      18.815   6.614  16.156  0.00  0.00    -0.084 Cl
ATOM      9  C26 <0> d   1      17.310   5.952  14.005  0.00  0.00     0.024 A 
ATOM     10  C25 <0> d   1      17.116   5.413  12.747  0.00  0.00     0.011 A 
ENDBRANCH   3   4
ENDBRANCH   2   3
ENDBRANCH   1   2
BRANCH   1  11
ATOM     11  C10 <0> d   1      19.749   1.215  11.329  0.00  0.00     0.166 C 
BRANCH  11  12
ATOM     12  N11 <0> d   1      19.329   0.974  12.712  0.00  0.00    -0.349 N 
ATOM     13  C16 <0> d   1      20.029   0.309  13.657  0.00  0.00     0.182 A 
ATOM     14  N14 <0> d   1      19.335   0.301  14.762  0.00  0.00    -0.361 N 
ATOM     15  C13 <0> d   1      18.176   0.946  14.562  0.00  0.00     0.106 A 
ATOM     16  H15 <0> d   1      19.612  -0.110  15.596  0.00  0.00     0.166 HD
ATOM     17  C12 <0> d   1      18.152   1.375  13.286  0.00  0.00     0.108 A 
ENDBRANCH  11  12
ENDBRANCH   1  11
BRANCH   1  18
ATOM     18  C17 <0> d   1      18.431   1.319   9.232  0.00  0.00    -0.006 A 
ATOM     19  C23 <0> d   1      17.535   0.273   9.090  0.00  0.00     0.044 A 
ATOM     20  C22 <0> d   1      17.341  -0.308   7.850  0.00  0.00     0.048 A 
ATOM     21 Cl24 <0> d   1      16.647  -0.301  10.466  0.00  0.00    -0.084 Cl
ATOM     22  C20 <0> d   1      18.050   0.150   6.753  0.00  0.00     0.035 A 
ATOM     23  C19 <0> d   1      18.949   1.192   6.897  0.00  0.00     0.024 A 
ATOM     24 Cl21 <0> d   1      17.812  -0.583   5.198  0.00  0.00    -0.084 Cl
ATOM     25  C18 <0> d   1      19.139   1.775   8.136  0.00  0.00     0.013 A 
ENDBRANCH   1  18
TORSDOF 6
ENDMDL
MODEL 8
REMARK VINA RESULT:      -7.2      2.973      5.968
REMARK  6 active torsions:
REMARK  status: ('A' for Active; 'I' for Inactive)
REMARK    1  A    between atoms: C5_5  and  C6_6 
REMARK    2  A    between atoms: C6_6  and  O7_7 
REMARK    3  A    between atoms: O7_7  and  C8_8 
REMARK    4  A    between atoms: C8_8  and  C10_9 
REMARK    5  A    between atoms: C8_8  and  C17_16 
REMARK    6  A    between atoms: C10_9  and  N11_10 
ROOT
ATOM      1  C8  <0> d   1      18.895   2.003  10.854  0.00  0.00     0.174 C 
ENDROOT
BRANCH   1   2
ATOM      2  O7  <0> d   1      18.618   1.054  11.887  0.00  0.00    -0.375 OA
BRANCH   2   3
ATOM      3  C6  <0> d   1      19.780   0.585  12.572  0.00  0.00     0.207 C 
BRANCH   3   4
ATOM      4  C5  <0> d   1      19.455   0.377  14.028  0.00  0.00    -0.035 A 
ATOM      5  C4  <0> d   1      19.270   1.468  14.858  0.00  0.00     0.011 A 
ATOM      6  C3  <0> d   1      18.972   1.278  16.195  0.00  0.00     0.024 A 
ATOM      7  C2  <0> d   1      18.859  -0.005  16.701  0.00  0.00     0.034 A 
ATOM      8 Cl1  <0> d   1      18.484  -0.244  18.380  0.00  0.00    -0.084 Cl
ATOM      9  C26 <0> d   1      19.050  -1.095  15.873  0.00  0.00     0.024 A 
ATOM     10  C25 <0> d   1      19.343  -0.903  14.536  0.00  0.00     0.011 A 
ENDBRANCH   3   4
ENDBRANCH   2   3
ENDBRANCH   1   2
BRANCH   1  11
ATOM     11  C10 <0> d   1      18.030   3.248  11.060  0.00  0.00     0.166 C 
BRANCH  11  12
ATOM     12  N11 <0> d   1      18.542   4.014  12.200  0.00  0.00    -0.349 N 
ATOM     13  C16 <0> d   1      19.827   4.368  12.415  0.00  0.00     0.182 A 
ATOM     14  N14 <0> d   1      19.894   5.043  13.529  0.00  0.00    -0.361 N 
ATOM     15  C13 <0> d   1      18.668   5.137  14.064  0.00  0.00     0.106 A 
ATOM     16  H15 <0> d   1      20.703   5.416  13.913  0.00  0.00     0.166 HD
ATOM     17  C12 <0> d   1      17.807   4.500  13.248  0.00  0.00     0.108 A 
ENDBRANCH  11  12
ENDBRANCH   1  11
BRANCH   1  18
ATOM     18  C17 <0> d   1      18.583   1.391   9.513  0.00  0.00    -0.006 A 
ATOM     19  C23 <0> d   1      17.584   0.439   9.403  0.00  0.00     0.044 A 
ATOM     20  C22 <0> d   1      17.294  -0.119   8.170  0.00  0.00     0.048 A 
ATOM     21 Cl24 <0> d   1      16.688  -0.045  10.808  0.00  0.00    -0.084 Cl
ATOM     22  C20 <0> d   1      18.010   0.268   7.051  0.00  0.00     0.035 A 
ATOM     23  C19 <0> d   1      19.011   1.215   7.163  0.00  0.00     0.024 A 
ATOM     24 Cl21 <0> d   1      17.650  -0.437   5.506  0.00  0.00    -0.084 Cl
ATOM     25  C18 <0> d   1      19.298   1.776   8.394  0.00  0.00     0.013 A 
ENDBRANCH   1  18
TORSDOF 6
ENDMDL
MODEL 9
REMARK VINA RESULT:      -7.2      3.123      4.718
REMARK  6 active torsions:
REMARK  status: ('A' for Active; 'I' for Inactive)
REMARK    1  A    between atoms: C5_5  and  C6_6 
REMARK    2  A    between atoms: C6_6  and  O7_7 
REMARK    3  A    between atoms: O7_7  and  C8_8 
REMARK    4  A    between atoms: C8_8  and  C10_9 
REMARK    5  A    between atoms: C8_8  and  C17_16 
REMARK    6  A    between atoms: C10_9  and  N11_10 
ROOT
ATOM      1  C8  <0> d   1      18.658   2.126  10.977  0.00  0.00     0.174 C 
ENDROOT
BRANCH   1   2
ATOM      2  O7  <0> d   1      19.405   1.543   9.907  0.00  0.00    -0.375 OA
BRANCH   2   3
ATOM      3  C6  <0> d   1      19.065   2.049   8.615  0.00  0.00     0.207 C 
BRANCH   3   4
ATOM      4  C5  <0> d   1      19.077   0.924   7.614  0.00  0.00    -0.035 A 
ATOM      5  C4  <0> d   1      19.123  -0.388   8.049  0.00  0.00     0.011 A 
ATOM      6  C3  <0> d   1      19.134  -1.421   7.130  0.00  0.00     0.024 A 
ATOM      7  C2  <0> d   1      19.100  -1.141   5.776  0.00  0.00     0.034 A 
ATOM      8 Cl1  <0> d   1      19.113  -2.439   4.622  0.00  0.00    -0.084 Cl
ATOM      9  C26 <0> d   1      19.060   0.171   5.341  0.00  0.00     0.024 A 
ATOM     10  C25 <0> d   1      19.043   1.203   6.261  0.00  0.00     0.011 A 
ENDBRANCH   3   4
ENDBRANCH   2   3
ENDBRANCH   1   2
BRANCH   1  11
ATOM     11  C10 <0> d   1      19.287   3.465  11.367  0.00  0.00     0.166 C 
BRANCH  11  12
ATOM     12  N11 <0> d   1      18.270   4.319  11.988  0.00  0.00    -0.349 N 
ATOM     13  C16 <0> d   1      18.380   4.965  13.169  0.00  0.00     0.182 A 
ATOM     14  N14 <0> d   1      17.276   5.626  13.387  0.00  0.00    -0.361 N 
ATOM     15  C13 <0> d   1      16.429   5.422  12.368  0.00  0.00     0.106 A 
ATOM     16  H15 <0> d   1      17.095   6.176  14.165  0.00  0.00     0.166 HD
ATOM     17  C12 <0> d   1      17.031   4.607  11.482  0.00  0.00     0.108 A 
ENDBRANCH  11  12
ENDBRANCH   1  11
BRANCH   1  18
ATOM     18  C17 <0> d   1      18.674   1.199  12.164  0.00  0.00    -0.006 A 
ATOM     19  C23 <0> d   1      17.748   0.174  12.254  0.00  0.00     0.044 A 
ATOM     20  C22 <0> d   1      17.766  -0.680  13.342  0.00  0.00     0.048 A 
ATOM     21 Cl24 <0> d   1      16.574  -0.048  10.996  0.00  0.00    -0.084 Cl
ATOM     22  C20 <0> d   1      18.703  -0.503  14.345  0.00  0.00     0.035 A 
ATOM     23  C19 <0> d   1      19.624   0.526  14.257  0.00  0.00     0.024 A 
ATOM     24 Cl21 <0> d   1      18.721  -1.570  15.714  0.00  0.00    -0.084 Cl
ATOM     25  C18 <0> d   1      19.609   1.376  13.167  0.00  0.00     0.013 A 
ENDBRANCH   1  18
TORSDOF 6
ENDMDL
