MODEL 1
REMARK VINA RESULT:      -7.4      0.000      0.000
REMARK  2 active torsions:
REMARK  status: ('A' for Active; 'I' for Inactive)
REMARK    1  A    between atoms: C11_11  and  O12_12 
REMARK    2  A    between atoms: C17_16  and  O19_17 
ROOT
ATOM      1  C1  ZIN A   1      17.972  -0.852   7.406  0.00  0.00     0.270 C 
ATOM      2  N2  ZIN A   1      18.598  -1.124   8.707  0.00  0.00    -0.070 N 
ATOM      3  H3  ZIN A   1      18.840  -2.102   8.756  0.00  0.00     0.279 HD
ATOM      4  C4  ZIN A   1      19.819  -0.325   8.825  0.00  0.00     0.236 C 
ATOM      5  C5  ZIN A   1      20.512  -0.569  10.175  0.00  0.00     0.045 C 
ATOM      6  C6  ZIN A   1      19.496  -0.220  11.266  0.00  0.00     0.030 C 
ATOM      7  C7  ZIN A   1      19.040   1.201  11.051  0.00  0.00    -0.003 A 
ATOM      8  C8  ZIN A   1      17.971   1.623  10.299  0.00  0.00    -0.046 A 
ATOM      9  C9  ZIN A   1      17.770   2.992  10.256  0.00  0.00     0.011 A 
ATOM     10  C10 ZIN A   1      18.596   3.839  10.978  0.00  0.00     0.040 A 
ATOM     11  C11 ZIN A   1      19.640   3.390  11.784  0.00  0.00     0.099 A 
ATOM     12  C13 ZIN A   1      19.856   2.010  11.833  0.00  0.00     0.110 A 
ATOM     13  O14 ZIN A   1      20.715   1.245  12.546  0.00  0.00    -0.338 OA
ATOM     14  C15 ZIN A   1      20.118  -0.100  12.653  0.00  0.00     0.175 C 
ATOM     15  C17 ZIN A   1      19.053   0.079  13.741  0.00  0.00     0.171 C 
ATOM     16  C20 ZIN A   1      17.747  -0.566  13.450  0.00  0.00     0.003 C 
ATOM     17  C21 ZIN A   1      17.369  -1.063  12.314  0.00  0.00    -0.020 C 
ATOM     18  C22 ZIN A   1      18.293  -1.121  11.114  0.00  0.00     0.055 C 
ATOM     19  C24 ZIN A   1      17.635  -0.815   9.776  0.00  0.00     0.200 C 
ATOM     20  C26 ZIN A   1      17.113   0.602   9.624  0.00  0.00     0.073 C 
ENDROOT
BRANCH  15  21
ATOM     21  O19 ZIN A   1      18.829   1.477  13.928  0.00  0.00    -0.389 OA
ATOM     22  H37 ZIN A   1      18.429   1.702  14.780  0.00  0.00     0.210 HD
ENDBRANCH  15  21
BRANCH  11  23
ATOM     23  O12 ZIN A   1      20.414   4.256  12.492  0.00  0.00    -0.358 OA
ATOM     24  H36 ZIN A   1      21.331   3.968  12.597  0.00  0.00     0.217 HD
ENDBRANCH  11  23
TORSDOF 2
ENDMDL
MODEL 2
REMARK VINA RESULT:      -6.9      2.552      4.842
REMARK  2 active torsions:
REMARK  status: ('A' for Active; 'I' for Inactive)
REMARK    1  A    between atoms: C11_11  and  O12_12 
REMARK    2  A    between atoms: C17_16  and  O19_17 
ROOT
ATOM      1  C1  ZIN A   1      18.898   0.704  15.412  0.00  0.00     0.270 C 
ATOM      2  N2  ZIN A   1      19.409   1.183  14.120  0.00  0.00    -0.070 N 
ATOM      3  H3  ZIN A   1      19.886   2.061  14.261  0.00  0.00     0.279 HD
ATOM      4  C4  ZIN A   1      20.359   0.203  13.591  0.00  0.00     0.236 C 
ATOM      5  C5  ZIN A   1      20.920   0.655  12.233  0.00  0.00     0.045 C 
ATOM      6  C6  ZIN A   1      19.723   0.848  11.298  0.00  0.00     0.030 C 
ATOM      7  C7  ZIN A   1      18.947  -0.444  11.251  0.00  0.00    -0.003 A 
ATOM      8  C8  ZIN A   1      17.906  -0.816  12.066  0.00  0.00    -0.046 A 
ATOM      9  C9  ZIN A   1      17.367  -2.066  11.818  0.00  0.00     0.011 A 
ATOM     10  C10 ZIN A   1      17.853  -2.839  10.775  0.00  0.00     0.040 A 
ATOM     11  C11 ZIN A   1      18.870  -2.422   9.919  0.00  0.00     0.099 A 
ATOM     12  C13 ZIN A   1      19.426  -1.163  10.161  0.00  0.00     0.110 A 
ATOM     13  O14 ZIN A   1      20.359  -0.434   9.504  0.00  0.00    -0.338 OA
ATOM     14  C15 ZIN A   1      20.119   0.984   9.832  0.00  0.00     0.175 C 
ATOM     15  C17 ZIN A   1      18.918   1.346   8.951  0.00  0.00     0.171 C 
ATOM     16  C20 ZIN A   1      17.868   2.152   9.624  0.00  0.00     0.003 C 
ATOM     17  C21 ZIN A   1      17.773   2.386  10.895  0.00  0.00    -0.020 C 
ATOM     18  C22 ZIN A   1      18.820   1.910  11.881  0.00  0.00     0.055 C 
ATOM     19  C24 ZIN A   1      18.275   1.396  13.206  0.00  0.00     0.200 C 
ATOM     20  C26 ZIN A   1      17.429   0.140  13.111  0.00  0.00     0.073 C 
ENDROOT
BRANCH  15  21
ATOM     21  O19 ZIN A   1      18.321   0.136   8.481  0.00  0.00    -0.389 OA
ATOM     22  H37 ZIN A   1      18.826  -0.661   8.696  0.00  0.00     0.210 HD
ENDBRANCH  15  21
BRANCH  11  23
ATOM     23  O12 ZIN A   1      19.303  -3.204   8.895  0.00  0.00    -0.358 OA
ATOM     24  H36 ZIN A   1      20.263  -3.201   8.776  0.00  0.00     0.217 HD
ENDBRANCH  11  23
TORSDOF 2
ENDMDL
MODEL 3
REMARK VINA RESULT:      -6.9      3.381      5.016
REMARK  2 active torsions:
REMARK  status: ('A' for Active; 'I' for Inactive)
REMARK    1  A    between atoms: C11_11  and  O12_12 
REMARK    2  A    between atoms: C17_16  and  O19_17 
ROOT
ATOM      1  C1  ZIN A   1      19.062   1.343  13.352  0.00  0.00     0.270 C 
ATOM      2  N2  ZIN A   1      18.618  -0.036  13.108  0.00  0.00    -0.070 N 
ATOM      3  H3  ZIN A   1      18.319  -0.444  13.981  0.00  0.00     0.279 HD
ATOM      4  C4  ZIN A   1      17.486  -0.015  12.180  0.00  0.00     0.236 C 
ATOM      5  C5  ZIN A   1      16.985  -1.438  11.886  0.00  0.00     0.045 C 
ATOM      6  C6  ZIN A   1      18.173  -2.219  11.316  0.00  0.00     0.030 C 
ATOM      7  C7  ZIN A   1      18.689  -1.480  10.107  0.00  0.00    -0.003 A 
ATOM      8  C8  ZIN A   1      19.662  -0.510  10.081  0.00  0.00    -0.046 A 
ATOM      9  C9  ZIN A   1      19.947   0.019   8.835  0.00  0.00     0.011 A 
ATOM     10  C10 ZIN A   1      19.297  -0.460   7.709  0.00  0.00     0.040 A 
ATOM     11  C11 ZIN A   1      18.355  -1.487   7.745  0.00  0.00     0.099 A 
ATOM     12  C13 ZIN A   1      18.055  -2.028   8.998  0.00  0.00     0.110 A 
ATOM     13  O14 ZIN A   1      17.260  -3.054   9.383  0.00  0.00    -0.338 OA
ATOM     14  C15 ZIN A   1      17.772  -3.544  10.677  0.00  0.00     0.175 C 
ATOM     15  C17 ZIN A   1      18.997  -4.374  10.274  0.00  0.00     0.171 C 
ATOM     16  C20 ZIN A   1      20.198  -4.171  11.124  0.00  0.00     0.003 C 
ATOM     17  C21 ZIN A   1      20.368  -3.238  12.006  0.00  0.00    -0.020 C 
ATOM     18  C22 ZIN A   1      19.275  -2.245  12.349  0.00  0.00     0.055 C 
ATOM     19  C24 ZIN A   1      19.747  -0.816  12.577  0.00  0.00     0.200 C 
ATOM     20  C26 ZIN A   1      20.338  -0.130  11.358  0.00  0.00     0.073 C 
ENDROOT
BRANCH  15  21
ATOM     21  O19 ZIN A   1      19.341  -4.045   8.927  0.00  0.00    -0.389 OA
ATOM     22  H37 ZIN A   1      18.729  -3.427   8.503  0.00  0.00     0.210 HD
ENDBRANCH  15  21
BRANCH  11  23
ATOM     23  O12 ZIN A   1      17.756  -1.942   6.613  0.00  0.00    -0.358 OA
ATOM     24  H36 ZIN A   1      17.245  -1.270   6.141  0.00  0.00     0.217 HD
ENDBRANCH  11  23
TORSDOF 2
ENDMDL
MODEL 4
REMARK VINA RESULT:      -6.8      1.969      4.183
REMARK  2 active torsions:
REMARK  status: ('A' for Active; 'I' for Inactive)
REMARK    1  A    between atoms: C11_11  and  O12_12 
REMARK    2  A    between atoms: C17_16  and  O19_17 
ROOT
ATOM      1  C1  ZIN A   1      18.772  -4.107  10.997  0.00  0.00     0.270 C 
ATOM      2  N2  ZIN A   1      18.534  -2.665  10.842  0.00  0.00    -0.070 N 
ATOM      3  H3  ZIN A   1      18.426  -2.454   9.861  0.00  0.00     0.279 HD
ATOM      4  C4  ZIN A   1      17.301  -2.308  11.544  0.00  0.00     0.236 C 
ATOM      5  C5  ZIN A   1      17.008  -0.804  11.418  0.00  0.00     0.045 C 
ATOM      6  C6  ZIN A   1      18.221  -0.064  11.988  0.00  0.00     0.030 C 
ATOM      7  C7  ZIN A   1      18.442  -0.537  13.403  0.00  0.00    -0.003 A 
ATOM      8  C8  ZIN A   1      19.229  -1.586  13.813  0.00  0.00    -0.046 A 
ATOM      9  C9  ZIN A   1      19.254  -1.819  15.177  0.00  0.00     0.011 A 
ATOM     10  C10 ZIN A   1      18.548  -0.994  16.037  0.00  0.00     0.040 A 
ATOM     11  C11 ZIN A   1      17.802   0.104  15.610  0.00  0.00     0.099 A 
ATOM     12  C13 ZIN A   1      17.765   0.348  14.234  0.00  0.00     0.110 A 
ATOM     13  O14 ZIN A   1      17.210   1.338  13.497  0.00  0.00    -0.338 OA
ATOM     14  C15 ZIN A   1      17.964   1.418  12.231  0.00  0.00     0.175 C 
ATOM     15  C17 ZIN A   1      19.244   2.158  12.637  0.00  0.00     0.171 C 
ATOM     16  C20 ZIN A   1      20.497   1.597  12.071  0.00  0.00     0.003 C 
ATOM     17  C21 ZIN A   1      20.627   0.458  11.467  0.00  0.00    -0.020 C 
ATOM     18  C22 ZIN A   1      19.441  -0.439  11.179  0.00  0.00     0.055 C 
ATOM     19  C24 ZIN A   1      19.696  -1.928  11.365  0.00  0.00     0.200 C 
ATOM     20  C26 ZIN A   1      19.997  -2.357  12.789  0.00  0.00     0.073 C 
ENDROOT
BRANCH  15  21
ATOM     21  O19 ZIN A   1      19.347   2.136  14.062  0.00  0.00    -0.389 OA
ATOM     22  H37 ZIN A   1      18.494   2.087  14.517  0.00  0.00     0.210 HD
ENDBRANCH  15  21
BRANCH  11  23
ATOM     23  O12 ZIN A   1      17.141   0.900  16.491  0.00  0.00    -0.358 OA
ATOM     24  H36 ZIN A   1      16.818   0.436  17.275  0.00  0.00     0.217 HD
ENDBRANCH  11  23
TORSDOF 2
ENDMDL
MODEL 5
REMARK VINA RESULT:      -6.7      3.178      5.473
REMARK  2 active torsions:
REMARK  status: ('A' for Active; 'I' for Inactive)
REMARK    1  A    between atoms: C11_11  and  O12_12 
REMARK    2  A    between atoms: C17_16  and  O19_17 
ROOT
ATOM      1  C1  ZIN A   1      19.001   0.545  13.698  0.00  0.00     0.270 C 
ATOM      2  N2  ZIN A   1      19.307   0.530  12.261  0.00  0.00    -0.070 N 
ATOM      3  H3  ZIN A   1      19.730   1.410  12.006  0.00  0.00     0.279 HD
ATOM      4  C4  ZIN A   1      20.255  -0.551  11.987  0.00  0.00     0.236 C 
ATOM      5  C5  ZIN A   1      20.605  -0.614  10.492  0.00  0.00     0.045 C 
ATOM      6  C6  ZIN A   1      19.289  -0.807   9.733  0.00  0.00     0.030 C 
ATOM      7  C7  ZIN A   1      18.613  -2.046  10.266  0.00  0.00    -0.003 A 
ATOM      8  C8  ZIN A   1      17.714  -2.119  11.302  0.00  0.00    -0.046 A 
ATOM      9  C9  ZIN A   1      17.245  -3.386  11.600  0.00  0.00     0.011 A 
ATOM     10  C10 ZIN A   1      17.654  -4.475  10.846  0.00  0.00     0.040 A 
ATOM     11  C11 ZIN A   1      18.520  -4.375   9.759  0.00  0.00     0.099 A 
ATOM     12  C13 ZIN A   1      19.004  -3.101   9.450  0.00  0.00     0.110 A 
ATOM     13  O14 ZIN A   1      19.789  -2.641   8.447  0.00  0.00    -0.338 OA
ATOM     14  C15 ZIN A   1      19.486  -1.207   8.275  0.00  0.00     0.175 C 
ATOM     15  C17 ZIN A   1      18.159  -1.223   7.507  0.00  0.00     0.171 C 
ATOM     16  C20 ZIN A   1      17.144  -0.253   7.990  0.00  0.00     0.003 C 
ATOM     17  C21 ZIN A   1      17.192   0.427   9.092  0.00  0.00    -0.020 C 
ATOM     18  C22 ZIN A   1      18.388   0.372  10.020  0.00  0.00     0.055 C 
ATOM     19  C24 ZIN A   1      18.054   0.365  11.505  0.00  0.00     0.200 C 
ATOM     20  C26 ZIN A   1      17.301  -0.859  11.991  0.00  0.00     0.073 C 
ENDROOT
BRANCH  15  21
ATOM     21  O19 ZIN A   1      17.602  -2.536   7.595  0.00  0.00    -0.389 OA
ATOM     22  H37 ZIN A   1      16.758  -2.574   8.066  0.00  0.00     0.210 HD
ENDBRANCH  15  21
BRANCH  11  23
ATOM     23  O12 ZIN A   1      18.879  -5.467   9.033  0.00  0.00    -0.358 OA
ATOM     24  H36 ZIN A   1      18.132  -5.972   8.685  0.00  0.00     0.217 HD
ENDBRANCH  11  23
TORSDOF 2
ENDMDL
MODEL 6
REMARK VINA RESULT:      -6.6      1.598      3.583
REMARK  2 active torsions:
REMARK  status: ('A' for Active; 'I' for Inactive)
REMARK    1  A    between atoms: C11_11  and  O12_12 
REMARK    2  A    between atoms: C17_16  and  O19_17 
ROOT
ATOM      1  C1  ZIN A   1      19.244  -3.399  10.386  0.00  0.00     0.270 C 
ATOM      2  N2  ZIN A   1      18.575  -2.162   9.961  0.00  0.00    -0.070 N 
ATOM      3  H3  ZIN A   1      18.133  -2.318   9.068  0.00  0.00     0.279 HD
ATOM      4  C4  ZIN A   1      17.549  -1.813  10.945  0.00  0.00     0.236 C 
ATOM      5  C5  ZIN A   1      16.821  -0.519  10.550  0.00  0.00     0.045 C 
ATOM      6  C6  ZIN A   1      17.887   0.573  10.429  0.00  0.00     0.030 C 
ATOM      7  C7  ZIN A   1      18.631   0.655  11.738  0.00  0.00    -0.003 A 
ATOM      8  C8  ZIN A   1      19.765  -0.036  12.091  0.00  0.00    -0.046 A 
ATOM      9  C9  ZIN A   1      20.248   0.215  13.363  0.00  0.00     0.011 A 
ATOM     10  C10 ZIN A   1      19.618   1.144  14.177  0.00  0.00     0.040 A 
ATOM     11  C11 ZIN A   1      18.504   1.880  13.781  0.00  0.00     0.099 A 
ATOM     12  C13 ZIN A   1      18.003   1.633  12.499  0.00  0.00     0.110 A 
ATOM     13  O14 ZIN A   1      17.002   2.200  11.785  0.00  0.00    -0.338 OA
ATOM     14  C15 ZIN A   1      17.304   1.980  10.357  0.00  0.00     0.175 C 
ATOM     15  C17 ZIN A   1      18.383   3.028  10.065  0.00  0.00     0.171 C 
ATOM     16  C20 ZIN A   1      19.525   2.541   9.249  0.00  0.00     0.003 C 
ATOM     17  C21 ZIN A   1      19.789   1.307   8.955  0.00  0.00    -0.020 C 
ATOM     18  C22 ZIN A   1      18.874   0.169   9.359  0.00  0.00     0.055 C 
ATOM     19  C24 ZIN A   1      19.581  -1.098   9.818  0.00  0.00     0.200 C 
ATOM     20  C26 ZIN A   1      20.390  -0.958  11.095  0.00  0.00     0.073 C 
ENDROOT
BRANCH  15  21
ATOM     21  O19 ZIN A   1      18.896   3.508  11.310  0.00  0.00    -0.389 OA
ATOM     22  H37 ZIN A   1      19.726   3.999  11.231  0.00  0.00     0.210 HD
ENDBRANCH  15  21
BRANCH  11  23
ATOM     23  O12 ZIN A   1      17.928   2.797  14.604  0.00  0.00    -0.358 OA
ATOM     24  H36 ZIN A   1      17.243   3.331  14.180  0.00  0.00     0.217 HD
ENDBRANCH  11  23
TORSDOF 2
ENDMDL
MODEL 7
REMARK VINA RESULT:      -6.6      3.842      4.958
REMARK  2 active torsions:
REMARK  status: ('A' for Active; 'I' for Inactive)
REMARK    1  A    between atoms: C11_11  and  O12_12 
REMARK    2  A    between atoms: C17_16  and  O19_17 
ROOT
ATOM      1  C1  ZIN A   1      18.851  -5.568   5.822  0.00  0.00     0.270 C 
ATOM      2  N2  ZIN A   1      18.893  -5.866   7.260  0.00  0.00    -0.070 N 
ATOM      3  H3  ZIN A   1      18.845  -6.866   7.390  0.00  0.00     0.279 HD
ATOM      4  C4  ZIN A   1      20.157  -5.375   7.812  0.00  0.00     0.236 C 
ATOM      5  C5  ZIN A   1      20.249  -5.657   9.320  0.00  0.00     0.045 C 
ATOM      6  C6  ZIN A   1      19.042  -4.980   9.975  0.00  0.00     0.030 C 
ATOM      7  C7  ZIN A   1      19.068  -3.516   9.614  0.00  0.00    -0.003 A 
ATOM      8  C8  ZIN A   1      18.474  -2.919   8.529  0.00  0.00    -0.046 A 
ATOM      9  C9  ZIN A   1      18.657  -1.551   8.422  0.00  0.00     0.011 A 
ATOM     10  C10 ZIN A   1      19.367  -0.866   9.395  0.00  0.00     0.040 A 
ATOM     11  C11 ZIN A   1      19.913  -1.478  10.522  0.00  0.00     0.099 A 
ATOM     12  C13 ZIN A   1      19.738  -2.860  10.640  0.00  0.00     0.110 A 
ATOM     13  O14 ZIN A   1      20.069  -3.742  11.612  0.00  0.00    -0.338 OA
ATOM     14  C15 ZIN A   1      19.150  -4.890  11.493  0.00  0.00     0.175 C 
ATOM     15  C17 ZIN A   1      17.855  -4.366  12.125  0.00  0.00     0.171 C 
ATOM     16  C20 ZIN A   1      16.615  -4.703  11.382  0.00  0.00     0.003 C 
ATOM     17  C21 ZIN A   1      16.543  -5.193  10.185  0.00  0.00    -0.020 C 
ATOM     18  C22 ZIN A   1      17.780  -5.577   9.397  0.00  0.00     0.055 C 
ATOM     19  C24 ZIN A   1      17.731  -5.242   7.913  0.00  0.00     0.200 C 
ATOM     20  C26 ZIN A   1      17.674  -3.760   7.588  0.00  0.00     0.073 C 
ENDROOT
BRANCH  15  21
ATOM     21  O19 ZIN A   1      17.946  -2.943  12.224  0.00  0.00    -0.389 OA
ATOM     22  H37 ZIN A   1      18.519  -2.634  12.939  0.00  0.00     0.210 HD
ENDBRANCH  15  21
BRANCH  11  23
ATOM     23  O12 ZIN A   1      20.585  -0.764  11.464  0.00  0.00    -0.358 OA
ATOM     24  H36 ZIN A   1      21.104  -1.306  12.073  0.00  0.00     0.217 HD
ENDBRANCH  11  23
TORSDOF 2
ENDMDL
MODEL 8
REMARK VINA RESULT:      -6.6      2.370      4.362
REMARK  2 active torsions:
REMARK  status: ('A' for Active; 'I' for Inactive)
REMARK    1  A    between atoms: C11_11  and  O12_12 
REMARK    2  A    between atoms: C17_16  and  O19_17 
ROOT
ATOM      1  C1  ZIN A   1      18.950  -0.893  15.194  0.00  0.00     0.270 C 
ATOM      2  N2  ZIN A   1      19.426   0.335  14.542  0.00  0.00    -0.070 N 
ATOM      3  H3  ZIN A   1      20.045   0.822  15.172  0.00  0.00     0.279 HD
ATOM      4  C4  ZIN A   1      20.167  -0.026  13.332  0.00  0.00     0.236 C 
ATOM      5  C5  ZIN A   1      20.684   1.226  12.606  0.00  0.00     0.045 C 
ATOM      6  C6  ZIN A   1      19.463   2.093  12.288  0.00  0.00     0.030 C 
ATOM      7  C7  ZIN A   1      18.492   1.266  11.483  0.00  0.00    -0.003 A 
ATOM      8  C8  ZIN A   1      17.473   0.482  11.966  0.00  0.00    -0.046 A 
ATOM      9  C9  ZIN A   1      16.727  -0.186  11.011  0.00  0.00     0.011 A 
ATOM     10  C10 ZIN A   1      17.002  -0.011   9.664  0.00  0.00     0.040 A 
ATOM     11  C11 ZIN A   1      18.002   0.835   9.188  0.00  0.00     0.099 A 
ATOM     12  C13 ZIN A   1      18.765   1.513  10.143  0.00  0.00     0.110 A 
ATOM     13  O14 ZIN A   1      19.747   2.440  10.037  0.00  0.00    -0.338 OA
ATOM     14  C15 ZIN A   1      19.759   3.211  11.294  0.00  0.00     0.175 C 
ATOM     15  C17 ZIN A   1      18.565   4.158  11.132  0.00  0.00     0.171 C 
ATOM     16  C20 ZIN A   1      17.710   4.301  12.338  0.00  0.00     0.003 C 
ATOM     17  C21 ZIN A   1      17.752   3.564  13.403  0.00  0.00    -0.020 C 
ATOM     18  C22 ZIN A   1      18.786   2.471  13.585  0.00  0.00     0.055 C 
ATOM     19  C24 ZIN A   1      18.272   1.197  14.241  0.00  0.00     0.200 C 
ATOM     20  C26 ZIN A   1      17.234   0.433  13.440  0.00  0.00     0.073 C 
ENDROOT
BRANCH  15  21
ATOM     21  O19 ZIN A   1      17.750   3.679  10.060  0.00  0.00    -0.389 OA
ATOM     22  H37 ZIN A   1      17.061   4.298   9.782  0.00  0.00     0.210 HD
ENDBRANCH  15  21
BRANCH  11  23
ATOM     23  O12 ZIN A   1      18.225   0.993   7.857  0.00  0.00    -0.358 OA
ATOM     24  H36 ZIN A   1      18.621   1.844   7.622  0.00  0.00     0.217 HD
ENDBRANCH  11  23
TORSDOF 2
ENDMDL
MODEL 9
REMARK VINA RESULT:      -6.6      2.784      4.820
REMARK  2 active torsions:
REMARK  status: ('A' for Active; 'I' for Inactive)
REMARK    1  A    between atoms: C11_11  and  O12_12 
REMARK    2  A    between atoms: C17_16  and  O19_17 
ROOT
ATOM      1  C1  ZIN A   1      18.409   0.059   6.014  0.00  0.00     0.270 C 
ATOM      2  N2  ZIN A   1      18.356   0.340   7.455  0.00  0.00    -0.070 N 
ATOM      3  H3  ZIN A   1      18.417   1.337   7.598  0.00  0.00     0.279 HD
ATOM      4  C4  ZIN A   1      17.080  -0.140   7.988  0.00  0.00     0.236 C 
ATOM      5  C5  ZIN A   1      16.975   0.125   9.498  0.00  0.00     0.045 C 
ATOM      6  C6  ZIN A   1      18.166  -0.578  10.157  0.00  0.00     0.030 C 
ATOM      7  C7  ZIN A   1      18.123  -2.037   9.778  0.00  0.00    -0.003 A 
ATOM      8  C8  ZIN A   1      18.721  -2.629   8.692  0.00  0.00    -0.046 A 
ATOM      9  C9  ZIN A   1      18.519  -3.992   8.566  0.00  0.00     0.011 A 
ATOM     10  C10 ZIN A   1      17.789  -4.679   9.523  0.00  0.00     0.040 A 
ATOM     11  C11 ZIN A   1      17.240  -4.073  10.652  0.00  0.00     0.099 A 
ATOM     12  C13 ZIN A   1      17.433  -2.696  10.789  0.00  0.00     0.110 A 
ATOM     13  O14 ZIN A   1      17.104  -1.820  11.768  0.00  0.00    -0.338 OA
ATOM     14  C15 ZIN A   1      18.040  -0.684  11.673  0.00  0.00     0.175 C 
ATOM     15  C17 ZIN A   1      19.320  -1.235  12.311  0.00  0.00     0.171 C 
ATOM     16  C20 ZIN A   1      20.574  -0.906  11.586  0.00  0.00     0.003 C 
ATOM     17  C21 ZIN A   1      20.665  -0.402  10.396  0.00  0.00    -0.020 C 
ATOM     18  C22 ZIN A   1      19.442   0.008   9.600  0.00  0.00     0.055 C 
ATOM     19  C24 ZIN A   1      19.502  -0.309   8.113  0.00  0.00     0.200 C 
ATOM     20  C26 ZIN A   1      19.542  -1.787   7.770  0.00  0.00     0.073 C 
ENDROOT
BRANCH  15  21
ATOM     21  O19 ZIN A   1      19.209  -2.657  12.392  0.00  0.00    -0.389 OA
ATOM     22  H37 ZIN A   1      19.792  -3.061  13.050  0.00  0.00     0.210 HD
ENDBRANCH  15  21
BRANCH  11  23
ATOM     23  O12 ZIN A   1      16.548  -4.789  11.577  0.00  0.00    -0.358 OA
ATOM     24  H36 ZIN A   1      15.644  -5.006  11.311  0.00  0.00     0.217 HD
ENDBRANCH  11  23
TORSDOF 2
ENDMDL
