MODEL 1
REMARK VINA RESULT:      -6.7      0.000      0.000
REMARK  2 active torsions:
REMARK  status: ('A' for Active; 'I' for Inactive)
REMARK    1  A    between atoms: C10_10  and  C11_11 
REMARK    2  A    between atoms: C11_11  and  C12_12 
ROOT
ATOM      1  C1  ZIN A   1      18.651   0.153   6.534  0.00  0.00     0.001 A 
ATOM      2  C2  ZIN A   1      17.937  -0.795   7.264  0.00  0.00     0.001 A 
ATOM      3  C3  ZIN A   1      17.554  -0.548   8.546  0.00  0.00     0.013 A 
ATOM      4  C4  ZIN A   1      17.883   0.680   9.146  0.00  0.00    -0.019 A 
ATOM      5  C5  ZIN A   1      18.610   1.643   8.403  0.00  0.00    -0.025 A 
ATOM      6  C6  ZIN A   1      18.988   1.353   7.082  0.00  0.00     0.012 A 
ATOM      7  C7  ZIN A   1      18.938   2.871   9.004  0.00  0.00     0.012 A 
ATOM      8  C8  ZIN A   1      18.555   3.117  10.286  0.00  0.00     0.001 A 
ATOM      9  C9  ZIN A   1      17.841   2.171  11.016  0.00  0.00     0.008 A 
ATOM     10  C10 ZIN A   1      17.504   0.971  10.469  0.00  0.00    -0.040 A 
ENDROOT
BRANCH  10  11
ATOM     11  C11 ZIN A   1      16.730  -0.039  11.274  0.00  0.00     0.115 C 
BRANCH  11  12
ATOM     12  C12 ZIN A   1      17.645  -0.686  12.283  0.00  0.00     0.077 A 
ATOM     13  N17 ZIN A   1      18.556  -1.566  11.944  0.00  0.00    -0.378 N 
ATOM     14  C16 ZIN A   1      19.281  -2.003  13.149  0.00  0.00     0.140 A 
ATOM     15  H31 ZIN A   1      18.730  -1.876  11.042  0.00  0.00     0.160 HD
ATOM     16  C15 ZIN A   1      18.600  -1.203  14.279  0.00  0.00     0.140 A 
ATOM     17  N13 ZIN A   1      17.583  -0.413  13.566  0.00  0.00    -0.378 N 
ATOM     18  H14 ZIN A   1      16.965   0.209  13.978  0.00  0.00     0.160 HD
ENDBRANCH  11  12
ENDBRANCH  10  11
TORSDOF 2
ENDMDL
MODEL 2
REMARK VINA RESULT:      -6.6      1.940      3.696
REMARK  2 active torsions:
REMARK  status: ('A' for Active; 'I' for Inactive)
REMARK    1  A    between atoms: C10_10  and  C11_11 
REMARK    2  A    between atoms: C11_11  and  C12_12 
ROOT
ATOM      1  C1  ZIN A   1      17.998   4.340  11.182  0.00  0.00     0.001 A 
ATOM      2  C2  ZIN A   1      18.492   3.610  12.260  0.00  0.00     0.001 A 
ATOM      3  C3  ZIN A   1      19.079   2.396  12.074  0.00  0.00     0.013 A 
ATOM      4  C4  ZIN A   1      19.188   1.868  10.776  0.00  0.00    -0.019 A 
ATOM      5  C5  ZIN A   1      18.684   2.611   9.680  0.00  0.00    -0.025 A 
ATOM      6  C6  ZIN A   1      18.086   3.861   9.911  0.00  0.00     0.012 A 
ATOM      7  C7  ZIN A   1      18.793   2.082   8.381  0.00  0.00     0.012 A 
ATOM      8  C8  ZIN A   1      19.380   0.868   8.196  0.00  0.00     0.001 A 
ATOM      9  C9  ZIN A   1      19.874   0.138   9.274  0.00  0.00     0.008 A 
ATOM     10  C10 ZIN A   1      19.786   0.617  10.545  0.00  0.00    -0.040 A 
ENDROOT
BRANCH  10  11
ATOM     11  C11 ZIN A   1      20.329  -0.187  11.697  0.00  0.00     0.115 C 
BRANCH  11  12
ATOM     12  C12 ZIN A   1      19.795  -1.595  11.623  0.00  0.00     0.077 A 
ATOM     13  N17 ZIN A   1      18.541  -1.886  11.874  0.00  0.00    -0.378 N 
ATOM     14  C16 ZIN A   1      18.337  -3.335  11.713  0.00  0.00     0.140 A 
ATOM     15  H31 ZIN A   1      17.854  -1.247  12.120  0.00  0.00     0.160 HD
ATOM     16  C15 ZIN A   1      19.740  -3.847  11.324  0.00  0.00     0.140 A 
ATOM     17  N13 ZIN A   1      20.553  -2.620  11.308  0.00  0.00    -0.378 N 
ATOM     18  H14 ZIN A   1      21.498  -2.576  11.100  0.00  0.00     0.160 HD
ENDBRANCH  11  12
ENDBRANCH  10  11
TORSDOF 2
ENDMDL
MODEL 3
REMARK VINA RESULT:      -6.5      2.598      4.124
REMARK  2 active torsions:
REMARK  status: ('A' for Active; 'I' for Inactive)
REMARK    1  A    between atoms: C10_10  and  C11_11 
REMARK    2  A    between atoms: C11_11  and  C12_12 
ROOT
ATOM      1  C1  ZIN A   1      18.079   0.422   7.294  0.00  0.00     0.001 A 
ATOM      2  C2  ZIN A   1      18.978   1.469   7.481  0.00  0.00     0.001 A 
ATOM      3  C3  ZIN A   1      19.187   2.001   8.716  0.00  0.00     0.013 A 
ATOM      4  C4  ZIN A   1      18.487   1.488   9.822  0.00  0.00    -0.019 A 
ATOM      5  C5  ZIN A   1      17.572   0.423   9.631  0.00  0.00    -0.025 A 
ATOM      6  C6  ZIN A   1      17.383  -0.100   8.341  0.00  0.00     0.012 A 
ATOM      7  C7  ZIN A   1      16.872  -0.090  10.738  0.00  0.00     0.012 A 
ATOM      8  C8  ZIN A   1      17.082   0.442  11.972  0.00  0.00     0.001 A 
ATOM      9  C9  ZIN A   1      17.981   1.489  12.160  0.00  0.00     0.008 A 
ATOM     10  C10 ZIN A   1      18.677   2.011  11.113  0.00  0.00    -0.040 A 
ENDROOT
BRANCH  10  11
ATOM     11  C11 ZIN A   1      19.646   3.142  11.337  0.00  0.00     0.115 C 
BRANCH  11  12
ATOM     12  C12 ZIN A   1      19.101   4.070  12.393  0.00  0.00     0.077 A 
ATOM     13  N17 ZIN A   1      17.994   4.753  12.225  0.00  0.00    -0.378 N 
ATOM     14  C16 ZIN A   1      17.733   5.557  13.430  0.00  0.00     0.140 A 
ATOM     15  H31 ZIN A   1      17.433   4.729  11.434  0.00  0.00     0.160 HD
ATOM     16  C15 ZIN A   1      18.925   5.214  14.347  0.00  0.00     0.140 A 
ATOM     17  N13 ZIN A   1      19.703   4.257  13.544  0.00  0.00    -0.378 N 
ATOM     18  H14 ZIN A   1      20.529   3.833  13.821  0.00  0.00     0.160 HD
ENDBRANCH  11  12
ENDBRANCH  10  11
TORSDOF 2
ENDMDL
MODEL 4
REMARK VINA RESULT:      -6.3      1.684      2.563
REMARK  2 active torsions:
REMARK  status: ('A' for Active; 'I' for Inactive)
REMARK    1  A    between atoms: C10_10  and  C11_11 
REMARK    2  A    between atoms: C11_11  and  C12_12 
ROOT
ATOM      1  C1  ZIN A   1      19.274  -0.036   4.604  0.00  0.00     0.001 A 
ATOM      2  C2  ZIN A   1      18.845  -1.306   4.984  0.00  0.00     0.001 A 
ATOM      3  C3  ZIN A   1      18.468  -1.563   6.266  0.00  0.00     0.013 A 
ATOM      4  C4  ZIN A   1      18.510  -0.534   7.223  0.00  0.00    -0.019 A 
ATOM      5  C5  ZIN A   1      18.947   0.757   6.836  0.00  0.00    -0.025 A 
ATOM      6  C6  ZIN A   1      19.329   0.985   5.503  0.00  0.00     0.012 A 
ATOM      7  C7  ZIN A   1      18.989   1.786   7.794  0.00  0.00     0.012 A 
ATOM      8  C8  ZIN A   1      18.611   1.528   9.075  0.00  0.00     0.001 A 
ATOM      9  C9  ZIN A   1      18.182   0.259   9.456  0.00  0.00     0.008 A 
ATOM     10  C10 ZIN A   1      18.128  -0.762   8.557  0.00  0.00    -0.040 A 
ENDROOT
BRANCH  10  11
ATOM     11  C11 ZIN A   1      17.659  -2.127   8.987  0.00  0.00     0.115 C 
BRANCH  11  12
ATOM     12  C12 ZIN A   1      18.366  -2.523  10.259  0.00  0.00     0.077 A 
ATOM     13  N17 ZIN A   1      17.782  -2.476  11.433  0.00  0.00    -0.378 N 
ATOM     14  C16 ZIN A   1      18.731  -2.925  12.465  0.00  0.00     0.140 A 
ATOM     15  H31 ZIN A   1      16.868  -2.195  11.595  0.00  0.00     0.160 HD
ATOM     16  C15 ZIN A   1      20.007  -3.240  11.657  0.00  0.00     0.140 A 
ATOM     17  N13 ZIN A   1      19.613  -2.934  10.272  0.00  0.00    -0.378 N 
ATOM     18  H14 ZIN A   1      20.183  -3.021   9.494  0.00  0.00     0.160 HD
ENDBRANCH  11  12
ENDBRANCH  10  11
TORSDOF 2
ENDMDL
MODEL 5
REMARK VINA RESULT:      -6.3      3.189      5.654
REMARK  2 active torsions:
REMARK  status: ('A' for Active; 'I' for Inactive)
REMARK    1  A    between atoms: C10_10  and  C11_11 
REMARK    2  A    between atoms: C11_11  and  C12_12 
ROOT
ATOM      1  C1  ZIN A   1      18.111   0.008  15.759  0.00  0.00     0.001 A 
ATOM      2  C2  ZIN A   1      18.958  -1.093  15.664  0.00  0.00     0.001 A 
ATOM      3  C3  ZIN A   1      19.148  -1.730  14.477  0.00  0.00     0.013 A 
ATOM      4  C4  ZIN A   1      18.479  -1.274  13.328  0.00  0.00    -0.019 A 
ATOM      5  C5  ZIN A   1      17.616  -0.154  13.426  0.00  0.00    -0.025 A 
ATOM      6  C6  ZIN A   1      17.446   0.479  14.668  0.00  0.00     0.012 A 
ATOM      7  C7  ZIN A   1      16.948   0.302  12.276  0.00  0.00     0.012 A 
ATOM      8  C8  ZIN A   1      17.137  -0.336  11.089  0.00  0.00     0.001 A 
ATOM      9  C9  ZIN A   1      17.985  -1.437  10.994  0.00  0.00     0.008 A 
ATOM     10  C10 ZIN A   1      18.649  -1.907  12.084  0.00  0.00    -0.040 A 
ENDROOT
BRANCH  10  11
ATOM     11  C11 ZIN A   1      19.563  -3.098  11.960  0.00  0.00     0.115 C 
BRANCH  11  12
ATOM     12  C12 ZIN A   1      18.829  -4.225  11.279  0.00  0.00     0.077 A 
ATOM     13  N17 ZIN A   1      17.806  -4.834  11.831  0.00  0.00    -0.378 N 
ATOM     14  C16 ZIN A   1      17.313  -5.878  10.919  0.00  0.00     0.140 A 
ATOM     15  H31 ZIN A   1      17.430  -4.625  12.700  0.00  0.00     0.160 HD
ATOM     16  C15 ZIN A   1      18.267  -5.770   9.711  0.00  0.00     0.140 A 
ATOM     17  N13 ZIN A   1      19.171  -4.674  10.094  0.00  0.00    -0.378 N 
ATOM     18  H14 ZIN A   1      19.904  -4.337   9.556  0.00  0.00     0.160 HD
ENDBRANCH  11  12
ENDBRANCH  10  11
TORSDOF 2
ENDMDL
MODEL 6
REMARK VINA RESULT:      -6.3      2.657      4.047
REMARK  2 active torsions:
REMARK  status: ('A' for Active; 'I' for Inactive)
REMARK    1  A    between atoms: C10_10  and  C11_11 
REMARK    2  A    between atoms: C11_11  and  C12_12 
ROOT
ATOM      1  C1  ZIN A   1      17.726   3.915  10.883  0.00  0.00     0.001 A 
ATOM      2  C2  ZIN A   1      18.356   3.117   9.930  0.00  0.00     0.001 A 
ATOM      3  C3  ZIN A   1      19.074   2.021  10.298  0.00  0.00     0.013 A 
ATOM      4  C4  ZIN A   1      19.184   1.687  11.658  0.00  0.00    -0.019 A 
ATOM      5  C5  ZIN A   1      18.544   2.499  12.627  0.00  0.00    -0.025 A 
ATOM      6  C6  ZIN A   1      17.811   3.622  12.210  0.00  0.00     0.012 A 
ATOM      7  C7  ZIN A   1      18.655   2.164  13.989  0.00  0.00     0.012 A 
ATOM      8  C8  ZIN A   1      19.373   1.068  14.355  0.00  0.00     0.001 A 
ATOM      9  C9  ZIN A   1      20.003   0.270  13.403  0.00  0.00     0.008 A 
ATOM     10  C10 ZIN A   1      19.918   0.563  12.077  0.00  0.00    -0.040 A 
ENDROOT
BRANCH  10  11
ATOM     11  C11 ZIN A   1      20.604  -0.314  11.062  0.00  0.00     0.115 C 
BRANCH  11  12
ATOM     12  C12 ZIN A   1      19.980  -1.686  11.079  0.00  0.00     0.077 A 
ATOM     13  N17 ZIN A   1      20.660  -2.765  11.388  0.00  0.00    -0.378 N 
ATOM     14  C16 ZIN A   1      19.771  -3.936  11.316  0.00  0.00     0.140 A 
ATOM     15  H31 ZIN A   1      21.599  -2.787  11.630  0.00  0.00     0.160 HD
ATOM     16  C15 ZIN A   1      18.419  -3.327  10.890  0.00  0.00     0.140 A 
ATOM     17  N13 ZIN A   1      18.718  -1.890  10.781  0.00  0.00    -0.378 N 
ATOM     18  H14 ZIN A   1      18.083  -1.202  10.529  0.00  0.00     0.160 HD
ENDBRANCH  11  12
ENDBRANCH  10  11
TORSDOF 2
ENDMDL
MODEL 7
REMARK VINA RESULT:      -6.1      3.600      5.920
REMARK  2 active torsions:
REMARK  status: ('A' for Active; 'I' for Inactive)
REMARK    1  A    between atoms: C10_10  and  C11_11 
REMARK    2  A    between atoms: C11_11  and  C12_12 
ROOT
ATOM      1  C1  ZIN A   1      18.314   6.465  15.277  0.00  0.00     0.001 A 
ATOM      2  C2  ZIN A   1      19.528   5.819  15.054  0.00  0.00     0.001 A 
ATOM      3  C3  ZIN A   1      19.729   5.074  13.933  0.00  0.00     0.013 A 
ATOM      4  C4  ZIN A   1      18.699   4.952  12.985  0.00  0.00    -0.019 A 
ATOM      5  C5  ZIN A   1      17.464   5.609  13.213  0.00  0.00    -0.025 A 
ATOM      6  C6  ZIN A   1      17.294   6.369  14.382  0.00  0.00     0.012 A 
ATOM      7  C7  ZIN A   1      16.433   5.487  12.264  0.00  0.00     0.012 A 
ATOM      8  C8  ZIN A   1      16.635   4.742  11.143  0.00  0.00     0.001 A 
ATOM      9  C9  ZIN A   1      17.849   4.096  10.919  0.00  0.00     0.008 A 
ATOM     10  C10 ZIN A   1      18.869   4.192  11.815  0.00  0.00    -0.040 A 
ENDROOT
BRANCH  10  11
ATOM     11  C11 ZIN A   1      20.175   3.487  11.553  0.00  0.00     0.115 C 
BRANCH  11  12
ATOM     12  C12 ZIN A   1      20.009   2.010  11.808  0.00  0.00     0.077 A 
ATOM     13  N17 ZIN A   1      19.981   1.128  10.838  0.00  0.00    -0.378 N 
ATOM     14  C16 ZIN A   1      19.811  -0.218  11.411  0.00  0.00     0.140 A 
ATOM     15  H31 ZIN A   1      20.066   1.328   9.893  0.00  0.00     0.160 HD
ATOM     16  C15 ZIN A   1      19.733   0.053  12.928  0.00  0.00     0.140 A 
ATOM     17  N13 ZIN A   1      19.875   1.515  13.016  0.00  0.00    -0.378 N 
ATOM     18  H14 ZIN A   1      19.870   2.031  13.837  0.00  0.00     0.160 HD
ENDBRANCH  11  12
ENDBRANCH  10  11
TORSDOF 2
ENDMDL
MODEL 8
REMARK VINA RESULT:      -6.1      2.227      3.796
REMARK  2 active torsions:
REMARK  status: ('A' for Active; 'I' for Inactive)
REMARK    1  A    between atoms: C10_10  and  C11_11 
REMARK    2  A    between atoms: C11_11  and  C12_12 
ROOT
ATOM      1  C1  ZIN A   1      18.570   3.249   9.708  0.00  0.00     0.001 A 
ATOM      2  C2  ZIN A   1      18.813   2.401   8.629  0.00  0.00     0.001 A 
ATOM      3  C3  ZIN A   1      18.571   1.065   8.721  0.00  0.00     0.013 A 
ATOM      4  C4  ZIN A   1      18.070   0.530   9.920  0.00  0.00    -0.019 A 
ATOM      5  C5  ZIN A   1      17.824   1.393  11.017  0.00  0.00    -0.025 A 
ATOM      6  C6  ZIN A   1      18.085   2.767  10.884  0.00  0.00     0.012 A 
ATOM      7  C7  ZIN A   1      17.322   0.856  12.216  0.00  0.00     0.012 A 
ATOM      8  C8  ZIN A   1      17.081  -0.479  12.307  0.00  0.00     0.001 A 
ATOM      9  C9  ZIN A   1      17.323  -1.328  11.230  0.00  0.00     0.008 A 
ATOM     10  C10 ZIN A   1      17.808  -0.845  10.053  0.00  0.00    -0.040 A 
ENDROOT
BRANCH  10  11
ATOM     11  C11 ZIN A   1      18.062  -1.779   8.898  0.00  0.00     0.115 C 
BRANCH  11  12
ATOM     12  C12 ZIN A   1      18.476  -3.130   9.426  0.00  0.00     0.077 A 
ATOM     13  N17 ZIN A   1      17.669  -4.164   9.422  0.00  0.00    -0.378 N 
ATOM     14  C16 ZIN A   1      18.367  -5.326   9.997  0.00  0.00     0.140 A 
ATOM     15  H31 ZIN A   1      16.759  -4.166   9.087  0.00  0.00     0.160 HD
ATOM     16  C15 ZIN A   1      19.757  -4.761  10.354  0.00  0.00     0.140 A 
ATOM     17  N13 ZIN A   1      19.667  -3.354   9.929  0.00  0.00    -0.378 N 
ATOM     18  H14 ZIN A   1      20.376  -2.698  10.008  0.00  0.00     0.160 HD
ENDBRANCH  11  12
ENDBRANCH  10  11
TORSDOF 2
ENDMDL
MODEL 9
REMARK VINA RESULT:      -6.1      2.890      5.260
REMARK  2 active torsions:
REMARK  status: ('A' for Active; 'I' for Inactive)
REMARK    1  A    between atoms: C10_10  and  C11_11 
REMARK    2  A    between atoms: C11_11  and  C12_12 
ROOT
ATOM      1  C1  ZIN A   1      19.272   3.625  11.545  0.00  0.00     0.001 A 
ATOM      2  C2  ZIN A   1      18.284   3.607  10.563  0.00  0.00     0.001 A 
ATOM      3  C3  ZIN A   1      17.997   2.466   9.879  0.00  0.00     0.013 A 
ATOM      4  C4  ZIN A   1      18.707   1.288  10.164  0.00  0.00    -0.019 A 
ATOM      5  C5  ZIN A   1      19.713   1.307  11.162  0.00  0.00    -0.025 A 
ATOM      6  C6  ZIN A   1      19.980   2.503  11.848  0.00  0.00     0.012 A 
ATOM      7  C7  ZIN A   1      20.423   0.127  11.447  0.00  0.00     0.012 A 
ATOM      8  C8  ZIN A   1      20.136  -1.014  10.762  0.00  0.00     0.001 A 
ATOM      9  C9  ZIN A   1      19.149  -1.032   9.781  0.00  0.00     0.008 A 
ATOM     10  C10 ZIN A   1      18.440   0.090   9.477  0.00  0.00    -0.040 A 
ENDROOT
BRANCH  10  11
ATOM     11  C11 ZIN A   1      17.374   0.049   8.413  0.00  0.00     0.115 C 
BRANCH  11  12
ATOM     12  C12 ZIN A   1      18.017  -0.161   7.066  0.00  0.00     0.077 A 
ATOM     13  N17 ZIN A   1      18.778   0.746   6.501  0.00  0.00    -0.378 N 
ATOM     14  C16 ZIN A   1      19.252   0.240   5.202  0.00  0.00     0.140 A 
ATOM     15  H31 ZIN A   1      19.000   1.610   6.880  0.00  0.00     0.160 HD
ATOM     16  C15 ZIN A   1      18.603  -1.157   5.109  0.00  0.00     0.140 A 
ATOM     17  N13 ZIN A   1      17.851  -1.262   6.371  0.00  0.00    -0.378 N 
ATOM     18  H14 ZIN A   1      17.317  -2.023   6.644  0.00  0.00     0.160 HD
ENDBRANCH  11  12
ENDBRANCH  10  11
TORSDOF 2
ENDMDL
