MODEL 1
REMARK VINA RESULT:      -8.3      0.000      0.000
REMARK  6 active torsions:
REMARK  status: ('A' for Active; 'I' for Inactive)
REMARK    1  A    between atoms: O2_2  and  C3_3 
REMARK    2  A    between atoms: C8_8  and  O9_9 
REMARK    3  A    between atoms: C13_13  and  C15_14 
REMARK    4  A    between atoms: C15_14  and  C16_15 
REMARK    5  A    between atoms: N19_18  and  C20_19 
REMARK    6  A    between atoms: C20_19  and  C21_20 
ROOT
ATOM      1  C3  <0> d   1      16.445   5.482  14.518  0.00  0.00     0.102 A 
ATOM      2  C4  <0> d   1      16.160   5.409  13.162  0.00  0.00     0.047 A 
ATOM      3  C5  <0> d   1      17.096   4.909  12.278  0.00  0.00    -0.041 A 
ATOM      4  C6  <0> d   1      18.337   4.475  12.746  0.00  0.00     0.019 A 
ATOM      5  C7  <0> d   1      18.624   4.551  14.121  0.00  0.00     0.055 A 
ATOM      6  C8  <0> d   1      17.685   5.055  14.995  0.00  0.00     0.102 A 
ATOM      7  C11 <0> d   1      19.168   3.987  11.636  0.00  0.00     0.164 A 
ATOM      8  O12 <0> d   1      20.294   3.547  11.731  0.00  0.00    -0.292 OA
ATOM      9  C13 <0> d   1      18.377   4.129  10.359  0.00  0.00     0.065 A 
ATOM     10  C29 <0> d   1      17.029   4.729  10.780  0.00  0.00     0.052 A 
ENDROOT
BRANCH   9  11
ATOM     11  C15 <0> d   1      18.170   2.759   9.710  0.00  0.00     0.017 C 
BRANCH  11  12
ATOM     12  C16 <0> d   1      18.487   1.660  10.727  0.00  0.00    -0.010 C 
ATOM     13  C28 <0> d   1      19.461   0.655  10.107  0.00  0.00     0.035 C 
ATOM     14  C27 <0> d   1      19.727  -0.473  11.107  0.00  0.00     0.273 C 
ATOM     15  N19 <0> d   1      18.461  -1.136  11.444  0.00  0.00     0.092 N 
ATOM     16  C18 <0> d   1      17.526  -0.202  12.083  0.00  0.00     0.273 C 
ATOM     17  C17 <0> d   1      17.196   0.934  11.114  0.00  0.00     0.035 C 
BRANCH  15  18
ATOM     18  C20 <0> d   1      18.694  -2.313  12.293  0.00  0.00     0.311 C 
BRANCH  18  19
ATOM     19  C21 <0> d   1      18.400  -3.565  11.508  0.00  0.00    -0.030 A 
ATOM     20  C26 <0> d   1      17.133  -4.116  11.531  0.00  0.00     0.009 A 
ATOM     21  C25 <0> d   1      16.863  -5.263  10.808  0.00  0.00     0.001 A 
ATOM     22  C24 <0> d   1      17.865  -5.863  10.068  0.00  0.00     0.000 A 
ATOM     23  C23 <0> d   1      19.134  -5.317  10.048  0.00  0.00     0.001 A 
ATOM     24  C22 <0> d   1      19.402  -4.167  10.769  0.00  0.00     0.009 A 
ENDBRANCH  18  19
ENDBRANCH  15  18
ENDBRANCH  11  12
ENDBRANCH   9  11
BRANCH   6  25
ATOM     25  O9  <0> d   1      17.964   5.128  16.324  0.00  0.00    -0.353 OA
ATOM     26  C10 <0> d   1      18.758   4.078  16.880  0.00  0.00     0.210 C 
ENDBRANCH   6  25
BRANCH   1  27
ATOM     27  O2  <0> d   1      15.520   5.973  15.381  0.00  0.00    -0.353 OA
ATOM     28  C1  <0> d   1      14.200   6.174  14.869  0.00  0.00     0.210 C 
ENDBRANCH   1  27
TORSDOF 6
ENDMDL
MODEL 2
REMARK VINA RESULT:      -8.2      4.435      8.573
REMARK  6 active torsions:
REMARK  status: ('A' for Active; 'I' for Inactive)
REMARK    1  A    between atoms: O2_2  and  C3_3 
REMARK    2  A    between atoms: C8_8  and  O9_9 
REMARK    3  A    between atoms: C13_13  and  C15_14 
REMARK    4  A    between atoms: C15_14  and  C16_15 
REMARK    5  A    between atoms: N19_18  and  C20_19 
REMARK    6  A    between atoms: C20_19  and  C21_20 
ROOT
ATOM      1  C3  <0> d   1      18.245  -2.722   5.024  0.00  0.00     0.102 A 
ATOM      2  C4  <0> d   1      17.882  -1.403   5.253  0.00  0.00     0.047 A 
ATOM      3  C5  <0> d   1      18.097  -0.825   6.489  0.00  0.00    -0.041 A 
ATOM      4  C6  <0> d   1      18.681  -1.567   7.516  0.00  0.00     0.019 A 
ATOM      5  C7  <0> d   1      19.047  -2.904   7.281  0.00  0.00     0.055 A 
ATOM      6  C8  <0> d   1      18.826  -3.475   6.046  0.00  0.00     0.102 A 
ATOM      7  C11 <0> d   1      18.811  -0.755   8.734  0.00  0.00     0.164 A 
ATOM      8  O12 <0> d   1      19.281  -1.125   9.789  0.00  0.00    -0.292 OA
ATOM      9  C13 <0> d   1      18.258   0.619   8.444  0.00  0.00     0.065 A 
ATOM     10  C29 <0> d   1      17.794   0.571   6.982  0.00  0.00     0.052 A 
ENDROOT
BRANCH   9  11
ATOM     11  C15 <0> d   1      19.349   1.677   8.621  0.00  0.00     0.017 C 
BRANCH  11  12
ATOM     12  C16 <0> d   1      19.138   2.411   9.947  0.00  0.00    -0.010 C 
ATOM     13  C28 <0> d   1      20.068   1.823  11.012  0.00  0.00     0.035 C 
ATOM     14  C27 <0> d   1      19.809   2.519  12.350  0.00  0.00     0.273 C 
ATOM     15  N19 <0> d   1      18.407   2.325  12.739  0.00  0.00     0.092 N 
ATOM     16  C18 <0> d   1      17.494   2.922  11.756  0.00  0.00     0.273 C 
ATOM     17  C17 <0> d   1      17.685   2.239  10.401  0.00  0.00     0.035 C 
BRANCH  15  18
ATOM     18  C20 <0> d   1      18.155   2.860  14.085  0.00  0.00     0.311 C 
BRANCH  18  19
ATOM     19  C21 <0> d   1      18.250   1.745  15.095  0.00  0.00    -0.030 A 
ATOM     20  C26 <0> d   1      17.582   0.556  14.877  0.00  0.00     0.009 A 
ATOM     21  C25 <0> d   1      17.672  -0.468  15.802  0.00  0.00     0.001 A 
ATOM     22  C24 <0> d   1      18.425  -0.297  16.949  0.00  0.00     0.000 A 
ATOM     23  C23 <0> d   1      19.089   0.895  17.170  0.00  0.00     0.001 A 
ATOM     24  C22 <0> d   1      19.002   1.916  16.242  0.00  0.00     0.009 A 
ENDBRANCH  18  19
ENDBRANCH  15  18
ENDBRANCH  11  12
ENDBRANCH   9  11
BRANCH   6  25
ATOM     25  O9  <0> d   1      19.180  -4.768   5.821  0.00  0.00    -0.353 OA
ATOM     26  C10 <0> d   1      19.763  -5.481   6.914  0.00  0.00     0.210 C 
ENDBRANCH   6  25
BRANCH   1  27
ATOM     27  O2  <0> d   1      18.032  -3.283   3.807  0.00  0.00    -0.353 OA
ATOM     28  C1  <0> d   1      16.676  -3.568   3.453  0.00  0.00     0.210 C 
ENDBRANCH   1  27
TORSDOF 6
ENDMDL
MODEL 3
REMARK VINA RESULT:      -8.1      5.122     10.285
REMARK  6 active torsions:
REMARK  status: ('A' for Active; 'I' for Inactive)
REMARK    1  A    between atoms: O2_2  and  C3_3 
REMARK    2  A    between atoms: C8_8  and  O9_9 
REMARK    3  A    between atoms: C13_13  and  C15_14 
REMARK    4  A    between atoms: C15_14  and  C16_15 
REMARK    5  A    between atoms: N19_18  and  C20_19 
REMARK    6  A    between atoms: C20_19  and  C21_20 
ROOT
ATOM      1  C3  <0> d   1      18.548  -5.603   6.308  0.00  0.00     0.102 A 
ATOM      2  C4  <0> d   1      19.198  -4.438   6.690  0.00  0.00     0.047 A 
ATOM      3  C5  <0> d   1      18.954  -3.253   6.024  0.00  0.00    -0.041 A 
ATOM      4  C6  <0> d   1      18.051  -3.221   4.961  0.00  0.00     0.019 A 
ATOM      5  C7  <0> d   1      17.394  -4.403   4.576  0.00  0.00     0.055 A 
ATOM      6  C8  <0> d   1      17.646  -5.582   5.243  0.00  0.00     0.102 A 
ATOM      7  C11 <0> d   1      17.951  -1.863   4.406  0.00  0.00     0.164 A 
ATOM      8  O12 <0> d   1      17.247  -1.524   3.478  0.00  0.00    -0.292 OA
ATOM      9  C13 <0> d   1      18.875  -0.965   5.191  0.00  0.00     0.065 A 
ATOM     10  C29 <0> d   1      19.526  -1.872   6.244  0.00  0.00     0.052 A 
ENDROOT
BRANCH   9  11
ATOM     11  C15 <0> d   1      18.077   0.151   5.871  0.00  0.00     0.017 C 
BRANCH  11  12
ATOM     12  C16 <0> d   1      18.478   0.238   7.345  0.00  0.00    -0.010 C 
ATOM     13  C28 <0> d   1      17.246   0.008   8.224  0.00  0.00     0.035 C 
ATOM     14  C27 <0> d   1      17.640   0.156   9.696  0.00  0.00     0.273 C 
ATOM     15  N19 <0> d   1      18.182   1.502   9.924  0.00  0.00     0.092 N 
ATOM     16  C18 <0> d   1      19.393   1.731   9.125  0.00  0.00     0.273 C 
ATOM     17  C17 <0> d   1      19.051   1.628   7.638  0.00  0.00     0.035 C 
BRANCH  15  18
ATOM     18  C20 <0> d   1      18.442   1.730  11.352  0.00  0.00     0.311 C 
BRANCH  18  19
ATOM     19  C21 <0> d   1      17.848   3.051  11.767  0.00  0.00    -0.030 A 
ATOM     20  C26 <0> d   1      17.252   3.868  10.825  0.00  0.00     0.009 A 
ATOM     21  C25 <0> d   1      16.704   5.078  11.207  0.00  0.00     0.001 A 
ATOM     22  C24 <0> d   1      16.760   5.475  12.530  0.00  0.00     0.000 A 
ATOM     23  C23 <0> d   1      17.361   4.661  13.471  0.00  0.00     0.001 A 
ATOM     24  C22 <0> d   1      17.905   3.449  13.090  0.00  0.00     0.009 A 
ENDBRANCH  18  19
ENDBRANCH  15  18
ENDBRANCH  11  12
ENDBRANCH   9  11
BRANCH   6  25
ATOM     25  O9  <0> d   1      17.010  -6.724   4.868  0.00  0.00    -0.353 OA
ATOM     26  C10 <0> d   1      17.551  -7.433   3.752  0.00  0.00     0.210 C 
ENDBRANCH   6  25
BRANCH   1  27
ATOM     27  O2  <0> d   1      18.791  -6.764   6.967  0.00  0.00    -0.353 OA
ATOM     28  C1  <0> d   1      18.173  -6.924   8.247  0.00  0.00     0.210 C 
ENDBRANCH   1  27
TORSDOF 6
ENDMDL
MODEL 4
REMARK VINA RESULT:      -8.0      4.701     10.044
REMARK  6 active torsions:
REMARK  status: ('A' for Active; 'I' for Inactive)
REMARK    1  A    between atoms: O2_2  and  C3_3 
REMARK    2  A    between atoms: C8_8  and  O9_9 
REMARK    3  A    between atoms: C13_13  and  C15_14 
REMARK    4  A    between atoms: C15_14  and  C16_15 
REMARK    5  A    between atoms: N19_18  and  C20_19 
REMARK    6  A    between atoms: C20_19  and  C21_20 
ROOT
ATOM      1  C3  <0> d   1      15.336  -6.073   7.553  0.00  0.00     0.102 A 
ATOM      2  C4  <0> d   1      15.551  -5.672   8.864  0.00  0.00     0.047 A 
ATOM      3  C5  <0> d   1      16.829  -5.649   9.386  0.00  0.00    -0.041 A 
ATOM      4  C6  <0> d   1      17.914  -6.031   8.596  0.00  0.00     0.019 A 
ATOM      5  C7  <0> d   1      17.694  -6.437   7.268  0.00  0.00     0.055 A 
ATOM      6  C8  <0> d   1      16.414  -6.461   6.756  0.00  0.00     0.102 A 
ATOM      7  C11 <0> d   1      19.169  -5.929   9.355  0.00  0.00     0.164 A 
ATOM      8  O12 <0> d   1      20.276  -6.192   8.936  0.00  0.00    -0.292 OA
ATOM      9  C13 <0> d   1      18.841  -5.441  10.745  0.00  0.00     0.065 A 
ATOM     10  C29 <0> d   1      17.316  -5.259  10.762  0.00  0.00     0.052 A 
ENDROOT
BRANCH   9  11
ATOM     11  C15 <0> d   1      19.538  -4.107  11.015  0.00  0.00     0.017 C 
BRANCH  11  12
ATOM     12  C16 <0> d   1      18.568  -2.958  10.734  0.00  0.00    -0.010 C 
ATOM     13  C28 <0> d   1      19.062  -2.154   9.528  0.00  0.00     0.035 C 
ATOM     14  C27 <0> d   1      18.121  -0.971   9.288  0.00  0.00     0.273 C 
ATOM     15  N19 <0> d   1      18.089  -0.121  10.485  0.00  0.00     0.092 N 
ATOM     16  C18 <0> d   1      17.573  -0.857  11.646  0.00  0.00     0.273 C 
ATOM     17  C17 <0> d   1      18.497  -2.037  11.955  0.00  0.00     0.035 C 
BRANCH  15  18
ATOM     18  C20 <0> d   1      17.305   1.098  10.244  0.00  0.00     0.311 C 
BRANCH  18  19
ATOM     19  C21 <0> d   1      18.029   2.285  10.825  0.00  0.00    -0.030 A 
ATOM     20  C26 <0> d   1      17.361   3.479  11.013  0.00  0.00     0.009 A 
ATOM     21  C25 <0> d   1      18.024   4.567  11.550  0.00  0.00     0.001 A 
ATOM     22  C24 <0> d   1      19.360   4.461  11.891  0.00  0.00     0.000 A 
ATOM     23  C23 <0> d   1      20.031   3.268  11.697  0.00  0.00     0.001 A 
ATOM     24  C22 <0> d   1      19.365   2.179  11.165  0.00  0.00     0.009 A 
ENDBRANCH  18  19
ENDBRANCH  15  18
ENDBRANCH  11  12
ENDBRANCH   9  11
BRANCH   6  25
ATOM     25  O9  <0> d   1      16.203  -6.855   5.472  0.00  0.00    -0.353 OA
ATOM     26  C10 <0> d   1      16.543  -5.923   4.442  0.00  0.00     0.210 C 
ENDBRANCH   6  25
BRANCH   1  27
ATOM     27  O2  <0> d   1      14.077  -6.092   7.046  0.00  0.00    -0.353 OA
ATOM     28  C1  <0> d   1      13.005  -6.233   7.981  0.00  0.00     0.210 C 
ENDBRANCH   1  27
TORSDOF 6
ENDMDL
MODEL 5
REMARK VINA RESULT:      -7.9      2.983      4.908
REMARK  6 active torsions:
REMARK  status: ('A' for Active; 'I' for Inactive)
REMARK    1  A    between atoms: O2_2  and  C3_3 
REMARK    2  A    between atoms: C8_8  and  O9_9 
REMARK    3  A    between atoms: C13_13  and  C15_14 
REMARK    4  A    between atoms: C15_14  and  C16_15 
REMARK    5  A    between atoms: N19_18  and  C20_19 
REMARK    6  A    between atoms: C20_19  and  C21_20 
ROOT
ATOM      1  C3  <0> d   1      19.271   5.531  16.622  0.00  0.00     0.102 A 
ATOM      2  C4  <0> d   1      19.861   4.281  16.744  0.00  0.00     0.047 A 
ATOM      3  C5  <0> d   1      19.204   3.262  17.405  0.00  0.00    -0.041 A 
ATOM      4  C6  <0> d   1      17.940   3.485  17.954  0.00  0.00     0.019 A 
ATOM      5  C7  <0> d   1      17.346   4.753  17.829  0.00  0.00     0.055 A 
ATOM      6  C8  <0> d   1      18.010   5.766  17.171  0.00  0.00     0.102 A 
ATOM      7  C11 <0> d   1      17.436   2.268  18.606  0.00  0.00     0.164 A 
ATOM      8  O12 <0> d   1      16.368   2.154  19.169  0.00  0.00    -0.292 OA
ATOM      9  C13 <0> d   1      18.476   1.186  18.452  0.00  0.00     0.065 A 
ATOM     10  C29 <0> d   1      19.626   1.836  17.670  0.00  0.00     0.052 A 
ENDROOT
BRANCH   9  11
ATOM     11  C15 <0> d   1      17.900   0.005  17.668  0.00  0.00     0.017 C 
BRANCH  11  12
ATOM     12  C16 <0> d   1      18.472   0.008  16.249  0.00  0.00    -0.010 C 
ATOM     13  C28 <0> d   1      17.372   0.392  15.255  0.00  0.00     0.035 C 
ATOM     14  C27 <0> d   1      17.934   0.334  13.832  0.00  0.00     0.273 C 
ATOM     15  N19 <0> d   1      18.420  -1.023  13.552  0.00  0.00     0.092 N 
ATOM     16  C18 <0> d   1      19.509  -1.396  14.464  0.00  0.00     0.273 C 
ATOM     17  C17 <0> d   1      18.995  -1.389  15.904  0.00  0.00     0.035 C 
BRANCH  15  18
ATOM     18  C20 <0> d   1      18.839  -1.153  12.150  0.00  0.00     0.311 C 
BRANCH  18  19
ATOM     19  C21 <0> d   1      18.720  -2.593  11.721  0.00  0.00    -0.030 A 
ATOM     20  C26 <0> d   1      17.473  -3.166  11.560  0.00  0.00     0.009 A 
ATOM     21  C25 <0> d   1      17.363  -4.485  11.164  0.00  0.00     0.001 A 
ATOM     22  C24 <0> d   1      18.503  -5.234  10.936  0.00  0.00     0.000 A 
ATOM     23  C23 <0> d   1      19.750  -4.664  11.101  0.00  0.00     0.001 A 
ATOM     24  C22 <0> d   1      19.859  -3.342  11.494  0.00  0.00     0.009 A 
ENDBRANCH  18  19
ENDBRANCH  15  18
ENDBRANCH  11  12
ENDBRANCH   9  11
BRANCH   6  25
ATOM     25  O9  <0> d   1      17.434   6.991  17.051  0.00  0.00    -0.353 OA
ATOM     26  C10 <0> d   1      16.456   7.151  16.021  0.00  0.00     0.210 C 
ENDBRANCH   6  25
BRANCH   1  27
ATOM     27  O2  <0> d   1      19.923   6.528  15.970  0.00  0.00    -0.353 OA
ATOM     28  C1  <0> d   1      20.923   6.138  15.025  0.00  0.00     0.210 C 
ENDBRANCH   1  27
TORSDOF 6
ENDMDL
MODEL 6
REMARK VINA RESULT:      -7.9      4.424      8.792
REMARK  6 active torsions:
REMARK  status: ('A' for Active; 'I' for Inactive)
REMARK    1  A    between atoms: O2_2  and  C3_3 
REMARK    2  A    between atoms: C8_8  and  O9_9 
REMARK    3  A    between atoms: C13_13  and  C15_14 
REMARK    4  A    between atoms: C15_14  and  C16_15 
REMARK    5  A    between atoms: N19_18  and  C20_19 
REMARK    6  A    between atoms: C20_19  and  C21_20 
ROOT
ATOM      1  C3  <0> d   1      19.003  -3.594   6.313  0.00  0.00     0.102 A 
ATOM      2  C4  <0> d   1      19.256  -3.022   7.551  0.00  0.00     0.047 A 
ATOM      3  C5  <0> d   1      19.239  -1.649   7.702  0.00  0.00    -0.041 A 
ATOM      4  C6  <0> d   1      18.967  -0.829   6.607  0.00  0.00     0.019 A 
ATOM      5  C7  <0> d   1      18.711  -1.412   5.353  0.00  0.00     0.055 A 
ATOM      6  C8  <0> d   1      18.733  -2.783   5.211  0.00  0.00     0.102 A 
ATOM      7  C11 <0> d   1      19.002   0.588   6.997  0.00  0.00     0.164 A 
ATOM      8  O12 <0> d   1      18.804   1.533   6.264  0.00  0.00    -0.292 OA
ATOM      9  C13 <0> d   1      19.327   0.661   8.469  0.00  0.00     0.065 A 
ATOM     10  C29 <0> d   1      19.481  -0.796   8.925  0.00  0.00     0.052 A 
ENDROOT
BRANCH   9  11
ATOM     11  C15 <0> d   1      18.185   1.339   9.230  0.00  0.00     0.017 C 
BRANCH  11  12
ATOM     12  C16 <0> d   1      18.721   1.922  10.539  0.00  0.00    -0.010 C 
ATOM     13  C28 <0> d   1      19.142   0.783  11.472  0.00  0.00     0.035 C 
ATOM     14  C27 <0> d   1      19.620   1.370  12.802  0.00  0.00     0.273 C 
ATOM     15  N19 <0> d   1      18.535   2.149  13.411  0.00  0.00     0.092 N 
ATOM     16  C18 <0> d   1      18.145   3.277  12.556  0.00  0.00     0.273 C 
ATOM     17  C17 <0> d   1      17.625   2.747  11.219  0.00  0.00     0.035 C 
BRANCH  15  18
ATOM     18  C20 <0> d   1      18.910   2.612  14.755  0.00  0.00     0.311 C 
BRANCH  18  19
ATOM     19  C21 <0> d   1      18.598   1.536  15.763  0.00  0.00    -0.030 A 
ATOM     20  C26 <0> d   1      17.661   0.563  15.469  0.00  0.00     0.009 A 
ATOM     21  C25 <0> d   1      17.378  -0.426  16.392  0.00  0.00     0.001 A 
ATOM     22  C24 <0> d   1      18.026  -0.436  17.613  0.00  0.00     0.000 A 
ATOM     23  C23 <0> d   1      18.958   0.540  17.910  0.00  0.00     0.001 A 
ATOM     24  C22 <0> d   1      19.245   1.526  16.984  0.00  0.00     0.009 A 
ENDBRANCH  18  19
ENDBRANCH  15  18
ENDBRANCH  11  12
ENDBRANCH   9  11
BRANCH   6  25
ATOM     25  O9  <0> d   1      18.486  -3.344   3.997  0.00  0.00    -0.353 OA
ATOM     26  C10 <0> d   1      17.118  -3.441   3.593  0.00  0.00     0.210 C 
ENDBRANCH   6  25
BRANCH   1  27
ATOM     27  O2  <0> d   1      19.020  -4.944   6.173  0.00  0.00    -0.353 OA
ATOM     28  C1  <0> d   1      19.477  -5.706   7.294  0.00  0.00     0.210 C 
ENDBRANCH   1  27
TORSDOF 6
ENDMDL
MODEL 7
REMARK VINA RESULT:      -7.9      1.937      3.276
REMARK  6 active torsions:
REMARK  status: ('A' for Active; 'I' for Inactive)
REMARK    1  A    between atoms: O2_2  and  C3_3 
REMARK    2  A    between atoms: C8_8  and  O9_9 
REMARK    3  A    between atoms: C13_13  and  C15_14 
REMARK    4  A    between atoms: C15_14  and  C16_15 
REMARK    5  A    between atoms: N19_18  and  C20_19 
REMARK    6  A    between atoms: C20_19  and  C21_20 
ROOT
ATOM      1  C3  <0> d   1      19.110   2.819  16.579  0.00  0.00     0.102 A 
ATOM      2  C4  <0> d   1      19.185   1.875  15.565  0.00  0.00     0.047 A 
ATOM      3  C5  <0> d   1      18.737   2.179  14.295  0.00  0.00    -0.041 A 
ATOM      4  C6  <0> d   1      18.206   3.441  14.024  0.00  0.00     0.019 A 
ATOM      5  C7  <0> d   1      18.131   4.395  15.054  0.00  0.00     0.055 A 
ATOM      6  C8  <0> d   1      18.577   4.082  16.320  0.00  0.00     0.102 A 
ATOM      7  C11 <0> d   1      17.796   3.540  12.616  0.00  0.00     0.164 A 
ATOM      8  O12 <0> d   1      17.301   4.512  12.086  0.00  0.00    -0.292 OA
ATOM      9  C13 <0> d   1      18.096   2.222  11.945  0.00  0.00     0.065 A 
ATOM     10  C29 <0> d   1      18.709   1.338  13.040  0.00  0.00     0.052 A 
ENDROOT
BRANCH   9  11
ATOM     11  C15 <0> d   1      19.095   2.424  10.804  0.00  0.00     0.017 C 
BRANCH  11  12
ATOM     12  C16 <0> d   1      18.923   1.308   9.772  0.00  0.00    -0.010 C 
ATOM     13  C28 <0> d   1      17.480   0.798   9.805  0.00  0.00     0.035 C 
ATOM     14  C27 <0> d   1      17.329  -0.359   8.814  0.00  0.00     0.273 C 
ATOM     15  N19 <0> d   1      18.256  -1.438   9.178  0.00  0.00     0.092 N 
ATOM     16  C18 <0> d   1      19.652  -0.986   9.107  0.00  0.00     0.273 C 
ATOM     17  C17 <0> d   1      19.871   0.152  10.105  0.00  0.00     0.035 C 
BRANCH  15  18
ATOM     18  C20 <0> d   1      18.043  -2.621   8.333  0.00  0.00     0.311 C 
BRANCH  18  19
ATOM     19  C21 <0> d   1      17.782  -3.821   9.206  0.00  0.00    -0.030 A 
ATOM     20  C26 <0> d   1      17.945  -5.096   8.698  0.00  0.00     0.009 A 
ATOM     21  C25 <0> d   1      17.709  -6.197   9.500  0.00  0.00     0.001 A 
ATOM     22  C24 <0> d   1      17.300  -6.021  10.809  0.00  0.00     0.000 A 
ATOM     23  C23 <0> d   1      17.131  -4.747  11.317  0.00  0.00     0.001 A 
ATOM     24  C22 <0> d   1      17.372  -3.647  10.515  0.00  0.00     0.009 A 
ENDBRANCH  18  19
ENDBRANCH  15  18
ENDBRANCH  11  12
ENDBRANCH   9  11
BRANCH   6  25
ATOM     25  O9  <0> d   1      18.503   5.007  17.314  0.00  0.00    -0.353 OA
ATOM     26  C10 <0> d   1      17.208   5.524  17.625  0.00  0.00     0.210 C 
ENDBRANCH   6  25
BRANCH   1  27
ATOM     27  O2  <0> d   1      19.554   2.514  17.825  0.00  0.00    -0.353 OA
ATOM     28  C1  <0> d   1      19.169   1.243  18.356  0.00  0.00     0.210 C 
ENDBRANCH   1  27
TORSDOF 6
ENDMDL
MODEL 8
REMARK VINA RESULT:      -7.9      4.117     10.111
REMARK  6 active torsions:
REMARK  status: ('A' for Active; 'I' for Inactive)
REMARK    1  A    between atoms: O2_2  and  C3_3 
REMARK    2  A    between atoms: C8_8  and  O9_9 
REMARK    3  A    between atoms: C13_13  and  C15_14 
REMARK    4  A    between atoms: C15_14  and  C16_15 
REMARK    5  A    between atoms: N19_18  and  C20_19 
REMARK    6  A    between atoms: C20_19  and  C21_20 
ROOT
ATOM      1  C3  <0> d   1      18.130  -6.843   7.227  0.00  0.00     0.102 A 
ATOM      2  C4  <0> d   1      18.405  -6.676   8.577  0.00  0.00     0.047 A 
ATOM      3  C5  <0> d   1      18.400  -5.414   9.138  0.00  0.00    -0.041 A 
ATOM      4  C6  <0> d   1      18.120  -4.298   8.348  0.00  0.00     0.019 A 
ATOM      5  C7  <0> d   1      17.843  -4.471   6.980  0.00  0.00     0.055 A 
ATOM      6  C8  <0> d   1      17.853  -5.734   6.428  0.00  0.00     0.102 A 
ATOM      7  C11 <0> d   1      18.172  -3.068   9.151  0.00  0.00     0.164 A 
ATOM      8  O12 <0> d   1      17.972  -1.944   8.742  0.00  0.00    -0.292 OA
ATOM      9  C13 <0> d   1      18.516  -3.447  10.570  0.00  0.00     0.065 A 
ATOM     10  C29 <0> d   1      18.664  -4.975  10.559  0.00  0.00     0.052 A 
ENDROOT
BRANCH   9  11
ATOM     11  C15 <0> d   1      17.390  -3.028  11.518  0.00  0.00     0.017 C 
BRANCH  11  12
ATOM     12  C16 <0> d   1      17.783  -1.737  12.237  0.00  0.00    -0.010 C 
ATOM     13  C28 <0> d   1      16.967  -0.569  11.675  0.00  0.00     0.035 C 
ATOM     14  C27 <0> d   1      17.408   0.729  12.356  0.00  0.00     0.273 C 
ATOM     15  N19 <0> d   1      18.839   0.948  12.114  0.00  0.00     0.092 N 
ATOM     16  C18 <0> d   1      19.647  -0.137  12.686  0.00  0.00     0.273 C 
ATOM     17  C17 <0> d   1      19.273  -1.460  12.016  0.00  0.00     0.035 C 
BRANCH  15  18
ATOM     18  C20 <0> d   1      19.268   2.254  12.634  0.00  0.00     0.311 C 
BRANCH  18  19
ATOM     19  C21 <0> d   1      18.461   3.345  11.978  0.00  0.00    -0.030 A 
ATOM     20  C26 <0> d   1      17.679   4.185  12.747  0.00  0.00     0.009 A 
ATOM     21  C25 <0> d   1      16.942   5.188  12.146  0.00  0.00     0.001 A 
ATOM     22  C24 <0> d   1      16.981   5.345  10.773  0.00  0.00     0.000 A 
ATOM     23  C23 <0> d   1      17.759   4.502  10.002  0.00  0.00     0.001 A 
ATOM     24  C22 <0> d   1      18.500   3.502  10.605  0.00  0.00     0.009 A 
ENDBRANCH  18  19
ENDBRANCH  15  18
ENDBRANCH  11  12
ENDBRANCH   9  11
BRANCH   6  25
ATOM     25  O9  <0> d   1      17.586  -5.899   5.105  0.00  0.00    -0.353 OA
ATOM     26  C10 <0> d   1      17.434  -4.714   4.320  0.00  0.00     0.210 C 
ENDBRANCH   6  25
BRANCH   1  27
ATOM     27  O2  <0> d   1      18.135  -8.087   6.683  0.00  0.00    -0.353 OA
ATOM     28  C1  <0> d   1      17.023  -8.931   6.988  0.00  0.00     0.210 C 
ENDBRANCH   1  27
TORSDOF 6
ENDMDL
MODEL 9
REMARK VINA RESULT:      -7.7      3.982      9.483
REMARK  6 active torsions:
REMARK  status: ('A' for Active; 'I' for Inactive)
REMARK    1  A    between atoms: O2_2  and  C3_3 
REMARK    2  A    between atoms: C8_8  and  O9_9 
REMARK    3  A    between atoms: C13_13  and  C15_14 
REMARK    4  A    between atoms: C15_14  and  C16_15 
REMARK    5  A    between atoms: N19_18  and  C20_19 
REMARK    6  A    between atoms: C20_19  and  C21_20 
ROOT
ATOM      1  C3  <0> d   1      18.742  -3.345   6.847  0.00  0.00     0.102 A 
ATOM      2  C4  <0> d   1      18.946  -2.751   8.084  0.00  0.00     0.047 A 
ATOM      3  C5  <0> d   1      19.006  -1.376   8.197  0.00  0.00    -0.041 A 
ATOM      4  C6  <0> d   1      18.861  -0.575   7.063  0.00  0.00     0.019 A 
ATOM      5  C7  <0> d   1      18.655  -1.180   5.810  0.00  0.00     0.055 A 
ATOM      6  C8  <0> d   1      18.601  -2.553   5.707  0.00  0.00     0.102 A 
ATOM      7  C11 <0> d   1      18.959   0.848   7.418  0.00  0.00     0.164 A 
ATOM      8  O12 <0> d   1      18.872   1.781   6.647  0.00  0.00    -0.292 OA
ATOM      9  C13 <0> d   1      19.186   0.948   8.906  0.00  0.00     0.065 A 
ATOM     10  C29 <0> d   1      19.216  -0.502   9.411  0.00  0.00     0.052 A 
ENDROOT
BRANCH   9  11
ATOM     11  C15 <0> d   1      18.040   1.718   9.566  0.00  0.00     0.017 C 
BRANCH  11  12
ATOM     12  C16 <0> d   1      18.597   2.960  10.264  0.00  0.00    -0.010 C 
ATOM     13  C28 <0> d   1      19.802   2.567  11.124  0.00  0.00     0.035 C 
ATOM     14  C27 <0> d   1      20.317   3.802  11.867  0.00  0.00     0.273 C 
ATOM     15  N19 <0> d   1      19.247   4.346  12.713  0.00  0.00     0.092 N 
ATOM     16  C18 <0> d   1      18.097   4.774  11.905  0.00  0.00     0.273 C 
ATOM     17  C17 <0> d   1      17.517   3.569  11.163  0.00  0.00     0.035 C 
BRANCH  15  18
ATOM     18  C20 <0> d   1      19.744   5.449  13.547  0.00  0.00     0.311 C 
BRANCH  18  19
ATOM     19  C21 <0> d   1      19.196   5.309  14.944  0.00  0.00    -0.030 A 
ATOM     20  C26 <0> d   1      19.003   4.054  15.489  0.00  0.00     0.009 A 
ATOM     21  C25 <0> d   1      18.504   3.926  16.772  0.00  0.00     0.001 A 
ATOM     22  C24 <0> d   1      18.190   5.055  17.506  0.00  0.00     0.000 A 
ATOM     23  C23 <0> d   1      18.378   6.310  16.959  0.00  0.00     0.001 A 
ATOM     24  C22 <0> d   1      18.881   6.438  15.678  0.00  0.00     0.009 A 
ENDBRANCH  18  19
ENDBRANCH  15  18
ENDBRANCH  11  12
ENDBRANCH   9  11
BRANCH   6  25
ATOM     25  O9  <0> d   1      18.402  -3.136   4.495  0.00  0.00    -0.353 OA
ATOM     26  C10 <0> d   1      17.112  -2.975   3.900  0.00  0.00     0.210 C 
ENDBRANCH   6  25
BRANCH   1  27
ATOM     27  O2  <0> d   1      18.683  -4.697   6.745  0.00  0.00    -0.353 OA
ATOM     28  C1  <0> d   1      19.887  -5.420   7.016  0.00  0.00     0.210 C 
ENDBRANCH   1  27
TORSDOF 6
ENDMDL
