MODEL 1
REMARK VINA RESULT:      -8.2      0.000      0.000
REMARK  4 active torsions:
REMARK  status: ('A' for Active; 'I' for Inactive)
REMARK    1  A    between atoms: O2_2  and  C3_3 
REMARK    2  A    between atoms: C9_9  and  C10_10 
REMARK    3  A    between atoms: C10_10  and  C11_11 
REMARK       I    between atoms: N16_16  and  C17_17 
REMARK    4  A    between atoms: C17_17  and  C19_19 
ROOT
ATOM      1  C3  <0> d   1      19.042  -1.331   6.974  0.00  0.00     0.069 A 
ATOM      2  C4  <0> d   1      18.194  -0.243   7.158  0.00  0.00     0.039 A 
ATOM      3  C5  <0> d   1      17.739   0.087   8.416  0.00  0.00     0.034 A 
ATOM      4  C6  <0> d   1      18.127  -0.669   9.515  0.00  0.00     0.053 A 
ATOM      5  C7  <0> d   1      18.983  -1.769   9.333  0.00  0.00     0.003 A 
ATOM      6  C8  <0> d   1      19.433  -2.098   8.054  0.00  0.00     0.051 A 
ATOM      7  C9  <0> d   1      19.197  -2.345  10.665  0.00  0.00    -0.013 A 
ATOM      8  C14 <0> d   1      18.496  -1.602  11.535  0.00  0.00     0.024 A 
ATOM      9  C15 <0> d   1      18.433  -1.840  13.021  0.00  0.00     0.069 C 
ATOM     10  N16 <0> d   1      17.847  -0.591  10.869  0.00  0.00    -0.281 N 
ATOM     11  C17 <0> d   1      17.056   0.335  11.446  0.00  0.00     0.263 C 
ATOM     12  O18 <0> d   1      15.854   0.167  11.489  0.00  0.00    -0.267 OA
ENDROOT
BRANCH  11  13
ATOM     13  C19 <0> d   1      17.652   1.556  12.024  0.00  0.00     0.033 A 
ATOM     14  C25 <0> d   1      17.992   2.630  11.199  0.00  0.00     0.018 A 
ATOM     15  C24 <0> d   1      18.544   3.769  11.745  0.00  0.00     0.025 A 
ATOM     16  C22 <0> d   1      18.769   3.847  13.110  0.00  0.00     0.034 A 
ATOM     17  C21 <0> d   1      18.437   2.784  13.934  0.00  0.00     0.025 A 
ATOM     18 Cl23 <0> d   1      19.470   5.282  13.790  0.00  0.00    -0.084 Cl
ATOM     19  C20 <0> d   1      17.881   1.642  13.400  0.00  0.00     0.018 A 
ENDBRANCH  11  13
BRANCH   7  20
ATOM     20  C10 <0> d   1      20.045  -3.546  10.996  0.00  0.00     0.154 C 
BRANCH  20  21
ATOM     21  C11 <0> d   1      19.391  -4.789  10.449  0.00  0.00     0.177 C 
ATOM     22  O12 <0> d   1      18.303  -5.141  10.871  0.00  0.00    -0.648 OA
ATOM     23  O13 <0> d   1      19.950  -5.442   9.584  0.00  0.00    -0.648 OA
ENDBRANCH  20  21
ENDBRANCH   7  20
BRANCH   1  24
ATOM     24  O2  <0> d   1      19.482  -1.644   5.726  0.00  0.00    -0.356 OA
ATOM     25  C1  <0> d   1      19.247  -0.682   4.695  0.00  0.00     0.210 C 
ENDBRANCH   1  24
TORSDOF 4
ENDMDL
MODEL 2
REMARK VINA RESULT:      -8.0      3.045      5.330
REMARK  4 active torsions:
REMARK  status: ('A' for Active; 'I' for Inactive)
REMARK    1  A    between atoms: O2_2  and  C3_3 
REMARK    2  A    between atoms: C9_9  and  C10_10 
REMARK    3  A    between atoms: C10_10  and  C11_11 
REMARK       I    between atoms: N16_16  and  C17_17 
REMARK    4  A    between atoms: C17_17  and  C19_19 
ROOT
ATOM      1  C3  <0> d   1      18.229  -0.177   7.650  0.00  0.00     0.069 A 
ATOM      2  C4  <0> d   1      18.814  -1.114   8.497  0.00  0.00     0.039 A 
ATOM      3  C5  <0> d   1      19.339  -0.730   9.712  0.00  0.00     0.034 A 
ATOM      4  C6  <0> d   1      19.286   0.603  10.101  0.00  0.00     0.053 A 
ATOM      5  C7  <0> d   1      18.695   1.552   9.248  0.00  0.00     0.003 A 
ATOM      6  C8  <0> d   1      18.173   1.153   8.017  0.00  0.00     0.051 A 
ATOM      7  C9  <0> d   1      18.799   2.842   9.939  0.00  0.00    -0.013 A 
ATOM      8  C14 <0> d   1      19.412   2.616  11.110  0.00  0.00     0.024 A 
ATOM      9  C15 <0> d   1      19.723   3.669  12.141  0.00  0.00     0.069 C 
ATOM     10  N16 <0> d   1      19.714   1.281  11.230  0.00  0.00    -0.281 N 
ATOM     11  C17 <0> d   1      20.333   0.717  12.286  0.00  0.00     0.263 C 
ATOM     12  O18 <0> d   1      21.536   0.552  12.267  0.00  0.00    -0.267 OA
ENDROOT
BRANCH  11  13
ATOM     13  C19 <0> d   1      19.548   0.300  13.465  0.00  0.00     0.033 A 
ATOM     14  C25 <0> d   1      19.042  -0.999  13.545  0.00  0.00     0.018 A 
ATOM     15  C24 <0> d   1      18.314  -1.385  14.651  0.00  0.00     0.025 A 
ATOM     16  C22 <0> d   1      18.076  -0.485  15.676  0.00  0.00     0.034 A 
ATOM     17  C21 <0> d   1      18.572   0.807  15.600  0.00  0.00     0.025 A 
ATOM     18 Cl23 <0> d   1      17.152  -0.976  17.062  0.00  0.00    -0.084 Cl
ATOM     19  C20 <0> d   1      19.306   1.203  14.503  0.00  0.00     0.018 A 
ENDBRANCH  11  13
BRANCH   7  20
ATOM     20  C10 <0> d   1      18.306   4.172   9.430  0.00  0.00     0.154 C 
BRANCH  20  21
ATOM     21  C11 <0> d   1      17.233   4.696  10.350  0.00  0.00     0.177 C 
ATOM     22  O12 <0> d   1      16.565   3.920  11.012  0.00  0.00    -0.648 OA
ATOM     23  O13 <0> d   1      17.034   5.896  10.433  0.00  0.00    -0.648 OA
ENDBRANCH  20  21
ENDBRANCH   7  20
BRANCH   1  24
ATOM     24  O2  <0> d   1      17.716  -0.572   6.454  0.00  0.00    -0.356 OA
ATOM     25  C1  <0> d   1      18.290   0.004   5.279  0.00  0.00     0.210 C 
ENDBRANCH   1  24
TORSDOF 4
ENDMDL
MODEL 3
REMARK VINA RESULT:      -8.0      3.622      7.730
REMARK  4 active torsions:
REMARK  status: ('A' for Active; 'I' for Inactive)
REMARK    1  A    between atoms: O2_2  and  C3_3 
REMARK    2  A    between atoms: C9_9  and  C10_10 
REMARK    3  A    between atoms: C10_10  and  C11_11 
REMARK       I    between atoms: N16_16  and  C17_17 
REMARK    4  A    between atoms: C17_17  and  C19_19 
ROOT
ATOM      1  C3  <0> d   1      18.815   1.351  16.167  0.00  0.00     0.069 A 
ATOM      2  C4  <0> d   1      17.995   0.256  15.914  0.00  0.00     0.039 A 
ATOM      3  C5  <0> d   1      17.580  -0.027  14.630  0.00  0.00     0.034 A 
ATOM      4  C6  <0> d   1      17.981   0.783  13.576  0.00  0.00     0.053 A 
ATOM      5  C7  <0> d   1      18.810   1.890  13.828  0.00  0.00     0.003 A 
ATOM      6  C8  <0> d   1      19.220   2.172  15.132  0.00  0.00     0.051 A 
ATOM      7  C9  <0> d   1      19.047   2.528  12.529  0.00  0.00    -0.013 A 
ATOM      8  C14 <0> d   1      18.385   1.810  11.609  0.00  0.00     0.024 A 
ATOM      9  C15 <0> d   1      18.355   2.112  10.134  0.00  0.00     0.069 C 
ATOM     10  N16 <0> d   1      17.738   0.759  12.213  0.00  0.00    -0.281 N 
ATOM     11  C17 <0> d   1      16.982  -0.156  11.575  0.00  0.00     0.263 C 
ATOM     12  O18 <0> d   1      15.778  -0.008  11.507  0.00  0.00    -0.267 OA
ENDROOT
BRANCH  11  13
ATOM     13  C19 <0> d   1      17.617  -1.339  10.961  0.00  0.00     0.033 A 
ATOM     14  C25 <0> d   1      18.022  -2.411  11.759  0.00  0.00     0.018 A 
ATOM     15  C24 <0> d   1      18.610  -3.515  11.179  0.00  0.00     0.025 A 
ATOM     16  C22 <0> d   1      18.808  -3.558   9.809  0.00  0.00     0.034 A 
ATOM     17  C21 <0> d   1      18.412  -2.496   9.012  0.00  0.00     0.025 A 
ATOM     18 Cl23 <0> d   1      19.555  -4.949   9.087  0.00  0.00    -0.084 Cl
ATOM     19  C20 <0> d   1      17.819  -1.389   9.579  0.00  0.00     0.018 A 
ENDBRANCH  11  13
BRANCH   7  20
ATOM     20  C10 <0> d   1      19.879   3.758  12.273  0.00  0.00     0.154 C 
BRANCH  20  21
ATOM     21  C11 <0> d   1      19.253   4.941  12.966  0.00  0.00     0.177 C 
ATOM     22  O12 <0> d   1      18.089   5.230  12.747  0.00  0.00    -0.648 OA
ATOM     23  O13 <0> d   1      19.911   5.609  13.746  0.00  0.00    -0.648 OA
ENDBRANCH  20  21
ENDBRANCH   7  20
BRANCH   1  24
ATOM     24  O2  <0> d   1      19.216   1.617  17.439  0.00  0.00    -0.356 OA
ATOM     25  C1  <0> d   1      19.313   0.508  18.335  0.00  0.00     0.210 C 
ENDBRANCH   1  24
TORSDOF 4
ENDMDL
MODEL 4
REMARK VINA RESULT:      -7.9      2.335      4.553
REMARK  4 active torsions:
REMARK  status: ('A' for Active; 'I' for Inactive)
REMARK    1  A    between atoms: O2_2  and  C3_3 
REMARK    2  A    between atoms: C9_9  and  C10_10 
REMARK    3  A    between atoms: C10_10  and  C11_11 
REMARK       I    between atoms: N16_16  and  C17_17 
REMARK    4  A    between atoms: C17_17  and  C19_19 
ROOT
ATOM      1  C3  <0> d   1      19.109  -4.389   9.591  0.00  0.00     0.069 A 
ATOM      2  C4  <0> d   1      19.895  -4.270  10.733  0.00  0.00     0.039 A 
ATOM      3  C5  <0> d   1      20.036  -3.053  11.364  0.00  0.00     0.034 A 
ATOM      4  C6  <0> d   1      19.391  -1.931  10.860  0.00  0.00     0.053 A 
ATOM      5  C7  <0> d   1      18.596  -2.047   9.705  0.00  0.00     0.003 A 
ATOM      6  C8  <0> d   1      18.465  -3.283   9.071  0.00  0.00     0.051 A 
ATOM      7  C9  <0> d   1      18.065  -0.706   9.438  0.00  0.00    -0.013 A 
ATOM      8  C14 <0> d   1      18.541   0.106  10.394  0.00  0.00     0.024 A 
ATOM      9  C15 <0> d   1      18.244   1.578  10.504  0.00  0.00     0.069 C 
ATOM     10  N16 <0> d   1      19.337  -0.605  11.258  0.00  0.00    -0.281 N 
ATOM     11  C17 <0> d   1      19.972  -0.091  12.330  0.00  0.00     0.263 C 
ATOM     12  O18 <0> d   1      21.127   0.271  12.236  0.00  0.00    -0.267 OA
ENDROOT
BRANCH  11  13
ATOM     13  C19 <0> d   1      19.262   0.030  13.619  0.00  0.00     0.033 A 
ATOM     14  C25 <0> d   1      18.896  -1.116  14.328  0.00  0.00     0.018 A 
ATOM     15  C24 <0> d   1      18.238  -0.997  15.534  0.00  0.00     0.025 A 
ATOM     16  C22 <0> d   1      17.931   0.256  16.038  0.00  0.00     0.034 A 
ATOM     17  C21 <0> d   1      18.287   1.397  15.336  0.00  0.00     0.025 A 
ATOM     18 Cl23 <0> d   1      17.095   0.398  17.553  0.00  0.00    -0.084 Cl
ATOM     19  C20 <0> d   1      18.950   1.291  14.133  0.00  0.00     0.018 A 
ENDBRANCH  11  13
BRANCH   7  20
ATOM     20  C10 <0> d   1      17.155  -0.313   8.303  0.00  0.00     0.154 C 
BRANCH  20  21
ATOM     21  C11 <0> d   1      17.967  -0.143   7.044  0.00  0.00     0.177 C 
ATOM     22  O12 <0> d   1      18.645   0.858   6.886  0.00  0.00    -0.648 OA
ATOM     23  O13 <0> d   1      17.945  -1.006   6.184  0.00  0.00    -0.648 OA
ENDBRANCH  20  21
ENDBRANCH   7  20
BRANCH   1  24
ATOM     24  O2  <0> d   1      18.980  -5.597   8.980  0.00  0.00    -0.356 OA
ATOM     25  C1  <0> d   1      17.746  -6.292   9.169  0.00  0.00     0.210 C 
ENDBRANCH   1  24
TORSDOF 4
ENDMDL
MODEL 5
REMARK VINA RESULT:      -7.8      3.513      7.622
REMARK  4 active torsions:
REMARK  status: ('A' for Active; 'I' for Inactive)
REMARK    1  A    between atoms: O2_2  and  C3_3 
REMARK    2  A    between atoms: C9_9  and  C10_10 
REMARK    3  A    between atoms: C10_10  and  C11_11 
REMARK       I    between atoms: N16_16  and  C17_17 
REMARK    4  A    between atoms: C17_17  and  C19_19 
ROOT
ATOM      1  C3  <0> d   1      19.008   0.523  16.078  0.00  0.00     0.069 A 
ATOM      2  C4  <0> d   1      18.347  -0.582  15.550  0.00  0.00     0.039 A 
ATOM      3  C5  <0> d   1      17.813  -0.538  14.279  0.00  0.00     0.034 A 
ATOM      4  C6  <0> d   1      17.933   0.615  13.515  0.00  0.00     0.053 A 
ATOM      5  C7  <0> d   1      18.600   1.734  14.046  0.00  0.00     0.003 A 
ATOM      6  C8  <0> d   1      19.132   1.681  15.335  0.00  0.00     0.051 A 
ATOM      7  C9  <0> d   1      18.554   2.768  13.007  0.00  0.00    -0.013 A 
ATOM      8  C14 <0> d   1      17.897   2.247  11.960  0.00  0.00     0.024 A 
ATOM      9  C15 <0> d   1      17.620   2.970  10.667  0.00  0.00     0.069 C 
ATOM     10  N16 <0> d   1      17.515   0.958  12.240  0.00  0.00    -0.281 N 
ATOM     11  C17 <0> d   1      16.836   0.150  11.402  0.00  0.00     0.263 C 
ATOM     12  O18 <0> d   1      15.626   0.074  11.479  0.00  0.00    -0.267 OA
ENDROOT
BRANCH  11  13
ATOM     13  C19 <0> d   1      17.564  -0.644  10.392  0.00  0.00     0.033 A 
ATOM     14  C25 <0> d   1      17.518  -0.276   9.046  0.00  0.00     0.018 A 
ATOM     15  C24 <0> d   1      18.203  -1.018   8.108  0.00  0.00     0.025 A 
ATOM     16  C22 <0> d   1      18.929  -2.132   8.497  0.00  0.00     0.034 A 
ATOM     17  C21 <0> d   1      18.975  -2.504   9.831  0.00  0.00     0.025 A 
ATOM     18 Cl23 <0> d   1      19.784  -3.065   7.308  0.00  0.00    -0.084 Cl
ATOM     19  C20 <0> d   1      18.298  -1.768  10.778  0.00  0.00     0.018 A 
ENDBRANCH  11  13
BRANCH   7  20
ATOM     20  C10 <0> d   1      19.136   4.155  13.098  0.00  0.00     0.154 C 
BRANCH  20  21
ATOM     21  C11 <0> d   1      18.243   5.019  13.951  0.00  0.00     0.177 C 
ATOM     22  O12 <0> d   1      18.705   5.612  14.911  0.00  0.00    -0.648 OA
ATOM     23  O13 <0> d   1      17.059   5.126  13.681  0.00  0.00    -0.648 OA
ENDBRANCH  20  21
ENDBRANCH   7  20
BRANCH   1  24
ATOM     24  O2  <0> d   1      19.529   0.464  17.333  0.00  0.00    -0.356 OA
ATOM     25  C1  <0> d   1      18.673  -0.023  18.369  0.00  0.00     0.210 C 
ENDBRANCH   1  24
TORSDOF 4
ENDMDL
MODEL 6
REMARK VINA RESULT:      -7.6      4.102      7.057
REMARK  4 active torsions:
REMARK  status: ('A' for Active; 'I' for Inactive)
REMARK    1  A    between atoms: O2_2  and  C3_3 
REMARK    2  A    between atoms: C9_9  and  C10_10 
REMARK    3  A    between atoms: C10_10  and  C11_11 
REMARK       I    between atoms: N16_16  and  C17_17 
REMARK    4  A    between atoms: C17_17  and  C19_19 
ROOT
ATOM      1  C3  <0> d   1      18.377   1.220   9.042  0.00  0.00     0.069 A 
ATOM      2  C4  <0> d   1      18.855   1.076   7.743  0.00  0.00     0.039 A 
ATOM      3  C5  <0> d   1      19.017  -0.176   7.191  0.00  0.00     0.034 A 
ATOM      4  C6  <0> d   1      18.704  -1.308   7.932  0.00  0.00     0.053 A 
ATOM      5  C7  <0> d   1      18.221  -1.166   9.245  0.00  0.00     0.003 A 
ATOM      6  C8  <0> d   1      18.066   0.106   9.797  0.00  0.00     0.051 A 
ATOM      7  C9  <0> d   1      17.989  -2.526   9.744  0.00  0.00    -0.013 A 
ATOM      8  C14 <0> d   1      18.326  -3.371   8.759  0.00  0.00     0.024 A 
ATOM      9  C15 <0> d   1      18.242  -4.873   8.843  0.00  0.00     0.069 C 
ATOM     10  N16 <0> d   1      18.756  -2.665   7.663  0.00  0.00    -0.281 N 
ATOM     11  C17 <0> d   1      19.169  -3.211   6.501  0.00  0.00     0.263 C 
ATOM     12  O18 <0> d   1      20.352  -3.407   6.309  0.00  0.00    -0.267 OA
ENDROOT
BRANCH  11  13
ATOM     13  C19 <0> d   1      18.182  -3.567   5.463  0.00  0.00     0.033 A 
ATOM     14  C25 <0> d   1      17.674  -2.584   4.611  0.00  0.00     0.018 A 
ATOM     15  C24 <0> d   1      16.757  -2.924   3.640  0.00  0.00     0.025 A 
ATOM     16  C22 <0> d   1      16.331  -4.236   3.514  0.00  0.00     0.034 A 
ATOM     17  C21 <0> d   1      16.828  -5.216   4.359  0.00  0.00     0.025 A 
ATOM     18 Cl23 <0> d   1      15.170  -4.655   2.293  0.00  0.00    -0.084 Cl
ATOM     19  C20 <0> d   1      17.749  -4.889   5.330  0.00  0.00     0.018 A 
ENDBRANCH  11  13
BRANCH   7  20
ATOM     20  C10 <0> d   1      17.470  -2.902  11.108  0.00  0.00     0.154 C 
BRANCH  20  21
ATOM     21  C11 <0> d   1      18.566  -2.731  12.128  0.00  0.00     0.177 C 
ATOM     22  O12 <0> d   1      18.407  -1.979  13.074  0.00  0.00    -0.648 OA
ATOM     23  O13 <0> d   1      19.613  -3.346  12.008  0.00  0.00    -0.648 OA
ENDBRANCH  20  21
ENDBRANCH   7  20
BRANCH   1  24
ATOM     24  O2  <0> d   1      18.223   2.463   9.573  0.00  0.00    -0.356 OA
ATOM     25  C1  <0> d   1      17.799   2.539  10.936  0.00  0.00     0.210 C 
ENDBRANCH   1  24
TORSDOF 4
ENDMDL
MODEL 7
REMARK VINA RESULT:      -7.3      1.908      4.114
REMARK  4 active torsions:
REMARK  status: ('A' for Active; 'I' for Inactive)
REMARK    1  A    between atoms: O2_2  and  C3_3 
REMARK    2  A    between atoms: C9_9  and  C10_10 
REMARK    3  A    between atoms: C10_10  and  C11_11 
REMARK       I    between atoms: N16_16  and  C17_17 
REMARK    4  A    between atoms: C17_17  and  C19_19 
ROOT
ATOM      1  C3  <0> d   1      17.454  -3.992  10.514  0.00  0.00     0.069 A 
ATOM      2  C4  <0> d   1      18.005  -3.539  11.709  0.00  0.00     0.039 A 
ATOM      3  C5  <0> d   1      18.657  -2.326  11.765  0.00  0.00     0.034 A 
ATOM      4  C6  <0> d   1      18.770  -1.546  10.621  0.00  0.00     0.053 A 
ATOM      5  C7  <0> d   1      18.215  -2.000   9.412  0.00  0.00     0.003 A 
ATOM      6  C8  <0> d   1      17.561  -3.233   9.366  0.00  0.00     0.051 A 
ATOM      7  C9  <0> d   1      18.501  -0.963   8.415  0.00  0.00    -0.013 A 
ATOM      8  C14 <0> d   1      19.177   0.011   9.041  0.00  0.00     0.024 A 
ATOM      9  C15 <0> d   1      19.672   1.276   8.390  0.00  0.00     0.069 C 
ATOM     10  N16 <0> d   1      19.350  -0.315  10.364  0.00  0.00    -0.281 N 
ATOM     11  C17 <0> d   1      19.989   0.447  11.274  0.00  0.00     0.263 C 
ATOM     12  O18 <0> d   1      21.164   0.253  11.512  0.00  0.00    -0.267 OA
ENDROOT
BRANCH  11  13
ATOM     13  C19 <0> d   1      19.259   1.518  11.983  0.00  0.00     0.033 A 
ATOM     14  C25 <0> d   1      18.398   1.201  13.036  0.00  0.00     0.018 A 
ATOM     15  C24 <0> d   1      17.723   2.205  13.697  0.00  0.00     0.025 A 
ATOM     16  C22 <0> d   1      17.889   3.525  13.312  0.00  0.00     0.034 A 
ATOM     17  C21 <0> d   1      18.738   3.845  12.265  0.00  0.00     0.025 A 
ATOM     18 Cl23 <0> d   1      17.030   4.783  14.145  0.00  0.00    -0.084 Cl
ATOM     19  C20 <0> d   1      19.422   2.851  11.600  0.00  0.00     0.018 A 
ENDBRANCH  11  13
BRANCH   7  20
ATOM     20  C10 <0> d   1      18.109  -0.987   6.961  0.00  0.00     0.154 C 
BRANCH  20  21
ATOM     21  C11 <0> d   1      19.250  -1.533   6.141  0.00  0.00     0.177 C 
ATOM     22  O12 <0> d   1      19.699  -2.641   6.381  0.00  0.00    -0.648 OA
ATOM     23  O13 <0> d   1      19.725  -0.866   5.237  0.00  0.00    -0.648 OA
ENDBRANCH  20  21
ENDBRANCH   7  20
BRANCH   1  24
ATOM     24  O2  <0> d   1      16.813  -5.191  10.476  0.00  0.00    -0.356 OA
ATOM     25  C1  <0> d   1      16.292  -5.609   9.212  0.00  0.00     0.210 C 
ENDBRANCH   1  24
TORSDOF 4
ENDMDL
MODEL 8
REMARK VINA RESULT:      -7.1      4.382      7.057
REMARK  4 active torsions:
REMARK  status: ('A' for Active; 'I' for Inactive)
REMARK    1  A    between atoms: O2_2  and  C3_3 
REMARK    2  A    between atoms: C9_9  and  C10_10 
REMARK    3  A    between atoms: C10_10  and  C11_11 
REMARK       I    between atoms: N16_16  and  C17_17 
REMARK    4  A    between atoms: C17_17  and  C19_19 
ROOT
ATOM      1  C3  <0> d   1      18.629  -0.289   7.834  0.00  0.00     0.069 A 
ATOM      2  C4  <0> d   1      18.879  -1.387   7.016  0.00  0.00     0.039 A 
ATOM      3  C5  <0> d   1      18.755  -2.669   7.507  0.00  0.00     0.034 A 
ATOM      4  C6  <0> d   1      18.378  -2.873   8.828  0.00  0.00     0.053 A 
ATOM      5  C7  <0> d   1      18.124  -1.766   9.657  0.00  0.00     0.003 A 
ATOM      6  C8  <0> d   1      18.258  -0.472   9.152  0.00  0.00     0.051 A 
ATOM      7  C9  <0> d   1      17.755  -2.313  10.967  0.00  0.00    -0.013 A 
ATOM      8  C14 <0> d   1      17.802  -3.650  10.865  0.00  0.00     0.024 A 
ATOM      9  C15 <0> d   1      17.493  -4.613  11.981  0.00  0.00     0.069 C 
ATOM     10  N16 <0> d   1      18.173  -4.009   9.592  0.00  0.00    -0.281 N 
ATOM     11  C17 <0> d   1      18.316  -5.276   9.154  0.00  0.00     0.263 C 
ATOM     12  O18 <0> d   1      19.410  -5.803   9.165  0.00  0.00    -0.267 OA
ENDROOT
BRANCH  11  13
ATOM     13  C19 <0> d   1      17.141  -6.022   8.661  0.00  0.00     0.033 A 
ATOM     14  C25 <0> d   1      17.290  -7.324   8.177  0.00  0.00     0.018 A 
ATOM     15  C24 <0> d   1      16.190  -8.018   7.722  0.00  0.00     0.025 A 
ATOM     16  C22 <0> d   1      14.939  -7.424   7.735  0.00  0.00     0.034 A 
ATOM     17  C21 <0> d   1      14.785  -6.131   8.209  0.00  0.00     0.025 A 
ATOM     18 Cl23 <0> d   1      13.558  -8.301   7.153  0.00  0.00    -0.084 Cl
ATOM     19  C20 <0> d   1      15.877  -5.429   8.671  0.00  0.00     0.018 A 
ENDBRANCH  11  13
BRANCH   7  20
ATOM     20  C10 <0> d   1      17.390  -1.523  12.196  0.00  0.00     0.154 C 
BRANCH  20  21
ATOM     21  C11 <0> d   1      18.621  -1.308  13.040  0.00  0.00     0.177 C 
ATOM     22  O12 <0> d   1      19.678  -1.006  12.511  0.00  0.00    -0.648 OA
ATOM     23  O13 <0> d   1      18.561  -1.437  14.251  0.00  0.00    -0.648 OA
ENDBRANCH  20  21
ENDBRANCH   7  20
BRANCH   1  24
ATOM     24  O2  <0> d   1      18.756   0.970   7.335  0.00  0.00    -0.356 OA
ATOM     25  C1  <0> d   1      18.944   2.027   8.279  0.00  0.00     0.210 C 
ENDBRANCH   1  24
TORSDOF 4
ENDMDL
MODEL 9
REMARK VINA RESULT:      -6.6      4.633      7.528
REMARK  4 active torsions:
REMARK  status: ('A' for Active; 'I' for Inactive)
REMARK    1  A    between atoms: O2_2  and  C3_3 
REMARK    2  A    between atoms: C9_9  and  C10_10 
REMARK    3  A    between atoms: C10_10  and  C11_11 
REMARK       I    between atoms: N16_16  and  C17_17 
REMARK    4  A    between atoms: C17_17  and  C19_19 
ROOT
ATOM      1  C3  <0> d   1      18.769  -0.733   9.404  0.00  0.00     0.069 A 
ATOM      2  C4  <0> d   1      19.272  -0.872   8.114  0.00  0.00     0.039 A 
ATOM      3  C5  <0> d   1      19.122  -2.057   7.427  0.00  0.00     0.034 A 
ATOM      4  C6  <0> d   1      18.466  -3.127   8.022  0.00  0.00     0.053 A 
ATOM      5  C7  <0> d   1      17.956  -2.990   9.326  0.00  0.00     0.003 A 
ATOM      6  C8  <0> d   1      18.118  -1.787  10.015  0.00  0.00     0.051 A 
ATOM      7  C9  <0> d   1      17.332  -4.275   9.657  0.00  0.00    -0.013 A 
ATOM      8  C14 <0> d   1      17.488  -5.077   8.593  0.00  0.00     0.024 A 
ATOM      9  C15 <0> d   1      16.994  -6.497   8.501  0.00  0.00     0.069 C 
ATOM     10  N16 <0> d   1      18.164  -4.411   7.601  0.00  0.00    -0.281 N 
ATOM     11  C17 <0> d   1      18.487  -4.929   6.399  0.00  0.00     0.263 C 
ATOM     12  O18 <0> d   1      19.581  -5.425   6.225  0.00  0.00    -0.267 OA
ENDROOT
BRANCH  11  13
ATOM     13  C19 <0> d   1      17.509  -4.890   5.293  0.00  0.00     0.033 A 
ATOM     14  C25 <0> d   1      16.733  -6.015   5.004  0.00  0.00     0.018 A 
ATOM     15  C24 <0> d   1      15.818  -5.972   3.974  0.00  0.00     0.025 A 
ATOM     16  C22 <0> d   1      15.673  -4.819   3.220  0.00  0.00     0.034 A 
ATOM     17  C21 <0> d   1      16.443  -3.702   3.499  0.00  0.00     0.025 A 
ATOM     18 Cl23 <0> d   1      14.523  -4.775   1.920  0.00  0.00    -0.084 Cl
ATOM     19  C20 <0> d   1      17.358  -3.731   4.529  0.00  0.00     0.018 A 
ENDBRANCH  11  13
BRANCH   7  20
ATOM     20  C10 <0> d   1      16.643  -4.629  10.950  0.00  0.00     0.154 C 
BRANCH  20  21
ATOM     21  C11 <0> d   1      17.652  -5.192  11.919  0.00  0.00     0.177 C 
ATOM     22  O12 <0> d   1      17.298  -5.981  12.778  0.00  0.00    -0.648 OA
ATOM     23  O13 <0> d   1      18.823  -4.859  11.843  0.00  0.00    -0.648 OA
ENDBRANCH  20  21
ENDBRANCH   7  20
BRANCH   1  24
ATOM     24  O2  <0> d   1      18.925   0.443  10.069  0.00  0.00    -0.356 OA
ATOM     25  C1  <0> d   1      19.015   1.629   9.277  0.00  0.00     0.210 C 
ENDBRANCH   1  24
TORSDOF 4
ENDMDL
