MODEL 1
REMARK VINA RESULT:      -8.5      0.000      0.000
REMARK  2 active torsions:
REMARK  status: ('A' for Active; 'I' for Inactive)
REMARK    1  A    between atoms: C10_9  and  O11_10 
REMARK    2  A    between atoms: C22_19  and  O24_20 
ROOT
ATOM      1  C1  ZIN A   1      19.589  -0.537  12.653  0.00  0.00     0.018 C 
ATOM      2  C2  ZIN A   1      18.070  -0.377  12.736  0.00  0.00    -0.014 C 
ATOM      3  C3  ZIN A   1      17.388  -1.481  11.953  0.00  0.00     0.013 C 
ATOM      4  C4  ZIN A   1      17.922  -1.428  10.508  0.00  0.00     0.010 C 
ATOM      5  C5  ZIN A   1      17.675  -0.058   9.894  0.00  0.00     0.023 C 
ATOM      6  C7  ZIN A   1      18.199   0.032   8.490  0.00  0.00    -0.047 A 
ATOM      7  C8  ZIN A   1      18.138  -1.102   7.691  0.00  0.00     0.011 A 
ATOM      8  C9  ZIN A   1      18.597  -1.070   6.392  0.00  0.00     0.037 A 
ATOM      9  C10 ZIN A   1      19.122   0.107   5.877  0.00  0.00     0.066 A 
ATOM     10  C12 ZIN A   1      19.187   1.236   6.675  0.00  0.00     0.044 A 
ATOM     11  C13 ZIN A   1      18.730   1.202   7.986  0.00  0.00    -0.049 A 
ATOM     12  C14 ZIN A   1      18.852   2.462   8.801  0.00  0.00     0.039 C 
ATOM     13  C15 ZIN A   1      17.994   2.392  10.063  0.00  0.00     0.010 C 
ATOM     14  C16 ZIN A   1      18.292   1.057  10.747  0.00  0.00    -0.001 C 
ATOM     15  C18 ZIN A   1      17.642   0.980  12.111  0.00  0.00     0.001 C 
ATOM     16  C20 ZIN A   1      18.084   2.009  13.146  0.00  0.00     0.008 C 
ATOM     17  C21 ZIN A   1      18.021   1.274  14.508  0.00  0.00     0.033 C 
ATOM     18  C22 ZIN A   1      17.640  -0.194  14.195  0.00  0.00     0.126 C 
ENDROOT
BRANCH   9  19
ATOM     19  O11 ZIN A   1      19.573   0.149   4.595  0.00  0.00    -0.361 OA
ATOM     20  H34 ZIN A   1      19.750   1.043   4.271  0.00  0.00     0.217 HD
ENDBRANCH   9  19
BRANCH  18  21
ATOM     21  O24 ZIN A   1      18.337  -1.093  15.061  0.00  0.00    -0.395 OA
ATOM     22  H44 ZIN A   1      19.292  -1.120  14.914  0.00  0.00     0.210 HD
ENDBRANCH  18  21
TORSDOF 2
ENDMDL
MODEL 2
REMARK VINA RESULT:      -8.2      3.007      6.369
REMARK  2 active torsions:
REMARK  status: ('A' for Active; 'I' for Inactive)
REMARK    1  A    between atoms: C10_9  and  O11_10 
REMARK    2  A    between atoms: C22_19  and  O24_20 
ROOT
ATOM      1  C1  ZIN A   1      17.853   0.145  10.538  0.00  0.00     0.018 C 
ATOM      2  C2  ZIN A   1      19.257   0.709  10.311  0.00  0.00    -0.014 C 
ATOM      3  C3  ZIN A   1      19.976   0.860  11.637  0.00  0.00     0.013 C 
ATOM      4  C4  ZIN A   1      19.107   1.755  12.540  0.00  0.00     0.010 C 
ATOM      5  C5  ZIN A   1      18.847   3.099  11.877  0.00  0.00     0.023 C 
ATOM      6  C7  ZIN A   1      17.987   3.990  12.724  0.00  0.00    -0.047 A 
ATOM      7  C8  ZIN A   1      18.127   3.919  14.104  0.00  0.00     0.011 A 
ATOM      8  C9  ZIN A   1      17.369   4.723  14.928  0.00  0.00     0.037 A 
ATOM      9  C10 ZIN A   1      16.459   5.611  14.374  0.00  0.00     0.066 A 
ATOM     10  C12 ZIN A   1      16.316   5.678  12.999  0.00  0.00     0.044 A 
ATOM     11  C13 ZIN A   1      17.077   4.865  12.169  0.00  0.00    -0.049 A 
ATOM     12  C14 ZIN A   1      16.851   4.977  10.684  0.00  0.00     0.039 C 
ATOM     13  C15 ZIN A   1      17.984   4.318   9.900  0.00  0.00     0.010 C 
ATOM     14  C16 ZIN A   1      18.204   2.926  10.495  0.00  0.00    -0.001 C 
ATOM     15  C18 ZIN A   1      19.169   2.115   9.657  0.00  0.00     0.001 C 
ATOM     16  C20 ZIN A   1      18.756   1.820   8.219  0.00  0.00     0.008 C 
ATOM     17  C21 ZIN A   1      19.333   0.417   7.907  0.00  0.00     0.033 C 
ATOM     18  C22 ZIN A   1      19.975  -0.094   9.221  0.00  0.00     0.126 C 
ENDROOT
BRANCH   9  19
ATOM     19  O11 ZIN A   1      15.710   6.411  15.179  0.00  0.00    -0.361 OA
ATOM     20  H34 ZIN A   1      14.997   5.948  15.638  0.00  0.00     0.217 HD
ENDBRANCH   9  19
BRANCH  18  21
ATOM     21  O24 ZIN A   1      19.759  -1.498   9.377  0.00  0.00    -0.395 OA
ATOM     22  H44 ZIN A   1      18.858  -1.730   9.642  0.00  0.00     0.210 HD
ENDBRANCH  18  21
TORSDOF 2
ENDMDL
MODEL 3
REMARK VINA RESULT:      -7.9      1.756      6.054
REMARK  2 active torsions:
REMARK  status: ('A' for Active; 'I' for Inactive)
REMARK    1  A    between atoms: C10_9  and  O11_10 
REMARK    2  A    between atoms: C22_19  and  O24_20 
ROOT
ATOM      1  C1  ZIN A   1      17.370  -0.762   8.215  0.00  0.00     0.018 C 
ATOM      2  C2  ZIN A   1      18.865  -0.559   7.961  0.00  0.00    -0.014 C 
ATOM      3  C3  ZIN A   1      19.671  -1.169   9.091  0.00  0.00     0.013 C 
ATOM      4  C4  ZIN A   1      19.190  -0.528  10.407  0.00  0.00     0.010 C 
ATOM      5  C5  ZIN A   1      19.340   0.986  10.353  0.00  0.00     0.023 C 
ATOM      6  C7  ZIN A   1      18.864   1.644  11.615  0.00  0.00    -0.047 A 
ATOM      7  C8  ZIN A   1      19.054   0.976  12.817  0.00  0.00     0.011 A 
ATOM      8  C9  ZIN A   1      18.645   1.541  14.006  0.00  0.00     0.037 A 
ATOM      9  C10 ZIN A   1      18.039   2.789  14.001  0.00  0.00     0.066 A 
ATOM     10  C12 ZIN A   1      17.846   3.453  12.802  0.00  0.00     0.044 A 
ATOM     11  C13 ZIN A   1      18.254   2.882  11.604  0.00  0.00    -0.049 A 
ATOM     12  C14 ZIN A   1      17.990   3.653  10.337  0.00  0.00     0.039 C 
ATOM     13  C15 ZIN A   1      18.802   3.094   9.170  0.00  0.00     0.010 C 
ATOM     14  C16 ZIN A   1      18.595   1.579   9.150  0.00  0.00    -0.001 C 
ATOM     15  C18 ZIN A   1      19.197   0.958   7.909  0.00  0.00     0.001 C 
ATOM     16  C20 ZIN A   1      18.627   1.406   6.567  0.00  0.00     0.008 C 
ATOM     17  C21 ZIN A   1      18.702   0.157   5.653  0.00  0.00     0.033 C 
ATOM     18  C22 ZIN A   1      19.221  -1.003   6.538  0.00  0.00     0.126 C 
ENDROOT
BRANCH   9  19
ATOM     19  O11 ZIN A   1      17.637   3.357  15.169  0.00  0.00    -0.361 OA
ATOM     20  H34 ZIN A   1      16.752   3.088  15.451  0.00  0.00     0.217 HD
ENDBRANCH   9  19
BRANCH  18  21
ATOM     21  O24 ZIN A   1      18.572  -2.230   6.196  0.00  0.00    -0.395 OA
ATOM     22  H44 ZIN A   1      17.663  -2.121   5.885  0.00  0.00     0.210 HD
ENDBRANCH  18  21
TORSDOF 2
ENDMDL
MODEL 4
REMARK VINA RESULT:      -7.8      1.496      6.246
REMARK  2 active torsions:
REMARK  status: ('A' for Active; 'I' for Inactive)
REMARK    1  A    between atoms: C10_9  and  O11_10 
REMARK    2  A    between atoms: C22_19  and  O24_20 
ROOT
ATOM      1  C1  ZIN A   1      17.259  -0.217   9.131  0.00  0.00     0.018 C 
ATOM      2  C2  ZIN A   1      18.749  -0.359   8.812  0.00  0.00    -0.014 C 
ATOM      3  C3  ZIN A   1      19.301  -1.614   9.458  0.00  0.00     0.013 C 
ATOM      4  C4  ZIN A   1      19.013  -1.528  10.969  0.00  0.00     0.010 C 
ATOM      5  C5  ZIN A   1      19.625  -0.267  11.562  0.00  0.00     0.023 C 
ATOM      6  C7  ZIN A   1      19.348  -0.143  13.031  0.00  0.00    -0.047 A 
ATOM      7  C8  ZIN A   1      19.296  -1.304  13.790  0.00  0.00     0.011 A 
ATOM      8  C9  ZIN A   1      19.055  -1.246  15.146  0.00  0.00     0.037 A 
ATOM      9  C10 ZIN A   1      18.866  -0.015  15.759  0.00  0.00     0.066 A 
ATOM     10  C12 ZIN A   1      18.913   1.142  15.001  0.00  0.00     0.044 A 
ATOM     11  C13 ZIN A   1      19.151   1.082  13.634  0.00  0.00    -0.049 A 
ATOM     12  C14 ZIN A   1      19.167   2.381  12.871  0.00  0.00     0.039 C 
ATOM     13  C15 ZIN A   1      19.792   2.203  11.488  0.00  0.00     0.010 C 
ATOM     14  C16 ZIN A   1      19.128   0.990  10.836  0.00  0.00    -0.001 C 
ATOM     15  C18 ZIN A   1      19.535   0.853   9.386  0.00  0.00     0.001 C 
ATOM     16  C20 ZIN A   1      19.162   1.999   8.452  0.00  0.00     0.008 C 
ATOM     17  C21 ZIN A   1      18.867   1.335   7.084  0.00  0.00     0.033 C 
ATOM     18  C22 ZIN A   1      18.982  -0.194   7.307  0.00  0.00     0.126 C 
ENDROOT
BRANCH   9  19
ATOM     19  O11 ZIN A   1      18.632   0.053  17.096  0.00  0.00    -0.361 OA
ATOM     20  H34 ZIN A   1      18.875  -0.749  17.578  0.00  0.00     0.217 HD
ENDBRANCH   9  19
BRANCH  18  21
ATOM     21  O24 ZIN A   1      17.993  -0.892   6.546  0.00  0.00    -0.395 OA
ATOM     22  H44 ZIN A   1      17.083  -0.671   6.787  0.00  0.00     0.210 HD
ENDBRANCH  18  21
TORSDOF 2
ENDMDL
MODEL 5
REMARK VINA RESULT:      -7.8      2.868      7.494
REMARK  2 active torsions:
REMARK  status: ('A' for Active; 'I' for Inactive)
REMARK    1  A    between atoms: C10_9  and  O11_10 
REMARK    2  A    between atoms: C22_19  and  O24_20 
ROOT
ATOM      1  C1  ZIN A   1      20.307  -0.291  11.833  0.00  0.00     0.018 C 
ATOM      2  C2  ZIN A   1      18.790  -0.368  11.643  0.00  0.00    -0.014 C 
ATOM      3  C3  ZIN A   1      18.182   1.015  11.762  0.00  0.00     0.013 C 
ATOM      4  C4  ZIN A   1      18.590   1.589  13.132  0.00  0.00     0.010 C 
ATOM      5  C5  ZIN A   1      18.138   0.670  14.257  0.00  0.00     0.023 C 
ATOM      6  C7  ZIN A   1      18.535   1.192  15.606  0.00  0.00    -0.047 A 
ATOM      7  C8  ZIN A   1      18.543   2.567  15.803  0.00  0.00     0.011 A 
ATOM      8  C9  ZIN A   1      18.891   3.099  17.026  0.00  0.00     0.037 A 
ATOM      9  C10 ZIN A   1      19.233   2.253  18.071  0.00  0.00     0.066 A 
ATOM     10  C12 ZIN A   1      19.229   0.883  17.874  0.00  0.00     0.044 A 
ATOM     11  C13 ZIN A   1      18.884   0.348  16.640  0.00  0.00    -0.049 A 
ATOM     12  C14 ZIN A   1      18.923  -1.151  16.493  0.00  0.00     0.039 C 
ATOM     13  C15 ZIN A   1      18.182  -1.605  15.237  0.00  0.00     0.010 C 
ATOM     14  C16 ZIN A   1      18.686  -0.751  14.073  0.00  0.00    -0.001 C 
ATOM     15  C18 ZIN A   1      18.159  -1.259  12.749  0.00  0.00     0.001 C 
ATOM     16  C20 ZIN A   1      18.559  -2.674  12.344  0.00  0.00     0.008 C 
ATOM     17  C21 ZIN A   1      18.690  -2.637  10.801  0.00  0.00     0.033 C 
ATOM     18  C22 ZIN A   1      18.459  -1.165  10.378  0.00  0.00     0.126 C 
ENDROOT
BRANCH   9  19
ATOM     19  O11 ZIN A   1      19.573   2.768  19.283  0.00  0.00    -0.361 OA
ATOM     20  H34 ZIN A   1      18.912   2.618  19.972  0.00  0.00     0.217 HD
ENDBRANCH   9  19
BRANCH  18  21
ATOM     21  O24 ZIN A   1      19.322  -0.808   9.295  0.00  0.00    -0.395 OA
ATOM     22  H44 ZIN A   1      18.906  -0.243   8.630  0.00  0.00     0.210 HD
ENDBRANCH  18  21
TORSDOF 2
ENDMDL
MODEL 6
REMARK VINA RESULT:      -7.8      1.218      2.680
REMARK  2 active torsions:
REMARK  status: ('A' for Active; 'I' for Inactive)
REMARK    1  A    between atoms: C10_9  and  O11_10 
REMARK    2  A    between atoms: C22_19  and  O24_20 
ROOT
ATOM      1  C1  ZIN A   1      16.958   0.504  12.589  0.00  0.00     0.018 C 
ATOM      2  C2  ZIN A   1      18.434   0.630  12.975  0.00  0.00    -0.014 C 
ATOM      3  C3  ZIN A   1      19.033   1.867  12.337  0.00  0.00     0.013 C 
ATOM      4  C4  ZIN A   1      18.815   1.760  10.815  0.00  0.00     0.010 C 
ATOM      5  C5  ZIN A   1      19.435   0.482  10.271  0.00  0.00     0.023 C 
ATOM      6  C7  ZIN A   1      19.225   0.338   8.792  0.00  0.00    -0.047 A 
ATOM      7  C8  ZIN A   1      19.225   1.488   8.014  0.00  0.00     0.011 A 
ATOM      8  C9  ZIN A   1      19.046   1.412   6.649  0.00  0.00     0.037 A 
ATOM      9  C10 ZIN A   1      18.867   0.175   6.048  0.00  0.00     0.066 A 
ATOM     10  C12 ZIN A   1      18.863  -0.971   6.824  0.00  0.00     0.044 A 
ATOM     11  C13 ZIN A   1      19.037  -0.893   8.199  0.00  0.00    -0.049 A 
ATOM     12  C14 ZIN A   1      18.999  -2.180   8.982  0.00  0.00     0.039 C 
ATOM     13  C15 ZIN A   1      19.562  -1.989  10.390  0.00  0.00     0.010 C 
ATOM     14  C16 ZIN A   1      18.886  -0.757  10.991  0.00  0.00    -0.001 C 
ATOM     15  C18 ZIN A   1      19.227  -0.602  12.457  0.00  0.00     0.001 C 
ATOM     16  C20 ZIN A   1      18.794  -1.728  13.390  0.00  0.00     0.008 C 
ATOM     17  C21 ZIN A   1      18.446  -1.038  14.732  0.00  0.00     0.033 C 
ATOM     18  C22 ZIN A   1      18.594   0.485  14.491  0.00  0.00     0.126 C 
ENDROOT
BRANCH   9  19
ATOM     19  O11 ZIN A   1      18.695   0.088   4.702  0.00  0.00    -0.361 OA
ATOM     20  H34 ZIN A   1      19.025   0.855   4.214  0.00  0.00     0.217 HD
ENDBRANCH   9  19
BRANCH  18  21
ATOM     21  O24 ZIN A   1      17.582   1.209  15.196  0.00  0.00    -0.395 OA
ATOM     22  H44 ZIN A   1      17.470   0.934  16.116  0.00  0.00     0.210 HD
ENDBRANCH  18  21
TORSDOF 2
ENDMDL
MODEL 7
REMARK VINA RESULT:      -7.7      1.567      3.308
REMARK  2 active torsions:
REMARK  status: ('A' for Active; 'I' for Inactive)
REMARK    1  A    between atoms: C10_9  and  O11_10 
REMARK    2  A    between atoms: C22_19  and  O24_20 
ROOT
ATOM      1  C1  ZIN A   1      17.180   0.583  14.299  0.00  0.00     0.018 C 
ATOM      2  C2  ZIN A   1      18.634   0.861  14.689  0.00  0.00    -0.014 C 
ATOM      3  C3  ZIN A   1      19.064   2.213  14.156  0.00  0.00     0.013 C 
ATOM      4  C4  ZIN A   1      18.840   2.207  12.632  0.00  0.00     0.010 C 
ATOM      5  C5  ZIN A   1      19.607   1.067  11.979  0.00  0.00     0.023 C 
ATOM      6  C7  ZIN A   1      19.396   1.022  10.494  0.00  0.00    -0.047 A 
ATOM      7  C8  ZIN A   1      19.241   2.224   9.816  0.00  0.00     0.011 A 
ATOM      8  C9  ZIN A   1      19.055   2.240   8.450  0.00  0.00     0.037 A 
ATOM      9  C10 ZIN A   1      19.024   1.044   7.747  0.00  0.00     0.066 A 
ATOM     10  C12 ZIN A   1      19.174  -0.154   8.424  0.00  0.00     0.044 A 
ATOM     11  C13 ZIN A   1      19.357  -0.170   9.800  0.00  0.00    -0.049 A 
ATOM     12  C14 ZIN A   1      19.491  -1.511  10.472  0.00  0.00     0.039 C 
ATOM     13  C15 ZIN A   1      20.045  -1.369  11.888  0.00  0.00     0.010 C 
ATOM     14  C16 ZIN A   1      19.228  -0.287  12.594  0.00  0.00    -0.001 C 
ATOM     15  C18 ZIN A   1      19.568  -0.213  14.067  0.00  0.00     0.001 C 
ATOM     16  C20 ZIN A   1      19.293  -1.459  14.902  0.00  0.00     0.008 C 
ATOM     17  C21 ZIN A   1      18.880  -0.932  16.299  0.00  0.00     0.033 C 
ATOM     18  C22 ZIN A   1      18.832   0.612  16.188  0.00  0.00     0.126 C 
ENDROOT
BRANCH   9  19
ATOM     19  O11 ZIN A   1      18.845   1.050   6.399  0.00  0.00    -0.361 OA
ATOM     20  H34 ZIN A   1      18.080   0.538   6.103  0.00  0.00     0.217 HD
ENDBRANCH   9  19
BRANCH  18  21
ATOM     21  O24 ZIN A   1      17.747   1.141  16.954  0.00  0.00    -0.395 OA
ATOM     22  H44 ZIN A   1      17.029   1.505  16.419  0.00  0.00     0.210 HD
ENDBRANCH  18  21
TORSDOF 2
ENDMDL
MODEL 8
REMARK VINA RESULT:      -7.7      2.317      7.348
REMARK  2 active torsions:
REMARK  status: ('A' for Active; 'I' for Inactive)
REMARK    1  A    between atoms: C10_9  and  O11_10 
REMARK    2  A    between atoms: C22_19  and  O24_20 
ROOT
ATOM      1  C1  ZIN A   1      19.996   1.530  10.947  0.00  0.00     0.018 C 
ATOM      2  C2  ZIN A   1      18.585   2.097  10.776  0.00  0.00    -0.014 C 
ATOM      3  C3  ZIN A   1      18.513   3.495  11.357  0.00  0.00     0.013 C 
ATOM      4  C4  ZIN A   1      18.954   3.411  12.831  0.00  0.00     0.010 C 
ATOM      5  C5  ZIN A   1      18.082   2.429  13.599  0.00  0.00     0.023 C 
ATOM      6  C7  ZIN A   1      18.496   2.311  15.036  0.00  0.00    -0.047 A 
ATOM      7  C8  ZIN A   1      18.984   3.443  15.675  0.00  0.00     0.011 A 
ATOM      8  C9  ZIN A   1      19.369   3.392  16.998  0.00  0.00     0.037 A 
ATOM      9  C10 ZIN A   1      19.267   2.198  17.697  0.00  0.00     0.066 A 
ATOM     10  C12 ZIN A   1      18.785   1.068  17.059  0.00  0.00     0.044 A 
ATOM     11  C13 ZIN A   1      18.401   1.119  15.726  0.00  0.00    -0.049 A 
ATOM     12  C14 ZIN A   1      17.907  -0.155  15.091  0.00  0.00     0.039 C 
ATOM     13  C15 ZIN A   1      17.189   0.125  13.772  0.00  0.00     0.010 C 
ATOM     14  C16 ZIN A   1      18.091   1.042  12.944  0.00  0.00    -0.001 C 
ATOM     15  C18 ZIN A   1      17.559   1.214  11.538  0.00  0.00     0.001 C 
ATOM     16  C20 ZIN A   1      17.456  -0.043  10.681  0.00  0.00     0.008 C 
ATOM     17  C21 ZIN A   1      17.754   0.423   9.234  0.00  0.00     0.033 C 
ATOM     18  C22 ZIN A   1      18.122   1.925   9.325  0.00  0.00     0.126 C 
ENDROOT
BRANCH   9  19
ATOM     19  O11 ZIN A   1      19.640   2.138  19.003  0.00  0.00    -0.361 OA
ATOM     20  H34 ZIN A   1      18.941   1.832  19.597  0.00  0.00     0.217 HD
ENDBRANCH   9  19
BRANCH  18  21
ATOM     21  O24 ZIN A   1      19.166   2.247   8.402  0.00  0.00    -0.395 OA
ATOM     22  H44 ZIN A   1      18.856   2.416   7.502  0.00  0.00     0.210 HD
ENDBRANCH  18  21
TORSDOF 2
ENDMDL
MODEL 9
REMARK VINA RESULT:      -7.6      2.607      4.143
REMARK  2 active torsions:
REMARK  status: ('A' for Active; 'I' for Inactive)
REMARK    1  A    between atoms: C10_9  and  O11_10 
REMARK    2  A    between atoms: C22_19  and  O24_20 
ROOT
ATOM      1  C1  ZIN A   1      19.936   1.336  12.089  0.00  0.00     0.018 C 
ATOM      2  C2  ZIN A   1      18.459   1.689  12.274  0.00  0.00    -0.014 C 
ATOM      3  C3  ZIN A   1      17.820   0.743  13.272  0.00  0.00     0.013 C 
ATOM      4  C4  ZIN A   1      18.038  -0.694  12.759  0.00  0.00     0.010 C 
ATOM      5  C5  ZIN A   1      17.455  -0.860  11.363  0.00  0.00     0.023 C 
ATOM      6  C7  ZIN A   1      17.665  -2.246  10.826  0.00  0.00    -0.047 A 
ATOM      7  C8  ZIN A   1      17.628  -3.309  11.719  0.00  0.00     0.011 A 
ATOM      8  C9  ZIN A   1      17.805  -4.603  11.277  0.00  0.00     0.037 A 
ATOM      9  C10 ZIN A   1      18.020  -4.845   9.928  0.00  0.00     0.066 A 
ATOM     10  C12 ZIN A   1      18.061  -3.784   9.039  0.00  0.00     0.044 A 
ATOM     11  C13 ZIN A   1      17.888  -2.481   9.485  0.00  0.00    -0.049 A 
ATOM     12  C14 ZIN A   1      17.967  -1.377   8.464  0.00  0.00     0.039 C 
ATOM     13  C15 ZIN A   1      17.402  -0.069   9.017  0.00  0.00     0.010 C 
ATOM     14  C16 ZIN A   1      18.043   0.165  10.385  0.00  0.00    -0.001 C 
ATOM     15  C18 ZIN A   1      17.701   1.537  10.926  0.00  0.00     0.001 C 
ATOM     16  C20 ZIN A   1      18.170   2.737  10.110  0.00  0.00     0.008 C 
ATOM     17  C21 ZIN A   1      18.501   3.835  11.151  0.00  0.00     0.033 C 
ATOM     18  C22 ZIN A   1      18.307   3.189  12.546  0.00  0.00     0.126 C 
ENDROOT
BRANCH   9  19
ATOM     19  O11 ZIN A   1      18.191  -6.117   9.481  0.00  0.00    -0.361 OA
ATOM     20  H34 ZIN A   1      18.387  -6.755  10.181  0.00  0.00     0.217 HD
ENDBRANCH   9  19
BRANCH  18  21
ATOM     21  O24 ZIN A   1      19.299   3.657  13.463  0.00  0.00    -0.395 OA
ATOM     22  H44 ZIN A   1      19.690   4.507  13.219  0.00  0.00     0.210 HD
ENDBRANCH  18  21
TORSDOF 2
ENDMDL
