MODEL 1
REMARK VINA RESULT:      -9.7      0.000      0.000
REMARK  8 active torsions:
REMARK  status: ('A' for Active; 'I' for Inactive)
REMARK    1  A    between atoms: O2_2  and  C3_3 
REMARK    2  A    between atoms: C5_5  and  N6_6 
REMARK    3  A    between atoms: C9_9  and  N10_10 
REMARK    4  A    between atoms: C22_22  and  N23_23 
REMARK    5  A    between atoms: N23_23  and  C24_24 
REMARK    6  A    between atoms: C29_29  and  N30_30 
REMARK    7  A    between atoms: N30_30  and  C31_31 
REMARK    8  A    between atoms: C36_36  and  P37_37 
ROOT
ATOM      1  C3  ZIN A   1      19.806  -0.116   9.012  0.00  0.00     0.097 A 
ATOM      2  C4  ZIN A   1      19.317  -1.132   8.208  0.00  0.00     0.062 A 
ATOM      3  C5  ZIN A   1      18.603  -0.824   7.058  0.00  0.00     0.013 A 
ATOM      4  C20 ZIN A   1      18.380   0.503   6.713  0.00  0.00     0.026 A 
ATOM      5  C21 ZIN A   1      18.868   1.518   7.514  0.00  0.00     0.034 A 
ATOM      6  C22 ZIN A   1      19.576   1.215   8.666  0.00  0.00     0.082 A 
ENDROOT
BRANCH   6   7
ATOM      7  N23 ZIN A   1      20.071   2.246   9.479  0.00  0.00    -0.185 N 
ATOM      8  H68 ZIN A   1      20.976   2.571   9.353  0.00  0.00     0.184 HD
BRANCH   7   9
ATOM      9  C24 ZIN A   1      19.266   2.801  10.461  0.00  0.00     0.728 A 
ATOM     10  N41 ZIN A   1      19.574   2.606  11.734  0.00  0.00    -0.043 NA
ATOM     11  C29 ZIN A   1      18.824   3.128  12.699  0.00  0.00     0.170 A 
ATOM     12  C27 ZIN A   1      17.697   3.879  12.351  0.00  0.00     0.098 A 
ATOM     13  C26 ZIN A   1      17.411   4.053  11.012  0.00  0.00     0.164 A 
ATOM     14 Cl28 ZIN A   1      16.683   4.576  13.576  0.00  0.00    -0.079 Cl
ATOM     15  N25 ZIN A   1      18.206   3.508  10.102  0.00  0.00    -0.073 NA
BRANCH  11  16
ATOM     16  N30 ZIN A   1      19.151   2.926  14.032  0.00  0.00    -0.338 N 
ATOM     17  H70 ZIN A   1      19.731   3.556  14.489  0.00  0.00     0.167 HD
BRANCH  16  18
ATOM     18  C31 ZIN A   1      18.645   1.818  14.716  0.00  0.00     0.047 A 
ATOM     19  C36 ZIN A   1      18.536   1.844  16.101  0.00  0.00     0.030 A 
ATOM     20  C35 ZIN A   1      18.032   0.750  16.775  0.00  0.00     0.017 A 
ATOM     21  C34 ZIN A   1      17.646  -0.377  16.071  0.00  0.00     0.001 A 
ATOM     22  C33 ZIN A   1      17.757  -0.409  14.694  0.00  0.00     0.002 A 
ATOM     23  C32 ZIN A   1      18.256   0.684  14.015  0.00  0.00     0.030 A 
BRANCH  19  24
ATOM     24  P37 ZIN A   1      19.043   3.323  17.023  0.00  0.00     0.103 P 
ATOM     25  C38 ZIN A   1      17.887   4.687  16.665  0.00  0.00     0.091 C 
ATOM     26  C39 ZIN A   1      19.024   2.963  18.810  0.00  0.00     0.091 C 
ATOM     27  O40 ZIN A   1      20.410   3.715  16.613  0.00  0.00    -0.318 OA
ENDBRANCH  19  24
ENDBRANCH  16  18
ENDBRANCH  11  16
ENDBRANCH   7   9
ENDBRANCH   6   7
BRANCH   1  28
ATOM     28  O2  ZIN A   1      20.506  -0.416  10.139  0.00  0.00    -0.354 OA
ATOM     29  C1  ZIN A   1      19.798  -1.091  11.181  0.00  0.00     0.210 C 
ENDBRANCH   1  28
BRANCH   3  30
ATOM     30  N6  ZIN A   1      18.108  -1.850   6.245  0.00  0.00    -0.283 NA
ATOM     31  C19 ZIN A   1      17.773  -1.348   4.907  0.00  0.00     0.098 C 
ATOM     32  C18 ZIN A   1      17.102  -2.459   4.097  0.00  0.00     0.048 C 
ATOM     33  C9  ZIN A   1      18.054  -3.652   3.990  0.00  0.00     0.190 C 
ATOM     34  C8  ZIN A   1      18.427  -4.126   5.397  0.00  0.00     0.048 C 
ATOM     35  C7  ZIN A   1      19.059  -2.967   6.171  0.00  0.00     0.098 C 
BRANCH  33  36
ATOM     36  N10 ZIN A   1      17.394  -4.744   3.262  0.00  0.00    -0.063 N 
ATOM     37  H11 ZIN A   1      17.986  -5.046   2.501  0.00  0.00     0.280 HD
ATOM     38  C17 ZIN A   1      17.158  -5.869   4.175  0.00  0.00     0.265 C 
ATOM     39  C16 ZIN A   1      16.488  -7.014   3.413  0.00  0.00     0.299 C 
ATOM     40  N14 ZIN A   1      15.215  -6.544   2.849  0.00  0.00     0.087 N 
ATOM     41  C13 ZIN A   1      15.433  -5.401   1.950  0.00  0.00     0.299 C 
ATOM     42  C15 ZIN A   1      14.513  -7.631   2.155  0.00  0.00     0.310 C 
ATOM     43  C12 ZIN A   1      16.112  -4.269   2.725  0.00  0.00     0.265 C 
ENDBRANCH  33  36
ENDBRANCH   3  30
TORSDOF 8
ENDMDL
MODEL 2
REMARK VINA RESULT:      -9.4      1.300      2.150
REMARK  8 active torsions:
REMARK  status: ('A' for Active; 'I' for Inactive)
REMARK    1  A    between atoms: O2_2  and  C3_3 
REMARK    2  A    between atoms: C5_5  and  N6_6 
REMARK    3  A    between atoms: C9_9  and  N10_10 
REMARK    4  A    between atoms: C22_22  and  N23_23 
REMARK    5  A    between atoms: N23_23  and  C24_24 
REMARK    6  A    between atoms: C29_29  and  N30_30 
REMARK    7  A    between atoms: N30_30  and  C31_31 
REMARK    8  A    between atoms: C36_36  and  P37_37 
ROOT
ATOM      1  C3  ZIN A   1      19.470  -0.315   9.189  0.00  0.00     0.097 A 
ATOM      2  C4  ZIN A   1      19.034  -1.313   8.334  0.00  0.00     0.062 A 
ATOM      3  C5  ZIN A   1      18.590  -0.990   7.059  0.00  0.00     0.013 A 
ATOM      4  C20 ZIN A   1      18.582   0.335   6.641  0.00  0.00     0.026 A 
ATOM      5  C21 ZIN A   1      19.017   1.333   7.494  0.00  0.00     0.034 A 
ATOM      6  C22 ZIN A   1      19.456   1.015   8.769  0.00  0.00     0.082 A 
ENDROOT
BRANCH   6   7
ATOM      7  N23 ZIN A   1      19.896   2.028   9.634  0.00  0.00    -0.185 N 
ATOM      8  H68 ZIN A   1      20.845   2.173   9.767  0.00  0.00     0.184 HD
BRANCH   7   9
ATOM      9  C24 ZIN A   1      18.975   2.823  10.296  0.00  0.00     0.728 A 
ATOM     10  N41 ZIN A   1      18.692   2.564  11.564  0.00  0.00    -0.043 NA
ATOM     11  C29 ZIN A   1      17.815   3.310  12.228  0.00  0.00     0.170 A 
ATOM     12  C27 ZIN A   1      17.186   4.368  11.565  0.00  0.00     0.098 A 
ATOM     13  C26 ZIN A   1      17.506   4.600  10.242  0.00  0.00     0.164 A 
ATOM     14 Cl28 ZIN A   1      16.029   5.368  12.387  0.00  0.00    -0.079 Cl
ATOM     15  N25 ZIN A   1      18.394   3.819   9.643  0.00  0.00    -0.073 NA
BRANCH  11  16
ATOM     16  N30 ZIN A   1      17.526   3.041  13.557  0.00  0.00    -0.338 N 
ATOM     17  H70 ZIN A   1      16.738   2.523  13.786  0.00  0.00     0.167 HD
BRANCH  16  18
ATOM     18  C31 ZIN A   1      18.370   3.513  14.565  0.00  0.00     0.047 A 
ATOM     19  C36 ZIN A   1      18.939   2.625  15.470  0.00  0.00     0.030 A 
ATOM     20  C35 ZIN A   1      19.776   3.093  16.463  0.00  0.00     0.017 A 
ATOM     21  C34 ZIN A   1      20.040   4.448  16.564  0.00  0.00     0.001 A 
ATOM     22  C33 ZIN A   1      19.472   5.335  15.668  0.00  0.00     0.002 A 
ATOM     23  C32 ZIN A   1      18.638   4.872  14.670  0.00  0.00     0.030 A 
BRANCH  19  24
ATOM     24  P37 ZIN A   1      18.592   0.849  15.338  0.00  0.00     0.103 P 
ATOM     25  C38 ZIN A   1      19.657   0.117  14.052  0.00  0.00     0.091 C 
ATOM     26  C39 ZIN A   1      18.929   0.042  16.938  0.00  0.00     0.091 C 
ATOM     27  O40 ZIN A   1      17.172   0.649  14.975  0.00  0.00    -0.318 OA
ENDBRANCH  19  24
ENDBRANCH  16  18
ENDBRANCH  11  16
ENDBRANCH   7   9
ENDBRANCH   6   7
BRANCH   1  28
ATOM     28  O2  ZIN A   1      19.906  -0.629  10.438  0.00  0.00    -0.354 OA
ATOM     29  C1  ZIN A   1      19.664  -1.963  10.892  0.00  0.00     0.210 C 
ENDBRANCH   1  28
BRANCH   3  30
ATOM     30  N6  ZIN A   1      18.150  -1.998   6.195  0.00  0.00    -0.283 NA
ATOM     31  C19 ZIN A   1      17.776  -1.445   4.887  0.00  0.00     0.098 C 
ATOM     32  C18 ZIN A   1      17.165  -2.548   4.020  0.00  0.00     0.048 C 
ATOM     33  C9  ZIN A   1      18.185  -3.676   3.845  0.00  0.00     0.190 C 
ATOM     34  C8  ZIN A   1      18.595  -4.202   5.222  0.00  0.00     0.048 C 
ATOM     35  C7  ZIN A   1      19.164  -3.051   6.055  0.00  0.00     0.098 C 
BRANCH  33  36
ATOM     36  N10 ZIN A   1      17.584  -4.764   3.062  0.00  0.00    -0.063 N 
ATOM     37  H11 ZIN A   1      18.247  -5.087   2.372  0.00  0.00     0.280 HD
ATOM     38  C17 ZIN A   1      17.229  -5.873   3.956  0.00  0.00     0.265 C 
ATOM     39  C16 ZIN A   1      16.621  -7.014   3.138  0.00  0.00     0.299 C 
ATOM     40  N14 ZIN A   1      15.426  -6.527   2.436  0.00  0.00     0.087 N 
ATOM     41  C13 ZIN A   1      15.761  -5.400   1.554  0.00  0.00     0.299 C 
ATOM     42  C15 ZIN A   1      14.779  -7.609   1.683  0.00  0.00     0.310 C 
ATOM     43  C12 ZIN A   1      16.376  -4.272   2.386  0.00  0.00     0.265 C 
ENDBRANCH  33  36
ENDBRANCH   3  30
TORSDOF 8
ENDMDL
MODEL 3
REMARK VINA RESULT:      -9.1      2.169      2.813
REMARK  8 active torsions:
REMARK  status: ('A' for Active; 'I' for Inactive)
REMARK    1  A    between atoms: O2_2  and  C3_3 
REMARK    2  A    between atoms: C5_5  and  N6_6 
REMARK    3  A    between atoms: C9_9  and  N10_10 
REMARK    4  A    between atoms: C22_22  and  N23_23 
REMARK    5  A    between atoms: N23_23  and  C24_24 
REMARK    6  A    between atoms: C29_29  and  N30_30 
REMARK    7  A    between atoms: N30_30  and  C31_31 
REMARK    8  A    between atoms: C36_36  and  P37_37 
ROOT
ATOM      1  C3  ZIN A   1      18.950   0.066   7.998  0.00  0.00     0.097 A 
ATOM      2  C4  ZIN A   1      18.503  -1.207   7.687  0.00  0.00     0.062 A 
ATOM      3  C5  ZIN A   1      18.585  -2.222   8.631  0.00  0.00     0.013 A 
ATOM      4  C20 ZIN A   1      19.116  -1.960   9.888  0.00  0.00     0.026 A 
ATOM      5  C21 ZIN A   1      19.563  -0.689  10.200  0.00  0.00     0.034 A 
ATOM      6  C22 ZIN A   1      19.487   0.325   9.258  0.00  0.00     0.082 A 
ENDROOT
BRANCH   6   7
ATOM      7  N23 ZIN A   1      19.941   1.614   9.576  0.00  0.00    -0.185 N 
ATOM      8  H68 ZIN A   1      20.763   1.949   9.185  0.00  0.00     0.184 HD
BRANCH   7   9
ATOM      9  C24 ZIN A   1      19.214   2.409  10.446  0.00  0.00     0.728 A 
ATOM     10  N41 ZIN A   1      19.442   2.318  11.748  0.00  0.00    -0.043 NA
ATOM     11  C29 ZIN A   1      18.764   3.070  12.608  0.00  0.00     0.170 A 
ATOM     12  C27 ZIN A   1      17.797   3.954  12.121  0.00  0.00     0.098 A 
ATOM     13  C26 ZIN A   1      17.588   4.014  10.757  0.00  0.00     0.164 A 
ATOM     14 Cl28 ZIN A   1      16.880   4.953  13.206  0.00  0.00    -0.079 Cl
ATOM     15  N25 ZIN A   1      18.305   3.238   9.956  0.00  0.00    -0.073 NA
BRANCH  11  16
ATOM     16  N30 ZIN A   1      19.009   2.976  13.970  0.00  0.00    -0.338 N 
ATOM     17  H70 ZIN A   1      19.471   3.693  14.430  0.00  0.00     0.167 HD
BRANCH  16  18
ATOM     18  C31 ZIN A   1      18.589   1.847  14.679  0.00  0.00     0.047 A 
ATOM     19  C36 ZIN A   1      18.554   1.870  16.069  0.00  0.00     0.030 A 
ATOM     20  C35 ZIN A   1      18.133   0.756  16.767  0.00  0.00     0.017 A 
ATOM     21  C34 ZIN A   1      17.758  -0.387  16.084  0.00  0.00     0.001 A 
ATOM     22  C33 ZIN A   1      17.797  -0.416  14.703  0.00  0.00     0.002 A 
ATOM     23  C32 ZIN A   1      18.211   0.697  13.999  0.00  0.00     0.030 A 
BRANCH  19  24
ATOM     24  P37 ZIN A   1      19.046   3.370  16.963  0.00  0.00     0.103 P 
ATOM     25  C38 ZIN A   1      17.883   4.720  16.572  0.00  0.00     0.091 C 
ATOM     26  C39 ZIN A   1      19.020   3.045  18.757  0.00  0.00     0.091 C 
ATOM     27  O40 ZIN A   1      20.413   3.763  16.553  0.00  0.00    -0.318 OA
ENDBRANCH  19  24
ENDBRANCH  16  18
ENDBRANCH  11  16
ENDBRANCH   7   9
ENDBRANCH   6   7
BRANCH   1  28
ATOM     28  O2  ZIN A   1      18.870   1.061   7.075  0.00  0.00    -0.354 OA
ATOM     29  C1  ZIN A   1      18.635   0.670   5.720  0.00  0.00     0.210 C 
ENDBRANCH   1  28
BRANCH   3  30
ATOM     30  N6  ZIN A   1      18.134  -3.508   8.318  0.00  0.00    -0.283 NA
ATOM     31  C19 ZIN A   1      18.357  -3.814   6.899  0.00  0.00     0.098 C 
ATOM     32  C18 ZIN A   1      17.724  -5.165   6.560  0.00  0.00     0.048 C 
ATOM     33  C9  ZIN A   1      18.349  -6.251   7.439  0.00  0.00     0.190 C 
ATOM     34  C8  ZIN A   1      18.145  -5.885   8.912  0.00  0.00     0.048 C 
ATOM     35  C7  ZIN A   1      18.767  -4.512   9.183  0.00  0.00     0.098 C 
BRANCH  33  36
ATOM     36  N10 ZIN A   1      17.703  -7.540   7.160  0.00  0.00    -0.063 N 
ATOM     37  H11 ZIN A   1      18.327  -8.291   7.419  0.00  0.00     0.280 HD
ATOM     38  C17 ZIN A   1      16.462  -7.646   7.937  0.00  0.00     0.265 C 
ATOM     39  C16 ZIN A   1      15.800  -8.997   7.660  0.00  0.00     0.299 C 
ATOM     40  N14 ZIN A   1      15.510  -9.113   6.224  0.00  0.00     0.087 N 
ATOM     41  C13 ZIN A   1      16.741  -8.985   5.431  0.00  0.00     0.299 C 
ATOM     42  C15 ZIN A   1      14.822 -10.376   5.926  0.00  0.00     0.310 C 
ATOM     43  C12 ZIN A   1      17.396  -7.633   5.727  0.00  0.00     0.265 C 
ENDBRANCH  33  36
ENDBRANCH   3  30
TORSDOF 8
ENDMDL
MODEL 4
REMARK VINA RESULT:      -9.1      2.673      4.266
REMARK  8 active torsions:
REMARK  status: ('A' for Active; 'I' for Inactive)
REMARK    1  A    between atoms: O2_2  and  C3_3 
REMARK    2  A    between atoms: C5_5  and  N6_6 
REMARK    3  A    between atoms: C9_9  and  N10_10 
REMARK    4  A    between atoms: C22_22  and  N23_23 
REMARK    5  A    between atoms: N23_23  and  C24_24 
REMARK    6  A    between atoms: C29_29  and  N30_30 
REMARK    7  A    between atoms: N30_30  and  C31_31 
REMARK    8  A    between atoms: C36_36  and  P37_37 
ROOT
ATOM      1  C3  ZIN A   1      19.202  -1.416  10.920  0.00  0.00     0.097 A 
ATOM      2  C4  ZIN A   1      18.515  -2.087   9.922  0.00  0.00     0.062 A 
ATOM      3  C5  ZIN A   1      18.009  -3.357  10.163  0.00  0.00     0.013 A 
ATOM      4  C20 ZIN A   1      18.190  -3.954  11.404  0.00  0.00     0.026 A 
ATOM      5  C21 ZIN A   1      18.875  -3.285  12.401  0.00  0.00     0.034 A 
ATOM      6  C22 ZIN A   1      19.388  -2.019  12.163  0.00  0.00     0.082 A 
ENDROOT
BRANCH   6   7
ATOM      7  N23 ZIN A   1      20.083  -1.341  13.175  0.00  0.00    -0.185 N 
ATOM      8  H68 ZIN A   1      21.043  -1.222  13.108  0.00  0.00     0.184 HD
BRANCH   7   9
ATOM      9  C24 ZIN A   1      19.399  -0.842  14.271  0.00  0.00     0.728 A 
ATOM     10  N41 ZIN A   1      18.984   0.417  14.254  0.00  0.00    -0.043 NA
ATOM     11  C29 ZIN A   1      18.322   0.925  15.288  0.00  0.00     0.170 A 
ATOM     12  C27 ZIN A   1      18.075   0.114  16.400  0.00  0.00     0.098 A 
ATOM     13  C26 ZIN A   1      18.529  -1.190  16.377  0.00  0.00     0.164 A 
ATOM     14 Cl28 ZIN A   1      17.219   0.734  17.778  0.00  0.00    -0.079 Cl
ATOM     15  N25 ZIN A   1      19.179  -1.632  15.310  0.00  0.00    -0.073 NA
BRANCH  11  16
ATOM     16  N30 ZIN A   1      17.884   2.241  15.265  0.00  0.00    -0.338 N 
ATOM     17  H70 ZIN A   1      17.387   2.599  16.016  0.00  0.00     0.167 HD
BRANCH  16  18
ATOM     18  C31 ZIN A   1      18.162   3.050  14.161  0.00  0.00     0.047 A 
ATOM     19  C36 ZIN A   1      18.932   4.198  14.314  0.00  0.00     0.030 A 
ATOM     20  C35 ZIN A   1      19.209   4.993  13.220  0.00  0.00     0.017 A 
ATOM     21  C34 ZIN A   1      18.712   4.654  11.974  0.00  0.00     0.001 A 
ATOM     22  C33 ZIN A   1      17.942   3.517  11.819  0.00  0.00     0.002 A 
ATOM     23  C32 ZIN A   1      17.666   2.714  12.908  0.00  0.00     0.030 A 
BRANCH  19  24
ATOM     24  P37 ZIN A   1      19.583   4.642  15.948  0.00  0.00     0.103 P 
ATOM     25  C38 ZIN A   1      20.968   5.813  15.752  0.00  0.00     0.091 C 
ATOM     26  C39 ZIN A   1      18.265   5.419  16.938  0.00  0.00     0.091 C 
ATOM     27  O40 ZIN A   1      20.063   3.422  16.635  0.00  0.00    -0.318 OA
ENDBRANCH  19  24
ENDBRANCH  16  18
ENDBRANCH  11  16
ENDBRANCH   7   9
ENDBRANCH   6   7
BRANCH   1  28
ATOM     28  O2  ZIN A   1      19.700  -0.172  10.687  0.00  0.00    -0.354 OA
ATOM     29  C1  ZIN A   1      19.036   0.616   9.696  0.00  0.00     0.210 C 
ENDBRANCH   1  28
BRANCH   3  30
ATOM     30  N6  ZIN A   1      17.315  -4.036   9.155  0.00  0.00    -0.283 NA
ATOM     31  C19 ZIN A   1      18.242  -4.603   8.168  0.00  0.00     0.098 C 
ATOM     32  C18 ZIN A   1      17.447  -5.210   7.010  0.00  0.00     0.048 C 
ATOM     33  C9  ZIN A   1      16.518  -6.300   7.550  0.00  0.00     0.190 C 
ATOM     34  C8  ZIN A   1      15.595  -5.694   8.611  0.00  0.00     0.048 C 
ATOM     35  C7  ZIN A   1      16.444  -5.072   9.723  0.00  0.00     0.098 C 
BRANCH  33  36
ATOM     36  N10 ZIN A   1      15.711  -6.846   6.451  0.00  0.00    -0.063 N 
ATOM     37  H11 ZIN A   1      15.695  -7.854   6.515  0.00  0.00     0.280 HD
ATOM     38  C17 ZIN A   1      14.340  -6.329   6.546  0.00  0.00     0.265 C 
ATOM     39  C16 ZIN A   1      13.494  -6.913   5.413  0.00  0.00     0.299 C 
ATOM     40  N14 ZIN A   1      14.087  -6.542   4.121  0.00  0.00     0.087 N 
ATOM     41  C13 ZIN A   1      15.469  -7.032   4.021  0.00  0.00     0.299 C 
ATOM     42  C15 ZIN A   1      13.271  -7.038   3.005  0.00  0.00     0.310 C 
ATOM     43  C12 ZIN A   1      16.298  -6.447   5.166  0.00  0.00     0.265 C 
ENDBRANCH  33  36
ENDBRANCH   3  30
TORSDOF 8
ENDMDL
MODEL 5
REMARK VINA RESULT:      -9.0      4.586     11.665
REMARK  8 active torsions:
REMARK  status: ('A' for Active; 'I' for Inactive)
REMARK    1  A    between atoms: O2_2  and  C3_3 
REMARK    2  A    between atoms: C5_5  and  N6_6 
REMARK    3  A    between atoms: C9_9  and  N10_10 
REMARK    4  A    between atoms: C22_22  and  N23_23 
REMARK    5  A    between atoms: N23_23  and  C24_24 
REMARK    6  A    between atoms: C29_29  and  N30_30 
REMARK    7  A    between atoms: N30_30  and  C31_31 
REMARK    8  A    between atoms: C36_36  and  P37_37 
ROOT
ATOM      1  C3  ZIN A   1      19.339  -1.654   6.149  0.00  0.00     0.097 A 
ATOM      2  C4  ZIN A   1      19.279  -0.780   7.221  0.00  0.00     0.062 A 
ATOM      3  C5  ZIN A   1      18.909  -1.246   8.475  0.00  0.00     0.013 A 
ATOM      4  C20 ZIN A   1      18.601  -2.588   8.655  0.00  0.00     0.026 A 
ATOM      5  C21 ZIN A   1      18.661  -3.462   7.586  0.00  0.00     0.034 A 
ATOM      6  C22 ZIN A   1      19.023  -3.000   6.330  0.00  0.00     0.082 A 
ENDROOT
BRANCH   6   7
ATOM      7  N23 ZIN A   1      19.084  -3.887   5.245  0.00  0.00    -0.185 N 
ATOM      8  H68 ZIN A   1      19.937  -4.253   4.965  0.00  0.00     0.184 HD
BRANCH   7   9
ATOM      9  C24 ZIN A   1      17.924  -4.243   4.576  0.00  0.00     0.728 A 
ATOM     10  N41 ZIN A   1      17.388  -5.433   4.800  0.00  0.00    -0.043 NA
ATOM     11  C29 ZIN A   1      16.274  -5.802   4.175  0.00  0.00     0.170 A 
ATOM     12  C27 ZIN A   1      15.680  -4.918   3.270  0.00  0.00     0.098 A 
ATOM     13  C26 ZIN A   1      16.275  -3.689   3.063  0.00  0.00     0.164 A 
ATOM     14 Cl28 ZIN A   1      14.228  -5.356   2.425  0.00  0.00    -0.079 Cl
ATOM     15  N25 ZIN A   1      17.383  -3.385   3.724  0.00  0.00    -0.073 NA
BRANCH  11  16
ATOM     16  N30 ZIN A   1      15.712  -7.047   4.416  0.00  0.00    -0.338 N 
ATOM     17  H70 ZIN A   1      15.871  -7.778   3.798  0.00  0.00     0.167 HD
BRANCH  16  18
ATOM     18  C31 ZIN A   1      14.920  -7.248   5.549  0.00  0.00     0.047 A 
ATOM     19  C36 ZIN A   1      15.210  -8.285   6.427  0.00  0.00     0.030 A 
ATOM     20  C35 ZIN A   1      14.429  -8.479   7.549  0.00  0.00     0.017 A 
ATOM     21  C34 ZIN A   1      13.349  -7.649   7.792  0.00  0.00     0.001 A 
ATOM     22  C33 ZIN A   1      13.054  -6.619   6.918  0.00  0.00     0.002 A 
ATOM     23  C32 ZIN A   1      13.836  -6.417   5.798  0.00  0.00     0.030 A 
BRANCH  19  24
ATOM     24  P37 ZIN A   1      16.626  -9.375   6.108  0.00  0.00     0.103 P 
ATOM     25  C38 ZIN A   1      16.815 -10.546   7.493  0.00  0.00     0.091 C 
ATOM     26  C39 ZIN A   1      16.345 -10.301   4.563  0.00  0.00     0.091 C 
ATOM     27  O40 ZIN A   1      17.855  -8.562   5.978  0.00  0.00    -0.318 OA
ENDBRANCH  19  24
ENDBRANCH  16  18
ENDBRANCH  11  16
ENDBRANCH   7   9
ENDBRANCH   6   7
BRANCH   1  28
ATOM     28  O2  ZIN A   1      19.700  -1.200   4.919  0.00  0.00    -0.354 OA
ATOM     29  C1  ZIN A   1      18.928  -0.130   4.371  0.00  0.00     0.210 C 
ENDBRANCH   1  28
BRANCH   3  30
ATOM     30  N6  ZIN A   1      18.848  -0.363   9.560  0.00  0.00    -0.283 NA
ATOM     31  C19 ZIN A   1      19.692  -0.830  10.667  0.00  0.00     0.098 C 
ATOM     32  C18 ZIN A   1      19.488   0.078  11.882  0.00  0.00     0.048 C 
ATOM     33  C9  ZIN A   1      19.854   1.516  11.507  0.00  0.00     0.190 C 
ATOM     34  C8  ZIN A   1      18.996   1.961  10.321  0.00  0.00     0.048 C 
ATOM     35  C7  ZIN A   1      19.214   0.998   9.150  0.00  0.00     0.098 C 
BRANCH  33  36
ATOM     36  N10 ZIN A   1      19.606   2.401  12.653  0.00  0.00    -0.063 N 
ATOM     37  H11 ZIN A   1      20.417   2.406  13.255  0.00  0.00     0.280 HD
ATOM     38  C17 ZIN A   1      19.345   3.763  12.172  0.00  0.00     0.265 C 
ATOM     39  C16 ZIN A   1      19.106   4.689  13.366  0.00  0.00     0.299 C 
ATOM     40  N14 ZIN A   1      17.958   4.198  14.140  0.00  0.00     0.087 N 
ATOM     41  C13 ZIN A   1      18.194   2.824  14.609  0.00  0.00     0.299 C 
ATOM     42  C15 ZIN A   1      17.660   5.093  15.266  0.00  0.00     0.310 C 
ATOM     43  C12 ZIN A   1      18.442   1.914  13.404  0.00  0.00     0.265 C 
ENDBRANCH  33  36
ENDBRANCH   3  30
TORSDOF 8
ENDMDL
MODEL 6
REMARK VINA RESULT:      -8.8      3.222      4.904
REMARK  8 active torsions:
REMARK  status: ('A' for Active; 'I' for Inactive)
REMARK    1  A    between atoms: O2_2  and  C3_3 
REMARK    2  A    between atoms: C5_5  and  N6_6 
REMARK    3  A    between atoms: C9_9  and  N10_10 
REMARK    4  A    between atoms: C22_22  and  N23_23 
REMARK    5  A    between atoms: N23_23  and  C24_24 
REMARK    6  A    between atoms: C29_29  and  N30_30 
REMARK    7  A    between atoms: N30_30  and  C31_31 
REMARK    8  A    between atoms: C36_36  and  P37_37 
ROOT
ATOM      1  C3  ZIN A   1      18.917  -1.789  10.304  0.00  0.00     0.097 A 
ATOM      2  C4  ZIN A   1      18.282  -2.702   9.478  0.00  0.00     0.062 A 
ATOM      3  C5  ZIN A   1      18.314  -4.055   9.786  0.00  0.00     0.013 A 
ATOM      4  C20 ZIN A   1      18.983  -4.494  10.922  0.00  0.00     0.026 A 
ATOM      5  C21 ZIN A   1      19.616  -3.584  11.747  0.00  0.00     0.034 A 
ATOM      6  C22 ZIN A   1      19.592  -2.233  11.440  0.00  0.00     0.082 A 
ENDROOT
BRANCH   6   7
ATOM      7  N23 ZIN A   1      20.236  -1.310  12.278  0.00  0.00    -0.185 N 
ATOM      8  H68 ZIN A   1      21.128  -0.997  12.060  0.00  0.00     0.184 HD
BRANCH   7   9
ATOM      9  C24 ZIN A   1      19.598  -0.845  13.416  0.00  0.00     0.728 A 
ATOM     10  N41 ZIN A   1      19.014   0.344  13.389  0.00  0.00    -0.043 NA
ATOM     11  C29 ZIN A   1      18.390   0.817  14.463  0.00  0.00     0.170 A 
ATOM     12  C27 ZIN A   1      18.367   0.045  15.628  0.00  0.00     0.098 A 
ATOM     13  C26 ZIN A   1      18.993  -1.187  15.614  0.00  0.00     0.164 A 
ATOM     14 Cl28 ZIN A   1      17.571   0.621  17.059  0.00  0.00    -0.079 Cl
ATOM     15  N25 ZIN A   1      19.591  -1.598  14.506  0.00  0.00    -0.073 NA
BRANCH  11  16
ATOM     16  N30 ZIN A   1      17.775   2.059  14.429  0.00  0.00    -0.338 N 
ATOM     17  H70 ZIN A   1      16.817   2.122  14.294  0.00  0.00     0.167 HD
BRANCH  16  18
ATOM     18  C31 ZIN A   1      18.536   3.220  14.592  0.00  0.00     0.047 A 
ATOM     19  C36 ZIN A   1      18.796   4.041  13.502  0.00  0.00     0.030 A 
ATOM     20  C35 ZIN A   1      19.544   5.190  13.666  0.00  0.00     0.017 A 
ATOM     21  C34 ZIN A   1      20.043   5.518  14.914  0.00  0.00     0.001 A 
ATOM     22  C33 ZIN A   1      19.790   4.701  16.000  0.00  0.00     0.002 A 
ATOM     23  C32 ZIN A   1      19.038   3.554  15.843  0.00  0.00     0.030 A 
BRANCH  19  24
ATOM     24  P37 ZIN A   1      18.142   3.610  11.865  0.00  0.00     0.103 P 
ATOM     25  C38 ZIN A   1      17.509   5.113  11.049  0.00  0.00     0.091 C 
ATOM     26  C39 ZIN A   1      19.470   2.881  10.851  0.00  0.00     0.091 C 
ATOM     27  O40 ZIN A   1      17.042   2.631  12.016  0.00  0.00    -0.318 OA
ENDBRANCH  19  24
ENDBRANCH  16  18
ENDBRANCH  11  16
ENDBRANCH   7   9
ENDBRANCH   6   7
BRANCH   1  28
ATOM     28  O2  ZIN A   1      18.887  -0.463  10.004  0.00  0.00    -0.354 OA
ATOM     29  C1  ZIN A   1      18.955  -0.110   8.621  0.00  0.00     0.210 C 
ENDBRANCH   1  28
BRANCH   3  30
ATOM     30  N6  ZIN A   1      17.673  -4.978   8.952  0.00  0.00    -0.283 NA
ATOM     31  C19 ZIN A   1      18.444  -6.223   8.854  0.00  0.00     0.098 C 
ATOM     32  C18 ZIN A   1      17.792  -7.149   7.825  0.00  0.00     0.048 C 
ATOM     33  C9  ZIN A   1      16.354  -7.450   8.255  0.00  0.00     0.190 C 
ATOM     34  C8  ZIN A   1      15.585  -6.134   8.398  0.00  0.00     0.048 C 
ATOM     35  C7  ZIN A   1      16.302  -5.237   9.410  0.00  0.00     0.098 C 
BRANCH  33  36
ATOM     36  N10 ZIN A   1      15.704  -8.291   7.242  0.00  0.00    -0.063 N 
ATOM     37  H11 ZIN A   1      16.028  -9.243   7.338  0.00  0.00     0.280 HD
ATOM     38  C17 ZIN A   1      14.248  -8.250   7.432  0.00  0.00     0.265 C 
ATOM     39  C16 ZIN A   1      13.572  -9.142   6.389  0.00  0.00     0.299 C 
ATOM     40  N14 ZIN A   1      13.921  -8.668   5.043  0.00  0.00     0.087 N 
ATOM     41  C13 ZIN A   1      15.377  -8.680   4.846  0.00  0.00     0.299 C 
ATOM     42  C15 ZIN A   1      13.244  -9.465   4.011  0.00  0.00     0.310 C 
ATOM     43  C12 ZIN A   1      16.039  -7.792   5.903  0.00  0.00     0.265 C 
ENDBRANCH  33  36
ENDBRANCH   3  30
TORSDOF 8
ENDMDL
MODEL 7
REMARK VINA RESULT:      -8.7      1.646      2.198
REMARK  8 active torsions:
REMARK  status: ('A' for Active; 'I' for Inactive)
REMARK    1  A    between atoms: O2_2  and  C3_3 
REMARK    2  A    between atoms: C5_5  and  N6_6 
REMARK    3  A    between atoms: C9_9  and  N10_10 
REMARK    4  A    between atoms: C22_22  and  N23_23 
REMARK    5  A    between atoms: N23_23  and  C24_24 
REMARK    6  A    between atoms: C29_29  and  N30_30 
REMARK    7  A    between atoms: N30_30  and  C31_31 
REMARK    8  A    between atoms: C36_36  and  P37_37 
ROOT
ATOM      1  C3  ZIN A   1      19.568   0.554  10.430  0.00  0.00     0.097 A 
ATOM      2  C4  ZIN A   1      19.238  -0.507   9.604  0.00  0.00     0.062 A 
ATOM      3  C5  ZIN A   1      18.924  -0.277   8.271  0.00  0.00     0.013 A 
ATOM      4  C20 ZIN A   1      18.942   1.018   7.767  0.00  0.00     0.026 A 
ATOM      5  C21 ZIN A   1      19.272   2.077   8.591  0.00  0.00     0.034 A 
ATOM      6  C22 ZIN A   1      19.580   1.852   9.924  0.00  0.00     0.082 A 
ENDROOT
BRANCH   6   7
ATOM      7  N23 ZIN A   1      19.914   2.928  10.759  0.00  0.00    -0.185 N 
ATOM      8  H68 ZIN A   1      20.842   3.190  10.865  0.00  0.00     0.184 HD
BRANCH   7   9
ATOM      9  C24 ZIN A   1      18.919   3.618  11.431  0.00  0.00     0.728 A 
ATOM     10  N41 ZIN A   1      19.162   4.079  12.649  0.00  0.00    -0.043 NA
ATOM     11  C29 ZIN A   1      18.229   4.748  13.318  0.00  0.00     0.170 A 
ATOM     12  C27 ZIN A   1      16.981   4.952  12.722  0.00  0.00     0.098 A 
ATOM     13  C26 ZIN A   1      16.769   4.450  11.453  0.00  0.00     0.164 A 
ATOM     14 Cl28 ZIN A   1      15.728   5.814  13.559  0.00  0.00    -0.079 Cl
ATOM     15  N25 ZIN A   1      17.746   3.797  10.842  0.00  0.00    -0.073 NA
BRANCH  11  16
ATOM     16  N30 ZIN A   1      18.489   5.234  14.591  0.00  0.00    -0.338 N 
ATOM     17  H70 ZIN A   1      18.627   6.184  14.728  0.00  0.00     0.167 HD
BRANCH  16  18
ATOM     18  C31 ZIN A   1      18.549   4.355  15.676  0.00  0.00     0.047 A 
ATOM     19  C36 ZIN A   1      18.196   4.793  16.947  0.00  0.00     0.030 A 
ATOM     20  C35 ZIN A   1      18.252   3.921  18.016  0.00  0.00     0.017 A 
ATOM     21  C34 ZIN A   1      18.669   2.616  17.824  0.00  0.00     0.001 A 
ATOM     22  C33 ZIN A   1      19.025   2.179  16.562  0.00  0.00     0.002 A 
ATOM     23  C32 ZIN A   1      18.966   3.044  15.488  0.00  0.00     0.030 A 
BRANCH  19  24
ATOM     24  P37 ZIN A   1      17.649   6.505  17.199  0.00  0.00     0.103 P 
ATOM     25  C38 ZIN A   1      15.911   6.670  16.674  0.00  0.00     0.091 C 
ATOM     26  C39 ZIN A   1      17.795   6.937  18.963  0.00  0.00     0.091 C 
ATOM     27  O40 ZIN A   1      18.495   7.415  16.396  0.00  0.00    -0.318 OA
ENDBRANCH  19  24
ENDBRANCH  16  18
ENDBRANCH  11  16
ENDBRANCH   7   9
ENDBRANCH   6   7
BRANCH   1  28
ATOM     28  O2  ZIN A   1      19.876   0.330  11.736  0.00  0.00    -0.354 OA
ATOM     29  C1  ZIN A   1      19.134  -0.688  12.411  0.00  0.00     0.210 C 
ENDBRANCH   1  28
BRANCH   3  30
ATOM     30  N6  ZIN A   1      18.590  -1.348   7.435  0.00  0.00    -0.283 NA
ATOM     31  C19 ZIN A   1      18.912  -1.044   6.035  0.00  0.00     0.098 C 
ATOM     32  C18 ZIN A   1      18.402  -2.173   5.137  0.00  0.00     0.048 C 
ATOM     33  C9  ZIN A   1      19.060  -3.489   5.556  0.00  0.00     0.190 C 
ATOM     34  C8  ZIN A   1      18.750  -3.759   7.031  0.00  0.00     0.048 C 
ATOM     35  C7  ZIN A   1      19.250  -2.584   7.876  0.00  0.00     0.098 C 
BRANCH  33  36
ATOM     36  N10 ZIN A   1      18.531  -4.586   4.735  0.00  0.00    -0.063 N 
ATOM     37  H11 ZIN A   1      19.294  -5.167   4.419  0.00  0.00     0.280 HD
ATOM     38  C17 ZIN A   1      17.601  -5.394   5.536  0.00  0.00     0.265 C 
ATOM     39  C16 ZIN A   1      17.065  -6.548   4.686  0.00  0.00     0.299 C 
ATOM     40  N14 ZIN A   1      16.378  -6.005   3.506  0.00  0.00     0.087 N 
ATOM     41  C13 ZIN A   1      17.290  -5.174   2.707  0.00  0.00     0.299 C 
ATOM     42  C15 ZIN A   1      15.799  -7.082   2.692  0.00  0.00     0.310 C 
ATOM     43  C12 ZIN A   1      17.824  -4.031   3.573  0.00  0.00     0.265 C 
ENDBRANCH  33  36
ENDBRANCH   3  30
TORSDOF 8
ENDMDL
MODEL 8
REMARK VINA RESULT:      -8.6      4.739     11.698
REMARK  8 active torsions:
REMARK  status: ('A' for Active; 'I' for Inactive)
REMARK    1  A    between atoms: O2_2  and  C3_3 
REMARK    2  A    between atoms: C5_5  and  N6_6 
REMARK    3  A    between atoms: C9_9  and  N10_10 
REMARK    4  A    between atoms: C22_22  and  N23_23 
REMARK    5  A    between atoms: N23_23  and  C24_24 
REMARK    6  A    between atoms: C29_29  and  N30_30 
REMARK    7  A    between atoms: N30_30  and  C31_31 
REMARK    8  A    between atoms: C36_36  and  P37_37 
ROOT
ATOM      1  C3  ZIN A   1      19.097  -3.905   8.090  0.00  0.00     0.097 A 
ATOM      2  C4  ZIN A   1      18.972  -3.233   9.294  0.00  0.00     0.062 A 
ATOM      3  C5  ZIN A   1      18.894  -1.847   9.310  0.00  0.00     0.013 A 
ATOM      4  C20 ZIN A   1      18.942  -1.135   8.119  0.00  0.00     0.026 A 
ATOM      5  C21 ZIN A   1      19.067  -1.804   6.916  0.00  0.00     0.034 A 
ATOM      6  C22 ZIN A   1      19.150  -3.187   6.896  0.00  0.00     0.082 A 
ENDROOT
BRANCH   6   7
ATOM      7  N23 ZIN A   1      19.277  -3.866   5.674  0.00  0.00    -0.185 N 
ATOM      8  H68 ZIN A   1      20.154  -4.124   5.352  0.00  0.00     0.184 HD
BRANCH   7   9
ATOM      9  C24 ZIN A   1      18.149  -4.169   4.930  0.00  0.00     0.728 A 
ATOM     10  N41 ZIN A   1      17.584  -5.359   5.068  0.00  0.00    -0.043 NA
ATOM     11  C29 ZIN A   1      16.499  -5.678   4.370  0.00  0.00     0.170 A 
ATOM     12  C27 ZIN A   1      15.966  -4.742   3.479  0.00  0.00     0.098 A 
ATOM     13  C26 ZIN A   1      16.589  -3.515   3.363  0.00  0.00     0.164 A 
ATOM     14 Cl28 ZIN A   1      14.553  -5.114   2.541  0.00  0.00    -0.079 Cl
ATOM     15  N25 ZIN A   1      17.665  -3.262   4.094  0.00  0.00    -0.073 NA
BRANCH  11  16
ATOM     16  N30 ZIN A   1      15.907  -6.923   4.521  0.00  0.00    -0.338 N 
ATOM     17  H70 ZIN A   1      16.102  -7.633   3.891  0.00  0.00     0.167 HD
BRANCH  16  18
ATOM     18  C31 ZIN A   1      15.029  -7.155   5.584  0.00  0.00     0.047 A 
ATOM     19  C36 ZIN A   1      15.159  -8.302   6.358  0.00  0.00     0.030 A 
ATOM     20  C35 ZIN A   1      14.294  -8.526   7.410  0.00  0.00     0.017 A 
ATOM     21  C34 ZIN A   1      13.290  -7.615   7.687  0.00  0.00     0.001 A 
ATOM     22  C33 ZIN A   1      13.155  -6.475   6.916  0.00  0.00     0.002 A 
ATOM     23  C32 ZIN A   1      14.020  -6.243   5.866  0.00  0.00     0.030 A 
BRANCH  19  24
ATOM     24  P37 ZIN A   1      16.476  -9.497   5.994  0.00  0.00     0.103 P 
ATOM     25  C38 ZIN A   1      16.670 -10.634   7.407  0.00  0.00     0.091 C 
ATOM     26  C39 ZIN A   1      16.038 -10.449   4.503  0.00  0.00     0.091 C 
ATOM     27  O40 ZIN A   1      17.747  -8.775   5.763  0.00  0.00    -0.318 OA
ENDBRANCH  19  24
ENDBRANCH  16  18
ENDBRANCH  11  16
ENDBRANCH   7   9
ENDBRANCH   6   7
BRANCH   1  28
ATOM     28  O2  ZIN A   1      19.173  -5.263   8.071  0.00  0.00    -0.354 OA
ATOM     29  C1  ZIN A   1      19.993  -5.879   9.067  0.00  0.00     0.210 C 
ENDBRANCH   1  28
BRANCH   3  30
ATOM     30  N6  ZIN A   1      18.768  -1.168  10.527  0.00  0.00    -0.283 NA
ATOM     31  C19 ZIN A   1      17.357  -0.926  10.852  0.00  0.00     0.098 C 
ATOM     32  C18 ZIN A   1      17.262  -0.058  12.108  0.00  0.00     0.048 C 
ATOM     33  C9  ZIN A   1      17.957  -0.773  13.270  0.00  0.00     0.190 C 
ATOM     34  C8  ZIN A   1      19.412  -1.056  12.888  0.00  0.00     0.048 C 
ATOM     35  C7  ZIN A   1      19.445  -1.895  11.608  0.00  0.00     0.098 C 
BRANCH  33  36
ATOM     36  N10 ZIN A   1      17.920   0.081  14.464  0.00  0.00    -0.063 N 
ATOM     37  H11 ZIN A   1      17.096   0.665  14.435  0.00  0.00     0.280 HD
ATOM     38  C17 ZIN A   1      17.880  -0.760  15.667  0.00  0.00     0.265 C 
ATOM     39  C16 ZIN A   1      17.822   0.129  16.911  0.00  0.00     0.299 C 
ATOM     40  N14 ZIN A   1      19.004   1.001  16.941  0.00  0.00     0.087 N 
ATOM     41  C13 ZIN A   1      19.071   1.833  15.732  0.00  0.00     0.299 C 
ATOM     42  C15 ZIN A   1      19.014   1.833  18.152  0.00  0.00     0.310 C 
ATOM     43  C12 ZIN A   1      19.119   0.929  14.498  0.00  0.00     0.265 C 
ENDBRANCH  33  36
ENDBRANCH   3  30
TORSDOF 8
ENDMDL
MODEL 9
REMARK VINA RESULT:      -8.5      4.962     11.645
REMARK  8 active torsions:
REMARK  status: ('A' for Active; 'I' for Inactive)
REMARK    1  A    between atoms: O2_2  and  C3_3 
REMARK    2  A    between atoms: C5_5  and  N6_6 
REMARK    3  A    between atoms: C9_9  and  N10_10 
REMARK    4  A    between atoms: C22_22  and  N23_23 
REMARK    5  A    between atoms: N23_23  and  C24_24 
REMARK    6  A    between atoms: C29_29  and  N30_30 
REMARK    7  A    between atoms: N30_30  and  C31_31 
REMARK    8  A    between atoms: C36_36  and  P37_37 
ROOT
ATOM      1  C3  ZIN A   1      19.100  -2.210   5.440  0.00  0.00     0.097 A 
ATOM      2  C4  ZIN A   1      19.167  -1.751   6.745  0.00  0.00     0.062 A 
ATOM      3  C5  ZIN A   1      18.711  -2.549   7.785  0.00  0.00     0.013 A 
ATOM      4  C20 ZIN A   1      18.187  -3.808   7.517  0.00  0.00     0.026 A 
ATOM      5  C21 ZIN A   1      18.120  -4.267   6.215  0.00  0.00     0.034 A 
ATOM      6  C22 ZIN A   1      18.569  -3.471   5.173  0.00  0.00     0.082 A 
ENDROOT
BRANCH   6   7
ATOM      7  N23 ZIN A   1      18.501  -3.938   3.852  0.00  0.00    -0.185 N 
ATOM      8  H68 ZIN A   1      19.283  -3.895   3.281  0.00  0.00     0.184 HD
BRANCH   7   9
ATOM      9  C24 ZIN A   1      17.315  -4.461   3.363  0.00  0.00     0.728 A 
ATOM     10  N41 ZIN A   1      16.867  -5.609   3.849  0.00  0.00    -0.043 NA
ATOM     11  C29 ZIN A   1      15.731  -6.135   3.403  0.00  0.00     0.170 A 
ATOM     12  C27 ZIN A   1      15.018  -5.464   2.406  0.00  0.00     0.098 A 
ATOM     13  C26 ZIN A   1      15.524  -4.272   1.924  0.00  0.00     0.164 A 
ATOM     14 Cl28 ZIN A   1      13.532  -6.114   1.786  0.00  0.00    -0.079 Cl
ATOM     15  N25 ZIN A   1      16.660  -3.803   2.418  0.00  0.00    -0.073 NA
BRANCH  11  16
ATOM     16  N30 ZIN A   1      15.262  -7.335   3.918  0.00  0.00    -0.338 N 
ATOM     17  H70 ZIN A   1      15.336  -8.148   3.395  0.00  0.00     0.167 HD
BRANCH  16  18
ATOM     18  C31 ZIN A   1      14.684  -7.371   5.190  0.00  0.00     0.047 A 
ATOM     19  C36 ZIN A   1      15.151  -8.269   6.142  0.00  0.00     0.030 A 
ATOM     20  C35 ZIN A   1      14.583  -8.299   7.399  0.00  0.00     0.017 A 
ATOM     21  C34 ZIN A   1      13.540  -7.444   7.708  0.00  0.00     0.001 A 
ATOM     22  C33 ZIN A   1      13.069  -6.553   6.762  0.00  0.00     0.002 A 
ATOM     23  C32 ZIN A   1      13.637  -6.514   5.505  0.00  0.00     0.030 A 
BRANCH  19  24
ATOM     24  P37 ZIN A   1      16.519  -9.391   5.737  0.00  0.00     0.103 P 
ATOM     25  C38 ZIN A   1      17.000 -10.324   7.228  0.00  0.00     0.091 C 
ATOM     26  C39 ZIN A   1      15.989 -10.552   4.437  0.00  0.00     0.091 C 
ATOM     27  O40 ZIN A   1      17.676  -8.604   5.254  0.00  0.00    -0.318 OA
ENDBRANCH  19  24
ENDBRANCH  16  18
ENDBRANCH  11  16
ENDBRANCH   7   9
ENDBRANCH   6   7
BRANCH   1  28
ATOM     28  O2  ZIN A   1      19.547  -1.429   4.420  0.00  0.00    -0.354 OA
ATOM     29  C1  ZIN A   1      19.070  -0.083   4.378  0.00  0.00     0.210 C 
ENDBRANCH   1  28
BRANCH   3  30
ATOM     30  N6  ZIN A   1      18.778  -2.086   9.104  0.00  0.00    -0.283 NA
ATOM     31  C19 ZIN A   1      19.242  -3.144  10.010  0.00  0.00     0.098 C 
ATOM     32  C18 ZIN A   1      19.165  -2.649  11.456  0.00  0.00     0.048 C 
ATOM     33  C9  ZIN A   1      20.035  -1.400  11.611  0.00  0.00     0.190 C 
ATOM     34  C8  ZIN A   1      19.562  -0.331  10.622  0.00  0.00     0.048 C 
ATOM     35  C7  ZIN A   1      19.628  -0.893   9.200  0.00  0.00     0.098 C 
BRANCH  33  36
ATOM     36  N10 ZIN A   1      19.919  -0.886  12.982  0.00  0.00    -0.063 N 
ATOM     37  H11 ZIN A   1      20.805  -0.991  13.456  0.00  0.00     0.280 HD
ATOM     38  C17 ZIN A   1      19.550   0.535  12.944  0.00  0.00     0.265 C 
ATOM     39  C16 ZIN A   1      19.449   1.074  14.372  0.00  0.00     0.299 C 
ATOM     40  N14 ZIN A   1      18.436   0.308  15.111  0.00  0.00     0.087 N 
ATOM     41  C13 ZIN A   1      18.779  -1.121  15.137  0.00  0.00     0.299 C 
ATOM     42  C15 ZIN A   1      18.268   0.833  16.472  0.00  0.00     0.310 C 
ATOM     43  C12 ZIN A   1      18.887  -1.642  13.702  0.00  0.00     0.265 C 
ENDBRANCH  33  36
ENDBRANCH   3  30
TORSDOF 8
ENDMDL
