MODEL 1
REMARK VINA RESULT:      -3.6      0.000      0.000
REMARK  1 active torsions:
REMARK  status: ('A' for Active; 'I' for Inactive)
REMARK    1  A    between atoms: N1_1  and  C2_2 
ROOT
ATOM      1  C2  <0> d   1      18.974   1.094   7.986  0.00  0.00     0.028 A 
ATOM      2  C3  <0> d   1      18.033   0.309   8.652  0.00  0.00     0.046 A 
ATOM      3  C4  <0> d   1      17.095  -0.381   7.916  0.00  0.00     0.089 A 
ATOM      4  N5  <0> d   1      17.080  -0.308   6.599  0.00  0.00    -0.375 N 
ATOM      5  H6  <0> d   1      16.408  -0.805   6.106  0.00  0.00     0.164 HD
ATOM      6  C7  <0> d   1      17.954   0.423   5.931  0.00  0.00     0.089 A 
ATOM      7  C8  <0> d   1      18.922   1.148   6.593  0.00  0.00     0.046 A 
ENDROOT
BRANCH   1   8
ATOM      8  N1  <0> d   1      19.938   1.807   8.692  0.00  0.00    -0.399 N 
ATOM      9  H9  <0> d   1      20.274   2.647   8.341  0.00  0.00     0.156 HD
ATOM     10  H10 <0> d   1      20.270   1.468   9.538  0.00  0.00     0.156 HD
ENDBRANCH   1   8
TORSDOF 1
ENDMDL
MODEL 2
REMARK VINA RESULT:      -3.6      0.035      1.778
REMARK  1 active torsions:
REMARK  status: ('A' for Active; 'I' for Inactive)
REMARK    1  A    between atoms: N1_1  and  C2_2 
ROOT
ATOM      1  C2  <0> d   1      18.983   1.098   8.020  0.00  0.00     0.028 A 
ATOM      2  C3  <0> d   1      18.931   1.152   6.627  0.00  0.00     0.046 A 
ATOM      3  C4  <0> d   1      17.962   0.429   5.965  0.00  0.00     0.089 A 
ATOM      4  N5  <0> d   1      17.092  -0.306   6.631  0.00  0.00    -0.375 N 
ATOM      5  H6  <0> d   1      16.422  -0.805   6.138  0.00  0.00     0.164 HD
ATOM      6  C7  <0> d   1      17.109  -0.384   7.948  0.00  0.00     0.089 A 
ATOM      7  C8  <0> d   1      18.049   0.305   8.686  0.00  0.00     0.046 A 
ENDROOT
BRANCH   1   8
ATOM      8  N1  <0> d   1      19.945   1.813   8.726  0.00  0.00    -0.399 N 
ATOM      9  H9  <0> d   1      19.688   2.594   9.242  0.00  0.00     0.156 HD
ATOM     10  H10 <0> d   1      20.872   1.528   8.709  0.00  0.00     0.156 HD
ENDBRANCH   1   8
TORSDOF 1
ENDMDL
MODEL 3
REMARK VINA RESULT:      -3.5      7.112      8.285
REMARK  1 active torsions:
REMARK  status: ('A' for Active; 'I' for Inactive)
REMARK    1  A    between atoms: N1_1  and  C2_2 
ROOT
ATOM      1  C2  <0> d   1      19.042  -0.994  14.803  0.00  0.00     0.028 A 
ATOM      2  C3  <0> d   1      18.488   0.171  14.274  0.00  0.00     0.046 A 
ATOM      3  C4  <0> d   1      17.504   0.827  14.982  0.00  0.00     0.089 A 
ATOM      4  N5  <0> d   1      17.087   0.366  16.146  0.00  0.00    -0.375 N 
ATOM      5  H6  <0> d   1      16.393   0.849  16.622  0.00  0.00     0.164 HD
ATOM      6  C7  <0> d   1      17.585  -0.732  16.681  0.00  0.00     0.089 A 
ATOM      7  C8  <0> d   1      18.569  -1.450  16.034  0.00  0.00     0.046 A 
ENDROOT
BRANCH   1   8
ATOM      8  N1  <0> d   1      20.037  -1.686  14.120  0.00  0.00    -0.399 N 
ATOM      9  H9  <0> d   1      20.887  -1.867  14.552  0.00  0.00     0.156 HD
ATOM     10  H10 <0> d   1      19.880  -1.993  13.214  0.00  0.00     0.156 HD
ENDBRANCH   1   8
TORSDOF 1
ENDMDL
MODEL 4
REMARK VINA RESULT:      -3.4      4.811      5.630
REMARK  1 active torsions:
REMARK  status: ('A' for Active; 'I' for Inactive)
REMARK    1  A    between atoms: N1_1  and  C2_2 
ROOT
ATOM      1  C2  <0> d   1      19.636   3.638  11.682  0.00  0.00     0.028 A 
ATOM      2  C3  <0> d   1      19.152   4.449  12.708  0.00  0.00     0.046 A 
ATOM      3  C4  <0> d   1      17.836   4.858  12.675  0.00  0.00     0.089 A 
ATOM      4  N5  <0> d   1      17.038   4.491  11.691  0.00  0.00    -0.375 N 
ATOM      5  H6  <0> d   1      16.116   4.794  11.694  0.00  0.00     0.164 HD
ATOM      6  C7  <0> d   1      17.457   3.724  10.702  0.00  0.00     0.089 A 
ATOM      7  C8  <0> d   1      18.760   3.276  10.658  0.00  0.00     0.046 A 
ENDROOT
BRANCH   1   8
ATOM      8  N1  <0> d   1      20.958   3.204  11.677  0.00  0.00    -0.399 N 
ATOM      9  H9  <0> d   1      21.209   2.408  12.172  0.00  0.00     0.156 HD
ATOM     10  H10 <0> d   1      21.627   3.694  11.175  0.00  0.00     0.156 HD
ENDBRANCH   1   8
TORSDOF 1
ENDMDL
MODEL 5
REMARK VINA RESULT:      -3.4      2.002      2.691
REMARK  1 active torsions:
REMARK  status: ('A' for Active; 'I' for Inactive)
REMARK    1  A    between atoms: N1_1  and  C2_2 
ROOT
ATOM      1  C2  <0> d   1      18.927  -0.324   5.805  0.00  0.00     0.028 A 
ATOM      2  C3  <0> d   1      19.203  -1.645   6.158  0.00  0.00     0.046 A 
ATOM      3  C4  <0> d   1      18.529  -2.210   7.219  0.00  0.00     0.089 A 
ATOM      4  N5  <0> d   1      17.631  -1.519   7.896  0.00  0.00    -0.375 N 
ATOM      5  H6  <0> d   1      17.172  -1.943   8.638  0.00  0.00     0.164 HD
ATOM      6  C7  <0> d   1      17.341  -0.268   7.593  0.00  0.00     0.089 A 
ATOM      7  C8  <0> d   1      17.975   0.373   6.549  0.00  0.00     0.046 A 
ENDROOT
BRANCH   1   8
ATOM      8  N1  <0> d   1      19.586   0.284   4.741  0.00  0.00    -0.399 N 
ATOM      9  H9  <0> d   1      19.357   0.046   3.828  0.00  0.00     0.156 HD
ATOM     10  H10 <0> d   1      20.271   0.949   4.911  0.00  0.00     0.156 HD
ENDBRANCH   1   8
TORSDOF 1
ENDMDL
MODEL 6
REMARK VINA RESULT:      -3.4      6.673      7.343
REMARK  1 active torsions:
REMARK  status: ('A' for Active; 'I' for Inactive)
REMARK    1  A    between atoms: N1_1  and  C2_2 
ROOT
ATOM      1  C2  <0> d   1      19.835   0.154  13.896  0.00  0.00     0.028 A 
ATOM      2  C3  <0> d   1      19.506  -1.117  14.367  0.00  0.00     0.046 A 
ATOM      3  C4  <0> d   1      18.430  -1.259  15.216  0.00  0.00     0.089 A 
ATOM      4  N5  <0> d   1      17.713  -0.214  15.582  0.00  0.00    -0.375 N 
ATOM      5  H6  <0> d   1      16.961  -0.344  16.180  0.00  0.00     0.164 HD
ATOM      6  C7  <0> d   1      17.991   1.005  15.158  0.00  0.00     0.089 A 
ATOM      7  C8  <0> d   1      19.055   1.234  14.311  0.00  0.00     0.046 A 
ENDROOT
BRANCH   1   8
ATOM      8  N1  <0> d   1      20.914   0.341  13.039  0.00  0.00    -0.399 N 
ATOM      9  H9  <0> d   1      20.781   0.311  12.077  0.00  0.00     0.156 HD
ATOM     10  H10 <0> d   1      21.798   0.507  13.400  0.00  0.00     0.156 HD
ENDBRANCH   1   8
TORSDOF 1
ENDMDL
MODEL 7
REMARK VINA RESULT:      -3.3      3.893      5.166
REMARK  1 active torsions:
REMARK  status: ('A' for Active; 'I' for Inactive)
REMARK    1  A    between atoms: N1_1  and  C2_2 
ROOT
ATOM      1  C2  <0> d   1      18.016   4.238  10.599  0.00  0.00     0.028 A 
ATOM      2  C3  <0> d   1      18.230   3.165   9.735  0.00  0.00     0.046 A 
ATOM      3  C4  <0> d   1      19.247   2.276  10.010  0.00  0.00     0.089 A 
ATOM      4  N5  <0> d   1      20.011   2.431  11.074  0.00  0.00    -0.375 N 
ATOM      5  H6  <0> d   1      20.719   1.789  11.242  0.00  0.00     0.164 HD
ATOM      6  C7  <0> d   1      19.841   3.432  11.916  0.00  0.00     0.089 A 
ATOM      7  C8  <0> d   1      18.849   4.368  11.710  0.00  0.00     0.046 A 
ENDROOT
BRANCH   1   8
ATOM      8  N1  <0> d   1      17.000   5.158  10.357  0.00  0.00    -0.399 N 
ATOM      9  H9  <0> d   1      16.517   5.554  11.100  0.00  0.00     0.156 HD
ATOM     10  H10 <0> d   1      16.778   5.408   9.446  0.00  0.00     0.156 HD
ENDBRANCH   1   8
TORSDOF 1
ENDMDL
MODEL 8
REMARK VINA RESULT:      -3.3      5.063      5.832
REMARK  1 active torsions:
REMARK  status: ('A' for Active; 'I' for Inactive)
REMARK    1  A    between atoms: N1_1  and  C2_2 
ROOT
ATOM      1  C2  <0> d   1      20.297   0.146  12.541  0.00  0.00     0.028 A 
ATOM      2  C3  <0> d   1      19.564  -0.706  11.715  0.00  0.00     0.046 A 
ATOM      3  C4  <0> d   1      18.332  -1.155  12.140  0.00  0.00     0.089 A 
ATOM      4  N5  <0> d   1      17.844  -0.787  13.309  0.00  0.00    -0.375 N 
ATOM      5  H6  <0> d   1      16.974  -1.118  13.582  0.00  0.00     0.164 HD
ATOM      6  C7  <0> d   1      18.506   0.018  14.119  0.00  0.00     0.089 A 
ATOM      7  C8  <0> d   1      19.748   0.506  13.772  0.00  0.00     0.046 A 
ENDROOT
BRANCH   1   8
ATOM      8  N1  <0> d   1      21.545   0.620  12.150  0.00  0.00    -0.399 N 
ATOM      9  H9  <0> d   1      21.853   0.484  11.239  0.00  0.00     0.156 HD
ATOM     10  H10 <0> d   1      22.106   1.092  12.785  0.00  0.00     0.156 HD
ENDBRANCH   1   8
TORSDOF 1
ENDMDL
MODEL 9
REMARK VINA RESULT:      -3.3      2.619      3.209
REMARK  1 active torsions:
REMARK  status: ('A' for Active; 'I' for Inactive)
REMARK    1  A    between atoms: N1_1  and  C2_2 
ROOT
ATOM      1  C2  <0> d   1      20.256  -0.220  10.499  0.00  0.00     0.028 A 
ATOM      2  C3  <0> d   1      19.333   0.364  11.366  0.00  0.00     0.046 A 
ATOM      3  C4  <0> d   1      18.095   0.728  10.882  0.00  0.00     0.089 A 
ATOM      4  N5  <0> d   1      17.779   0.529   9.617  0.00  0.00    -0.375 N 
ATOM      5  H6  <0> d   1      16.900   0.796   9.304  0.00  0.00     0.164 HD
ATOM      6  C7  <0> d   1      18.623  -0.020   8.764  0.00  0.00     0.089 A 
ATOM      7  C8  <0> d   1      19.884  -0.407   9.167  0.00  0.00     0.046 A 
ENDROOT
BRANCH   1   8
ATOM      8  N1  <0> d   1      21.516  -0.600  10.947  0.00  0.00    -0.399 N 
ATOM      9  H9  <0> d   1      22.179  -0.925  10.316  0.00  0.00     0.156 HD
ATOM     10  H10 <0> d   1      21.736  -0.536  11.890  0.00  0.00     0.156 HD
ENDBRANCH   1   8
TORSDOF 1
ENDMDL
