MODEL 1
REMARK VINA RESULT:      -8.2      0.000      0.000
REMARK  3 active torsions:
REMARK  status: ('A' for Active; 'I' for Inactive)
REMARK    1  A    between atoms: C5_5  and  S6_6 
REMARK    2  A    between atoms: S6_6  and  N9_9 
REMARK       I    between atoms: N9_9  and  C10_10 
REMARK       I    between atoms: C10_10  and  N12_12 
REMARK    3  A    between atoms: N12_12  and  N13_13 
ROOT
ATOM      1  N9  ZIN A   1      18.242   2.383  12.425  0.00  0.00    -0.101 NA
ATOM      2  C10 ZIN A   1      19.427   1.835  12.703  0.00  0.00     0.367 C 
ATOM      3  O11 ZIN A   1      20.346   1.937  11.911  0.00  0.00    -0.243 OA
ATOM      4  N12 ZIN A   1      19.605   1.168  13.861  0.00  0.00    -0.269 N 
ATOM      5  H27 ZIN A   1      20.466   0.769  14.063  0.00  0.00     0.185 HD
ENDROOT
BRANCH   1   6
ATOM      6  S6  ZIN A   1      18.045   3.122  11.142  0.00  0.00     0.287 S 
ATOM      7  O7  ZIN A   1      19.074   4.165  11.014  0.00  0.00    -0.198 OA
ATOM      8  O8  ZIN A   1      16.711   3.745  11.136  0.00  0.00    -0.198 OA
BRANCH   6   9
ATOM      9  C5  ZIN A   1      18.175   1.998   9.791  0.00  0.00     0.081 A 
ATOM     10  C4  ZIN A   1      19.005   2.292   8.726  0.00  0.00     0.026 A 
ATOM     11  C3  ZIN A   1      19.108   1.411   7.666  0.00  0.00     0.008 A 
ATOM     12  C2  ZIN A   1      18.381   0.235   7.672  0.00  0.00    -0.062 A 
ATOM     13  C1  ZIN A   1      18.493  -0.726   6.517  0.00  0.00     0.048 C 
ATOM     14  C21 ZIN A   1      17.547  -0.056   8.735  0.00  0.00     0.008 A 
ATOM     15  C20 ZIN A   1      17.447   0.823   9.797  0.00  0.00     0.026 A 
ENDBRANCH   6   9
ENDBRANCH   1   6
BRANCH   4  16
ATOM     16  N13 ZIN A   1      18.574   1.053  14.749  0.00  0.00    -0.227 NA
ATOM     17  C19 ZIN A   1      19.026   1.344  16.128  0.00  0.00     0.113 C 
ATOM     18  C18 ZIN A   1      18.006   0.970  17.169  0.00  0.00     0.016 C 
ATOM     19  C17 ZIN A   1      18.315  -0.457  17.667  0.00  0.00     0.001 C 
ATOM     20  C16 ZIN A   1      17.854  -1.478  16.732  0.00  0.00     0.001 C 
ATOM     21  C15 ZIN A   1      18.538  -1.358  15.353  0.00  0.00     0.016 C 
ATOM     22  C14 ZIN A   1      17.878  -0.243  14.589  0.00  0.00     0.113 C 
ENDBRANCH   4  16
TORSDOF 3
ENDMDL
MODEL 2
REMARK VINA RESULT:      -8.0      1.176      1.921
REMARK  3 active torsions:
REMARK  status: ('A' for Active; 'I' for Inactive)
REMARK    1  A    between atoms: C5_5  and  S6_6 
REMARK    2  A    between atoms: S6_6  and  N9_9 
REMARK       I    between atoms: N9_9  and  C10_10 
REMARK       I    between atoms: C10_10  and  N12_12 
REMARK    3  A    between atoms: N12_12  and  N13_13 
ROOT
ATOM      1  N9  ZIN A   1      18.099   2.934  12.866  0.00  0.00    -0.101 NA
ATOM      2  C10 ZIN A   1      17.709   3.570  13.972  0.00  0.00     0.367 C 
ATOM      3  O11 ZIN A   1      17.204   4.676  13.893  0.00  0.00    -0.243 OA
ATOM      4  N12 ZIN A   1      17.875   2.990  15.178  0.00  0.00    -0.269 N 
ATOM      5  H27 ZIN A   1      17.592   3.452  15.982  0.00  0.00     0.185 HD
ENDROOT
BRANCH   1   6
ATOM      6  S6  ZIN A   1      17.915   3.578  11.531  0.00  0.00     0.287 S 
ATOM      7  O7  ZIN A   1      18.903   4.655  11.366  0.00  0.00    -0.198 OA
ATOM      8  O8  ZIN A   1      16.557   4.138  11.439  0.00  0.00    -0.198 OA
BRANCH   6   9
ATOM      9  C5  ZIN A   1      18.140   2.374  10.264  0.00  0.00     0.081 A 
ATOM     10  C4  ZIN A   1      18.952   2.654   9.182  0.00  0.00     0.026 A 
ATOM     11  C3  ZIN A   1      19.130   1.711   8.188  0.00  0.00     0.008 A 
ATOM     12  C2  ZIN A   1      18.496   0.485   8.277  0.00  0.00    -0.062 A 
ATOM     13  C1  ZIN A   1      18.689  -0.544   7.193  0.00  0.00     0.048 C 
ATOM     14  C21 ZIN A   1      17.679   0.208   9.357  0.00  0.00     0.008 A 
ATOM     15  C20 ZIN A   1      17.504   1.150  10.352  0.00  0.00     0.026 A 
ENDBRANCH   6   9
ENDBRANCH   1   6
BRANCH   4  16
ATOM     16  N13 ZIN A   1      18.441   1.751  15.267  0.00  0.00    -0.227 NA
ATOM     17  C19 ZIN A   1      17.442   0.690  15.010  0.00  0.00     0.113 C 
ATOM     18  C18 ZIN A   1      17.944  -0.684  15.360  0.00  0.00     0.016 C 
ATOM     19  C17 ZIN A   1      17.510  -1.011  16.804  0.00  0.00     0.001 C 
ATOM     20  C16 ZIN A   1      18.358  -0.360  17.796  0.00  0.00     0.001 C 
ATOM     21  C15 ZIN A   1      18.313   1.179  17.683  0.00  0.00     0.016 C 
ATOM     22  C14 ZIN A   1      19.189   1.599  16.535  0.00  0.00     0.113 C 
ENDBRANCH   4  16
TORSDOF 3
ENDMDL
MODEL 3
REMARK VINA RESULT:      -7.7      2.141      7.141
REMARK  3 active torsions:
REMARK  status: ('A' for Active; 'I' for Inactive)
REMARK    1  A    between atoms: C5_5  and  S6_6 
REMARK    2  A    between atoms: S6_6  and  N9_9 
REMARK       I    between atoms: N9_9  and  C10_10 
REMARK       I    between atoms: C10_10  and  N12_12 
REMARK    3  A    between atoms: N12_12  and  N13_13 
ROOT
ATOM      1  N9  ZIN A   1      18.472   1.309  10.262  0.00  0.00    -0.101 NA
ATOM      2  C10 ZIN A   1      17.475   0.469   9.976  0.00  0.00     0.367 C 
ATOM      3  O11 ZIN A   1      16.537   0.353  10.743  0.00  0.00    -0.243 OA
ATOM      4  N12 ZIN A   1      17.508  -0.252   8.837  0.00  0.00    -0.269 N 
ATOM      5  H27 ZIN A   1      16.784  -0.863   8.629  0.00  0.00     0.185 HD
ENDROOT
BRANCH   1   6
ATOM      6  S6  ZIN A   1      18.436   2.107  11.524  0.00  0.00     0.287 S 
ATOM      7  O7  ZIN A   1      17.177   2.866  11.588  0.00  0.00    -0.198 OA
ATOM      8  O8  ZIN A   1      19.574   3.040  11.546  0.00  0.00    -0.198 OA
BRANCH   6   9
ATOM      9  C5  ZIN A   1      18.539   1.022  12.908  0.00  0.00     0.081 A 
ATOM     10  C4  ZIN A   1      19.526   0.056  12.957  0.00  0.00     0.026 A 
ATOM     11  C3  ZIN A   1      19.608  -0.795  14.043  0.00  0.00     0.008 A 
ATOM     12  C2  ZIN A   1      18.702  -0.680  15.080  0.00  0.00    -0.062 A 
ATOM     13  C1  ZIN A   1      18.791  -1.609  16.264  0.00  0.00     0.048 C 
ATOM     14  C21 ZIN A   1      17.711   0.282  15.028  0.00  0.00     0.008 A 
ATOM     15  C20 ZIN A   1      17.631   1.135  13.944  0.00  0.00     0.026 A 
ENDBRANCH   6   9
ENDBRANCH   1   6
BRANCH   4  16
ATOM     16  N13 ZIN A   1      18.559  -0.122   7.976  0.00  0.00    -0.227 NA
ATOM     17  C19 ZIN A   1      18.157   0.606   6.752  0.00  0.00     0.113 C 
ATOM     18  C18 ZIN A   1      19.195   0.539   5.664  0.00  0.00     0.016 C 
ATOM     19  C17 ZIN A   1      18.855  -0.645   4.736  0.00  0.00     0.001 C 
ATOM     20  C16 ZIN A   1      19.255  -1.926   5.308  0.00  0.00     0.001 C 
ATOM     21  C15 ZIN A   1      18.537  -2.219   6.642  0.00  0.00     0.016 C 
ATOM     22  C14 ZIN A   1      19.209  -1.429   7.730  0.00  0.00     0.113 C 
ENDBRANCH   4  16
TORSDOF 3
ENDMDL
MODEL 4
REMARK VINA RESULT:      -7.6      2.731      3.686
REMARK  3 active torsions:
REMARK  status: ('A' for Active; 'I' for Inactive)
REMARK    1  A    between atoms: C5_5  and  S6_6 
REMARK    2  A    between atoms: S6_6  and  N9_9 
REMARK       I    between atoms: N9_9  and  C10_10 
REMARK       I    between atoms: C10_10  and  N12_12 
REMARK    3  A    between atoms: N12_12  and  N13_13 
ROOT
ATOM      1  N9  ZIN A   1      18.448  -1.620  12.583  0.00  0.00    -0.101 NA
ATOM      2  C10 ZIN A   1      17.520  -0.703  12.862  0.00  0.00     0.367 C 
ATOM      3  O11 ZIN A   1      16.605  -0.506  12.084  0.00  0.00    -0.243 OA
ATOM      4  N12 ZIN A   1      17.597   0.008  14.005  0.00  0.00    -0.269 N 
ATOM      5  H27 ZIN A   1      16.923   0.676  14.207  0.00  0.00     0.185 HD
ENDROOT
BRANCH   1   6
ATOM      6  S6  ZIN A   1      18.362  -2.407  11.317  0.00  0.00     0.287 S 
ATOM      7  O7  ZIN A   1      17.061  -3.089  11.251  0.00  0.00    -0.198 OA
ATOM      8  O8  ZIN A   1      19.443  -3.407  11.287  0.00  0.00    -0.198 OA
BRANCH   6   9
ATOM      9  C5  ZIN A   1      18.528  -1.322   9.938  0.00  0.00     0.081 A 
ATOM     10  C4  ZIN A   1      17.634  -1.399   8.888  0.00  0.00     0.026 A 
ATOM     11  C3  ZIN A   1      17.762  -0.547   7.807  0.00  0.00     0.008 A 
ATOM     12  C2  ZIN A   1      18.785   0.382   7.777  0.00  0.00    -0.062 A 
ATOM     13  C1  ZIN A   1      18.926   1.311   6.598  0.00  0.00     0.048 C 
ATOM     14  C21 ZIN A   1      19.683   0.455   8.826  0.00  0.00     0.008 A 
ATOM     15  C20 ZIN A   1      19.552  -0.394   9.908  0.00  0.00     0.026 A 
ENDBRANCH   6   9
ENDBRANCH   1   6
BRANCH   4  16
ATOM     16  N13 ZIN A   1      18.624  -0.211  14.877  0.00  0.00    -0.227 NA
ATOM     17  C19 ZIN A   1      18.190  -1.066  16.004  0.00  0.00     0.113 C 
ATOM     18  C18 ZIN A   1      19.195  -1.114  17.123  0.00  0.00     0.016 C 
ATOM     19  C17 ZIN A   1      18.823  -0.035  18.162  0.00  0.00     0.001 C 
ATOM     20  C16 ZIN A   1      19.234   1.300  17.741  0.00  0.00     0.001 C 
ATOM     21  C15 ZIN A   1      18.553   1.733  16.426  0.00  0.00     0.016 C 
ATOM     22  C14 ZIN A   1      19.260   1.063  15.280  0.00  0.00     0.113 C 
ENDBRANCH   4  16
TORSDOF 3
ENDMDL
MODEL 5
REMARK VINA RESULT:      -7.4      3.489      7.839
REMARK  3 active torsions:
REMARK  status: ('A' for Active; 'I' for Inactive)
REMARK    1  A    between atoms: C5_5  and  S6_6 
REMARK    2  A    between atoms: S6_6  and  N9_9 
REMARK       I    between atoms: N9_9  and  C10_10 
REMARK       I    between atoms: C10_10  and  N12_12 
REMARK    3  A    between atoms: N12_12  and  N13_13 
ROOT
ATOM      1  N9  ZIN A   1      18.452  -2.187  10.237  0.00  0.00    -0.101 NA
ATOM      2  C10 ZIN A   1      19.543  -1.461   9.984  0.00  0.00     0.367 C 
ATOM      3  O11 ZIN A   1      20.374  -1.287  10.856  0.00  0.00    -0.243 OA
ATOM      4  N12 ZIN A   1      19.724  -0.920   8.763  0.00  0.00    -0.269 N 
ATOM      5  H27 ZIN A   1      20.516  -0.392   8.579  0.00  0.00     0.185 HD
ENDROOT
BRANCH   1   6
ATOM      6  S6  ZIN A   1      18.252  -2.786  11.590  0.00  0.00     0.287 S 
ATOM      7  O7  ZIN A   1      19.328  -3.750  11.863  0.00  0.00    -0.198 OA
ATOM      8  O8  ZIN A   1      16.952  -3.476  11.633  0.00  0.00    -0.198 OA
BRANCH   6   9
ATOM      9  C5  ZIN A   1      18.281  -1.512  12.807  0.00  0.00     0.081 A 
ATOM     10  C4  ZIN A   1      17.459  -0.409  12.672  0.00  0.00     0.026 A 
ATOM     11  C3  ZIN A   1      17.480   0.590  13.626  0.00  0.00     0.008 A 
ATOM     12  C2  ZIN A   1      18.324   0.487  14.716  0.00  0.00    -0.062 A 
ATOM     13  C1  ZIN A   1      18.348   1.577  15.757  0.00  0.00     0.048 C 
ATOM     14  C21 ZIN A   1      19.151  -0.614  14.848  0.00  0.00     0.008 A 
ATOM     15  C20 ZIN A   1      19.126  -1.615  13.895  0.00  0.00     0.026 A 
ENDBRANCH   6   9
ENDBRANCH   1   6
BRANCH   4  16
ATOM     16  N13 ZIN A   1      18.792  -1.115   7.784  0.00  0.00    -0.227 NA
ATOM     17  C19 ZIN A   1      19.284  -2.067   6.764  0.00  0.00     0.113 C 
ATOM     18  C18 ZIN A   1      18.416  -2.107   5.535  0.00  0.00     0.016 C 
ATOM     19  C17 ZIN A   1      18.993  -1.124   4.495  0.00  0.00     0.001 C 
ATOM     20  C16 ZIN A   1      18.646   0.261   4.794  0.00  0.00     0.001 C 
ATOM     21  C15 ZIN A   1      19.201   0.720   6.158  0.00  0.00     0.016 C 
ATOM     22  C14 ZIN A   1      18.312   0.177   7.243  0.00  0.00     0.113 C 
ENDBRANCH   4  16
TORSDOF 3
ENDMDL
MODEL 6
REMARK VINA RESULT:      -7.4      2.524      3.678
REMARK  3 active torsions:
REMARK  status: ('A' for Active; 'I' for Inactive)
REMARK    1  A    between atoms: C5_5  and  S6_6 
REMARK    2  A    between atoms: S6_6  and  N9_9 
REMARK       I    between atoms: N9_9  and  C10_10 
REMARK       I    between atoms: C10_10  and  N12_12 
REMARK    3  A    between atoms: N12_12  and  N13_13 
ROOT
ATOM      1  N9  ZIN A   1      17.820   1.200  12.466  0.00  0.00    -0.101 NA
ATOM      2  C10 ZIN A   1      19.074   1.132  12.917  0.00  0.00     0.367 C 
ATOM      3  O11 ZIN A   1      19.781   0.191  12.607  0.00  0.00    -0.243 OA
ATOM      4  N12 ZIN A   1      19.557   2.105  13.715  0.00  0.00    -0.269 N 
ATOM      5  H27 ZIN A   1      20.468   2.055  14.043  0.00  0.00     0.185 HD
ENDROOT
BRANCH   1   6
ATOM      6  S6  ZIN A   1      17.285   0.122  11.581  0.00  0.00     0.287 S 
ATOM      7  O7  ZIN A   1      15.814   0.151  11.610  0.00  0.00    -0.198 OA
ATOM      8  O8  ZIN A   1      17.760  -1.186  12.060  0.00  0.00    -0.198 OA
BRANCH   6   9
ATOM      9  C5  ZIN A   1      17.846   0.384   9.932  0.00  0.00     0.081 A 
ATOM     10  C4  ZIN A   1      18.471   1.570   9.595  0.00  0.00     0.026 A 
ATOM     11  C3  ZIN A   1      18.913   1.776   8.302  0.00  0.00     0.008 A 
ATOM     12  C2  ZIN A   1      18.729   0.795   7.345  0.00  0.00    -0.062 A 
ATOM     13  C1  ZIN A   1      19.210   1.020   5.934  0.00  0.00     0.048 C 
ATOM     14  C21 ZIN A   1      18.099  -0.388   7.681  0.00  0.00     0.008 A 
ATOM     15  C20 ZIN A   1      17.661  -0.596   8.975  0.00  0.00     0.026 A 
ENDBRANCH   6   9
ENDBRANCH   1   6
BRANCH   4  16
ATOM     16  N13 ZIN A   1      18.763   3.160  14.063  0.00  0.00    -0.227 NA
ATOM     17  C19 ZIN A   1      19.237   4.411  13.431  0.00  0.00     0.113 C 
ATOM     18  C18 ZIN A   1      18.570   5.638  13.990  0.00  0.00     0.016 C 
ATOM     19  C17 ZIN A   1      19.453   6.203  15.122  0.00  0.00     0.001 C 
ATOM     20  C16 ZIN A   1      19.302   5.455  16.365  0.00  0.00     0.001 C 
ATOM     21  C15 ZIN A   1      19.715   3.976  16.210  0.00  0.00     0.016 C 
ATOM     22  C14 ZIN A   1      18.594   3.237  15.531  0.00  0.00     0.113 C 
ENDBRANCH   4  16
TORSDOF 3
ENDMDL
MODEL 7
REMARK VINA RESULT:      -7.3      3.958      7.125
REMARK  3 active torsions:
REMARK  status: ('A' for Active; 'I' for Inactive)
REMARK    1  A    between atoms: C5_5  and  S6_6 
REMARK    2  A    between atoms: S6_6  and  N9_9 
REMARK       I    between atoms: N9_9  and  C10_10 
REMARK       I    between atoms: C10_10  and  N12_12 
REMARK    3  A    between atoms: N12_12  and  N13_13 
ROOT
ATOM      1  N9  ZIN A   1      17.828  -1.231  10.792  0.00  0.00    -0.101 NA
ATOM      2  C10 ZIN A   1      17.711  -1.215   9.463  0.00  0.00     0.367 C 
ATOM      3  O11 ZIN A   1      17.322  -0.210   8.898  0.00  0.00    -0.243 OA
ATOM      4  N12 ZIN A   1      18.022  -2.314   8.746  0.00  0.00    -0.269 N 
ATOM      5  H27 ZIN A   1      17.936  -2.303   7.780  0.00  0.00     0.185 HD
ENDROOT
BRANCH   1   6
ATOM      6  S6  ZIN A   1      17.484  -0.014  11.586  0.00  0.00     0.287 S 
ATOM      7  O7  ZIN A   1      16.038   0.240  11.491  0.00  0.00    -0.198 OA
ATOM      8  O8  ZIN A   1      18.221   1.144  11.054  0.00  0.00    -0.198 OA
BRANCH   6   9
ATOM      9  C5  ZIN A   1      17.927  -0.268  13.272  0.00  0.00     0.081 A 
ATOM     10  C4  ZIN A   1      17.405   0.551  14.255  0.00  0.00     0.026 A 
ATOM     11  C3  ZIN A   1      17.751   0.351  15.578  0.00  0.00     0.008 A 
ATOM     12  C2  ZIN A   1      18.620  -0.668  15.918  0.00  0.00    -0.062 A 
ATOM     13  C1  ZIN A   1      18.998  -0.886  17.361  0.00  0.00     0.048 C 
ATOM     14  C21 ZIN A   1      19.147  -1.484  14.934  0.00  0.00     0.008 A 
ATOM     15  C20 ZIN A   1      18.797  -1.287  13.612  0.00  0.00     0.026 A 
ENDBRANCH   6   9
ENDBRANCH   1   6
BRANCH   4  16
ATOM     16  N13 ZIN A   1      18.458  -3.442   9.380  0.00  0.00    -0.227 NA
ATOM     17  C19 ZIN A   1      19.291  -4.269   8.479  0.00  0.00     0.113 C 
ATOM     18  C18 ZIN A   1      19.568  -5.640   9.033  0.00  0.00     0.016 C 
ATOM     19  C17 ZIN A   1      18.503  -6.614   8.487  0.00  0.00     0.001 C 
ATOM     20  C16 ZIN A   1      17.234  -6.496   9.195  0.00  0.00     0.001 C 
ATOM     21  C15 ZIN A   1      16.620  -5.086   9.062  0.00  0.00     0.016 C 
ATOM     22  C14 ZIN A   1      17.332  -4.164  10.014  0.00  0.00     0.113 C 
ENDBRANCH   4  16
TORSDOF 3
ENDMDL
MODEL 8
REMARK VINA RESULT:      -7.2      3.528      7.058
REMARK  3 active torsions:
REMARK  status: ('A' for Active; 'I' for Inactive)
REMARK    1  A    between atoms: C5_5  and  S6_6 
REMARK    2  A    between atoms: S6_6  and  N9_9 
REMARK       I    between atoms: N9_9  and  C10_10 
REMARK       I    between atoms: C10_10  and  N12_12 
REMARK    3  A    between atoms: N12_12  and  N13_13 
ROOT
ATOM      1  N9  ZIN A   1      17.903  -1.029  11.092  0.00  0.00    -0.101 NA
ATOM      2  C10 ZIN A   1      19.161  -1.016  10.649  0.00  0.00     0.367 C 
ATOM      3  O11 ZIN A   1      19.887  -0.073  10.906  0.00  0.00    -0.243 OA
ATOM      4  N12 ZIN A   1      19.627  -2.045   9.914  0.00  0.00    -0.269 N 
ATOM      5  H27 ZIN A   1      20.542  -2.035   9.591  0.00  0.00     0.185 HD
ENDROOT
BRANCH   1   6
ATOM      6  S6  ZIN A   1      17.386   0.112  11.906  0.00  0.00     0.287 S 
ATOM      7  O7  ZIN A   1      15.916   0.121  11.857  0.00  0.00    -0.198 OA
ATOM      8  O8  ZIN A   1      17.903   1.377  11.361  0.00  0.00    -0.198 OA
BRANCH   6   9
ATOM      9  C5  ZIN A   1      17.918  -0.070  13.576  0.00  0.00     0.081 A 
ATOM     10  C4  ZIN A   1      17.753   0.971  14.470  0.00  0.00     0.026 A 
ATOM     11  C3  ZIN A   1      18.169   0.828  15.781  0.00  0.00     0.008 A 
ATOM     12  C2  ZIN A   1      18.750  -0.355  16.197  0.00  0.00    -0.062 A 
ATOM     13  C1  ZIN A   1      19.205  -0.510  17.625  0.00  0.00     0.048 C 
ATOM     14  C21 ZIN A   1      18.920  -1.394  15.300  0.00  0.00     0.008 A 
ATOM     15  C20 ZIN A   1      18.500  -1.253  13.991  0.00  0.00     0.026 A 
ENDBRANCH   6   9
ENDBRANCH   1   6
BRANCH   4  16
ATOM     16  N13 ZIN A   1      18.813  -3.102   9.625  0.00  0.00    -0.227 NA
ATOM     17  C19 ZIN A   1      19.347  -4.357  10.200  0.00  0.00     0.113 C 
ATOM     18  C18 ZIN A   1      18.641  -5.582   9.687  0.00  0.00     0.016 C 
ATOM     19  C17 ZIN A   1      19.427  -6.130   8.477  0.00  0.00     0.001 C 
ATOM     20  C16 ZIN A   1      19.165  -5.370   7.260  0.00  0.00     0.001 C 
ATOM     21  C15 ZIN A   1      19.581  -3.890   7.395  0.00  0.00     0.016 C 
ATOM     22  C14 ZIN A   1      18.519  -3.165   8.176  0.00  0.00     0.113 C 
ENDBRANCH   4  16
TORSDOF 3
ENDMDL
MODEL 9
REMARK VINA RESULT:      -7.2      3.499      6.933
REMARK  3 active torsions:
REMARK  status: ('A' for Active; 'I' for Inactive)
REMARK    1  A    between atoms: C5_5  and  S6_6 
REMARK    2  A    between atoms: S6_6  and  N9_9 
REMARK       I    between atoms: N9_9  and  C10_10 
REMARK       I    between atoms: C10_10  and  N12_12 
REMARK    3  A    between atoms: N12_12  and  N13_13 
ROOT
ATOM      1  N9  ZIN A   1      19.140  -0.755  12.017  0.00  0.00    -0.101 NA
ATOM      2  C10 ZIN A   1      17.840  -0.844  11.729  0.00  0.00     0.367 C 
ATOM      3  O11 ZIN A   1      17.089   0.069  12.020  0.00  0.00    -0.243 OA
ATOM      4  N12 ZIN A   1      17.358  -1.944  11.118  0.00  0.00    -0.269 N 
ATOM      5  H27 ZIN A   1      16.413  -2.009  10.909  0.00  0.00     0.185 HD
ENDROOT
BRANCH   1   6
ATOM      6  S6  ZIN A   1      19.673   0.464  12.695  0.00  0.00     0.287 S 
ATOM      7  O7  ZIN A   1      19.029   1.660  12.129  0.00  0.00    -0.198 OA
ATOM      8  O8  ZIN A   1      21.128   0.545  12.486  0.00  0.00    -0.198 OA
BRANCH   6   9
ATOM      9  C5  ZIN A   1      19.332   0.373  14.421  0.00  0.00     0.081 A 
ATOM     10  C4  ZIN A   1      19.193   1.533  15.159  0.00  0.00     0.026 A 
ATOM     11  C3  ZIN A   1      18.924   1.462  16.513  0.00  0.00     0.008 A 
ATOM     12  C2  ZIN A   1      18.794   0.231  17.129  0.00  0.00    -0.062 A 
ATOM     13  C1  ZIN A   1      18.502   0.153  18.605  0.00  0.00     0.048 C 
ATOM     14  C21 ZIN A   1      18.939  -0.929  16.390  0.00  0.00     0.008 A 
ATOM     15  C20 ZIN A   1      19.204  -0.858  15.036  0.00  0.00     0.026 A 
ENDBRANCH   6   9
ENDBRANCH   1   6
BRANCH   4  16
ATOM     16  N13 ZIN A   1      18.201  -2.968  10.792  0.00  0.00    -0.227 NA
ATOM     17  C19 ZIN A   1      18.163  -3.244   9.339  0.00  0.00     0.113 C 
ATOM     18  C18 ZIN A   1      18.858  -4.527   8.969  0.00  0.00     0.016 C 
ATOM     19  C17 ZIN A   1      17.809  -5.658   8.929  0.00  0.00     0.001 C 
ATOM     20  C16 ZIN A   1      17.463  -6.135  10.263  0.00  0.00     0.001 C 
ATOM     21  C15 ZIN A   1      16.847  -5.024  11.139  0.00  0.00     0.016 C 
ATOM     22  C14 ZIN A   1      17.958  -4.149  11.650  0.00  0.00     0.113 C 
ENDBRANCH   4  16
TORSDOF 3
ENDMDL
