MODEL 1
REMARK VINA RESULT:      -5.2      0.000      0.000
REMARK  2 active torsions:
REMARK  status: ('A' for Active; 'I' for Inactive)
REMARK    1  A    between atoms: N1_1  and  C5_5 
REMARK    2  A    between atoms: C8_7  and  C10_8 
ROOT
ATOM      1  C5  <0> d   1      19.368   0.562   9.788  0.00  0.00     0.192 A 
ATOM      2  C7  <0> d   1      19.201   1.917   9.097  0.00  0.00     0.045 A 
ATOM      3  C8  <0> d   1      18.355   0.722   8.652  0.00  0.00     0.051 A 
ENDROOT
BRANCH   3   4
ATOM      4  C10 <0> d   1      18.688   0.087   7.327  0.00  0.00    -0.052 A 
ATOM      5  C15 <0> d   1      18.943   0.880   6.225  0.00  0.00     0.007 A 
ATOM      6  C14 <0> d   1      19.254   0.298   5.010  0.00  0.00     0.001 A 
ATOM      7  C13 <0> d   1      19.300  -1.079   4.896  0.00  0.00     0.000 A 
ATOM      8  C12 <0> d   1      19.040  -1.873   5.997  0.00  0.00     0.001 A 
ATOM      9  C11 <0> d   1      18.735  -1.290   7.213  0.00  0.00     0.007 A 
ENDBRANCH   3   4
BRANCH   1  10
ATOM     10  N1  <0> d   1      20.592  -0.197   9.503  0.00  0.00    -0.074 N 
ATOM     11  H2  <0> d   1      20.398  -1.186   9.565  0.00  0.00     0.274 HD
ATOM     12  H3  <0> d   1      21.305   0.048  10.174  0.00  0.00     0.274 HD
ATOM     13  H4  <0> d   1      20.916   0.023   8.573  0.00  0.00     0.274 HD
ENDBRANCH   1  10
TORSDOF 2
ENDMDL
MODEL 2
REMARK VINA RESULT:      -5.1      1.987      4.108
REMARK  2 active torsions:
REMARK  status: ('A' for Active; 'I' for Inactive)
REMARK    1  A    between atoms: N1_1  and  C5_5 
REMARK    2  A    between atoms: C8_7  and  C10_8 
ROOT
ATOM      1  C5  <0> d   1      17.910  -0.717   5.936  0.00  0.00     0.192 A 
ATOM      2  C7  <0> d   1      18.961   0.321   5.536  0.00  0.00     0.045 A 
ATOM      3  C8  <0> d   1      19.021  -0.335   6.918  0.00  0.00     0.051 A 
ENDROOT
BRANCH   3   4
ATOM      4  C10 <0> d   1      18.640   0.508   8.107  0.00  0.00    -0.052 A 
ATOM      5  C15 <0> d   1      19.130   1.794   8.228  0.00  0.00     0.007 A 
ATOM      6  C14 <0> d   1      18.777   2.570   9.316  0.00  0.00     0.001 A 
ATOM      7  C13 <0> d   1      17.940   2.055  10.289  0.00  0.00     0.000 A 
ATOM      8  C12 <0> d   1      17.454   0.766  10.171  0.00  0.00     0.001 A 
ATOM      9  C11 <0> d   1      17.803  -0.007   9.080  0.00  0.00     0.007 A 
ENDBRANCH   3   4
BRANCH   1  10
ATOM     10  N1  <0> d   1      16.555  -0.233   6.225  0.00  0.00    -0.074 N 
ATOM     11  H2  <0> d   1      16.586   0.755   6.428  0.00  0.00     0.274 HD
ATOM     12  H3  <0> d   1      16.183  -0.728   7.022  0.00  0.00     0.274 HD
ATOM     13  H4  <0> d   1      15.962  -0.392   5.423  0.00  0.00     0.274 HD
ENDBRANCH   1  10
TORSDOF 2
ENDMDL
MODEL 3
REMARK VINA RESULT:      -5.0      2.403      3.727
REMARK  2 active torsions:
REMARK  status: ('A' for Active; 'I' for Inactive)
REMARK    1  A    between atoms: N1_1  and  C5_5 
REMARK    2  A    between atoms: C8_7  and  C10_8 
ROOT
ATOM      1  C5  <0> d   1      20.301   0.275  12.896  0.00  0.00     0.192 A 
ATOM      2  C7  <0> d   1      19.333   1.416  13.218  0.00  0.00     0.045 A 
ATOM      3  C8  <0> d   1      18.980   0.397  12.132  0.00  0.00     0.051 A 
ENDROOT
BRANCH   3   4
ATOM      4  C10 <0> d   1      19.046   0.856  10.698  0.00  0.00    -0.052 A 
ATOM      5  C15 <0> d   1      18.807   2.180  10.384  0.00  0.00     0.007 A 
ATOM      6  C14 <0> d   1      18.872   2.602   9.070  0.00  0.00     0.001 A 
ATOM      7  C13 <0> d   1      19.166   1.697   8.067  0.00  0.00     0.000 A 
ATOM      8  C12 <0> d   1      19.399   0.371   8.380  0.00  0.00     0.001 A 
ATOM      9  C11 <0> d   1      19.340  -0.050   9.695  0.00  0.00     0.007 A 
ENDBRANCH   3   4
BRANCH   1  10
ATOM     10  N1  <0> d   1      21.534   0.616  12.177  0.00  0.00    -0.074 N 
ATOM     11  H2  <0> d   1      21.303   1.093  11.318  0.00  0.00     0.274 HD
ATOM     12  H3  <0> d   1      22.045  -0.229  11.965  0.00  0.00     0.274 HD
ATOM     13  H4  <0> d   1      22.105   1.218  12.752  0.00  0.00     0.274 HD
ENDBRANCH   1  10
TORSDOF 2
ENDMDL
MODEL 4
REMARK VINA RESULT:      -5.0      2.191      3.564
REMARK  2 active torsions:
REMARK  status: ('A' for Active; 'I' for Inactive)
REMARK    1  A    between atoms: N1_1  and  C5_5 
REMARK    2  A    between atoms: C8_7  and  C10_8 
ROOT
ATOM      1  C5  <0> d   1      19.201   2.703  12.256  0.00  0.00     0.192 A 
ATOM      2  C7  <0> d   1      18.915   3.950  11.416  0.00  0.00     0.045 A 
ATOM      3  C8  <0> d   1      18.031   2.709  11.270  0.00  0.00     0.051 A 
ENDROOT
BRANCH   3   4
ATOM      4  C10 <0> d   1      18.178   1.894  10.011  0.00  0.00    -0.052 A 
ATOM      5  C15 <0> d   1      17.547   0.670   9.902  0.00  0.00     0.007 A 
ATOM      6  C14 <0> d   1      17.677  -0.076   8.746  0.00  0.00     0.001 A 
ATOM      7  C13 <0> d   1      18.448   0.399   7.701  0.00  0.00     0.000 A 
ATOM      8  C12 <0> d   1      19.084   1.622   7.811  0.00  0.00     0.001 A 
ATOM      9  C11 <0> d   1      18.949   2.369   8.966  0.00  0.00     0.007 A 
ENDBRANCH   3   4
BRANCH   1  10
ATOM     10  N1  <0> d   1      20.382   1.905  11.903  0.00  0.00    -0.074 N 
ATOM     11  H2  <0> d   1      20.382   1.725  10.910  0.00  0.00     0.274 HD
ATOM     12  H3  <0> d   1      20.358   1.029  12.404  0.00  0.00     0.274 HD
ATOM     13  H4  <0> d   1      21.218   2.412  12.153  0.00  0.00     0.274 HD
ENDBRANCH   1  10
TORSDOF 2
ENDMDL
MODEL 5
REMARK VINA RESULT:      -5.0      6.102      8.937
REMARK  2 active torsions:
REMARK  status: ('A' for Active; 'I' for Inactive)
REMARK    1  A    between atoms: N1_1  and  C5_5 
REMARK    2  A    between atoms: C8_7  and  C10_8 
ROOT
ATOM      1  C5  <0> d   1      19.402  -0.260  12.998  0.00  0.00     0.192 A 
ATOM      2  C7  <0> d   1      19.092  -1.680  13.476  0.00  0.00     0.045 A 
ATOM      3  C8  <0> d   1      18.346  -0.489  14.082  0.00  0.00     0.051 A 
ENDROOT
BRANCH   3   4
ATOM      4  C10 <0> d   1      18.698  -0.091  15.492  0.00  0.00    -0.052 A 
ATOM      5  C15 <0> d   1      18.797   1.245  15.830  0.00  0.00     0.007 A 
ATOM      6  C14 <0> d   1      19.115   1.610  17.124  0.00  0.00     0.001 A 
ATOM      7  C13 <0> d   1      19.343   0.637  18.080  0.00  0.00     0.000 A 
ATOM      8  C12 <0> d   1      19.249  -0.700  17.741  0.00  0.00     0.001 A 
ATOM      9  C11 <0> d   1      18.926  -1.064  16.448  0.00  0.00     0.007 A 
ENDBRANCH   3   4
BRANCH   1  10
ATOM     10  N1  <0> d   1      20.682   0.330  13.412  0.00  0.00    -0.074 N 
ATOM     11  H2  <0> d   1      21.406  -0.372  13.369  0.00  0.00     0.274 HD
ATOM     12  H3  <0> d   1      20.603   0.674  14.358  0.00  0.00     0.274 HD
ATOM     13  H4  <0> d   1      20.916   1.093  12.795  0.00  0.00     0.274 HD
ENDBRANCH   1  10
TORSDOF 2
ENDMDL
MODEL 6
REMARK VINA RESULT:      -5.0      6.094      9.052
REMARK  2 active torsions:
REMARK  status: ('A' for Active; 'I' for Inactive)
REMARK    1  A    between atoms: N1_1  and  C5_5 
REMARK    2  A    between atoms: C8_7  and  C10_8 
ROOT
ATOM      1  C5  <0> d   1      19.416  -0.267  12.988  0.00  0.00     0.192 A 
ATOM      2  C7  <0> d   1      19.113  -1.691  13.458  0.00  0.00     0.045 A 
ATOM      3  C8  <0> d   1      18.357  -0.507  14.066  0.00  0.00     0.051 A 
ENDROOT
BRANCH   3   4
ATOM      4  C10 <0> d   1      18.700  -0.114  15.480  0.00  0.00    -0.052 A 
ATOM      5  C15 <0> d   1      18.930  -1.088  16.432  0.00  0.00     0.007 A 
ATOM      6  C14 <0> d   1      19.250  -0.728  17.728  0.00  0.00     0.001 A 
ATOM      7  C13 <0> d   1      19.331   0.609  18.073  0.00  0.00     0.000 A 
ATOM      8  C12 <0> d   1      19.096   1.584  17.121  0.00  0.00     0.001 A 
ATOM      9  C11 <0> d   1      18.781   1.222  15.825  0.00  0.00     0.007 A 
ENDBRANCH   3   4
BRANCH   1  10
ATOM     10  N1  <0> d   1      20.689   0.330  13.409  0.00  0.00    -0.074 N 
ATOM     11  H2  <0> d   1      21.308  -0.396  13.741  0.00  0.00     0.274 HD
ATOM     12  H3  <0> d   1      20.522   0.993  14.151  0.00  0.00     0.274 HD
ATOM     13  H4  <0> d   1      21.116   0.802  12.626  0.00  0.00     0.274 HD
ENDBRANCH   1  10
TORSDOF 2
ENDMDL
MODEL 7
REMARK VINA RESULT:      -4.9      1.541      2.923
REMARK  2 active torsions:
REMARK  status: ('A' for Active; 'I' for Inactive)
REMARK    1  A    between atoms: N1_1  and  C5_5 
REMARK    2  A    between atoms: C8_7  and  C10_8 
ROOT
ATOM      1  C5  <0> d   1      20.317  -0.139  11.756  0.00  0.00     0.192 A 
ATOM      2  C7  <0> d   1      20.028   1.355  11.920  0.00  0.00     0.045 A 
ATOM      3  C8  <0> d   1      19.027   0.458  11.187  0.00  0.00     0.051 A 
ENDROOT
BRANCH   3   4
ATOM      4  C10 <0> d   1      18.929   0.604   9.690  0.00  0.00    -0.052 A 
ATOM      5  C15 <0> d   1      18.528  -0.468   8.916  0.00  0.00     0.007 A 
ATOM      6  C14 <0> d   1      18.432  -0.333   7.544  0.00  0.00     0.001 A 
ATOM      7  C13 <0> d   1      18.748   0.872   6.944  0.00  0.00     0.000 A 
ATOM      8  C12 <0> d   1      19.154   1.943   7.718  0.00  0.00     0.001 A 
ATOM      9  C11 <0> d   1      19.244   1.810   9.091  0.00  0.00     0.007 A 
ENDBRANCH   3   4
BRANCH   1  10
ATOM     10  N1  <0> d   1      21.363  -0.526  10.801  0.00  0.00    -0.074 N 
ATOM     11  H2  <0> d   1      22.266  -0.461  11.247  0.00  0.00     0.274 HD
ATOM     12  H3  <0> d   1      21.337   0.093  10.004  0.00  0.00     0.274 HD
ATOM     13  H4  <0> d   1      21.206  -1.475  10.496  0.00  0.00     0.274 HD
ENDBRANCH   1  10
TORSDOF 2
ENDMDL
MODEL 8
REMARK VINA RESULT:      -4.9      1.726      3.886
REMARK  2 active torsions:
REMARK  status: ('A' for Active; 'I' for Inactive)
REMARK    1  A    between atoms: N1_1  and  C5_5 
REMARK    2  A    between atoms: C8_7  and  C10_8 
ROOT
ATOM      1  C5  <0> d   1      18.945  -1.347   4.700  0.00  0.00     0.192 A 
ATOM      2  C7  <0> d   1      17.418  -1.256   4.660  0.00  0.00     0.045 A 
ATOM      3  C8  <0> d   1      18.247  -0.036   5.070  0.00  0.00     0.051 A 
ENDROOT
BRANCH   3   4
ATOM      4  C10 <0> d   1      18.233   0.359   6.524  0.00  0.00    -0.052 A 
ATOM      5  C15 <0> d   1      19.111   1.320   6.988  0.00  0.00     0.007 A 
ATOM      6  C14 <0> d   1      19.095   1.686   8.321  0.00  0.00     0.001 A 
ATOM      7  C13 <0> d   1      18.205   1.084   9.192  0.00  0.00     0.000 A 
ATOM      8  C12 <0> d   1      17.330   0.119   8.729  0.00  0.00     0.001 A 
ATOM      9  C11 <0> d   1      17.343  -0.243   7.395  0.00  0.00     0.007 A 
ENDBRANCH   3   4
BRANCH   1  10
ATOM     10  N1  <0> d   1      19.549  -2.124   5.790  0.00  0.00    -0.074 N 
ATOM     11  H2  <0> d   1      20.101  -1.514   6.374  0.00  0.00     0.274 HD
ATOM     12  H3  <0> d   1      20.141  -2.844   5.403  0.00  0.00     0.274 HD
ATOM     13  H4  <0> d   1      18.820  -2.550   6.344  0.00  0.00     0.274 HD
ENDBRANCH   1  10
TORSDOF 2
ENDMDL
MODEL 9
REMARK VINA RESULT:      -4.8      2.247      3.753
REMARK  2 active torsions:
REMARK  status: ('A' for Active; 'I' for Inactive)
REMARK    1  A    between atoms: N1_1  and  C5_5 
REMARK    2  A    between atoms: C8_7  and  C10_8 
ROOT
ATOM      1  C5  <0> d   1      17.381  -1.133  11.915  0.00  0.00     0.192 A 
ATOM      2  C7  <0> d   1      17.054   0.240  12.506  0.00  0.00     0.045 A 
ATOM      3  C8  <0> d   1      16.709  -0.067  11.047  0.00  0.00     0.051 A 
ENDROOT
BRANCH   3   4
ATOM      4  C10 <0> d   1      17.545   0.591   9.980  0.00  0.00    -0.052 A 
ATOM      5  C15 <0> d   1      17.751  -0.047   8.772  0.00  0.00     0.007 A 
ATOM      6  C14 <0> d   1      18.514   0.559   7.791  0.00  0.00     0.001 A 
ATOM      7  C13 <0> d   1      19.079   1.799   8.023  0.00  0.00     0.000 A 
ATOM      8  C12 <0> d   1      18.877   2.435   9.234  0.00  0.00     0.001 A 
ATOM      9  C11 <0> d   1      18.110   1.831  10.212  0.00  0.00     0.007 A 
ENDBRANCH   3   4
BRANCH   1  10
ATOM     10  N1  <0> d   1      18.792  -1.436  11.646  0.00  0.00    -0.074 N 
ATOM     11  H2  <0> d   1      18.913  -1.635  10.664  0.00  0.00     0.274 HD
ATOM     12  H3  <0> d   1      19.075  -2.239  12.188  0.00  0.00     0.274 HD
ATOM     13  H4  <0> d   1      19.362  -0.642  11.899  0.00  0.00     0.274 HD
ENDBRANCH   1  10
TORSDOF 2
ENDMDL
