MODEL 1
REMARK VINA RESULT:      -8.3      0.000      0.000
REMARK  4 active torsions:
REMARK  status: ('A' for Active; 'I' for Inactive)
REMARK    1  A    between atoms: S2_2  and  C3_3 
REMARK    2  A    between atoms: N14_14  and  C15_15 
REMARK    3  A    between atoms: C15_15  and  C16_16 
REMARK    4  A    between atoms: C16_16  and  C17_17 
ROOT
ATOM      1  C3  <0> d   1      17.856   3.343  10.217  0.00  0.00     0.002 A 
ATOM      2  C4  <0> d   1      18.534   3.268   9.007  0.00  0.00     0.020 A 
ATOM      3  C5  <0> d   1      19.074   2.065   8.595  0.00  0.00     0.022 A 
ATOM      4  C6  <0> d   1      18.945   0.931   9.385  0.00  0.00     0.032 A 
ATOM      5  S7  <0> d   1      19.636  -0.590   8.829  0.00  0.00    -0.086 SA
ATOM      6  C8  <0> d   1      18.818  -1.797   9.815  0.00  0.00     0.032 A 
ATOM      7  C9  <0> d   1      18.834  -3.126   9.414  0.00  0.00     0.021 A 
ATOM      8  C10 <0> d   1      18.196  -4.090  10.175  0.00  0.00     0.002 A 
ATOM      9  C11 <0> d   1      17.540  -3.729  11.336  0.00  0.00     0.002 A 
ATOM     10  C12 <0> d   1      17.519  -2.407  11.741  0.00  0.00     0.031 A 
ATOM     11  C13 <0> d   1      18.159  -1.431  10.985  0.00  0.00     0.052 A 
ATOM     12  N14 <0> d   1      18.125  -0.111  11.427  0.00  0.00    -0.345 N 
ATOM     13  C26 <0> d   1      18.270   1.001  10.601  0.00  0.00     0.053 A 
ATOM     14  C27 <0> d   1      17.731   2.214  11.014  0.00  0.00     0.049 A 
ENDROOT
BRANCH  12  15
ATOM     15  C15 <0> d   1      17.921   0.124  12.858  0.00  0.00     0.131 C 
BRANCH  15  16
ATOM     16  C16 <0> d   1      19.261   0.455  13.517  0.00  0.00     0.053 C 
BRANCH  16  17
ATOM     17  C17 <0> d   1      19.197   0.109  15.006  0.00  0.00     0.189 C 
ATOM     18  N23 <0> d   1      18.441   1.146  15.717  0.00  0.00    -0.071 N 
ATOM     19  C22 <0> d   1      18.440   0.863  17.157  0.00  0.00     0.235 C 
ATOM     20  H24 <0> d   1      17.491   1.163  15.378  0.00  0.00     0.279 HD
ATOM     21  C25 <0> d   1      19.067   2.454  15.477  0.00  0.00     0.270 C 
ATOM     22  C21 <0> d   1      17.718  -0.460  17.419  0.00  0.00     0.028 C 
ATOM     23  C20 <0> d   1      18.443  -1.586  16.676  0.00  0.00     0.004 C 
ATOM     24  C19 <0> d   1      18.505  -1.243  15.185  0.00  0.00     0.033 C 
ENDBRANCH  16  17
ENDBRANCH  15  16
ENDBRANCH  12  15
BRANCH   1  25
ATOM     25  S2  <0> d   1      17.161   4.875  10.743  0.00  0.00    -0.134 SA
ATOM     26  C1  <0> d   1      17.182   4.733  12.552  0.00  0.00     0.095 C 
ENDBRANCH   1  25
TORSDOF 4
ENDMDL
MODEL 2
REMARK VINA RESULT:      -7.9      2.359      7.508
REMARK  4 active torsions:
REMARK  status: ('A' for Active; 'I' for Inactive)
REMARK    1  A    between atoms: S2_2  and  C3_3 
REMARK    2  A    between atoms: N14_14  and  C15_15 
REMARK    3  A    between atoms: C15_15  and  C16_16 
REMARK    4  A    between atoms: C16_16  and  C17_17 
ROOT
ATOM      1  C3  <0> d   1      19.119  -1.875  12.438  0.00  0.00     0.002 A 
ATOM      2  C4  <0> d   1      19.175  -1.640  13.805  0.00  0.00     0.020 A 
ATOM      3  C5  <0> d   1      19.080  -0.347  14.285  0.00  0.00     0.022 A 
ATOM      4  C6  <0> d   1      18.929   0.717  13.408  0.00  0.00     0.032 A 
ATOM      5  S7  <0> d   1      18.801   2.352  14.051  0.00  0.00    -0.086 SA
ATOM      6  C8  <0> d   1      18.120   3.267  12.710  0.00  0.00     0.032 A 
ATOM      7  C9  <0> d   1      17.541   4.505  12.957  0.00  0.00     0.021 A 
ATOM      8  C10 <0> d   1      17.000   5.239  11.917  0.00  0.00     0.002 A 
ATOM      9  C11 <0> d   1      17.033   4.740  10.629  0.00  0.00     0.002 A 
ATOM     10  C12 <0> d   1      17.607   3.508  10.376  0.00  0.00     0.031 A 
ATOM     11  C13 <0> d   1      18.157   2.763  11.414  0.00  0.00     0.052 A 
ATOM     12  N14 <0> d   1      18.734   1.529  11.121  0.00  0.00    -0.345 N 
ATOM     13  C26 <0> d   1      18.876   0.489  12.036  0.00  0.00     0.053 A 
ATOM     14  C27 <0> d   1      18.976  -0.813  11.556  0.00  0.00     0.049 A 
ENDROOT
BRANCH  12  15
ATOM     15  C15 <0> d   1      19.224   1.312   9.758  0.00  0.00     0.131 C 
BRANCH  15  16
ATOM     16  C16 <0> d   1      18.106   0.710   8.904  0.00  0.00     0.053 C 
BRANCH  16  17
ATOM     17  C17 <0> d   1      18.707   0.090   7.640  0.00  0.00     0.189 C 
ATOM     18  N23 <0> d   1      17.930  -1.096   7.261  0.00  0.00    -0.071 N 
ATOM     19  C22 <0> d   1      18.544  -1.741   6.095  0.00  0.00     0.235 C 
ATOM     20  H24 <0> d   1      16.986  -0.820   7.033  0.00  0.00     0.279 HD
ATOM     21  C25 <0> d   1      17.905  -2.041   8.386  0.00  0.00     0.270 C 
ATOM     22  C21 <0> d   1      18.500  -0.788   4.898  0.00  0.00     0.028 C 
ATOM     23  C20 <0> d   1      19.272   0.489   5.242  0.00  0.00     0.004 C 
ATOM     24  C19 <0> d   1      18.670   1.113   6.505  0.00  0.00     0.033 C 
ENDBRANCH  16  17
ENDBRANCH  15  16
ENDBRANCH  12  15
BRANCH   1  25
ATOM     25  S2  <0> d   1      19.235  -3.522  11.822  0.00  0.00    -0.134 SA
ATOM     26  C1  <0> d   1      17.504  -3.967  11.516  0.00  0.00     0.095 C 
ENDBRANCH   1  25
TORSDOF 4
ENDMDL
MODEL 3
REMARK VINA RESULT:      -7.9      1.500      2.129
REMARK  4 active torsions:
REMARK  status: ('A' for Active; 'I' for Inactive)
REMARK    1  A    between atoms: S2_2  and  C3_3 
REMARK    2  A    between atoms: N14_14  and  C15_15 
REMARK    3  A    between atoms: C15_15  and  C16_16 
REMARK    4  A    between atoms: C16_16  and  C17_17 
ROOT
ATOM      1  C3  <0> d   1      18.306   1.441   9.541  0.00  0.00     0.002 A 
ATOM      2  C4  <0> d   1      18.869   1.253   8.286  0.00  0.00     0.020 A 
ATOM      3  C5  <0> d   1      19.131  -0.027   7.834  0.00  0.00     0.022 A 
ATOM      4  C6  <0> d   1      18.835  -1.125   8.629  0.00  0.00     0.032 A 
ATOM      5  S7  <0> d   1      19.171  -2.744   8.022  0.00  0.00    -0.086 SA
ATOM      6  C8  <0> d   1      18.201  -3.781   9.062  0.00  0.00     0.032 A 
ATOM      7  C9  <0> d   1      17.925  -5.081   8.659  0.00  0.00     0.021 A 
ATOM      8  C10 <0> d   1      17.163  -5.911   9.461  0.00  0.00     0.002 A 
ATOM      9  C11 <0> d   1      16.674  -5.447  10.667  0.00  0.00     0.002 A 
ATOM     10  C12 <0> d   1      16.944  -4.154  11.075  0.00  0.00     0.031 A 
ATOM     11  C13 <0> d   1      17.711  -3.311  10.276  0.00  0.00     0.052 A 
ATOM     12  N14 <0> d   1      17.969  -2.017  10.723  0.00  0.00    -0.345 N 
ATOM     13  C26 <0> d   1      18.274  -0.943   9.890  0.00  0.00     0.053 A 
ATOM     14  C27 <0> d   1      18.016   0.346  10.343  0.00  0.00     0.049 A 
ENDROOT
BRANCH  12  15
ATOM     15  C15 <0> d   1      17.916  -1.769  12.165  0.00  0.00     0.131 C 
BRANCH  15  16
ATOM     16  C16 <0> d   1      19.319  -1.911  12.759  0.00  0.00     0.053 C 
BRANCH  16  17
ATOM     17  C17 <0> d   1      19.400  -1.123  14.069  0.00  0.00     0.189 C 
ATOM     18  N23 <0> d   1      19.349   0.314  13.779  0.00  0.00    -0.071 N 
ATOM     19  C22 <0> d   1      19.504   1.079  15.022  0.00  0.00     0.235 C 
ATOM     20  H24 <0> d   1      18.463   0.541  13.354  0.00  0.00     0.279 HD
ATOM     21  C25 <0> d   1      20.437   0.662  12.854  0.00  0.00     0.270 C 
ATOM     22  C21 <0> d   1      18.330   0.780  15.957  0.00  0.00     0.028 C 
ATOM     23  C20 <0> d   1      18.307  -0.718  16.276  0.00  0.00     0.004 C 
ATOM     24  C19 <0> d   1      18.222  -1.507  14.966  0.00  0.00     0.033 C 
ENDBRANCH  16  17
ENDBRANCH  15  16
ENDBRANCH  12  15
BRANCH   1  25
ATOM     25  S2  <0> d   1      17.967   3.071  10.118  0.00  0.00    -0.134 SA
ATOM     26  C1  <0> d   1      17.589   2.812  11.874  0.00  0.00     0.095 C 
ENDBRANCH   1  25
TORSDOF 4
ENDMDL
MODEL 4
REMARK VINA RESULT:      -7.8      2.823      7.727
REMARK  4 active torsions:
REMARK  status: ('A' for Active; 'I' for Inactive)
REMARK    1  A    between atoms: S2_2  and  C3_3 
REMARK    2  A    between atoms: N14_14  and  C15_15 
REMARK    3  A    between atoms: C15_15  and  C16_16 
REMARK    4  A    between atoms: C16_16  and  C17_17 
ROOT
ATOM      1  C3  <0> d   1      17.750  -3.167  11.331  0.00  0.00     0.002 A 
ATOM      2  C4  <0> d   1      18.426  -3.164  12.544  0.00  0.00     0.020 A 
ATOM      3  C5  <0> d   1      19.076  -2.020  12.967  0.00  0.00     0.022 A 
ATOM      4  C6  <0> d   1      19.058  -0.874  12.184  0.00  0.00     0.032 A 
ATOM      5  S7  <0> d   1      19.888   0.571  12.753  0.00  0.00    -0.086 SA
ATOM      6  C8  <0> d   1      19.193   1.856  11.771  0.00  0.00     0.032 A 
ATOM      7  C9  <0> d   1      19.333   3.176  12.181  0.00  0.00     0.021 A 
ATOM      8  C10 <0> d   1      18.793   4.200  11.424  0.00  0.00     0.002 A 
ATOM      9  C11 <0> d   1      18.112   3.911  10.257  0.00  0.00     0.002 A 
ATOM     10  C12 <0> d   1      17.969   2.599   9.843  0.00  0.00     0.031 A 
ATOM     11  C13 <0> d   1      18.509   1.562  10.596  0.00  0.00     0.052 A 
ATOM     12  N14 <0> d   1      18.352   0.254  10.145  0.00  0.00    -0.345 N 
ATOM     13  C26 <0> d   1      18.387  -0.872  10.964  0.00  0.00     0.053 A 
ATOM     14  C27 <0> d   1      17.737  -2.026  10.540  0.00  0.00     0.049 A 
ENDROOT
BRANCH  12  15
ATOM     15  C15 <0> d   1      18.134   0.048   8.711  0.00  0.00     0.131 C 
BRANCH  15  16
ATOM     16  C16 <0> d   1      19.464  -0.293   8.037  0.00  0.00     0.053 C 
BRANCH  16  17
ATOM     17  C17 <0> d   1      19.205  -0.758   6.602  0.00  0.00     0.189 C 
ATOM     18  N23 <0> d   1      18.487  -2.038   6.626  0.00  0.00    -0.071 N 
ATOM     19  C22 <0> d   1      18.301  -2.531   5.256  0.00  0.00     0.235 C 
ATOM     20  H24 <0> d   1      17.586  -1.911   7.062  0.00  0.00     0.279 HD
ATOM     21  C25 <0> d   1      19.267  -3.018   7.395  0.00  0.00     0.270 C 
ATOM     22  C21 <0> d   1      17.422  -1.552   4.474  0.00  0.00     0.028 C 
ATOM     23  C20 <0> d   1      18.104  -0.181   4.438  0.00  0.00     0.004 C 
ATOM     24  C19 <0> d   1      18.361   0.289   5.873  0.00  0.00     0.033 C 
ENDBRANCH  16  17
ENDBRANCH  15  16
ENDBRANCH  12  15
BRANCH   1  25
ATOM     25  S2  <0> d   1      16.916  -4.622  10.790  0.00  0.00    -0.134 SA
ATOM     26  C1  <0> d   1      18.230  -5.564   9.967  0.00  0.00     0.095 C 
ENDBRANCH   1  25
TORSDOF 4
ENDMDL
MODEL 5
REMARK VINA RESULT:      -7.6      1.742      5.657
REMARK  4 active torsions:
REMARK  status: ('A' for Active; 'I' for Inactive)
REMARK    1  A    between atoms: S2_2  and  C3_3 
REMARK    2  A    between atoms: N14_14  and  C15_15 
REMARK    3  A    between atoms: C15_15  and  C16_16 
REMARK    4  A    between atoms: C16_16  and  C17_17 
ROOT
ATOM      1  C3  <0> d   1      18.659   1.500   9.176  0.00  0.00     0.002 A 
ATOM      2  C4  <0> d   1      18.726   2.827   9.579  0.00  0.00     0.020 A 
ATOM      3  C5  <0> d   1      18.556   3.151  10.911  0.00  0.00     0.022 A 
ATOM      4  C6  <0> d   1      18.317   2.157  11.850  0.00  0.00     0.032 A 
ATOM      5  S7  <0> d   1      18.114   2.600  13.542  0.00  0.00    -0.086 SA
ATOM      6  C8  <0> d   1      18.358   1.080  14.396  0.00  0.00     0.032 A 
ATOM      7  C9  <0> d   1      18.634   1.102  15.756  0.00  0.00     0.021 A 
ATOM      8  C10 <0> d   1      18.831  -0.081  16.445  0.00  0.00     0.002 A 
ATOM      9  C11 <0> d   1      18.754  -1.289  15.778  0.00  0.00     0.002 A 
ATOM     10  C12 <0> d   1      18.480  -1.318  14.423  0.00  0.00     0.031 A 
ATOM     11  C13 <0> d   1      18.278  -0.135  13.722  0.00  0.00     0.052 A 
ATOM     12  N14 <0> d   1      17.997  -0.203  12.359  0.00  0.00    -0.345 N 
ATOM     13  C26 <0> d   1      18.243   0.825  11.451  0.00  0.00     0.053 A 
ATOM     14  C27 <0> d   1      18.411   0.503  10.109  0.00  0.00     0.049 A 
ENDROOT
BRANCH  12  15
ATOM     15  C15 <0> d   1      17.401  -1.438  11.847  0.00  0.00     0.131 C 
BRANCH  15  16
ATOM     16  C16 <0> d   1      18.511  -2.401  11.422  0.00  0.00     0.053 C 
BRANCH  16  17
ATOM     17  C17 <0> d   1      17.903  -3.569  10.641  0.00  0.00     0.189 C 
ATOM     18  N23 <0> d   1      18.773  -3.904   9.507  0.00  0.00    -0.071 N 
ATOM     19  C22 <0> d   1      18.159  -4.971   8.708  0.00  0.00     0.235 C 
ATOM     20  H24 <0> d   1      19.669  -4.215   9.852  0.00  0.00     0.279 HD
ATOM     21  C25 <0> d   1      18.959  -2.711   8.669  0.00  0.00     0.270 C 
ATOM     22  C21 <0> d   1      18.036  -6.240   9.554  0.00  0.00     0.028 C 
ATOM     23  C20 <0> d   1      17.161  -5.948  10.777  0.00  0.00     0.004 C 
ATOM     24  C19 <0> d   1      17.770  -4.782  11.562  0.00  0.00     0.033 C 
ENDBRANCH  16  17
ENDBRANCH  15  16
ENDBRANCH  12  15
BRANCH   1  25
ATOM     25  S2  <0> d   1      18.880   1.082   7.478  0.00  0.00    -0.134 SA
ATOM     26  C1  <0> d   1      17.394   0.114   7.099  0.00  0.00     0.095 C 
ENDBRANCH   1  25
TORSDOF 4
ENDMDL
MODEL 6
REMARK VINA RESULT:      -7.4      1.824      5.783
REMARK  4 active torsions:
REMARK  status: ('A' for Active; 'I' for Inactive)
REMARK    1  A    between atoms: S2_2  and  C3_3 
REMARK    2  A    between atoms: N14_14  and  C15_15 
REMARK    3  A    between atoms: C15_15  and  C16_16 
REMARK    4  A    between atoms: C16_16  and  C17_17 
ROOT
ATOM      1  C3  <0> d   1      18.876   2.620   9.993  0.00  0.00     0.002 A 
ATOM      2  C4  <0> d   1      18.103   3.746   9.744  0.00  0.00     0.020 A 
ATOM      3  C5  <0> d   1      17.545   4.443  10.799  0.00  0.00     0.022 A 
ATOM      4  C6  <0> d   1      17.751   4.022  12.105  0.00  0.00     0.032 A 
ATOM      5  S7  <0> d   1      17.034   4.936  13.429  0.00  0.00    -0.086 SA
ATOM      6  C8  <0> d   1      17.943   4.400  14.837  0.00  0.00     0.032 A 
ATOM      7  C9  <0> d   1      17.909   5.161  15.998  0.00  0.00     0.021 A 
ATOM      8  C10 <0> d   1      18.618   4.758  17.115  0.00  0.00     0.002 A 
ATOM      9  C11 <0> d   1      19.362   3.594  17.077  0.00  0.00     0.002 A 
ATOM     10  C12 <0> d   1      19.401   2.831  15.924  0.00  0.00     0.031 A 
ATOM     11  C13 <0> d   1      18.690   3.227  14.796  0.00  0.00     0.052 A 
ATOM     12  N14 <0> d   1      18.746   2.430  13.655  0.00  0.00    -0.345 N 
ATOM     13  C26 <0> d   1      18.521   2.891  12.360  0.00  0.00     0.053 A 
ATOM     14  C27 <0> d   1      19.078   2.190  11.296  0.00  0.00     0.049 A 
ENDROOT
BRANCH  12  15
ATOM     15  C15 <0> d   1      19.063   1.011  13.829  0.00  0.00     0.131 C 
BRANCH  15  16
ATOM     16  C16 <0> d   1      17.766   0.202  13.888  0.00  0.00     0.053 C 
BRANCH  16  17
ATOM     17  C17 <0> d   1      17.912  -1.060  13.035  0.00  0.00     0.189 C 
ATOM     18  N23 <0> d   1      17.698  -0.723  11.622  0.00  0.00    -0.071 N 
ATOM     19  C22 <0> d   1      17.761  -1.940  10.805  0.00  0.00     0.235 C 
ATOM     20  H24 <0> d   1      18.412  -0.077  11.319  0.00  0.00     0.279 HD
ATOM     21  C25 <0> d   1      16.377  -0.098  11.468  0.00  0.00     0.270 C 
ATOM     22  C21 <0> d   1      19.160  -2.550  10.900  0.00  0.00     0.028 C 
ATOM     23  C20 <0> d   1      19.460  -2.899  12.361  0.00  0.00     0.004 C 
ATOM     24  C19 <0> d   1      19.318  -1.636  13.216  0.00  0.00     0.033 C 
ENDBRANCH  16  17
ENDBRANCH  15  16
ENDBRANCH  12  15
BRANCH   1  25
ATOM     25  S2  <0> d   1      19.594   1.731   8.651  0.00  0.00    -0.134 SA
ATOM     26  C1  <0> d   1      18.266   0.601   8.152  0.00  0.00     0.095 C 
ENDBRANCH   1  25
TORSDOF 4
ENDMDL
MODEL 7
REMARK VINA RESULT:      -7.4      2.194      5.684
REMARK  4 active torsions:
REMARK  status: ('A' for Active; 'I' for Inactive)
REMARK    1  A    between atoms: S2_2  and  C3_3 
REMARK    2  A    between atoms: N14_14  and  C15_15 
REMARK    3  A    between atoms: C15_15  and  C16_16 
REMARK    4  A    between atoms: C16_16  and  C17_17 
ROOT
ATOM      1  C3  <0> d   1      19.123   1.740  10.295  0.00  0.00     0.002 A 
ATOM      2  C4  <0> d   1      18.395   2.639   9.528  0.00  0.00     0.020 A 
ATOM      3  C5  <0> d   1      17.798   3.731  10.129  0.00  0.00     0.022 A 
ATOM      4  C6  <0> d   1      17.922   3.932  11.497  0.00  0.00     0.032 A 
ATOM      5  S7  <0> d   1      17.158   5.338  12.233  0.00  0.00    -0.086 SA
ATOM      6  C8  <0> d   1      17.975   5.482  13.786  0.00  0.00     0.032 A 
ATOM      7  C9  <0> d   1      17.898   6.678  14.486  0.00  0.00     0.021 A 
ATOM      8  C10 <0> d   1      18.534   6.812  15.707  0.00  0.00     0.002 A 
ATOM      9  C11 <0> d   1      19.248   5.752  16.233  0.00  0.00     0.002 A 
ATOM     10  C12 <0> d   1      19.329   4.557  15.541  0.00  0.00     0.031 A 
ATOM     11  C13 <0> d   1      18.692   4.412  14.314  0.00  0.00     0.052 A 
ATOM     12  N14 <0> d   1      18.788   3.192  13.649  0.00  0.00    -0.345 N 
ATOM     13  C26 <0> d   1      18.646   3.031  12.272  0.00  0.00     0.053 A 
ATOM     14  C27 <0> d   1      19.242   1.932  11.664  0.00  0.00     0.049 A 
ENDROOT
BRANCH  12  15
ATOM     15  C15 <0> d   1      19.057   1.997  14.451  0.00  0.00     0.131 C 
BRANCH  15  16
ATOM     16  C16 <0> d   1      17.747   1.252  14.712  0.00  0.00     0.053 C 
BRANCH  16  17
ATOM     17  C17 <0> d   1      17.878   0.423  15.992  0.00  0.00     0.189 C 
ATOM     18  N23 <0> d   1      18.965  -0.551  15.835  0.00  0.00    -0.071 N 
ATOM     19  C22 <0> d   1      19.047  -1.402  17.028  0.00  0.00     0.235 C 
ATOM     20  H24 <0> d   1      19.839  -0.061  15.710  0.00  0.00     0.279 HD
ATOM     21  C25 <0> d   1      18.701  -1.387  14.655  0.00  0.00     0.270 C 
ATOM     22  C21 <0> d   1      19.400  -0.545  18.245  0.00  0.00     0.028 C 
ATOM     23  C20 <0> d   1      18.315   0.516  18.447  0.00  0.00     0.004 C 
ATOM     24  C19 <0> d   1      18.185   1.350  17.169  0.00  0.00     0.033 C 
ENDBRANCH  16  17
ENDBRANCH  15  16
ENDBRANCH  12  15
BRANCH   1  25
ATOM     25  S2  <0> d   1      19.889   0.349   9.531  0.00  0.00    -0.134 SA
ATOM     26  C1  <0> d   1      20.550  -0.580  10.942  0.00  0.00     0.095 C 
ENDBRANCH   1  25
TORSDOF 4
ENDMDL
MODEL 8
REMARK VINA RESULT:      -7.4      2.543      6.444
REMARK  4 active torsions:
REMARK  status: ('A' for Active; 'I' for Inactive)
REMARK    1  A    between atoms: S2_2  and  C3_3 
REMARK    2  A    between atoms: N14_14  and  C15_15 
REMARK    3  A    between atoms: C15_15  and  C16_16 
REMARK    4  A    between atoms: C16_16  and  C17_17 
ROOT
ATOM      1  C3  <0> d   1      18.570  -1.171   8.007  0.00  0.00     0.002 A 
ATOM      2  C4  <0> d   1      17.577  -0.200   7.987  0.00  0.00     0.020 A 
ATOM      3  C5  <0> d   1      17.002   0.220   9.171  0.00  0.00     0.022 A 
ATOM      4  C6  <0> d   1      17.411  -0.323  10.381  0.00  0.00     0.032 A 
ATOM      5  S7  <0> d   1      16.667   0.240  11.874  0.00  0.00    -0.086 SA
ATOM      6  C8  <0> d   1      17.794  -0.288  13.119  0.00  0.00     0.032 A 
ATOM      7  C9  <0> d   1      17.731   0.287  14.381  0.00  0.00     0.021 A 
ATOM      8  C10 <0> d   1      18.609  -0.112  15.372  0.00  0.00     0.002 A 
ATOM      9  C11 <0> d   1      19.553  -1.086  15.106  0.00  0.00     0.002 A 
ATOM     10  C12 <0> d   1      19.622  -1.663  13.851  0.00  0.00     0.031 A 
ATOM     11  C13 <0> d   1      18.743  -1.269  12.848  0.00  0.00     0.052 A 
ATOM     12  N14 <0> d   1      18.836  -1.877  11.599  0.00  0.00    -0.345 N 
ATOM     13  C26 <0> d   1      18.403  -1.300  10.407  0.00  0.00     0.053 A 
ATOM     14  C27 <0> d   1      18.976  -1.724   9.213  0.00  0.00     0.049 A 
ENDROOT
BRANCH  12  15
ATOM     15  C15 <0> d   1      19.432  -3.213  11.533  0.00  0.00     0.131 C 
BRANCH  15  16
ATOM     16  C16 <0> d   1      18.322  -4.265  11.483  0.00  0.00     0.053 C 
BRANCH  16  17
ATOM     17  C17 <0> d   1      18.584  -5.229  10.323  0.00  0.00     0.189 C 
ATOM     18  N23 <0> d   1      17.614  -4.978   9.251  0.00  0.00    -0.071 N 
ATOM     19  C22 <0> d   1      17.808  -5.948   8.167  0.00  0.00     0.235 C 
ATOM     20  H24 <0> d   1      17.744  -4.043   8.892  0.00  0.00     0.279 HD
ATOM     21  C25 <0> d   1      16.252  -5.110   9.787  0.00  0.00     0.270 C 
ATOM     22  C21 <0> d   1      19.197  -5.760   7.553  0.00  0.00     0.028 C 
ATOM     23  C20 <0> d   1      20.260  -5.979   8.633  0.00  0.00     0.004 C 
ATOM     24  C19 <0> d   1      20.002  -5.013   9.793  0.00  0.00     0.033 C 
ENDBRANCH  16  17
ENDBRANCH  15  16
ENDBRANCH  12  15
BRANCH   1  25
ATOM     25  S2  <0> d   1      19.308  -1.707   6.499  0.00  0.00    -0.134 SA
ATOM     26  C1  <0> d   1      19.182  -0.240   5.439  0.00  0.00     0.095 C 
ENDBRANCH   1  25
TORSDOF 4
ENDMDL
MODEL 9
REMARK VINA RESULT:      -7.4      2.822      7.611
REMARK  4 active torsions:
REMARK  status: ('A' for Active; 'I' for Inactive)
REMARK    1  A    between atoms: S2_2  and  C3_3 
REMARK    2  A    between atoms: N14_14  and  C15_15 
REMARK    3  A    between atoms: C15_15  and  C16_16 
REMARK    4  A    between atoms: C16_16  and  C17_17 
ROOT
ATOM      1  C3  <0> d   1      18.662   0.340  16.150  0.00  0.00     0.002 A 
ATOM      2  C4  <0> d   1      19.127   0.862  17.350  0.00  0.00     0.020 A 
ATOM      3  C5  <0> d   1      19.256   2.229  17.501  0.00  0.00     0.022 A 
ATOM      4  C6  <0> d   1      18.926   3.085  16.459  0.00  0.00     0.032 A 
ATOM      5  S7  <0> d   1      19.092   4.823  16.686  0.00  0.00    -0.086 SA
ATOM      6  C8  <0> d   1      18.112   5.501  15.390  0.00  0.00     0.032 A 
ATOM      7  C9  <0> d   1      17.709   6.827  15.467  0.00  0.00     0.021 A 
ATOM      8  C10 <0> d   1      16.937   7.378  14.460  0.00  0.00     0.002 A 
ATOM      9  C11 <0> d   1      16.564   6.607  13.375  0.00  0.00     0.002 A 
ATOM     10  C12 <0> d   1      16.962   5.286  13.293  0.00  0.00     0.031 A 
ATOM     11  C13 <0> d   1      17.740   4.723  14.299  0.00  0.00     0.052 A 
ATOM     12  N14 <0> d   1      18.128   3.390  14.179  0.00  0.00    -0.345 N 
ATOM     13  C26 <0> d   1      18.464   2.568  15.252  0.00  0.00     0.053 A 
ATOM     14  C27 <0> d   1      18.338   1.191  15.102  0.00  0.00     0.049 A 
ENDROOT
BRANCH  12  15
ATOM     15  C15 <0> d   1      18.188   2.815  12.834  0.00  0.00     0.131 C 
BRANCH  15  16
ATOM     16  C16 <0> d   1      19.538   3.149  12.196  0.00  0.00     0.053 C 
BRANCH  16  17
ATOM     17  C17 <0> d   1      19.683   2.382  10.879  0.00  0.00     0.189 C 
ATOM     18  N23 <0> d   1      19.619   0.940  11.143  0.00  0.00    -0.071 N 
ATOM     19  C22 <0> d   1      19.834   0.195   9.897  0.00  0.00     0.235 C 
ATOM     20  H24 <0> d   1      18.713   0.707  11.521  0.00  0.00     0.279 HD
ATOM     21  C25 <0> d   1      20.661   0.578  12.115  0.00  0.00     0.270 C 
ATOM     22  C21 <0> d   1      18.707   0.509   8.911  0.00  0.00     0.028 C 
ATOM     23  C20 <0> d   1      18.699   2.011   8.615  0.00  0.00     0.004 C 
ATOM     24  C19 <0> d   1      18.550   2.780   9.931  0.00  0.00     0.033 C 
ENDBRANCH  16  17
ENDBRANCH  15  16
ENDBRANCH  12  15
BRANCH   1  25
ATOM     25  S2  <0> d   1      18.491  -1.403  15.955  0.00  0.00    -0.134 SA
ATOM     26  C1  <0> d   1      18.762  -1.643  14.177  0.00  0.00     0.095 C 
ENDBRANCH   1  25
TORSDOF 4
ENDMDL
