MODEL 1
REMARK VINA RESULT:      -9.0      0.000      0.000
REMARK  7 active torsions:
REMARK  status: ('A' for Active; 'I' for Inactive)
REMARK    1  A    between atoms: C5_5  and  C6_6 
REMARK       I    between atoms: C6_6  and  N8_8 
REMARK    2  A    between atoms: N8_8  and  C9_9 
REMARK    3  A    between atoms: C9_9  and  C10_10 
REMARK    4  A    between atoms: C10_10  and  C11_11 
REMARK    5  A    between atoms: C14_14  and  S15_15 
REMARK    6  A    between atoms: S15_15  and  N18_18 
REMARK       I    between atoms: C19_19  and  N21_21 
REMARK    7  A    between atoms: N21_21  and  C22_22 
ROOT
ATOM      1  C11 ZIN A   1      18.207   0.293   6.291  0.00  0.00    -0.057 A 
ATOM      2  C12 ZIN A   1      19.044   1.355   6.576  0.00  0.00     0.009 A 
ATOM      3  C13 ZIN A   1      19.110   1.857   7.862  0.00  0.00     0.026 A 
ATOM      4  C14 ZIN A   1      18.340   1.297   8.864  0.00  0.00     0.081 A 
ATOM      5  C28 ZIN A   1      17.502   0.235   8.578  0.00  0.00     0.026 A 
ATOM      6  C29 ZIN A   1      17.433  -0.264   7.291  0.00  0.00     0.009 A 
ENDROOT
BRANCH   4   7
ATOM      7  S15 ZIN A   1      18.425   1.936  10.503  0.00  0.00     0.286 S 
ATOM      8  O16 ZIN A   1      19.719   2.505  10.645  0.00  0.00    -0.198 OA
ATOM      9  O17 ZIN A   1      17.226   2.670  10.711  0.00  0.00    -0.198 OA
BRANCH   7  10
ATOM     10  N18 ZIN A   1      18.366   0.644  11.537  0.00  0.00    -0.115 NA
ATOM     11  C19 ZIN A   1      18.582   0.818  12.809  0.00  0.00     0.284 C 
ATOM     12  O20 ZIN A   1      18.853   2.052  13.285  0.00  0.00    -0.149 OA
ATOM     13  N21 ZIN A   1      18.533  -0.254  13.666  0.00  0.00    -0.347 N 
ATOM     14  H43 ZIN A   1      18.338  -1.140  13.324  0.00  0.00     0.163 HD
BRANCH  13  15
ATOM     15  C22 ZIN A   1      18.777  -0.058  15.098  0.00  0.00     0.085 C 
ATOM     16  C27 ZIN A   1      19.154  -1.396  15.738  0.00  0.00     0.025 C 
ATOM     17  C26 ZIN A   1      19.407  -1.191  17.233  0.00  0.00     0.002 C 
ATOM     18  C25 ZIN A   1      18.140  -0.647  17.896  0.00  0.00     0.000 C 
ATOM     19  C24 ZIN A   1      17.763   0.690  17.256  0.00  0.00     0.002 C 
ATOM     20  C23 ZIN A   1      17.509   0.486  15.760  0.00  0.00     0.025 C 
ENDBRANCH  13  15
ENDBRANCH   7  10
ENDBRANCH   4   7
BRANCH   1  21
ATOM     21  C10 ZIN A   1      18.135  -0.256   4.889  0.00  0.00     0.058 C 
BRANCH  21  22
ATOM     22  C9  ZIN A   1      19.235  -1.301   4.695  0.00  0.00     0.127 C 
BRANCH  22  23
ATOM     23  N8  ZIN A   1      18.654  -2.643   4.789  0.00  0.00    -0.355 N 
ATOM     24  C6  ZIN A   1      19.126  -3.519   5.699  0.00  0.00     0.271 C 
ATOM     25  O7  ZIN A   1      20.033  -3.194   6.440  0.00  0.00    -0.266 OA
ATOM     26  H36 ZIN A   1      17.931  -2.902   4.198  0.00  0.00     0.162 HD
BRANCH  24  27
ATOM     27  C5  ZIN A   1      18.540  -4.876   5.796  0.00  0.00     0.141 A 
ATOM     28  N4  ZIN A   1      17.494  -5.205   5.042  0.00  0.00    -0.252 NA
ATOM     29  C3  ZIN A   1      16.975  -6.413   5.131  0.00  0.00     0.144 A 
ATOM     30  C2  ZIN A   1      17.516  -7.341   6.008  0.00  0.00     0.048 A 
ATOM     31  C1  ZIN A   1      16.917  -8.721   6.105  0.00  0.00     0.072 C 
ATOM     32  N31 ZIN A   1      18.552  -7.018   6.762  0.00  0.00    -0.262 NA
ATOM     33  C30 ZIN A   1      19.082  -5.811   6.676  0.00  0.00     0.154 A 
ENDBRANCH  24  27
ENDBRANCH  22  23
ENDBRANCH  21  22
ENDBRANCH   1  21
TORSDOF 7
ENDMDL
MODEL 2
REMARK VINA RESULT:      -8.9      1.946      2.368
REMARK  7 active torsions:
REMARK  status: ('A' for Active; 'I' for Inactive)
REMARK    1  A    between atoms: C5_5  and  C6_6 
REMARK       I    between atoms: C6_6  and  N8_8 
REMARK    2  A    between atoms: N8_8  and  C9_9 
REMARK    3  A    between atoms: C9_9  and  C10_10 
REMARK    4  A    between atoms: C10_10  and  C11_11 
REMARK    5  A    between atoms: C14_14  and  S15_15 
REMARK    6  A    between atoms: S15_15  and  N18_18 
REMARK       I    between atoms: C19_19  and  N21_21 
REMARK    7  A    between atoms: N21_21  and  C22_22 
ROOT
ATOM      1  C11 ZIN A   1      18.226   0.284   6.432  0.00  0.00    -0.057 A 
ATOM      2  C12 ZIN A   1      19.181   1.247   6.701  0.00  0.00     0.009 A 
ATOM      3  C13 ZIN A   1      19.235   1.836   7.950  0.00  0.00     0.026 A 
ATOM      4  C14 ZIN A   1      18.335   1.464   8.931  0.00  0.00     0.081 A 
ATOM      5  C28 ZIN A   1      17.379   0.502   8.661  0.00  0.00     0.026 A 
ATOM      6  C29 ZIN A   1      17.323  -0.085   7.411  0.00  0.00     0.009 A 
ENDROOT
BRANCH   4   7
ATOM      7  S15 ZIN A   1      18.404   2.216  10.522  0.00  0.00     0.286 S 
ATOM      8  O16 ZIN A   1      19.656   2.884  10.596  0.00  0.00    -0.198 OA
ATOM      9  O17 ZIN A   1      17.159   2.874  10.710  0.00  0.00    -0.198 OA
BRANCH   7  10
ATOM     10  N18 ZIN A   1      18.460   0.994  11.639  0.00  0.00    -0.115 NA
ATOM     11  C19 ZIN A   1      18.222   1.248  12.893  0.00  0.00     0.284 C 
ATOM     12  O20 ZIN A   1      17.929   2.507  13.283  0.00  0.00    -0.149 OA
ATOM     13  N21 ZIN A   1      18.268   0.235  13.819  0.00  0.00    -0.347 N 
ATOM     14  H43 ZIN A   1      18.478  -0.669  13.538  0.00  0.00     0.163 HD
BRANCH  13  15
ATOM     15  C22 ZIN A   1      18.001   0.521  15.231  0.00  0.00     0.085 C 
ATOM     16  C27 ZIN A   1      19.224   1.196  15.855  0.00  0.00     0.025 C 
ATOM     17  C26 ZIN A   1      18.945   1.494  17.329  0.00  0.00     0.002 C 
ATOM     18  C25 ZIN A   1      18.652   0.186  18.068  0.00  0.00     0.000 C 
ATOM     19  C24 ZIN A   1      17.429  -0.489  17.444  0.00  0.00     0.002 C 
ATOM     20  C23 ZIN A   1      17.708  -0.788  15.969  0.00  0.00     0.025 C 
ENDBRANCH  13  15
ENDBRANCH   7  10
ENDBRANCH   4   7
BRANCH   1  21
ATOM     21  C10 ZIN A   1      18.167  -0.360   5.071  0.00  0.00     0.058 C 
BRANCH  21  22
ATOM     22  C9  ZIN A   1      18.786  -1.758   5.143  0.00  0.00     0.127 C 
BRANCH  22  23
ATOM     23  N8  ZIN A   1      18.361  -2.416   6.381  0.00  0.00    -0.355 N 
ATOM     24  C6  ZIN A   1      19.162  -3.328   6.968  0.00  0.00     0.271 C 
ATOM     25  O7  ZIN A   1      20.235  -3.604   6.469  0.00  0.00    -0.266 OA
ATOM     26  H36 ZIN A   1      17.505  -2.196   6.779  0.00  0.00     0.162 HD
BRANCH  24  27
ATOM     27  C5  ZIN A   1      18.733  -3.994   8.220  0.00  0.00     0.141 A 
ATOM     28  N4  ZIN A   1      19.138  -5.233   8.488  0.00  0.00    -0.252 NA
ATOM     29  C3  ZIN A   1      18.754  -5.822   9.603  0.00  0.00     0.144 A 
ATOM     30  C2  ZIN A   1      17.931  -5.154  10.497  0.00  0.00     0.048 A 
ATOM     31  C1  ZIN A   1      17.495  -5.833  11.770  0.00  0.00     0.072 C 
ATOM     32  N31 ZIN A   1      17.522  -3.925  10.233  0.00  0.00    -0.262 NA
ATOM     33  C30 ZIN A   1      17.906  -3.324   9.120  0.00  0.00     0.154 A 
ENDBRANCH  24  27
ENDBRANCH  22  23
ENDBRANCH  21  22
ENDBRANCH   1  21
TORSDOF 7
ENDMDL
MODEL 3
REMARK VINA RESULT:      -8.7      2.943      3.695
REMARK  7 active torsions:
REMARK  status: ('A' for Active; 'I' for Inactive)
REMARK    1  A    between atoms: C5_5  and  C6_6 
REMARK       I    between atoms: C6_6  and  N8_8 
REMARK    2  A    between atoms: N8_8  and  C9_9 
REMARK    3  A    between atoms: C9_9  and  C10_10 
REMARK    4  A    between atoms: C10_10  and  C11_11 
REMARK    5  A    between atoms: C14_14  and  S15_15 
REMARK    6  A    between atoms: S15_15  and  N18_18 
REMARK       I    between atoms: C19_19  and  N21_21 
REMARK    7  A    between atoms: N21_21  and  C22_22 
ROOT
ATOM      1  C11 ZIN A   1      18.234   0.364   6.529  0.00  0.00    -0.057 A 
ATOM      2  C12 ZIN A   1      17.354  -0.353   7.318  0.00  0.00     0.009 A 
ATOM      3  C13 ZIN A   1      17.263  -0.086   8.671  0.00  0.00     0.026 A 
ATOM      4  C14 ZIN A   1      18.053   0.899   9.236  0.00  0.00     0.081 A 
ATOM      5  C28 ZIN A   1      18.934   1.615   8.447  0.00  0.00     0.026 A 
ATOM      6  C29 ZIN A   1      19.027   1.345   7.095  0.00  0.00     0.009 A 
ENDROOT
BRANCH   4   7
ATOM      7  S15 ZIN A   1      17.936   1.240  10.960  0.00  0.00     0.286 S 
ATOM      8  O16 ZIN A   1      16.684   0.723  11.388  0.00  0.00    -0.198 OA
ATOM      9  O17 ZIN A   1      19.176   0.847  11.532  0.00  0.00    -0.198 OA
BRANCH   7  10
ATOM     10  N18 ZIN A   1      17.845   2.885  11.129  0.00  0.00    -0.115 NA
ATOM     11  C19 ZIN A   1      17.779   3.414  12.317  0.00  0.00     0.284 C 
ATOM     12  O20 ZIN A   1      17.786   2.622  13.410  0.00  0.00    -0.149 OA
ATOM     13  N21 ZIN A   1      17.704   4.778  12.457  0.00  0.00    -0.347 N 
ATOM     14  H43 ZIN A   1      17.700   5.347  11.671  0.00  0.00     0.163 HD
BRANCH  13  15
ATOM     15  C22 ZIN A   1      17.629   5.374  13.793  0.00  0.00     0.085 C 
ATOM     16  C27 ZIN A   1      16.672   6.568  13.766  0.00  0.00     0.025 C 
ATOM     17  C26 ZIN A   1      16.595   7.190  15.162  0.00  0.00     0.002 C 
ATOM     18  C25 ZIN A   1      17.987   7.661  15.589  0.00  0.00     0.000 C 
ATOM     19  C24 ZIN A   1      18.943   6.468  15.615  0.00  0.00     0.002 C 
ATOM     20  C23 ZIN A   1      19.022   5.845  14.219  0.00  0.00     0.025 C 
ENDBRANCH  13  15
ENDBRANCH   7  10
ENDBRANCH   4   7
BRANCH   1  21
ATOM     21  C10 ZIN A   1      18.333   0.073   5.054  0.00  0.00     0.058 C 
BRANCH  21  22
ATOM     22  C9  ZIN A   1      19.426  -0.970   4.813  0.00  0.00     0.127 C 
BRANCH  22  23
ATOM     23  N8  ZIN A   1      18.824  -2.305   4.769  0.00  0.00    -0.355 N 
ATOM     24  C6  ZIN A   1      19.209  -3.248   5.653  0.00  0.00     0.271 C 
ATOM     25  O7  ZIN A   1      20.054  -2.988   6.486  0.00  0.00    -0.266 OA
ATOM     26  H36 ZIN A   1      18.149  -2.512   4.104  0.00  0.00     0.162 HD
BRANCH  24  27
ATOM     27  C5  ZIN A   1      18.601  -4.597   5.609  0.00  0.00     0.141 A 
ATOM     28  N4  ZIN A   1      17.594  -4.848   4.776  0.00  0.00    -0.252 NA
ATOM     29  C3  ZIN A   1      17.055  -6.051   4.740  0.00  0.00     0.144 A 
ATOM     30  C2  ZIN A   1      17.535  -7.054   5.569  0.00  0.00     0.048 A 
ATOM     31  C1  ZIN A   1      16.914  -8.427   5.523  0.00  0.00     0.072 C 
ATOM     32  N31 ZIN A   1      18.531  -6.809   6.402  0.00  0.00    -0.262 NA
ATOM     33  C30 ZIN A   1      19.081  -5.608   6.441  0.00  0.00     0.154 A 
ENDBRANCH  24  27
ENDBRANCH  22  23
ENDBRANCH  21  22
ENDBRANCH   1  21
TORSDOF 7
ENDMDL
MODEL 4
REMARK VINA RESULT:      -8.7      2.420     10.368
REMARK  7 active torsions:
REMARK  status: ('A' for Active; 'I' for Inactive)
REMARK    1  A    between atoms: C5_5  and  C6_6 
REMARK       I    between atoms: C6_6  and  N8_8 
REMARK    2  A    between atoms: N8_8  and  C9_9 
REMARK    3  A    between atoms: C9_9  and  C10_10 
REMARK    4  A    between atoms: C10_10  and  C11_11 
REMARK    5  A    between atoms: C14_14  and  S15_15 
REMARK    6  A    between atoms: S15_15  and  N18_18 
REMARK       I    between atoms: C19_19  and  N21_21 
REMARK    7  A    between atoms: N21_21  and  C22_22 
ROOT
ATOM      1  C11 ZIN A   1      18.352   1.465   9.093  0.00  0.00    -0.057 A 
ATOM      2  C12 ZIN A   1      19.077   1.884   7.992  0.00  0.00     0.009 A 
ATOM      3  C13 ZIN A   1      19.325   1.005   6.955  0.00  0.00     0.026 A 
ATOM      4  C14 ZIN A   1      18.850  -0.292   7.016  0.00  0.00     0.081 A 
ATOM      5  C28 ZIN A   1      18.127  -0.710   8.118  0.00  0.00     0.026 A 
ATOM      6  C29 ZIN A   1      17.882   0.168   9.158  0.00  0.00     0.009 A 
ENDROOT
BRANCH   4   7
ATOM      7  S15 ZIN A   1      19.167  -1.411   5.694  0.00  0.00     0.286 S 
ATOM      8  O16 ZIN A   1      19.787  -0.651   4.666  0.00  0.00    -0.198 OA
ATOM      9  O17 ZIN A   1      19.762  -2.562   6.276  0.00  0.00    -0.198 OA
BRANCH   7  10
ATOM     10  N18 ZIN A   1      17.699  -1.894   5.098  0.00  0.00    -0.115 NA
ATOM     11  C19 ZIN A   1      17.613  -2.973   4.375  0.00  0.00     0.284 C 
ATOM     12  O20 ZIN A   1      18.722  -3.699   4.112  0.00  0.00    -0.149 OA
ATOM     13  N21 ZIN A   1      16.396  -3.373   3.882  0.00  0.00    -0.347 N 
ATOM     14  H43 ZIN A   1      15.601  -2.852   4.072  0.00  0.00     0.163 HD
BRANCH  13  15
ATOM     15  C22 ZIN A   1      16.300  -4.588   3.068  0.00  0.00     0.085 C 
ATOM     16  C27 ZIN A   1      15.340  -4.345   1.901  0.00  0.00     0.025 C 
ATOM     17  C26 ZIN A   1      15.239  -5.614   1.052  0.00  0.00     0.002 C 
ATOM     18  C25 ZIN A   1      14.714  -6.764   1.913  0.00  0.00     0.000 C 
ATOM     19  C24 ZIN A   1      15.672  -7.007   3.080  0.00  0.00     0.002 C 
ATOM     20  C23 ZIN A   1      15.774  -5.738   3.931  0.00  0.00     0.025 C 
ENDBRANCH  13  15
ENDBRANCH   7  10
ENDBRANCH   4   7
BRANCH   1  21
ATOM     21  C10 ZIN A   1      18.080   2.423  10.225  0.00  0.00     0.058 C 
BRANCH  21  22
ATOM     22  C9  ZIN A   1      19.375   2.678  10.998  0.00  0.00     0.127 C 
BRANCH  22  23
ATOM     23  N8  ZIN A   1      19.171   2.353  12.412  0.00  0.00    -0.355 N 
ATOM     24  C6  ZIN A   1      19.498   1.129  12.876  0.00  0.00     0.271 C 
ATOM     25  O7  ZIN A   1      19.962   0.298  12.120  0.00  0.00    -0.266 OA
ATOM     26  H36 ZIN A   1      18.801   3.016  13.014  0.00  0.00     0.162 HD
BRANCH  24  27
ATOM     27  C5  ZIN A   1      19.293   0.800  14.305  0.00  0.00     0.141 A 
ATOM     28  N4  ZIN A   1      19.235  -0.472  14.694  0.00  0.00    -0.252 NA
ATOM     29  C3  ZIN A   1      19.051  -0.761  15.966  0.00  0.00     0.144 A 
ATOM     30  C2  ZIN A   1      18.919   0.256  16.900  0.00  0.00     0.048 A 
ATOM     31  C1  ZIN A   1      18.708  -0.082  18.354  0.00  0.00     0.072 C 
ATOM     32  N31 ZIN A   1      18.970   1.520  16.518  0.00  0.00    -0.262 NA
ATOM     33  C30 ZIN A   1      19.159   1.820  15.246  0.00  0.00     0.154 A 
ENDBRANCH  24  27
ENDBRANCH  22  23
ENDBRANCH  21  22
ENDBRANCH   1  21
TORSDOF 7
ENDMDL
MODEL 5
REMARK VINA RESULT:      -8.7      3.496     10.859
REMARK  7 active torsions:
REMARK  status: ('A' for Active; 'I' for Inactive)
REMARK    1  A    between atoms: C5_5  and  C6_6 
REMARK       I    between atoms: C6_6  and  N8_8 
REMARK    2  A    between atoms: N8_8  and  C9_9 
REMARK    3  A    between atoms: C9_9  and  C10_10 
REMARK    4  A    between atoms: C10_10  and  C11_11 
REMARK    5  A    between atoms: C14_14  and  S15_15 
REMARK    6  A    between atoms: S15_15  and  N18_18 
REMARK       I    between atoms: C19_19  and  N21_21 
REMARK    7  A    between atoms: N21_21  and  C22_22 
ROOT
ATOM      1  C11 ZIN A   1      18.607  -0.421  14.372  0.00  0.00    -0.057 A 
ATOM      2  C12 ZIN A   1      17.402   0.025  13.861  0.00  0.00     0.009 A 
ATOM      3  C13 ZIN A   1      17.376   1.096  12.988  0.00  0.00     0.026 A 
ATOM      4  C14 ZIN A   1      18.554   1.722  12.625  0.00  0.00     0.081 A 
ATOM      5  C28 ZIN A   1      19.759   1.276  13.136  0.00  0.00     0.026 A 
ATOM      6  C29 ZIN A   1      19.784   0.207  14.012  0.00  0.00     0.009 A 
ENDROOT
BRANCH   4   7
ATOM      7  S15 ZIN A   1      18.520   3.087  11.512  0.00  0.00     0.286 S 
ATOM      8  O16 ZIN A   1      17.161   3.270  11.143  0.00  0.00    -0.198 OA
ATOM      9  O17 ZIN A   1      19.309   4.108  12.106  0.00  0.00    -0.198 OA
BRANCH   7  10
ATOM     10  N18 ZIN A   1      19.319   2.619  10.138  0.00  0.00    -0.115 NA
ATOM     11  C19 ZIN A   1      18.771   1.762   9.327  0.00  0.00     0.284 C 
ATOM     12  O20 ZIN A   1      17.550   1.255   9.605  0.00  0.00    -0.149 OA
ATOM     13  N21 ZIN A   1      19.433   1.375   8.188  0.00  0.00    -0.347 N 
ATOM     14  H43 ZIN A   1      20.309   1.739   7.989  0.00  0.00     0.163 HD
BRANCH  13  15
ATOM     15  C22 ZIN A   1      18.815   0.409   7.275  0.00  0.00     0.085 C 
ATOM     16  C27 ZIN A   1      19.287  -1.002   7.630  0.00  0.00     0.025 C 
ATOM     17  C26 ZIN A   1      18.643  -2.010   6.675  0.00  0.00     0.002 C 
ATOM     18  C25 ZIN A   1      19.049  -1.683   5.237  0.00  0.00     0.000 C 
ATOM     19  C24 ZIN A   1      18.578  -0.272   4.882  0.00  0.00     0.002 C 
ATOM     20  C23 ZIN A   1      19.222   0.737   5.836  0.00  0.00     0.025 C 
ENDBRANCH  13  15
ENDBRANCH   7  10
ENDBRANCH   4   7
BRANCH   1  21
ATOM     21  C10 ZIN A   1      18.636  -1.590  15.323  0.00  0.00     0.058 C 
BRANCH  21  22
ATOM     22  C9  ZIN A   1      19.096  -1.111  16.702  0.00  0.00     0.127 C 
BRANCH  22  23
ATOM     23  N8  ZIN A   1      18.390   0.124  17.050  0.00  0.00    -0.355 N 
ATOM     24  C6  ZIN A   1      18.928   0.979  17.943  0.00  0.00     0.271 C 
ATOM     25  O7  ZIN A   1      19.998   0.725  18.458  0.00  0.00    -0.266 OA
ATOM     26  H36 ZIN A   1      17.536   0.328  16.639  0.00  0.00     0.162 HD
BRANCH  24  27
ATOM     27  C5  ZIN A   1      18.214   2.229  18.295  0.00  0.00     0.141 A 
ATOM     28  N4  ZIN A   1      17.197   2.196  19.152  0.00  0.00    -0.252 NA
ATOM     29  C3  ZIN A   1      16.564   3.310  19.463  0.00  0.00     0.144 A 
ATOM     30  C2  ZIN A   1      16.957   4.515  18.899  0.00  0.00     0.048 A 
ATOM     31  C1  ZIN A   1      16.229   5.785  19.258  0.00  0.00     0.072 C 
ATOM     32  N31 ZIN A   1      17.963   4.552  18.043  0.00  0.00    -0.262 NA
ATOM     33  C30 ZIN A   1      18.607   3.441  17.730  0.00  0.00     0.154 A 
ENDBRANCH  24  27
ENDBRANCH  22  23
ENDBRANCH  21  22
ENDBRANCH   1  21
TORSDOF 7
ENDMDL
MODEL 6
REMARK VINA RESULT:      -8.6      1.605      2.087
REMARK  7 active torsions:
REMARK  status: ('A' for Active; 'I' for Inactive)
REMARK    1  A    between atoms: C5_5  and  C6_6 
REMARK       I    between atoms: C6_6  and  N8_8 
REMARK    2  A    between atoms: N8_8  and  C9_9 
REMARK    3  A    between atoms: C9_9  and  C10_10 
REMARK    4  A    between atoms: C10_10  and  C11_11 
REMARK    5  A    between atoms: C14_14  and  S15_15 
REMARK    6  A    between atoms: S15_15  and  N18_18 
REMARK       I    between atoms: C19_19  and  N21_21 
REMARK    7  A    between atoms: N21_21  and  C22_22 
ROOT
ATOM      1  C11 ZIN A   1      18.280   0.657   8.575  0.00  0.00    -0.057 A 
ATOM      2  C12 ZIN A   1      17.481   0.532   9.696  0.00  0.00     0.009 A 
ATOM      3  C13 ZIN A   1      17.425   1.556  10.622  0.00  0.00     0.026 A 
ATOM      4  C14 ZIN A   1      18.169   2.706  10.428  0.00  0.00     0.081 A 
ATOM      5  C28 ZIN A   1      18.968   2.830   9.307  0.00  0.00     0.026 A 
ATOM      6  C29 ZIN A   1      19.027   1.804   8.383  0.00  0.00     0.009 A 
ENDROOT
BRANCH   4   7
ATOM      7  S15 ZIN A   1      18.097   4.011  11.609  0.00  0.00     0.286 S 
ATOM      8  O16 ZIN A   1      19.442   4.377  11.884  0.00  0.00    -0.198 OA
ATOM      9  O17 ZIN A   1      17.123   4.930  11.133  0.00  0.00    -0.198 OA
BRANCH   7  10
ATOM     10  N18 ZIN A   1      17.491   3.371  13.011  0.00  0.00    -0.115 NA
ATOM     11  C19 ZIN A   1      18.227   2.583  13.738  0.00  0.00     0.284 C 
ATOM     12  O20 ZIN A   1      19.487   2.287  13.350  0.00  0.00    -0.149 OA
ATOM     13  N21 ZIN A   1      17.724   2.053  14.901  0.00  0.00    -0.347 N 
ATOM     14  H43 ZIN A   1      16.820   2.266  15.179  0.00  0.00     0.163 HD
BRANCH  13  15
ATOM     15  C22 ZIN A   1      18.554   1.165  15.720  0.00  0.00     0.085 C 
ATOM     16  C27 ZIN A   1      17.980  -0.253  15.675  0.00  0.00     0.025 C 
ATOM     17  C26 ZIN A   1      18.845  -1.180  16.531  0.00  0.00     0.002 C 
ATOM     18  C25 ZIN A   1      18.856  -0.679  17.977  0.00  0.00     0.000 C 
ATOM     19  C24 ZIN A   1      19.429   0.739  18.021  0.00  0.00     0.002 C 
ATOM     20  C23 ZIN A   1      18.563   1.667  17.166  0.00  0.00     0.025 C 
ENDBRANCH  13  15
ENDBRANCH   7  10
ENDBRANCH   4   7
BRANCH   1  21
ATOM     21  C10 ZIN A   1      18.340  -0.459   7.563  0.00  0.00     0.058 C 
BRANCH  21  22
ATOM     22  C9  ZIN A   1      19.128  -1.633   8.148  0.00  0.00     0.127 C 
BRANCH  22  23
ATOM     23  N8  ZIN A   1      18.550  -2.893   7.673  0.00  0.00    -0.355 N 
ATOM     24  C6  ZIN A   1      19.094  -3.527   6.614  0.00  0.00     0.271 C 
ATOM     25  O7  ZIN A   1      20.064  -3.053   6.056  0.00  0.00    -0.266 OA
ATOM     26  H36 ZIN A   1      17.776  -3.271   8.118  0.00  0.00     0.162 HD
BRANCH  24  27
ATOM     27  C5  ZIN A   1      18.510  -4.801   6.133  0.00  0.00     0.141 A 
ATOM     28  N4  ZIN A   1      17.654  -4.799   5.115  0.00  0.00    -0.252 NA
ATOM     29  C3  ZIN A   1      17.136  -5.934   4.690  0.00  0.00     0.144 A 
ATOM     30  C2  ZIN A   1      17.483  -7.130   5.301  0.00  0.00     0.048 A 
ATOM     31  C1  ZIN A   1      16.887  -8.424   4.811  0.00  0.00     0.072 C 
ATOM     32  N31 ZIN A   1      18.329  -7.136   6.316  0.00  0.00    -0.262 NA
ATOM     33  C30 ZIN A   1      18.857  -6.004   6.746  0.00  0.00     0.154 A 
ENDBRANCH  24  27
ENDBRANCH  22  23
ENDBRANCH  21  22
ENDBRANCH   1  21
TORSDOF 7
ENDMDL
MODEL 7
REMARK VINA RESULT:      -8.6      3.445     11.685
REMARK  7 active torsions:
REMARK  status: ('A' for Active; 'I' for Inactive)
REMARK    1  A    between atoms: C5_5  and  C6_6 
REMARK       I    between atoms: C6_6  and  N8_8 
REMARK    2  A    between atoms: N8_8  and  C9_9 
REMARK    3  A    between atoms: C9_9  and  C10_10 
REMARK    4  A    between atoms: C10_10  and  C11_11 
REMARK    5  A    between atoms: C14_14  and  S15_15 
REMARK    6  A    between atoms: S15_15  and  N18_18 
REMARK       I    between atoms: C19_19  and  N21_21 
REMARK    7  A    between atoms: N21_21  and  C22_22 
ROOT
ATOM      1  C11 ZIN A   1      17.891  -0.486  15.647  0.00  0.00    -0.057 A 
ATOM      2  C12 ZIN A   1      17.367   0.515  14.850  0.00  0.00     0.009 A 
ATOM      3  C13 ZIN A   1      17.926   0.776  13.613  0.00  0.00     0.026 A 
ATOM      4  C14 ZIN A   1      19.008   0.037  13.172  0.00  0.00     0.081 A 
ATOM      5  C28 ZIN A   1      19.532  -0.963  13.970  0.00  0.00     0.026 A 
ATOM      6  C29 ZIN A   1      18.977  -1.221  15.209  0.00  0.00     0.009 A 
ENDROOT
BRANCH   4   7
ATOM      7  S15 ZIN A   1      19.718   0.370  11.595  0.00  0.00     0.286 S 
ATOM      8  O16 ZIN A   1      19.223   1.639  11.192  0.00  0.00    -0.198 OA
ATOM      9  O17 ZIN A   1      21.104   0.076  11.709  0.00  0.00    -0.198 OA
BRANCH   7  10
ATOM     10  N18 ZIN A   1      19.092  -0.735  10.532  0.00  0.00    -0.115 NA
ATOM     11  C19 ZIN A   1      19.256  -0.571   9.251  0.00  0.00     0.284 C 
ATOM     12  O20 ZIN A   1      19.936   0.500   8.790  0.00  0.00    -0.149 OA
ATOM     13  N21 ZIN A   1      18.737  -1.488   8.370  0.00  0.00    -0.347 N 
ATOM     14  H43 ZIN A   1      18.249  -2.257   8.702  0.00  0.00     0.163 HD
BRANCH  13  15
ATOM     15  C22 ZIN A   1      18.921  -1.302   6.928  0.00  0.00     0.085 C 
ATOM     16  C27 ZIN A   1      17.832  -0.370   6.392  0.00  0.00     0.025 C 
ATOM     17  C26 ZIN A   1      18.024  -0.177   4.886  0.00  0.00     0.002 C 
ATOM     18  C25 ZIN A   1      17.928  -1.532   4.181  0.00  0.00     0.000 C 
ATOM     19  C24 ZIN A   1      19.015  -2.464   4.718  0.00  0.00     0.002 C 
ATOM     20  C23 ZIN A   1      18.824  -2.658   6.224  0.00  0.00     0.025 C 
ENDBRANCH  13  15
ENDBRANCH   7  10
ENDBRANCH   4   7
BRANCH   1  21
ATOM     21  C10 ZIN A   1      17.283  -0.772  16.996  0.00  0.00     0.058 C 
BRANCH  21  22
ATOM     22  C9  ZIN A   1      18.072  -0.031  18.077  0.00  0.00     0.127 C 
BRANCH  22  23
ATOM     23  N8  ZIN A   1      17.671   1.379  18.093  0.00  0.00    -0.355 N 
ATOM     24  C6  ZIN A   1      18.572   2.332  18.403  0.00  0.00     0.271 C 
ATOM     25  O7  ZIN A   1      19.717   2.022  18.670  0.00  0.00    -0.266 OA
ATOM     26  H36 ZIN A   1      16.758   1.627  17.880  0.00  0.00     0.162 HD
BRANCH  24  27
ATOM     27  C5  ZIN A   1      18.168   3.757  18.419  0.00  0.00     0.141 A 
ATOM     28  N4  ZIN A   1      18.258   4.488  17.311  0.00  0.00    -0.252 NA
ATOM     29  C3  ZIN A   1      17.898   5.756  17.329  0.00  0.00     0.144 A 
ATOM     30  C2  ZIN A   1      17.426   6.329  18.500  0.00  0.00     0.048 A 
ATOM     31  C1  ZIN A   1      17.016   7.780  18.515  0.00  0.00     0.072 C 
ATOM     32  N31 ZIN A   1      17.340   5.609  19.605  0.00  0.00    -0.262 NA
ATOM     33  C30 ZIN A   1      17.693   4.336  19.595  0.00  0.00     0.154 A 
ENDBRANCH  24  27
ENDBRANCH  22  23
ENDBRANCH  21  22
ENDBRANCH   1  21
TORSDOF 7
ENDMDL
MODEL 8
REMARK VINA RESULT:      -8.5      4.109      4.910
REMARK  7 active torsions:
REMARK  status: ('A' for Active; 'I' for Inactive)
REMARK    1  A    between atoms: C5_5  and  C6_6 
REMARK       I    between atoms: C6_6  and  N8_8 
REMARK    2  A    between atoms: N8_8  and  C9_9 
REMARK    3  A    between atoms: C9_9  and  C10_10 
REMARK    4  A    between atoms: C10_10  and  C11_11 
REMARK    5  A    between atoms: C14_14  and  S15_15 
REMARK    6  A    between atoms: S15_15  and  N18_18 
REMARK       I    between atoms: C19_19  and  N21_21 
REMARK    7  A    between atoms: N21_21  and  C22_22 
ROOT
ATOM      1  C11 ZIN A   1      18.535   3.293  10.288  0.00  0.00    -0.057 A 
ATOM      2  C12 ZIN A   1      19.664   3.269  11.086  0.00  0.00     0.009 A 
ATOM      3  C13 ZIN A   1      19.681   3.965  12.280  0.00  0.00     0.026 A 
ATOM      4  C14 ZIN A   1      18.570   4.686  12.677  0.00  0.00     0.081 A 
ATOM      5  C28 ZIN A   1      17.442   4.711  11.879  0.00  0.00     0.026 A 
ATOM      6  C29 ZIN A   1      17.426   4.018  10.683  0.00  0.00     0.009 A 
ENDROOT
BRANCH   4   7
ATOM      7  S15 ZIN A   1      18.593   5.572  14.199  0.00  0.00     0.286 S 
ATOM      8  O16 ZIN A   1      19.486   6.661  14.016  0.00  0.00    -0.198 OA
ATOM      9  O17 ZIN A   1      17.236   5.735  14.589  0.00  0.00    -0.198 OA
BRANCH   7  10
ATOM     10  N18 ZIN A   1      19.288   4.583  15.332  0.00  0.00    -0.115 NA
ATOM     11  C19 ZIN A   1      18.810   3.390  15.534  0.00  0.00     0.284 C 
ATOM     12  O20 ZIN A   1      17.749   2.957  14.820  0.00  0.00    -0.149 OA
ATOM     13  N21 ZIN A   1      19.387   2.570  16.473  0.00  0.00    -0.347 N 
ATOM     14  H43 ZIN A   1      20.149   2.881  16.986  0.00  0.00     0.163 HD
BRANCH  13  15
ATOM     15  C22 ZIN A   1      18.849   1.226  16.701  0.00  0.00     0.085 C 
ATOM     16  C27 ZIN A   1      19.412   0.667  18.010  0.00  0.00     0.025 C 
ATOM     17  C26 ZIN A   1      18.851  -0.736  18.247  0.00  0.00     0.002 C 
ATOM     18  C25 ZIN A   1      19.253  -1.650  17.088  0.00  0.00     0.000 C 
ATOM     19  C24 ZIN A   1      18.691  -1.091  15.780  0.00  0.00     0.002 C 
ATOM     20  C23 ZIN A   1      19.252   0.313  15.541  0.00  0.00     0.025 C 
ENDBRANCH  13  15
ENDBRANCH   7  10
ENDBRANCH   4   7
BRANCH   1  21
ATOM     21  C10 ZIN A   1      18.514   2.534   8.987  0.00  0.00     0.058 C 
BRANCH  21  22
ATOM     22  C9  ZIN A   1      19.622   1.479   8.996  0.00  0.00     0.127 C 
BRANCH  22  23
ATOM     23  N8  ZIN A   1      19.065   0.191   9.419  0.00  0.00    -0.355 N 
ATOM     24  C6  ZIN A   1      19.702  -0.546  10.351  0.00  0.00     0.271 C 
ATOM     25  O7  ZIN A   1      20.738  -0.142  10.840  0.00  0.00    -0.266 OA
ATOM     26  H36 ZIN A   1      18.238  -0.132   9.029  0.00  0.00     0.162 HD
BRANCH  24  27
ATOM     27  C5  ZIN A   1      19.139  -1.848  10.778  0.00  0.00     0.141 A 
ATOM     28  N4  ZIN A   1      17.874  -2.151  10.498  0.00  0.00    -0.252 NA
ATOM     29  C3  ZIN A   1      17.377  -3.310  10.881  0.00  0.00     0.144 A 
ATOM     30  C2  ZIN A   1      18.168  -4.213  11.575  0.00  0.00     0.048 A 
ATOM     31  C1  ZIN A   1      17.593  -5.537  12.010  0.00  0.00     0.072 C 
ATOM     32  N31 ZIN A   1      19.424  -3.914  11.860  0.00  0.00    -0.262 NA
ATOM     33  C30 ZIN A   1      19.933  -2.757  11.476  0.00  0.00     0.154 A 
ENDBRANCH  24  27
ENDBRANCH  22  23
ENDBRANCH  21  22
ENDBRANCH   1  21
TORSDOF 7
ENDMDL
MODEL 9
REMARK VINA RESULT:      -8.2      3.576      5.302
REMARK  7 active torsions:
REMARK  status: ('A' for Active; 'I' for Inactive)
REMARK    1  A    between atoms: C5_5  and  C6_6 
REMARK       I    between atoms: C6_6  and  N8_8 
REMARK    2  A    between atoms: N8_8  and  C9_9 
REMARK    3  A    between atoms: C9_9  and  C10_10 
REMARK    4  A    between atoms: C10_10  and  C11_11 
REMARK    5  A    between atoms: C14_14  and  S15_15 
REMARK    6  A    between atoms: S15_15  and  N18_18 
REMARK       I    between atoms: C19_19  and  N21_21 
REMARK    7  A    between atoms: N21_21  and  C22_22 
ROOT
ATOM      1  C11 ZIN A   1      18.272  -3.790  11.563  0.00  0.00    -0.057 A 
ATOM      2  C12 ZIN A   1      19.618  -3.505  11.704  0.00  0.00     0.009 A 
ATOM      3  C13 ZIN A   1      20.049  -2.192  11.704  0.00  0.00     0.026 A 
ATOM      4  C14 ZIN A   1      19.136  -1.163  11.564  0.00  0.00     0.081 A 
ATOM      5  C28 ZIN A   1      17.790  -1.449  11.421  0.00  0.00     0.026 A 
ATOM      6  C29 ZIN A   1      17.360  -2.763  11.417  0.00  0.00     0.009 A 
ENDROOT
BRANCH   4   7
ATOM      7  S15 ZIN A   1      19.686   0.510  11.565  0.00  0.00     0.286 S 
ATOM      8  O16 ZIN A   1      20.964   0.512  12.184  0.00  0.00    -0.198 OA
ATOM      9  O17 ZIN A   1      19.456   1.009  10.254  0.00  0.00    -0.198 OA
BRANCH   7  10
ATOM     10  N18 ZIN A   1      18.677   1.357  12.570  0.00  0.00    -0.115 NA
ATOM     11  C19 ZIN A   1      18.796   2.649  12.673  0.00  0.00     0.284 C 
ATOM     12  O20 ZIN A   1      19.741   3.299  11.959  0.00  0.00    -0.149 OA
ATOM     13  N21 ZIN A   1      17.960   3.350  13.506  0.00  0.00    -0.347 N 
ATOM     14  H43 ZIN A   1      17.282   2.883  14.018  0.00  0.00     0.163 HD
BRANCH  13  15
ATOM     15  C22 ZIN A   1      18.094   4.805  13.622  0.00  0.00     0.085 C 
ATOM     16  C27 ZIN A   1      19.077   5.138  14.747  0.00  0.00     0.025 C 
ATOM     17  C26 ZIN A   1      19.216   6.657  14.868  0.00  0.00     0.002 C 
ATOM     18  C25 ZIN A   1      17.851   7.271  15.185  0.00  0.00     0.000 C 
ATOM     19  C24 ZIN A   1      16.869   6.938  14.061  0.00  0.00     0.002 C 
ATOM     20  C23 ZIN A   1      16.728   5.418  13.939  0.00  0.00     0.025 C 
ENDBRANCH  13  15
ENDBRANCH   7  10
ENDBRANCH   4   7
BRANCH   1  21
ATOM     21  C10 ZIN A   1      17.801  -5.222  11.563  0.00  0.00     0.058 C 
BRANCH  21  22
ATOM     22  C9  ZIN A   1      17.866  -5.779  10.140  0.00  0.00     0.127 C 
BRANCH  22  23
ATOM     23  N8  ZIN A   1      17.934  -4.670   9.185  0.00  0.00    -0.355 N 
ATOM     24  C6  ZIN A   1      19.040  -4.493   8.434  0.00  0.00     0.271 C 
ATOM     25  O7  ZIN A   1      19.980  -5.255   8.551  0.00  0.00    -0.266 OA
ATOM     26  H36 ZIN A   1      17.184  -4.062   9.092  0.00  0.00     0.162 HD
BRANCH  24  27
ATOM     27  C5  ZIN A   1      19.110  -3.372   7.469  0.00  0.00     0.141 A 
ATOM     28  N4  ZIN A   1      18.809  -2.136   7.859  0.00  0.00    -0.252 NA
ATOM     29  C3  ZIN A   1      18.871  -1.141   6.997  0.00  0.00     0.144 A 
ATOM     30  C2  ZIN A   1      19.251  -1.380   5.685  0.00  0.00     0.048 A 
ATOM     31  C1  ZIN A   1      19.320  -0.238   4.703  0.00  0.00     0.072 C 
ATOM     32  N31 ZIN A   1      19.547  -2.606   5.290  0.00  0.00    -0.262 NA
ATOM     33  C30 ZIN A   1      19.492  -3.609   6.149  0.00  0.00     0.154 A 
ENDBRANCH  24  27
ENDBRANCH  22  23
ENDBRANCH  21  22
ENDBRANCH   1  21
TORSDOF 7
ENDMDL
