MODEL 1
REMARK VINA RESULT:      -9.0      0.000      0.000
REMARK  9 active torsions:
REMARK  status: ('A' for Active; 'I' for Inactive)
REMARK    1  A    between atoms: O2_2  and  C3_3 
REMARK    2  A    between atoms: C4_4  and  O5_5 
REMARK    3  A    between atoms: O5_5  and  C6_6 
REMARK    4  A    between atoms: C6_6  and  C7_7 
REMARK    5  A    between atoms: C7_7  and  C8_8 
REMARK    6  A    between atoms: C8_8  and  N9_9 
REMARK    7  A    between atoms: C21_21  and  N22_22 
REMARK       I    between atoms: N22_22  and  C23_23 
REMARK    8  A    between atoms: C23_23  and  C25_25 
REMARK    9  A    between atoms: C28_28  and  N29_29 
ROOT
ATOM      1  C3  ZIN A   1      17.752   0.561  10.636  0.00  0.00     0.132 A 
ATOM      2  C4  ZIN A   1      18.031   1.887  10.934  0.00  0.00     0.104 A 
ATOM      3  C16 ZIN A   1      18.575   2.731   9.970  0.00  0.00     0.041 A 
ATOM      4  C17 ZIN A   1      18.845   2.262   8.702  0.00  0.00     0.021 A 
ATOM      5  C18 ZIN A   1      18.571   0.935   8.386  0.00  0.00     0.043 A 
ATOM      6  C19 ZIN A   1      18.026   0.068   9.356  0.00  0.00     0.126 A 
ATOM      7  N20 ZIN A   1      17.765  -1.223   9.027  0.00  0.00    -0.060 NA
ATOM      8  C21 ZIN A   1      18.005  -1.692   7.833  0.00  0.00     0.712 A 
ATOM      9  N32 ZIN A   1      18.533  -0.933   6.823  0.00  0.00    -0.162 N 
ATOM     10  C33 ZIN A   1      18.869  -1.276   5.432  0.00  0.00     0.171 A 
ATOM     11  C34 ZIN A   1      19.419   0.044   4.859  0.00  0.00     0.172 A 
ATOM     12  N35 ZIN A   1      19.334   0.984   5.982  0.00  0.00    -0.270 NA
ATOM     13  C36 ZIN A   1      18.846   0.393   7.037  0.00  0.00     0.153 A 
ENDROOT
BRANCH   8  14
ATOM     14  N22 ZIN A   1      17.712  -3.014   7.576  0.00  0.00    -0.153 N 
ATOM     15  C23 ZIN A   1      18.400  -3.990   8.200  0.00  0.00     0.272 C 
ATOM     16  O24 ZIN A   1      19.279  -3.704   8.991  0.00  0.00    -0.267 OA
ATOM     17  H56 ZIN A   1      17.011  -3.241   6.946  0.00  0.00     0.187 HD
BRANCH  15  18
ATOM     18  C25 ZIN A   1      18.087  -5.405   7.926  0.00  0.00     0.069 A 
ATOM     19  C31 ZIN A   1      18.569  -6.038   6.773  0.00  0.00     0.154 A 
ATOM     20  N30 ZIN A   1      18.270  -7.307   6.568  0.00  0.00    -0.074 NA
ATOM     21  C28 ZIN A   1      17.517  -7.978   7.430  0.00  0.00     0.719 A 
ATOM     22  N27 ZIN A   1      17.038  -7.413   8.531  0.00  0.00    -0.074 NA
ATOM     23  C26 ZIN A   1      17.296  -6.149   8.812  0.00  0.00     0.154 A 
BRANCH  21  24
ATOM     24  N29 ZIN A   1      17.224  -9.302   7.175  0.00  0.00    -0.231 N 
ATOM     25  H58 ZIN A   1      17.911  -9.892   6.831  0.00  0.00     0.174 HD
ATOM     26  H59 ZIN A   1      16.330  -9.640   7.340  0.00  0.00     0.174 HD
ENDBRANCH  21  24
ENDBRANCH  15  18
ENDBRANCH   8  14
BRANCH   1  27
ATOM     27  O2  ZIN A   1      17.222  -0.257  11.586  0.00  0.00    -0.351 OA
ATOM     28  C1  ZIN A   1      18.140  -1.011  12.379  0.00  0.00     0.210 C 
ENDBRANCH   1  27
BRANCH   2  29
ATOM     29  O5  ZIN A   1      17.771   2.366  12.179  0.00  0.00    -0.348 OA
BRANCH  29  30
ATOM     30  C6  ZIN A   1      18.811   3.107  12.820  0.00  0.00     0.177 C 
BRANCH  30  31
ATOM     31  C7  ZIN A   1      18.537   3.174  14.324  0.00  0.00     0.054 C 
BRANCH  31  32
ATOM     32  C8  ZIN A   1      18.086   1.800  14.822  0.00  0.00     0.237 C 
BRANCH  32  33
ATOM     33  N9  ZIN A   1      18.228   1.737  16.282  0.00  0.00    -0.067 N 
ATOM     34  H10 ZIN A   1      17.314   1.753  16.711  0.00  0.00     0.280 HD
ATOM     35  C15 ZIN A   1      18.923   0.497  16.655  0.00  0.00     0.261 C 
ATOM     36  C14 ZIN A   1      19.070   0.435  18.177  0.00  0.00     0.195 C 
ATOM     37  O13 ZIN A   1      19.780   1.591  18.630  0.00  0.00    -0.388 OA
ATOM     38  C12 ZIN A   1      19.154   2.825  18.271  0.00  0.00     0.195 C 
ATOM     39  C11 ZIN A   1      19.007   2.893  16.749  0.00  0.00     0.261 C 
ENDBRANCH  32  33
ENDBRANCH  31  32
ENDBRANCH  30  31
ENDBRANCH  29  30
ENDBRANCH   2  29
TORSDOF 9
ENDMDL
MODEL 2
REMARK VINA RESULT:      -8.5      2.319      9.013
REMARK  9 active torsions:
REMARK  status: ('A' for Active; 'I' for Inactive)
REMARK    1  A    between atoms: O2_2  and  C3_3 
REMARK    2  A    between atoms: C4_4  and  O5_5 
REMARK    3  A    between atoms: O5_5  and  C6_6 
REMARK    4  A    between atoms: C6_6  and  C7_7 
REMARK    5  A    between atoms: C7_7  and  C8_8 
REMARK    6  A    between atoms: C8_8  and  N9_9 
REMARK    7  A    between atoms: C21_21  and  N22_22 
REMARK       I    between atoms: N22_22  and  C23_23 
REMARK    8  A    between atoms: C23_23  and  C25_25 
REMARK    9  A    between atoms: C28_28  and  N29_29 
ROOT
ATOM      1  C3  ZIN A   1      18.850  -0.737   9.096  0.00  0.00     0.132 A 
ATOM      2  C4  ZIN A   1      19.105  -0.625   7.736  0.00  0.00     0.104 A 
ATOM      3  C16 ZIN A   1      19.049   0.615   7.105  0.00  0.00     0.041 A 
ATOM      4  C17 ZIN A   1      18.740   1.751   7.822  0.00  0.00     0.021 A 
ATOM      5  C18 ZIN A   1      18.481   1.656   9.186  0.00  0.00     0.043 A 
ATOM      6  C19 ZIN A   1      18.529   0.405   9.836  0.00  0.00     0.126 A 
ATOM      7  N20 ZIN A   1      18.275   0.334  11.167  0.00  0.00    -0.060 NA
ATOM      8  C21 ZIN A   1      17.985   1.394  11.872  0.00  0.00     0.712 A 
ATOM      9  N32 ZIN A   1      17.914   2.652  11.335  0.00  0.00    -0.162 N 
ATOM     10  C33 ZIN A   1      17.608   3.950  11.957  0.00  0.00     0.171 A 
ATOM     11  C34 ZIN A   1      17.700   4.942  10.782  0.00  0.00     0.172 A 
ATOM     12  N35 ZIN A   1      18.047   4.101   9.631  0.00  0.00    -0.270 NA
ATOM     13  C36 ZIN A   1      18.146   2.852   9.991  0.00  0.00     0.153 A 
ENDROOT
BRANCH   8  14
ATOM     14  N22 ZIN A   1      17.740   1.240  13.219  0.00  0.00    -0.153 N 
ATOM     15  C23 ZIN A   1      18.768   1.161  14.086  0.00  0.00     0.272 C 
ATOM     16  O24 ZIN A   1      19.912   1.227  13.681  0.00  0.00    -0.267 OA
ATOM     17  H56 ZIN A   1      16.827   1.187  13.542  0.00  0.00     0.187 HD
BRANCH  15  18
ATOM     18  C25 ZIN A   1      18.506   0.996  15.529  0.00  0.00     0.069 A 
ATOM     19  C31 ZIN A   1      19.210   1.748  16.478  0.00  0.00     0.154 A 
ATOM     20  N30 ZIN A   1      18.943   1.574  17.759  0.00  0.00    -0.074 NA
ATOM     21  C28 ZIN A   1      18.030   0.695  18.150  0.00  0.00     0.719 A 
ATOM     22  N27 ZIN A   1      17.345  -0.040  17.283  0.00  0.00    -0.074 NA
ATOM     23  C26 ZIN A   1      17.549   0.078  15.984  0.00  0.00     0.154 A 
BRANCH  21  24
ATOM     24  N29 ZIN A   1      17.784   0.540  19.499  0.00  0.00    -0.231 N 
ATOM     25  H58 ZIN A   1      18.455   0.135  20.070  0.00  0.00     0.174 HD
ATOM     26  H59 ZIN A   1      16.941   0.837  19.875  0.00  0.00     0.174 HD
ENDBRANCH  21  24
ENDBRANCH  15  18
ENDBRANCH   8  14
BRANCH   1  27
ATOM     27  O2  ZIN A   1      18.906  -1.954   9.703  0.00  0.00    -0.351 OA
ATOM     28  C1  ZIN A   1      17.726  -2.759   9.652  0.00  0.00     0.210 C 
ENDBRANCH   1  27
BRANCH   2  29
ATOM     29  O5  ZIN A   1      19.412  -1.734   7.015  0.00  0.00    -0.348 OA
BRANCH  29  30
ATOM     30  C6  ZIN A   1      18.575  -2.033   5.896  0.00  0.00     0.177 C 
BRANCH  30  31
ATOM     31  C7  ZIN A   1      19.160  -3.217   5.123  0.00  0.00     0.054 C 
BRANCH  31  32
ATOM     32  C8  ZIN A   1      18.392  -4.490   5.484  0.00  0.00     0.237 C 
BRANCH  32  33
ATOM     33  N9  ZIN A   1      18.675  -4.853   6.879  0.00  0.00    -0.067 N 
ATOM     34  H10 ZIN A   1      18.453  -4.074   7.481  0.00  0.00     0.280 HD
ATOM     35  C15 ZIN A   1      17.857  -6.013   7.259  0.00  0.00     0.261 C 
ATOM     36  C14 ZIN A   1      18.154  -6.390   8.713  0.00  0.00     0.195 C 
ATOM     37  O13 ZIN A   1      19.551  -6.662   8.854  0.00  0.00    -0.388 OA
ATOM     38  C12 ZIN A   1      20.389  -5.569   8.474  0.00  0.00     0.195 C 
ATOM     39  C11 ZIN A   1      20.098  -5.191   7.019  0.00  0.00     0.261 C 
ENDBRANCH  32  33
ENDBRANCH  31  32
ENDBRANCH  30  31
ENDBRANCH  29  30
ENDBRANCH   2  29
TORSDOF 9
ENDMDL
MODEL 3
REMARK VINA RESULT:      -8.3      2.483      9.310
REMARK  9 active torsions:
REMARK  status: ('A' for Active; 'I' for Inactive)
REMARK    1  A    between atoms: O2_2  and  C3_3 
REMARK    2  A    between atoms: C4_4  and  O5_5 
REMARK    3  A    between atoms: O5_5  and  C6_6 
REMARK    4  A    between atoms: C6_6  and  C7_7 
REMARK    5  A    between atoms: C7_7  and  C8_8 
REMARK    6  A    between atoms: C8_8  and  N9_9 
REMARK    7  A    between atoms: C21_21  and  N22_22 
REMARK       I    between atoms: N22_22  and  C23_23 
REMARK    8  A    between atoms: C23_23  and  C25_25 
REMARK    9  A    between atoms: C28_28  and  N29_29 
ROOT
ATOM      1  C3  ZIN A   1      19.028  -1.056   8.485  0.00  0.00     0.132 A 
ATOM      2  C4  ZIN A   1      19.181  -0.871   7.119  0.00  0.00     0.104 A 
ATOM      3  C16 ZIN A   1      19.070   0.399   6.558  0.00  0.00     0.041 A 
ATOM      4  C17 ZIN A   1      18.806   1.493   7.354  0.00  0.00     0.021 A 
ATOM      5  C18 ZIN A   1      18.649   1.325   8.726  0.00  0.00     0.043 A 
ATOM      6  C19 ZIN A   1      18.753   0.043   9.305  0.00  0.00     0.126 A 
ATOM      7  N20 ZIN A   1      18.598  -0.099  10.646  0.00  0.00    -0.060 NA
ATOM      8  C21 ZIN A   1      18.353   0.920  11.424  0.00  0.00     0.712 A 
ATOM      9  N32 ZIN A   1      18.233   2.203  10.960  0.00  0.00    -0.162 N 
ATOM     10  C33 ZIN A   1      17.963   3.464  11.669  0.00  0.00     0.171 A 
ATOM     11  C34 ZIN A   1      17.962   4.516  10.544  0.00  0.00     0.172 A 
ATOM     12  N35 ZIN A   1      18.230   3.739   9.328  0.00  0.00    -0.270 NA
ATOM     13  C36 ZIN A   1      18.365   2.474   9.615  0.00  0.00     0.153 A 
ENDROOT
BRANCH   8  14
ATOM     14  N22 ZIN A   1      18.209   0.694  12.776  0.00  0.00    -0.153 N 
ATOM     15  C23 ZIN A   1      19.298   0.580  13.560  0.00  0.00     0.272 C 
ATOM     16  O24 ZIN A   1      20.409   0.678  13.076  0.00  0.00    -0.267 OA
ATOM     17  H56 ZIN A   1      17.323   0.617  13.162  0.00  0.00     0.187 HD
BRANCH  15  18
ATOM     18  C25 ZIN A   1      19.144   0.339  15.007  0.00  0.00     0.069 A 
ATOM     19  C31 ZIN A   1      19.009  -0.962  15.509  0.00  0.00     0.154 A 
ATOM     20  N30 ZIN A   1      18.878  -1.136  16.811  0.00  0.00    -0.074 NA
ATOM     21  C28 ZIN A   1      18.863  -0.098  17.638  0.00  0.00     0.719 A 
ATOM     22  N27 ZIN A   1      18.984   1.149  17.202  0.00  0.00    -0.074 NA
ATOM     23  C26 ZIN A   1      19.124   1.407  15.915  0.00  0.00     0.154 A 
BRANCH  21  24
ATOM     24  N29 ZIN A   1      18.719  -0.323  18.991  0.00  0.00    -0.231 N 
ATOM     25  H58 ZIN A   1      17.994  -0.879  19.316  0.00  0.00     0.174 HD
ATOM     26  H59 ZIN A   1      19.344   0.074  19.618  0.00  0.00     0.174 HD
ENDBRANCH  21  24
ENDBRANCH  15  18
ENDBRANCH   8  14
BRANCH   1  27
ATOM     27  O2  ZIN A   1      19.137  -2.301   9.023  0.00  0.00    -0.351 OA
ATOM     28  C1  ZIN A   1      17.939  -3.074   9.119  0.00  0.00     0.210 C 
ENDBRANCH   1  27
BRANCH   2  29
ATOM     29  O5  ZIN A   1      19.443  -1.938   6.320  0.00  0.00    -0.348 OA
BRANCH  29  30
ATOM     30  C6  ZIN A   1      18.900  -1.909   4.999  0.00  0.00     0.177 C 
BRANCH  30  31
ATOM     31  C7  ZIN A   1      18.683  -3.340   4.504  0.00  0.00     0.054 C 
BRANCH  31  32
ATOM     32  C8  ZIN A   1      18.533  -4.277   5.704  0.00  0.00     0.237 C 
BRANCH  32  33
ATOM     33  N9  ZIN A   1      17.138  -4.724   5.806  0.00  0.00    -0.067 N 
ATOM     34  H10 ZIN A   1      16.560  -3.954   6.111  0.00  0.00     0.280 HD
ATOM     35  C15 ZIN A   1      16.676  -5.193   4.493  0.00  0.00     0.261 C 
ATOM     36  C14 ZIN A   1      15.222  -5.657   4.602  0.00  0.00     0.195 C 
ATOM     37  O13 ZIN A   1      15.128  -6.687   5.590  0.00  0.00    -0.388 OA
ATOM     38  C12 ZIN A   1      15.588  -6.284   6.882  0.00  0.00     0.195 C 
ATOM     39  C11 ZIN A   1      17.044  -5.821   6.779  0.00  0.00     0.261 C 
ENDBRANCH  32  33
ENDBRANCH  31  32
ENDBRANCH  30  31
ENDBRANCH  29  30
ENDBRANCH   2  29
TORSDOF 9
ENDMDL
MODEL 4
REMARK VINA RESULT:      -8.3      1.398      1.858
REMARK  9 active torsions:
REMARK  status: ('A' for Active; 'I' for Inactive)
REMARK    1  A    between atoms: O2_2  and  C3_3 
REMARK    2  A    between atoms: C4_4  and  O5_5 
REMARK    3  A    between atoms: O5_5  and  C6_6 
REMARK    4  A    between atoms: C6_6  and  C7_7 
REMARK    5  A    between atoms: C7_7  and  C8_8 
REMARK    6  A    between atoms: C8_8  and  N9_9 
REMARK    7  A    between atoms: C21_21  and  N22_22 
REMARK       I    between atoms: N22_22  and  C23_23 
REMARK    8  A    between atoms: C23_23  and  C25_25 
REMARK    9  A    between atoms: C28_28  and  N29_29 
ROOT
ATOM      1  C3  ZIN A   1      18.394   0.515  10.417  0.00  0.00     0.132 A 
ATOM      2  C4  ZIN A   1      18.784   1.836  10.577  0.00  0.00     0.104 A 
ATOM      3  C16 ZIN A   1      19.194   2.592   9.481  0.00  0.00     0.041 A 
ATOM      4  C17 ZIN A   1      19.219   2.037   8.220  0.00  0.00     0.021 A 
ATOM      5  C18 ZIN A   1      18.831   0.712   8.042  0.00  0.00     0.043 A 
ATOM      6  C19 ZIN A   1      18.419  -0.065   9.144  0.00  0.00     0.126 A 
ATOM      7  N20 ZIN A   1      18.044  -1.355   8.949  0.00  0.00    -0.060 NA
ATOM      8  C21 ZIN A   1      18.052  -1.903   7.765  0.00  0.00     0.712 A 
ATOM      9  N32 ZIN A   1      18.434  -1.235   6.633  0.00  0.00    -0.162 N 
ATOM     10  C33 ZIN A   1      18.510  -1.675   5.231  0.00  0.00     0.171 A 
ATOM     11  C34 ZIN A   1      19.016  -0.424   4.488  0.00  0.00     0.172 A 
ATOM     12  N35 ZIN A   1      19.171   0.582   5.546  0.00  0.00    -0.270 NA
ATOM     13  C36 ZIN A   1      18.843   0.081   6.704  0.00  0.00     0.153 A 
ENDROOT
BRANCH   8  14
ATOM     14  N22 ZIN A   1      17.656  -3.218   7.648  0.00  0.00    -0.153 N 
ATOM     15  C23 ZIN A   1      18.571  -4.205   7.703  0.00  0.00     0.272 C 
ATOM     16  O24 ZIN A   1      19.747  -3.936   7.856  0.00  0.00    -0.267 OA
ATOM     17  H56 ZIN A   1      16.718  -3.433   7.526  0.00  0.00     0.187 HD
BRANCH  15  18
ATOM     18  C25 ZIN A   1      18.148  -5.613   7.579  0.00  0.00     0.069 A 
ATOM     19  C31 ZIN A   1      17.414  -6.236   8.596  0.00  0.00     0.154 A 
ATOM     20  N30 ZIN A   1      17.050  -7.496   8.444  0.00  0.00    -0.074 NA
ATOM     21  C28 ZIN A   1      17.380  -8.172   7.352  0.00  0.00     0.719 A 
ATOM     22  N27 ZIN A   1      18.078  -7.620   6.368  0.00  0.00    -0.074 NA
ATOM     23  C26 ZIN A   1      18.475  -6.363   6.440  0.00  0.00     0.154 A 
BRANCH  21  24
ATOM     24  N29 ZIN A   1      16.985  -9.489   7.234  0.00  0.00    -0.231 N 
ATOM     25  H58 ZIN A   1      17.133 -10.106   7.968  0.00  0.00     0.174 HD
ATOM     26  H59 ZIN A   1      16.560  -9.796   6.419  0.00  0.00     0.174 HD
ENDBRANCH  21  24
ENDBRANCH  15  18
ENDBRANCH   8  14
BRANCH   1  27
ATOM     27  O2  ZIN A   1      17.995  -0.216  11.494  0.00  0.00    -0.351 OA
ATOM     28  C1  ZIN A   1      16.598  -0.219  11.795  0.00  0.00     0.210 C 
ENDBRANCH   1  27
BRANCH   2  29
ATOM     29  O5  ZIN A   1      18.764   2.399  11.813  0.00  0.00    -0.348 OA
BRANCH  29  30
ATOM     30  C6  ZIN A   1      17.647   3.232  12.129  0.00  0.00     0.177 C 
BRANCH  30  31
ATOM     31  C7  ZIN A   1      18.143   4.527  12.776  0.00  0.00     0.054 C 
BRANCH  31  32
ATOM     32  C8  ZIN A   1      17.353   4.791  14.060  0.00  0.00     0.237 C 
BRANCH  32  33
ATOM     33  N9  ZIN A   1      18.279   4.870  15.197  0.00  0.00    -0.067 N 
ATOM     34  H10 ZIN A   1      17.891   5.475  15.906  0.00  0.00     0.280 HD
ATOM     35  C15 ZIN A   1      18.483   3.527  15.758  0.00  0.00     0.261 C 
ATOM     36  C14 ZIN A   1      19.448   3.612  16.942  0.00  0.00     0.195 C 
ATOM     37  O13 ZIN A   1      20.681   4.192  16.506  0.00  0.00    -0.388 OA
ATOM     38  C12 ZIN A   1      20.530   5.492  15.931  0.00  0.00     0.195 C 
ATOM     39  C11 ZIN A   1      19.568   5.411  14.744  0.00  0.00     0.261 C 
ENDBRANCH  32  33
ENDBRANCH  31  32
ENDBRANCH  30  31
ENDBRANCH  29  30
ENDBRANCH   2  29
TORSDOF 9
ENDMDL
MODEL 5
REMARK VINA RESULT:      -8.2      2.959     11.091
REMARK  9 active torsions:
REMARK  status: ('A' for Active; 'I' for Inactive)
REMARK    1  A    between atoms: O2_2  and  C3_3 
REMARK    2  A    between atoms: C4_4  and  O5_5 
REMARK    3  A    between atoms: O5_5  and  C6_6 
REMARK    4  A    between atoms: C6_6  and  C7_7 
REMARK    5  A    between atoms: C7_7  and  C8_8 
REMARK    6  A    between atoms: C8_8  and  N9_9 
REMARK    7  A    between atoms: C21_21  and  N22_22 
REMARK       I    between atoms: N22_22  and  C23_23 
REMARK    8  A    between atoms: C23_23  and  C25_25 
REMARK    9  A    between atoms: C28_28  and  N29_29 
ROOT
ATOM      1  C3  ZIN A   1      19.078   0.194  12.144  0.00  0.00     0.132 A 
ATOM      2  C4  ZIN A   1      19.204  -1.131  11.752  0.00  0.00     0.104 A 
ATOM      3  C16 ZIN A   1      19.273  -2.148  12.701  0.00  0.00     0.041 A 
ATOM      4  C17 ZIN A   1      19.218  -1.853  14.047  0.00  0.00     0.021 A 
ATOM      5  C18 ZIN A   1      19.093  -0.529  14.457  0.00  0.00     0.043 A 
ATOM      6  C19 ZIN A   1      19.027   0.510  13.506  0.00  0.00     0.126 A 
ATOM      7  N20 ZIN A   1      18.903   1.795  13.927  0.00  0.00    -0.060 NA
ATOM      8  C21 ZIN A   1      18.842   2.102  15.194  0.00  0.00     0.712 A 
ATOM      9  N32 ZIN A   1      18.898   1.168  16.193  0.00  0.00    -0.162 N 
ATOM     10  C33 ZIN A   1      18.846   1.317  17.657  0.00  0.00     0.171 A 
ATOM     11  C34 ZIN A   1      18.959  -0.132  18.169  0.00  0.00     0.172 A 
ATOM     12  N35 ZIN A   1      19.063  -0.937  16.946  0.00  0.00    -0.270 NA
ATOM     13  C36 ZIN A   1      19.029  -0.171  15.892  0.00  0.00     0.153 A 
ENDROOT
BRANCH   8  14
ATOM     14  N22 ZIN A   1      18.716   3.430  15.542  0.00  0.00    -0.153 N 
ATOM     15  C23 ZIN A   1      18.062   4.280  14.728  0.00  0.00     0.272 C 
ATOM     16  O24 ZIN A   1      17.582   3.877  13.686  0.00  0.00    -0.267 OA
ATOM     17  H56 ZIN A   1      19.099   3.751  16.373  0.00  0.00     0.187 HD
BRANCH  15  18
ATOM     18  C25 ZIN A   1      17.926   5.702  15.099  0.00  0.00     0.069 A 
ATOM     19  C31 ZIN A   1      18.655   6.238  16.169  0.00  0.00     0.154 A 
ATOM     20  N30 ZIN A   1      18.508   7.516  16.466  0.00  0.00    -0.074 NA
ATOM     21  C28 ZIN A   1      17.678   8.285  15.774  0.00  0.00     0.719 A 
ATOM     22  N27 ZIN A   1      16.967   7.814  14.758  0.00  0.00    -0.074 NA
ATOM     23  C26 ZIN A   1      17.060   6.548  14.394  0.00  0.00     0.154 A 
BRANCH  21  24
ATOM     24  N29 ZIN A   1      17.550   9.614  16.121  0.00  0.00    -0.231 N 
ATOM     25  H58 ZIN A   1      18.208  10.259  15.818  0.00  0.00     0.174 HD
ATOM     26  H59 ZIN A   1      16.802   9.902  16.667  0.00  0.00     0.174 HD
ENDBRANCH  21  24
ENDBRANCH  15  18
ENDBRANCH   8  14
BRANCH   1  27
ATOM     27  O2  ZIN A   1      19.012   1.180  11.209  0.00  0.00    -0.351 OA
ATOM     28  C1  ZIN A   1      17.710   1.646  10.849  0.00  0.00     0.210 C 
ENDBRANCH   1  27
BRANCH   2  29
ATOM     29  O5  ZIN A   1      19.259  -1.439  10.430  0.00  0.00    -0.348 OA
BRANCH  29  30
ATOM     30  C6  ZIN A   1      19.068  -2.810  10.076  0.00  0.00     0.177 C 
BRANCH  30  31
ATOM     31  C7  ZIN A   1      18.426  -2.894   8.689  0.00  0.00     0.054 C 
BRANCH  31  32
ATOM     32  C8  ZIN A   1      18.108  -1.484   8.188  0.00  0.00     0.237 C 
BRANCH  32  33
ATOM     33  N9  ZIN A   1      18.230  -1.444   6.725  0.00  0.00    -0.067 N 
ATOM     34  H10 ZIN A   1      17.311  -1.375   6.312  0.00  0.00     0.280 HD
ATOM     35  C15 ZIN A   1      19.033  -0.279   6.331  0.00  0.00     0.261 C 
ATOM     36  C14 ZIN A   1      19.159  -0.240   4.806  0.00  0.00     0.195 C 
ATOM     37  O13 ZIN A   1      19.747  -1.461   4.350  0.00  0.00    -0.388 OA
ATOM     38  C12 ZIN A   1      19.013  -2.628   4.729  0.00  0.00     0.195 C 
ATOM     39  C11 ZIN A   1      18.887  -2.672   6.254  0.00  0.00     0.261 C 
ENDBRANCH  32  33
ENDBRANCH  31  32
ENDBRANCH  30  31
ENDBRANCH  29  30
ENDBRANCH   2  29
TORSDOF 9
ENDMDL
MODEL 6
REMARK VINA RESULT:      -8.0      2.688     10.810
REMARK  9 active torsions:
REMARK  status: ('A' for Active; 'I' for Inactive)
REMARK    1  A    between atoms: O2_2  and  C3_3 
REMARK    2  A    between atoms: C4_4  and  O5_5 
REMARK    3  A    between atoms: O5_5  and  C6_6 
REMARK    4  A    between atoms: C6_6  and  C7_7 
REMARK    5  A    between atoms: C7_7  and  C8_8 
REMARK    6  A    between atoms: C8_8  and  N9_9 
REMARK    7  A    between atoms: C21_21  and  N22_22 
REMARK       I    between atoms: N22_22  and  C23_23 
REMARK    8  A    between atoms: C23_23  and  C25_25 
REMARK    9  A    between atoms: C28_28  and  N29_29 
ROOT
ATOM      1  C3  ZIN A   1      19.435   0.917  11.486  0.00  0.00     0.132 A 
ATOM      2  C4  ZIN A   1      19.813  -0.226  10.796  0.00  0.00     0.104 A 
ATOM      3  C16 ZIN A   1      19.732  -1.477  11.401  0.00  0.00     0.041 A 
ATOM      4  C17 ZIN A   1      19.275  -1.601  12.695  0.00  0.00     0.021 A 
ATOM      5  C18 ZIN A   1      18.892  -0.464  13.401  0.00  0.00     0.043 A 
ATOM      6  C19 ZIN A   1      18.974   0.810  12.802  0.00  0.00     0.126 A 
ATOM      7  N20 ZIN A   1      18.594   1.906  13.507  0.00  0.00    -0.060 NA
ATOM      8  C21 ZIN A   1      18.151   1.818  14.732  0.00  0.00     0.712 A 
ATOM      9  N32 ZIN A   1      18.034   0.629  15.401  0.00  0.00    -0.162 N 
ATOM     10  C33 ZIN A   1      17.563   0.331  16.763  0.00  0.00     0.171 A 
ATOM     11  C34 ZIN A   1      17.695  -1.201  16.862  0.00  0.00     0.172 A 
ATOM     12  N35 ZIN A   1      18.222  -1.599  15.552  0.00  0.00    -0.270 NA
ATOM     13  C36 ZIN A   1      18.394  -0.554  14.792  0.00  0.00     0.153 A 
ENDROOT
BRANCH   8  14
ATOM     14  N22 ZIN A   1      17.784   2.976  15.382  0.00  0.00    -0.153 N 
ATOM     15  C23 ZIN A   1      18.679   3.634  16.145  0.00  0.00     0.272 C 
ATOM     16  O24 ZIN A   1      19.811   3.205  16.259  0.00  0.00    -0.267 OA
ATOM     17  H56 ZIN A   1      16.881   3.318  15.290  0.00  0.00     0.187 HD
BRANCH  15  18
ATOM     18  C25 ZIN A   1      18.287   4.874  16.840  0.00  0.00     0.069 A 
ATOM     19  C31 ZIN A   1      18.736   6.123  16.392  0.00  0.00     0.154 A 
ATOM     20  N30 ZIN A   1      18.359   7.210  17.039  0.00  0.00    -0.074 NA
ATOM     21  C28 ZIN A   1      17.574   7.128  18.106  0.00  0.00     0.719 A 
ATOM     22  N27 ZIN A   1      17.131   5.964  18.565  0.00  0.00    -0.074 NA
ATOM     23  C26 ZIN A   1      17.459   4.832  17.971  0.00  0.00     0.154 A 
BRANCH  21  24
ATOM     24  N29 ZIN A   1      17.207   8.288  18.757  0.00  0.00    -0.231 N 
ATOM     25  H58 ZIN A   1      17.003   8.267  19.705  0.00  0.00     0.174 HD
ATOM     26  H59 ZIN A   1      17.155   9.123  18.267  0.00  0.00     0.174 HD
ENDBRANCH  21  24
ENDBRANCH  15  18
ENDBRANCH   8  14
BRANCH   1  27
ATOM     27  O2  ZIN A   1      19.518   2.136  10.887  0.00  0.00    -0.351 OA
ATOM     28  C1  ZIN A   1      18.319   2.660  10.311  0.00  0.00     0.210 C 
ENDBRANCH   1  27
BRANCH   2  29
ATOM     29  O5  ZIN A   1      20.265  -0.122   9.519  0.00  0.00    -0.348 OA
BRANCH  29  30
ATOM     30  C6  ZIN A   1      19.298  -0.252   8.476  0.00  0.00     0.177 C 
BRANCH  30  31
ATOM     31  C7  ZIN A   1      19.396  -1.650   7.859  0.00  0.00     0.054 C 
BRANCH  31  32
ATOM     32  C8  ZIN A   1      18.116  -2.432   8.162  0.00  0.00     0.237 C 
BRANCH  32  33
ATOM     33  N9  ZIN A   1      18.384  -3.871   8.049  0.00  0.00    -0.067 N 
ATOM     34  H10 ZIN A   1      17.514  -4.381   8.098  0.00  0.00     0.280 HD
ATOM     35  C15 ZIN A   1      19.043  -4.149   6.766  0.00  0.00     0.261 C 
ATOM     36  C14 ZIN A   1      19.321  -5.650   6.651  0.00  0.00     0.195 C 
ATOM     37  O13 ZIN A   1      20.128  -6.065   7.757  0.00  0.00    -0.388 OA
ATOM     38  C12 ZIN A   1      19.538  -5.795   9.031  0.00  0.00     0.195 C 
ATOM     39  C11 ZIN A   1      19.260  -4.294   9.150  0.00  0.00     0.261 C 
ENDBRANCH  32  33
ENDBRANCH  31  32
ENDBRANCH  30  31
ENDBRANCH  29  30
ENDBRANCH   2  29
TORSDOF 9
ENDMDL
MODEL 7
REMARK VINA RESULT:      -7.9      2.421      3.839
REMARK  9 active torsions:
REMARK  status: ('A' for Active; 'I' for Inactive)
REMARK    1  A    between atoms: O2_2  and  C3_3 
REMARK    2  A    between atoms: C4_4  and  O5_5 
REMARK    3  A    between atoms: O5_5  and  C6_6 
REMARK    4  A    between atoms: C6_6  and  C7_7 
REMARK    5  A    between atoms: C7_7  and  C8_8 
REMARK    6  A    between atoms: C8_8  and  N9_9 
REMARK    7  A    between atoms: C21_21  and  N22_22 
REMARK       I    between atoms: N22_22  and  C23_23 
REMARK    8  A    between atoms: C23_23  and  C25_25 
REMARK    9  A    between atoms: C28_28  and  N29_29 
ROOT
ATOM      1  C3  ZIN A   1      18.803   0.865   9.570  0.00  0.00     0.132 A 
ATOM      2  C4  ZIN A   1      19.258   1.624  10.639  0.00  0.00     0.104 A 
ATOM      3  C16 ZIN A   1      19.790   1.008  11.769  0.00  0.00     0.041 A 
ATOM      4  C17 ZIN A   1      19.872  -0.365  11.844  0.00  0.00     0.021 A 
ATOM      5  C18 ZIN A   1      19.420  -1.141  10.781  0.00  0.00     0.043 A 
ATOM      6  C19 ZIN A   1      18.874  -0.530   9.633  0.00  0.00     0.126 A 
ATOM      7  N20 ZIN A   1      18.440  -1.305   8.606  0.00  0.00    -0.060 NA
ATOM      8  C21 ZIN A   1      18.512  -2.608   8.647  0.00  0.00     0.712 A 
ATOM      9  N32 ZIN A   1      19.024  -3.295   9.715  0.00  0.00    -0.162 N 
ATOM     10  C33 ZIN A   1      19.187  -4.740   9.944  0.00  0.00     0.171 A 
ATOM     11  C34 ZIN A   1      19.825  -4.812  11.345  0.00  0.00     0.172 A 
ATOM     12  N35 ZIN A   1      19.953  -3.408  11.752  0.00  0.00    -0.270 NA
ATOM     13  C36 ZIN A   1      19.492  -2.619  10.822  0.00  0.00     0.153 A 
ENDROOT
BRANCH   8  14
ATOM     14  N22 ZIN A   1      18.051  -3.325   7.564  0.00  0.00    -0.153 N 
ATOM     15  C23 ZIN A   1      18.857  -3.543   6.507  0.00  0.00     0.272 C 
ATOM     16  O24 ZIN A   1      19.992  -3.108   6.509  0.00  0.00    -0.267 OA
ATOM     17  H56 ZIN A   1      17.145  -3.672   7.564  0.00  0.00     0.187 HD
BRANCH  15  18
ATOM     18  C25 ZIN A   1      18.363  -4.311   5.348  0.00  0.00     0.069 A 
ATOM     19  C31 ZIN A   1      17.933  -5.636   5.494  0.00  0.00     0.154 A 
ATOM     20  N30 ZIN A   1      17.494  -6.287   4.432  0.00  0.00    -0.074 NA
ATOM     21  C28 ZIN A   1      17.468  -5.705   3.240  0.00  0.00     0.719 A 
ATOM     22  N27 ZIN A   1      17.872  -4.454   3.060  0.00  0.00    -0.074 NA
ATOM     23  C26 ZIN A   1      18.319  -3.734   4.071  0.00  0.00     0.154 A 
BRANCH  21  24
ATOM     24  N29 ZIN A   1      17.007  -6.422   2.155  0.00  0.00    -0.231 N 
ATOM     25  H58 ZIN A   1      17.510  -7.185   1.830  0.00  0.00     0.174 HD
ATOM     26  H59 ZIN A   1      16.180  -6.164   1.720  0.00  0.00     0.174 HD
ENDBRANCH  21  24
ENDBRANCH  15  18
ENDBRANCH   8  14
BRANCH   1  27
ATOM     27  O2  ZIN A   1      18.284   1.475   8.470  0.00  0.00    -0.351 OA
ATOM     28  C1  ZIN A   1      19.180   1.734   7.388  0.00  0.00     0.210 C 
ENDBRANCH   1  27
BRANCH   2  29
ATOM     29  O5  ZIN A   1      19.184   2.979  10.581  0.00  0.00    -0.348 OA
BRANCH  29  30
ATOM     30  C6  ZIN A   1      18.030   3.591  11.160  0.00  0.00     0.177 C 
BRANCH  30  31
ATOM     31  C7  ZIN A   1      18.468   4.685  12.136  0.00  0.00     0.054 C 
BRANCH  31  32
ATOM     32  C8  ZIN A   1      17.822   4.439  13.501  0.00  0.00     0.237 C 
BRANCH  32  33
ATOM     33  N9  ZIN A   1      18.800   3.810  14.399  0.00  0.00    -0.067 N 
ATOM     34  H10 ZIN A   1      19.670   3.672  13.906  0.00  0.00     0.280 HD
ATOM     35  C15 ZIN A   1      19.029   4.680  15.561  0.00  0.00     0.261 C 
ATOM     36  C14 ZIN A   1      20.047   4.022  16.495  0.00  0.00     0.195 C 
ATOM     37  O13 ZIN A   1      19.564   2.735  16.889  0.00  0.00    -0.388 OA
ATOM     38  C12 ZIN A   1      19.305   1.859  15.789  0.00  0.00     0.195 C 
ATOM     39  C11 ZIN A   1      18.284   2.512  14.854  0.00  0.00     0.261 C 
ENDBRANCH  32  33
ENDBRANCH  31  32
ENDBRANCH  30  31
ENDBRANCH  29  30
ENDBRANCH   2  29
TORSDOF 9
ENDMDL
MODEL 8
REMARK VINA RESULT:      -7.9      3.894      7.588
REMARK  9 active torsions:
REMARK  status: ('A' for Active; 'I' for Inactive)
REMARK    1  A    between atoms: O2_2  and  C3_3 
REMARK    2  A    between atoms: C4_4  and  O5_5 
REMARK    3  A    between atoms: O5_5  and  C6_6 
REMARK    4  A    between atoms: C6_6  and  C7_7 
REMARK    5  A    between atoms: C7_7  and  C8_8 
REMARK    6  A    between atoms: C8_8  and  N9_9 
REMARK    7  A    between atoms: C21_21  and  N22_22 
REMARK       I    between atoms: N22_22  and  C23_23 
REMARK    8  A    between atoms: C23_23  and  C25_25 
REMARK    9  A    between atoms: C28_28  and  N29_29 
ROOT
ATOM      1  C3  ZIN A   1      18.757   4.561  15.420  0.00  0.00     0.132 A 
ATOM      2  C4  ZIN A   1      18.622   4.841  16.772  0.00  0.00     0.104 A 
ATOM      3  C16 ZIN A   1      18.580   3.811  17.708  0.00  0.00     0.041 A 
ATOM      4  C17 ZIN A   1      18.674   2.496  17.305  0.00  0.00     0.021 A 
ATOM      5  C18 ZIN A   1      18.811   2.198  15.953  0.00  0.00     0.043 A 
ATOM      6  C19 ZIN A   1      18.848   3.232  14.995  0.00  0.00     0.126 A 
ATOM      7  N20 ZIN A   1      18.983   2.920  13.680  0.00  0.00    -0.060 NA
ATOM      8  C21 ZIN A   1      19.080   1.684  13.271  0.00  0.00     0.712 A 
ATOM      9  N32 ZIN A   1      19.054   0.611  14.121  0.00  0.00    -0.162 N 
ATOM     10  C33 ZIN A   1      19.149  -0.833  13.855  0.00  0.00     0.171 A 
ATOM     11  C34 ZIN A   1      19.051  -1.465  15.257  0.00  0.00     0.172 A 
ATOM     12  N35 ZIN A   1      18.913  -0.314  16.158  0.00  0.00    -0.270 NA
ATOM     13  C36 ZIN A   1      18.915   0.799  15.480  0.00  0.00     0.153 A 
ENDROOT
BRANCH   8  14
ATOM     14  N22 ZIN A   1      19.215   1.449  11.920  0.00  0.00    -0.153 N 
ATOM     15  C23 ZIN A   1      18.124   1.402  11.132  0.00  0.00     0.272 C 
ATOM     16  O24 ZIN A   1      17.019   1.569  11.612  0.00  0.00    -0.267 OA
ATOM     17  H56 ZIN A   1      20.096   1.315  11.537  0.00  0.00     0.187 HD
BRANCH  15  18
ATOM     18  C25 ZIN A   1      18.268   1.150   9.685  0.00  0.00     0.069 A 
ATOM     19  C31 ZIN A   1      17.507   0.161   9.048  0.00  0.00     0.154 A 
ATOM     20  N30 ZIN A   1      17.662  -0.029   7.751  0.00  0.00    -0.074 NA
ATOM     21  C28 ZIN A   1      18.531   0.694   7.056  0.00  0.00     0.719 A 
ATOM     22  N27 ZIN A   1      19.273   1.637   7.623  0.00  0.00    -0.074 NA
ATOM     23  C26 ZIN A   1      19.174   1.892   8.914  0.00  0.00     0.154 A 
BRANCH  21  24
ATOM     24  N29 ZIN A   1      18.667   0.460   5.703  0.00  0.00    -0.231 N 
ATOM     25  H58 ZIN A   1      17.933   0.070   5.203  0.00  0.00     0.174 HD
ATOM     26  H59 ZIN A   1      19.495   0.685   5.253  0.00  0.00     0.174 HD
ENDBRANCH  21  24
ENDBRANCH  15  18
ENDBRANCH   8  14
BRANCH   1  27
ATOM     27  O2  ZIN A   1      18.795   5.574  14.512  0.00  0.00    -0.351 OA
ATOM     28  C1  ZIN A   1      20.063   6.196  14.286  0.00  0.00     0.210 C 
ENDBRANCH   1  27
BRANCH   2  29
ATOM     29  O5  ZIN A   1      18.529   6.131  17.186  0.00  0.00    -0.348 OA
BRANCH  29  30
ATOM     30  C6  ZIN A   1      17.590   6.413  18.226  0.00  0.00     0.177 C 
BRANCH  30  31
ATOM     31  C7  ZIN A   1      17.220   7.897  18.192  0.00  0.00     0.054 C 
BRANCH  31  32
ATOM     32  C8  ZIN A   1      16.677   8.255  16.807  0.00  0.00     0.237 C 
BRANCH  32  33
ATOM     33  N9  ZIN A   1      15.736   7.217  16.367  0.00  0.00    -0.067 N 
ATOM     34  H10 ZIN A   1      15.969   6.341  16.813  0.00  0.00     0.280 HD
ATOM     35  C15 ZIN A   1      14.368   7.605  16.736  0.00  0.00     0.261 C 
ATOM     36  C14 ZIN A   1      13.390   6.522  16.276  0.00  0.00     0.195 C 
ATOM     37  O13 ZIN A   1      13.521   6.336  14.864  0.00  0.00    -0.388 OA
ATOM     38  C12 ZIN A   1      14.843   5.978  14.453  0.00  0.00     0.195 C 
ATOM     39  C11 ZIN A   1      15.824   7.061  14.909  0.00  0.00     0.261 C 
ENDBRANCH  32  33
ENDBRANCH  31  32
ENDBRANCH  30  31
ENDBRANCH  29  30
ENDBRANCH   2  29
TORSDOF 9
ENDMDL
MODEL 9
REMARK VINA RESULT:      -7.8      2.963     10.484
REMARK  9 active torsions:
REMARK  status: ('A' for Active; 'I' for Inactive)
REMARK    1  A    between atoms: O2_2  and  C3_3 
REMARK    2  A    between atoms: C4_4  and  O5_5 
REMARK    3  A    between atoms: O5_5  and  C6_6 
REMARK    4  A    between atoms: C6_6  and  C7_7 
REMARK    5  A    between atoms: C7_7  and  C8_8 
REMARK    6  A    between atoms: C8_8  and  N9_9 
REMARK    7  A    between atoms: C21_21  and  N22_22 
REMARK       I    between atoms: N22_22  and  C23_23 
REMARK    8  A    between atoms: C23_23  and  C25_25 
REMARK    9  A    between atoms: C28_28  and  N29_29 
ROOT
ATOM      1  C3  ZIN A   1      18.180  -0.470  13.094  0.00  0.00     0.132 A 
ATOM      2  C4  ZIN A   1      18.403  -1.304  12.008  0.00  0.00     0.104 A 
ATOM      3  C16 ZIN A   1      18.432  -0.789  10.714  0.00  0.00     0.041 A 
ATOM      4  C17 ZIN A   1      18.240   0.557  10.493  0.00  0.00     0.021 A 
ATOM      5  C18 ZIN A   1      18.015   1.407  11.572  0.00  0.00     0.043 A 
ATOM      6  C19 ZIN A   1      17.977   0.898  12.886  0.00  0.00     0.126 A 
ATOM      7  N20 ZIN A   1      17.757   1.744  13.924  0.00  0.00    -0.060 NA
ATOM      8  C21 ZIN A   1      17.578   3.024  13.744  0.00  0.00     0.712 A 
ATOM      9  N32 ZIN A   1      17.596   3.616  12.510  0.00  0.00    -0.162 N 
ATOM     10  C33 ZIN A   1      17.417   5.021  12.111  0.00  0.00     0.171 A 
ATOM     11  C34 ZIN A   1      17.558   4.979  10.576  0.00  0.00     0.172 A 
ATOM     12  N35 ZIN A   1      17.799   3.562  10.279  0.00  0.00    -0.270 NA
ATOM     13  C36 ZIN A   1      17.804   2.859  11.376  0.00  0.00     0.153 A 
ENDROOT
BRANCH   8  14
ATOM     14  N22 ZIN A   1      17.361   3.818  14.850  0.00  0.00    -0.153 N 
ATOM     15  C23 ZIN A   1      18.405   4.364  15.504  0.00  0.00     0.272 C 
ATOM     16  O24 ZIN A   1      19.539   4.158  15.117  0.00  0.00    -0.267 OA
ATOM     17  H56 ZIN A   1      16.456   3.983  15.158  0.00  0.00     0.187 HD
BRANCH  15  18
ATOM     18  C25 ZIN A   1      18.173   5.214  16.687  0.00  0.00     0.069 A 
ATOM     19  C31 ZIN A   1      17.772   4.655  17.907  0.00  0.00     0.154 A 
ATOM     20  N30 ZIN A   1      17.579   5.450  18.943  0.00  0.00    -0.074 NA
ATOM     21  C28 ZIN A   1      17.751   6.761  18.836  0.00  0.00     0.719 A 
ATOM     22  N27 ZIN A   1      18.125   7.330  17.697  0.00  0.00    -0.074 NA
ATOM     23  C26 ZIN A   1      18.343   6.604  16.616  0.00  0.00     0.154 A 
BRANCH  21  24
ATOM     24  N29 ZIN A   1      17.534   7.557  19.942  0.00  0.00    -0.231 N 
ATOM     25  H58 ZIN A   1      17.944   7.329  20.790  0.00  0.00     0.174 HD
ATOM     26  H59 ZIN A   1      16.972   8.344  19.869  0.00  0.00     0.174 HD
ENDBRANCH  21  24
ENDBRANCH  15  18
ENDBRANCH   8  14
BRANCH   1  27
ATOM     27  O2  ZIN A   1      18.152  -0.983  14.355  0.00  0.00    -0.351 OA
ATOM     28  C1  ZIN A   1      19.406  -1.127  15.024  0.00  0.00     0.210 C 
ENDBRANCH   1  27
BRANCH   2  29
ATOM     29  O5  ZIN A   1      18.595  -2.634  12.208  0.00  0.00    -0.348 OA
BRANCH  29  30
ATOM     30  C6  ZIN A   1      19.665  -3.250  11.489  0.00  0.00     0.177 C 
BRANCH  30  31
ATOM     31  C7  ZIN A   1      19.190  -4.585  10.912  0.00  0.00     0.054 C 
BRANCH  31  32
ATOM     32  C8  ZIN A   1      18.018  -4.340   9.959  0.00  0.00     0.237 C 
BRANCH  32  33
ATOM     33  N9  ZIN A   1      18.491  -4.423   8.571  0.00  0.00    -0.067 N 
ATOM     34  H10 ZIN A   1      17.815  -4.926   8.014  0.00  0.00     0.280 HD
ATOM     35  C15 ZIN A   1      18.659  -3.068   8.028  0.00  0.00     0.261 C 
ATOM     36  C14 ZIN A   1      19.152  -3.156   6.582  0.00  0.00     0.195 C 
ATOM     37  O13 ZIN A   1      20.377  -3.893   6.546  0.00  0.00    -0.388 OA
ATOM     38  C12 ZIN A   1      20.269  -5.213   7.084  0.00  0.00     0.195 C 
ATOM     39  C11 ZIN A   1      19.778  -5.129   8.532  0.00  0.00     0.261 C 
ENDBRANCH  32  33
ENDBRANCH  31  32
ENDBRANCH  30  31
ENDBRANCH  29  30
ENDBRANCH   2  29
TORSDOF 9
ENDMDL
