MODEL 1
REMARK VINA RESULT:     -11.4      0.000      0.000
REMARK  14 active torsions:
REMARK  status: ('A' for Active; 'I' for Inactive)
REMARK    1  A    between atoms: C2_2  and  N5_5 
REMARK       I    between atoms: N5_5  and  C6_6 
REMARK    2  A    between atoms: C6_6  and  C8_8 
REMARK    3  A    between atoms: N20_17  and  C21_18 
REMARK    4  A    between atoms: C21_18  and  C22_19 
REMARK    5  A    between atoms: C22_19  and  O24_20 
REMARK    6  A    between atoms: C22_19  and  C25_21 
REMARK    7  A    between atoms: C25_21  and  C27_22 
REMARK    8  A    between atoms: C25_21  and  N34_29 
REMARK    9  A    between atoms: C27_22  and  C28_23 
REMARK       I    between atoms: N34_29  and  C35_30 
REMARK   10  A    between atoms: C35_30  and  C37_32 
REMARK   11  A    between atoms: C37_32  and  C39_33 
REMARK   12  A    between atoms: C37_32  and  N43_37 
REMARK   13  A    between atoms: C39_33  and  C40_34 
REMARK       I    between atoms: C40_34  and  N41_35 
REMARK       I    between atoms: N43_37  and  C44_38 
REMARK   14  A    between atoms: C44_38  and  C46_40 
ROOT
ATOM      1  C25 ZIN A   1      19.283  -1.043  11.004  0.00  0.00     0.119 C 
ENDROOT
BRANCH   1   2
ATOM      2  C22 ZIN A   1      20.354   0.038  11.158  0.00  0.00     0.169 C 
BRANCH   2   3
ATOM      3  C21 ZIN A   1      20.274   0.637  12.564  0.00  0.00     0.307 C 
BRANCH   3   4
ATOM      4  N20 ZIN A   1      19.403   1.820  12.543  0.00  0.00     0.105 N 
ATOM      5  C8  ZIN A   1      19.091   2.262  13.908  0.00  0.00     0.314 C 
ATOM      6  C10 ZIN A   1      18.075   3.405  13.859  0.00  0.00     0.050 C 
ATOM      7  C11 ZIN A   1      18.658   4.562  13.044  0.00  0.00    -0.006 C 
ATOM      8  C17 ZIN A   1      19.008   4.061  11.639  0.00  0.00     0.018 C 
ATOM      9  C13 ZIN A   1      17.635   5.692  12.945  0.00  0.00     0.005 C 
ATOM     10  C16 ZIN A   1      17.746   3.556  10.945  0.00  0.00     0.007 C 
ATOM     11  C19 ZIN A   1      20.008   2.907  11.761  0.00  0.00     0.278 C 
ATOM     12  C15 ZIN A   1      16.729   4.694  10.844  0.00  0.00     0.000 C 
ATOM     13  C14 ZIN A   1      16.371   5.183  12.250  0.00  0.00     0.000 C 
BRANCH   5  14
ATOM     14  C6  ZIN A   1      18.512   1.110  14.689  0.00  0.00     0.252 C 
ATOM     15  N5  ZIN A   1      19.063   0.747  15.865  0.00  0.00    -0.351 N 
ATOM     16  H65 ZIN A   1      19.831   1.229  16.209  0.00  0.00     0.163 HD
ATOM     17  O7  ZIN A   1      17.551   0.507  14.258  0.00  0.00    -0.271 OA
BRANCH  15  18
ATOM     18  C2  ZIN A   1      18.499  -0.372  16.623  0.00  0.00     0.022 C 
ATOM     19  C1  ZIN A   1      18.721  -1.674  15.851  0.00  0.00     0.037 C 
ATOM     20  C3  ZIN A   1      17.000  -0.148  16.826  0.00  0.00     0.037 C 
ATOM     21  C4  ZIN A   1      19.190  -0.464  17.986  0.00  0.00     0.037 C 
ENDBRANCH  15  18
ENDBRANCH   5  14
ENDBRANCH   3   4
ENDBRANCH   2   3
BRANCH   2  22
ATOM     22  O24 ZIN A   1      21.646  -0.540  10.959  0.00  0.00    -0.392 OA
ATOM     23  H80 ZIN A   1      21.794  -1.354  11.459  0.00  0.00     0.210 HD
ENDBRANCH   2  22
ENDBRANCH   1   2
BRANCH   1  24
ATOM     24  C27 ZIN A   1      19.480  -2.115  12.078  0.00  0.00     0.066 C 
BRANCH  24  25
ATOM     25  C28 ZIN A   1      18.735  -3.364  11.685  0.00  0.00    -0.056 A 
ATOM     26  C33 ZIN A   1      17.353  -3.371  11.677  0.00  0.00     0.007 A 
ATOM     27  C32 ZIN A   1      16.670  -4.516  11.313  0.00  0.00     0.001 A 
ATOM     28  C31 ZIN A   1      17.369  -5.656  10.963  0.00  0.00     0.000 A 
ATOM     29  C30 ZIN A   1      18.751  -5.650  10.975  0.00  0.00     0.001 A 
ATOM     30  C29 ZIN A   1      19.434  -4.504  11.336  0.00  0.00     0.007 A 
ENDBRANCH  24  25
ENDBRANCH   1  24
BRANCH   1  31
ATOM     31  N34 ZIN A   1      19.394  -1.655   9.678  0.00  0.00    -0.352 N 
ATOM     32  C35 ZIN A   1      18.585  -1.251   8.678  0.00  0.00     0.241 C 
ATOM     33  O36 ZIN A   1      17.763  -0.382   8.878  0.00  0.00    -0.271 OA
ATOM     34  H88 ZIN A   1      20.051  -2.350   9.518  0.00  0.00     0.163 HD
BRANCH  32  35
ATOM     35  C37 ZIN A   1      18.699  -1.881   7.314  0.00  0.00     0.185 C 
BRANCH  35  36
ATOM     36  C39 ZIN A   1      18.226  -0.887   6.253  0.00  0.00     0.137 C 
BRANCH  36  37
ATOM     37  C40 ZIN A   1      19.251  -0.802   5.151  0.00  0.00     0.217 C 
ATOM     38  N41 ZIN A   1      19.619   0.399   4.664  0.00  0.00    -0.370 N 
ATOM     39  H91 ZIN A   1      19.226   1.209   5.023  0.00  0.00     0.159 HD
ATOM     40  H92 ZIN A   1      20.279   0.453   3.954  0.00  0.00     0.159 HD
ATOM     41  O42 ZIN A   1      19.743  -1.816   4.702  0.00  0.00    -0.274 OA
ENDBRANCH  36  37
ENDBRANCH  35  36
BRANCH  35  42
ATOM     42  N43 ZIN A   1      17.866  -3.085   7.262  0.00  0.00    -0.342 N 
ATOM     43  C44 ZIN A   1      18.417  -4.296   7.481  0.00  0.00     0.271 C 
ATOM     44  O45 ZIN A   1      19.583  -4.382   7.811  0.00  0.00    -0.266 OA
ATOM     45  H93 ZIN A   1      16.918  -3.012   7.070  0.00  0.00     0.163 HD
BRANCH  43  46
ATOM     46  C46 ZIN A   1      17.600  -5.523   7.319  0.00  0.00     0.125 A 
ATOM     47  N55 ZIN A   1      16.324  -5.495   7.651  0.00  0.00    -0.243 NA
ATOM     48  C54 ZIN A   1      15.550  -6.572   7.519  0.00  0.00     0.068 A 
ATOM     49  C49 ZIN A   1      16.100  -7.782   7.021  0.00  0.00    -0.007 A 
ATOM     50  C53 ZIN A   1      14.187  -6.533   7.871  0.00  0.00     0.032 A 
ATOM     51  C48 ZIN A   1      17.461  -7.823   6.668  0.00  0.00     0.016 A 
ATOM     52  C50 ZIN A   1      15.278  -8.915   6.890  0.00  0.00     0.014 A 
ATOM     53  C47 ZIN A   1      18.203  -6.686   6.821  0.00  0.00     0.038 A 
ATOM     54  C51 ZIN A   1      13.966  -8.838   7.241  0.00  0.00     0.001 A 
ATOM     55  C52 ZIN A   1      13.423  -7.650   7.730  0.00  0.00     0.002 A 
ENDBRANCH  43  46
ENDBRANCH  35  42
ENDBRANCH  32  35
ENDBRANCH   1  31
TORSDOF 14
ENDMDL
MODEL 2
REMARK VINA RESULT:     -10.8      2.993     11.523
REMARK  14 active torsions:
REMARK  status: ('A' for Active; 'I' for Inactive)
REMARK    1  A    between atoms: C2_2  and  N5_5 
REMARK       I    between atoms: N5_5  and  C6_6 
REMARK    2  A    between atoms: C6_6  and  C8_8 
REMARK    3  A    between atoms: N20_17  and  C21_18 
REMARK    4  A    between atoms: C21_18  and  C22_19 
REMARK    5  A    between atoms: C22_19  and  O24_20 
REMARK    6  A    between atoms: C22_19  and  C25_21 
REMARK    7  A    between atoms: C25_21  and  C27_22 
REMARK    8  A    between atoms: C25_21  and  N34_29 
REMARK    9  A    between atoms: C27_22  and  C28_23 
REMARK       I    between atoms: N34_29  and  C35_30 
REMARK   10  A    between atoms: C35_30  and  C37_32 
REMARK   11  A    between atoms: C37_32  and  C39_33 
REMARK   12  A    between atoms: C37_32  and  N43_37 
REMARK   13  A    between atoms: C39_33  and  C40_34 
REMARK       I    between atoms: C40_34  and  N41_35 
REMARK       I    between atoms: N43_37  and  C44_38 
REMARK   14  A    between atoms: C44_38  and  C46_40 
ROOT
ATOM      1  C25 ZIN A   1      19.495   1.161  12.152  0.00  0.00     0.119 C 
ENDROOT
BRANCH   1   2
ATOM      2  C22 ZIN A   1      20.379  -0.031  11.783  0.00  0.00     0.169 C 
BRANCH   2   3
ATOM      3  C21 ZIN A   1      20.092  -0.451  10.340  0.00  0.00     0.307 C 
BRANCH   3   4
ATOM      4  N20 ZIN A   1      19.377  -1.734  10.337  0.00  0.00     0.105 N 
ATOM      5  C8  ZIN A   1      19.254  -2.259   8.971  0.00  0.00     0.314 C 
ATOM      6  C10 ZIN A   1      18.388  -3.520   8.982  0.00  0.00     0.050 C 
ATOM      7  C11 ZIN A   1      19.029  -4.564   9.899  0.00  0.00    -0.006 C 
ATOM      8  C17 ZIN A   1      19.177  -3.974  11.305  0.00  0.00     0.018 C 
ATOM      9  C13 ZIN A   1      18.149  -5.812   9.958  0.00  0.00     0.005 C 
ATOM     10  C16 ZIN A   1      17.801  -3.611  11.858  0.00  0.00     0.007 C 
ATOM     11  C19 ZIN A   1      20.034  -2.707  11.221  0.00  0.00     0.278 C 
ATOM     12  C15 ZIN A   1      16.928  -4.865  11.919  0.00  0.00     0.000 C 
ATOM     13  C14 ZIN A   1      16.771  -5.444  10.511  0.00  0.00     0.000 C 
BRANCH   5  14
ATOM     14  C6  ZIN A   1      18.615  -1.219   8.089  0.00  0.00     0.252 C 
ATOM     15  N5  ZIN A   1      19.203  -0.865   6.929  0.00  0.00    -0.351 N 
ATOM     16  H65 ZIN A   1      20.037  -1.280   6.661  0.00  0.00     0.163 HD
ATOM     17  O7  ZIN A   1      17.571  -0.699   8.422  0.00  0.00    -0.271 OA
BRANCH  15  18
ATOM     18  C2  ZIN A   1      18.580   0.147   6.071  0.00  0.00     0.022 C 
ATOM     19  C1  ZIN A   1      18.811   1.535   6.669  0.00  0.00     0.037 C 
ATOM     20  C3  ZIN A   1      17.078  -0.123   5.971  0.00  0.00     0.037 C 
ATOM     21  C4  ZIN A   1      19.203   0.084   4.674  0.00  0.00     0.037 C 
ENDBRANCH  15  18
ENDBRANCH   5  14
ENDBRANCH   3   4
ENDBRANCH   2   3
BRANCH   2  22
ATOM     22  O24 ZIN A   1      21.754   0.340  11.907  0.00  0.00    -0.392 OA
ATOM     23  H80 ZIN A   1      22.186   0.533  11.064  0.00  0.00     0.210 HD
ENDBRANCH   2  22
ENDBRANCH   1   2
BRANCH   1  24
ATOM     24  C27 ZIN A   1      19.842   2.352  11.256  0.00  0.00     0.066 C 
BRANCH  24  25
ATOM     25  C28 ZIN A   1      18.800   3.428  11.424  0.00  0.00    -0.056 A 
ATOM     26  C33 ZIN A   1      17.734   3.500  10.547  0.00  0.00     0.007 A 
ATOM     27  C32 ZIN A   1      16.776   4.484  10.703  0.00  0.00     0.001 A 
ATOM     28  C31 ZIN A   1      16.889   5.402  11.731  0.00  0.00     0.000 A 
ATOM     29  C30 ZIN A   1      17.959   5.333  12.604  0.00  0.00     0.001 A 
ATOM     30  C29 ZIN A   1      18.914   4.345  12.451  0.00  0.00     0.007 A 
ENDBRANCH  24  25
ENDBRANCH   1  24
BRANCH   1  31
ATOM     31  N34 ZIN A   1      19.722   1.522  13.553  0.00  0.00    -0.352 N 
ATOM     32  C35 ZIN A   1      18.740   1.352  14.462  0.00  0.00     0.241 C 
ATOM     33  O36 ZIN A   1      17.668   0.900  14.118  0.00  0.00    -0.271 OA
ATOM     34  H88 ZIN A   1      20.579   1.884  13.829  0.00  0.00     0.163 HD
BRANCH  32  35
ATOM     35  C37 ZIN A   1      18.974   1.724  15.903  0.00  0.00     0.185 C 
BRANCH  35  36
ATOM     36  C39 ZIN A   1      18.374   0.649  16.811  0.00  0.00     0.137 C 
BRANCH  36  37
ATOM     37  C40 ZIN A   1      19.298   0.399  17.973  0.00  0.00     0.217 C 
ATOM     38  N41 ZIN A   1      19.657  -0.861  18.290  0.00  0.00    -0.370 N 
ATOM     39  H91 ZIN A   1      19.321  -1.607  17.769  0.00  0.00     0.159 HD
ATOM     40  H92 ZIN A   1      20.252  -1.022  19.039  0.00  0.00     0.159 HD
ATOM     41  O42 ZIN A   1      19.719   1.331  18.625  0.00  0.00    -0.274 OA
ENDBRANCH  36  37
ENDBRANCH  35  36
BRANCH  35  42
ATOM     42  N43 ZIN A   1      18.337   3.012  16.184  0.00  0.00    -0.342 N 
ATOM     43  C44 ZIN A   1      19.085   4.065  16.570  0.00  0.00     0.271 C 
ATOM     44  O45 ZIN A   1      20.296   3.972  16.598  0.00  0.00    -0.266 OA
ATOM     45  H93 ZIN A   1      17.376   3.109  16.091  0.00  0.00     0.163 HD
BRANCH  43  46
ATOM     46  C46 ZIN A   1      18.431   5.337  16.961  0.00  0.00     0.125 A 
ATOM     47  N55 ZIN A   1      17.774   5.398  18.104  0.00  0.00    -0.243 NA
ATOM     48  C54 ZIN A   1      17.174   6.521  18.499  0.00  0.00     0.068 A 
ATOM     49  C49 ZIN A   1      17.228   7.678  17.679  0.00  0.00    -0.007 A 
ATOM     50  C53 ZIN A   1      16.479   6.580  19.722  0.00  0.00     0.032 A 
ATOM     51  C48 ZIN A   1      17.923   7.622  16.457  0.00  0.00     0.016 A 
ATOM     52  C50 ZIN A   1      16.589   8.857  18.101  0.00  0.00     0.014 A 
ATOM     53  C47 ZIN A   1      18.521   6.445  16.108  0.00  0.00     0.038 A 
ATOM     54  C51 ZIN A   1      15.926   8.874  19.290  0.00  0.00     0.001 A 
ATOM     55  C52 ZIN A   1      15.873   7.738  20.097  0.00  0.00     0.002 A 
ENDBRANCH  43  46
ENDBRANCH  35  42
ENDBRANCH  32  35
ENDBRANCH   1  31
TORSDOF 14
ENDMDL
MODEL 3
REMARK VINA RESULT:     -10.4      2.239      3.881
REMARK  14 active torsions:
REMARK  status: ('A' for Active; 'I' for Inactive)
REMARK    1  A    between atoms: C2_2  and  N5_5 
REMARK       I    between atoms: N5_5  and  C6_6 
REMARK    2  A    between atoms: C6_6  and  C8_8 
REMARK    3  A    between atoms: N20_17  and  C21_18 
REMARK    4  A    between atoms: C21_18  and  C22_19 
REMARK    5  A    between atoms: C22_19  and  O24_20 
REMARK    6  A    between atoms: C22_19  and  C25_21 
REMARK    7  A    between atoms: C25_21  and  C27_22 
REMARK    8  A    between atoms: C25_21  and  N34_29 
REMARK    9  A    between atoms: C27_22  and  C28_23 
REMARK       I    between atoms: N34_29  and  C35_30 
REMARK   10  A    between atoms: C35_30  and  C37_32 
REMARK   11  A    between atoms: C37_32  and  C39_33 
REMARK   12  A    between atoms: C37_32  and  N43_37 
REMARK   13  A    between atoms: C39_33  and  C40_34 
REMARK       I    between atoms: C40_34  and  N41_35 
REMARK       I    between atoms: N43_37  and  C44_38 
REMARK   14  A    between atoms: C44_38  and  C46_40 
ROOT
ATOM      1  C25 ZIN A   1      18.086  -1.397  10.160  0.00  0.00     0.119 C 
ENDROOT
BRANCH   1   2
ATOM      2  C22 ZIN A   1      17.922  -1.316  11.678  0.00  0.00     0.169 C 
BRANCH   2   3
ATOM      3  C21 ZIN A   1      19.100  -0.544  12.278  0.00  0.00     0.307 C 
BRANCH   3   4
ATOM      4  N20 ZIN A   1      18.795   0.893  12.276  0.00  0.00     0.105 N 
ATOM      5  C8  ZIN A   1      19.120   1.496  13.575  0.00  0.00     0.314 C 
ATOM      6  C10 ZIN A   1      18.665   2.957  13.591  0.00  0.00     0.050 C 
ATOM      7  C11 ZIN A   1      19.365   3.714  12.461  0.00  0.00    -0.006 C 
ATOM      8  C17 ZIN A   1      19.038   3.041  11.125  0.00  0.00     0.018 C 
ATOM      9  C13 ZIN A   1      18.884   5.164  12.434  0.00  0.00     0.005 C 
ATOM     10  C16 ZIN A   1      17.531   3.080  10.885  0.00  0.00     0.007 C 
ATOM     11  C19 ZIN A   1      19.497   1.580  11.184  0.00  0.00     0.278 C 
ATOM     12  C15 ZIN A   1      17.057   4.534  10.853  0.00  0.00     0.000 C 
ATOM     13  C14 ZIN A   1      17.373   5.201  12.194  0.00  0.00     0.000 C 
BRANCH   5  14
ATOM     14  C6  ZIN A   1      18.414   0.739  14.670  0.00  0.00     0.252 C 
ATOM     15  N5  ZIN A   1      19.097   0.340  15.762  0.00  0.00    -0.351 N 
ATOM     16  H65 ZIN A   1      20.042   0.540  15.843  0.00  0.00     0.163 HD
ATOM     17  O7  ZIN A   1      17.231   0.488  14.570  0.00  0.00    -0.271 OA
BRANCH  15  18
ATOM     18  C2  ZIN A   1      18.410  -0.396  16.827  0.00  0.00     0.022 C 
ATOM     19  C1  ZIN A   1      17.083   0.294  17.149  0.00  0.00     0.037 C 
ATOM     20  C3  ZIN A   1      19.290  -0.423  18.078  0.00  0.00     0.037 C 
ATOM     21  C4  ZIN A   1      18.139  -1.829  16.363  0.00  0.00     0.037 C 
ENDBRANCH  15  18
ENDBRANCH   5  14
ENDBRANCH   3   4
ENDBRANCH   2   3
BRANCH   2  22
ATOM     22  O24 ZIN A   1      16.702  -0.639  11.989  0.00  0.00    -0.392 OA
ATOM     23  H80 ZIN A   1      16.744  -0.100  12.791  0.00  0.00     0.210 HD
ENDBRANCH   2  22
ENDBRANCH   1   2
BRANCH   1  24
ATOM     24  C27 ZIN A   1      17.113  -0.427   9.487  0.00  0.00     0.066 C 
BRANCH  24  25
ATOM     25  C28 ZIN A   1      17.654  -0.023   8.140  0.00  0.00    -0.056 A 
ATOM     26  C33 ZIN A   1      17.115  -0.565   6.989  0.00  0.00     0.007 A 
ATOM     27  C32 ZIN A   1      17.609  -0.192   5.752  0.00  0.00     0.001 A 
ATOM     28  C31 ZIN A   1      18.648   0.716   5.669  0.00  0.00     0.000 A 
ATOM     29  C30 ZIN A   1      19.191   1.253   6.821  0.00  0.00     0.001 A 
ATOM     30  C29 ZIN A   1      18.694   0.884   8.057  0.00  0.00     0.007 A 
ENDBRANCH  24  25
ENDBRANCH   1  24
BRANCH   1  31
ATOM     31  N34 ZIN A   1      17.804  -2.762   9.710  0.00  0.00    -0.352 N 
ATOM     32  C35 ZIN A   1      18.777  -3.694   9.731  0.00  0.00     0.241 C 
ATOM     33  O36 ZIN A   1      19.888  -3.402  10.121  0.00  0.00    -0.271 OA
ATOM     34  H88 ZIN A   1      16.915  -2.996   9.398  0.00  0.00     0.163 HD
BRANCH  32  35
ATOM     35  C37 ZIN A   1      18.486  -5.098   9.268  0.00  0.00     0.185 C 
BRANCH  35  36
ATOM     36  C39 ZIN A   1      19.792  -5.781   8.858  0.00  0.00     0.137 C 
BRANCH  36  37
ATOM     37  C40 ZIN A   1      20.100  -5.455   7.420  0.00  0.00     0.217 C 
ATOM     38  N41 ZIN A   1      20.896  -4.410   7.121  0.00  0.00    -0.370 N 
ATOM     39  H91 ZIN A   1      21.272  -3.867   7.832  0.00  0.00     0.159 HD
ATOM     40  H92 ZIN A   1      21.094  -4.200   6.195  0.00  0.00     0.159 HD
ATOM     41  O42 ZIN A   1      19.630  -6.134   6.531  0.00  0.00    -0.274 OA
ENDBRANCH  36  37
ENDBRANCH  35  36
BRANCH  35  42
ATOM     42  N43 ZIN A   1      17.577  -5.054   8.120  0.00  0.00    -0.342 N 
ATOM     43  C44 ZIN A   1      16.629  -6.002   7.974  0.00  0.00     0.271 C 
ATOM     44  O45 ZIN A   1      16.469  -6.840   8.840  0.00  0.00    -0.266 OA
ATOM     45  H93 ZIN A   1      17.655  -4.343   7.465  0.00  0.00     0.163 HD
BRANCH  43  46
ATOM     46  C46 ZIN A   1      15.782  -6.023   6.758  0.00  0.00     0.125 A 
ATOM     47  N55 ZIN A   1      16.223  -5.447   5.656  0.00  0.00    -0.243 NA
ATOM     48  C54 ZIN A   1      15.498  -5.445   4.538  0.00  0.00     0.068 A 
ATOM     49  C49 ZIN A   1      14.220  -6.063   4.521  0.00  0.00    -0.007 A 
ATOM     50  C53 ZIN A   1      15.978  -4.832   3.363  0.00  0.00     0.032 A 
ATOM     51  C48 ZIN A   1      13.740  -6.677   5.692  0.00  0.00     0.016 A 
ATOM     52  C50 ZIN A   1      13.461  -6.052   3.338  0.00  0.00     0.014 A 
ATOM     53  C47 ZIN A   1      14.529  -6.651   6.805  0.00  0.00     0.038 A 
ATOM     54  C51 ZIN A   1      13.958  -5.449   2.224  0.00  0.00     0.001 A 
ATOM     55  C52 ZIN A   1      15.214  -4.841   2.239  0.00  0.00     0.002 A 
ENDBRANCH  43  46
ENDBRANCH  35  42
ENDBRANCH  32  35
ENDBRANCH   1  31
TORSDOF 14
ENDMDL
MODEL 4
REMARK VINA RESULT:     -10.1      3.407     10.095
REMARK  14 active torsions:
REMARK  status: ('A' for Active; 'I' for Inactive)
REMARK    1  A    between atoms: C2_2  and  N5_5 
REMARK       I    between atoms: N5_5  and  C6_6 
REMARK    2  A    between atoms: C6_6  and  C8_8 
REMARK    3  A    between atoms: N20_17  and  C21_18 
REMARK    4  A    between atoms: C21_18  and  C22_19 
REMARK    5  A    between atoms: C22_19  and  O24_20 
REMARK    6  A    between atoms: C22_19  and  C25_21 
REMARK    7  A    between atoms: C25_21  and  C27_22 
REMARK    8  A    between atoms: C25_21  and  N34_29 
REMARK    9  A    between atoms: C27_22  and  C28_23 
REMARK       I    between atoms: N34_29  and  C35_30 
REMARK   10  A    between atoms: C35_30  and  C37_32 
REMARK   11  A    between atoms: C37_32  and  C39_33 
REMARK   12  A    between atoms: C37_32  and  N43_37 
REMARK   13  A    between atoms: C39_33  and  C40_34 
REMARK       I    between atoms: C40_34  and  N41_35 
REMARK       I    between atoms: N43_37  and  C44_38 
REMARK   14  A    between atoms: C44_38  and  C46_40 
ROOT
ATOM      1  C25 ZIN A   1      18.130   2.087   9.968  0.00  0.00     0.119 C 
ENDROOT
BRANCH   1   2
ATOM      2  C22 ZIN A   1      17.830   0.729  10.605  0.00  0.00     0.169 C 
BRANCH   2   3
ATOM      3  C21 ZIN A   1      19.100   0.184  11.263  0.00  0.00     0.307 C 
BRANCH   3   4
ATOM      4  N20 ZIN A   1      18.808  -0.188  12.654  0.00  0.00     0.105 N 
ATOM      5  C8  ZIN A   1      19.105  -1.607  12.887  0.00  0.00     0.314 C 
ATOM      6  C10 ZIN A   1      18.663  -1.999  14.298  0.00  0.00     0.050 C 
ATOM      7  C11 ZIN A   1      19.400  -1.126  15.317  0.00  0.00    -0.006 C 
ATOM      8  C17 ZIN A   1      19.101   0.347  15.026  0.00  0.00     0.018 C 
ATOM      9  C13 ZIN A   1      18.933  -1.474  16.730  0.00  0.00     0.005 C 
ATOM     10  C16 ZIN A   1      17.601   0.602  15.151  0.00  0.00     0.007 C 
ATOM     11  C19 ZIN A   1      19.546   0.667  13.594  0.00  0.00     0.278 C 
ATOM     12  C15 ZIN A   1      17.142   0.259  16.569  0.00  0.00     0.000 C 
ATOM     13  C14 ZIN A   1      17.429  -1.218  16.852  0.00  0.00     0.000 C 
BRANCH   5  14
ATOM     14  C6  ZIN A   1      18.364  -2.447  11.879  0.00  0.00     0.252 C 
ATOM     15  N5  ZIN A   1      19.025  -3.372  11.155  0.00  0.00    -0.351 N 
ATOM     16  H65 ZIN A   1      19.978  -3.498  11.284  0.00  0.00     0.163 HD
ATOM     17  O7  ZIN A   1      17.172  -2.290  11.716  0.00  0.00    -0.271 OA
BRANCH  15  18
ATOM     18  C2  ZIN A   1      18.304  -4.188  10.175  0.00  0.00     0.022 C 
ATOM     19  C1  ZIN A   1      17.109  -4.861  10.852  0.00  0.00     0.037 C 
ATOM     20  C3  ZIN A   1      19.242  -5.258   9.613  0.00  0.00     0.037 C 
ATOM     21  C4  ZIN A   1      17.808  -3.295   9.035  0.00  0.00     0.037 C 
ENDBRANCH  15  18
ENDBRANCH   5  14
ENDBRANCH   3   4
ENDBRANCH   2   3
BRANCH   2  22
ATOM     22  O24 ZIN A   1      16.810   0.882  11.594  0.00  0.00    -0.392 OA
ATOM     23  H80 ZIN A   1      15.922   0.663  11.280  0.00  0.00     0.210 HD
ENDBRANCH   2  22
ENDBRANCH   1   2
BRANCH   1  24
ATOM     24  C27 ZIN A   1      19.210   1.923   8.898  0.00  0.00     0.066 C 
BRANCH  24  25
ATOM     25  C28 ZIN A   1      18.651   1.149   7.732  0.00  0.00    -0.056 A 
ATOM     26  C33 ZIN A   1      17.513   0.382   7.896  0.00  0.00     0.007 A 
ATOM     27  C32 ZIN A   1      16.997  -0.326   6.826  0.00  0.00     0.001 A 
ATOM     28  C31 ZIN A   1      17.624  -0.272   5.595  0.00  0.00     0.000 A 
ATOM     29  C30 ZIN A   1      18.765   0.491   5.434  0.00  0.00     0.001 A 
ATOM     30  C29 ZIN A   1      19.278   1.202   6.502  0.00  0.00     0.007 A 
ENDBRANCH  24  25
ENDBRANCH   1  24
BRANCH   1  31
ATOM     31  N34 ZIN A   1      18.600   3.016  10.998  0.00  0.00    -0.352 N 
ATOM     32  C35 ZIN A   1      17.756   3.928  11.521  0.00  0.00     0.241 C 
ATOM     33  O36 ZIN A   1      16.606   3.980  11.138  0.00  0.00    -0.271 OA
ATOM     34  H88 ZIN A   1      19.519   2.975  11.306  0.00  0.00     0.163 HD
BRANCH  32  35
ATOM     35  C37 ZIN A   1      18.240   4.884  12.581  0.00  0.00     0.185 C 
BRANCH  35  36
ATOM     36  C39 ZIN A   1      19.587   4.402  13.124  0.00  0.00     0.137 C 
BRANCH  36  37
ATOM     37  C40 ZIN A   1      19.906   5.135  14.400  0.00  0.00     0.217 C 
ATOM     38  N41 ZIN A   1      20.093   4.447  15.544  0.00  0.00    -0.370 N 
ATOM     39  H91 ZIN A   1      20.023   3.480  15.545  0.00  0.00     0.159 HD
ATOM     40  H92 ZIN A   1      20.298   4.920  16.366  0.00  0.00     0.159 HD
ATOM     41  O42 ZIN A   1      19.994   6.345  14.399  0.00  0.00    -0.274 OA
ENDBRANCH  36  37
ENDBRANCH  35  36
BRANCH  35  42
ATOM     42  N43 ZIN A   1      17.265   4.937  13.673  0.00  0.00    -0.342 N 
ATOM     43  C44 ZIN A   1      16.575   6.071  13.905  0.00  0.00     0.271 C 
ATOM     44  O45 ZIN A   1      16.694   7.019  13.155  0.00  0.00    -0.266 OA
ATOM     45  H93 ZIN A   1      17.115   4.156  14.228  0.00  0.00     0.163 HD
BRANCH  43  46
ATOM     46  C46 ZIN A   1      15.670   6.163  15.076  0.00  0.00     0.125 A 
ATOM     47  N55 ZIN A   1      16.158   5.958  16.284  0.00  0.00    -0.243 NA
ATOM     48  C54 ZIN A   1      15.384   6.034  17.366  0.00  0.00     0.068 A 
ATOM     49  C49 ZIN A   1      14.003   6.332  17.229  0.00  0.00    -0.007 A 
ATOM     50  C53 ZIN A   1      15.913   5.819  18.654  0.00  0.00     0.032 A 
ATOM     51  C48 ZIN A   1      13.472   6.548  15.944  0.00  0.00     0.016 A 
ATOM     52  C50 ZIN A   1      13.193   6.405  18.375  0.00  0.00     0.014 A 
ATOM     53  C47 ZIN A   1      14.315   6.461  14.874  0.00  0.00     0.038 A 
ATOM     54  C51 ZIN A   1      13.741   6.190  19.602  0.00  0.00     0.001 A 
ATOM     55  C52 ZIN A   1      15.098   5.898  19.739  0.00  0.00     0.002 A 
ENDBRANCH  43  46
ENDBRANCH  35  42
ENDBRANCH  32  35
ENDBRANCH   1  31
TORSDOF 14
ENDMDL
MODEL 5
REMARK VINA RESULT:     -10.0      2.566      5.447
REMARK  14 active torsions:
REMARK  status: ('A' for Active; 'I' for Inactive)
REMARK    1  A    between atoms: C2_2  and  N5_5 
REMARK       I    between atoms: N5_5  and  C6_6 
REMARK    2  A    between atoms: C6_6  and  C8_8 
REMARK    3  A    between atoms: N20_17  and  C21_18 
REMARK    4  A    between atoms: C21_18  and  C22_19 
REMARK    5  A    between atoms: C22_19  and  O24_20 
REMARK    6  A    between atoms: C22_19  and  C25_21 
REMARK    7  A    between atoms: C25_21  and  C27_22 
REMARK    8  A    between atoms: C25_21  and  N34_29 
REMARK    9  A    between atoms: C27_22  and  C28_23 
REMARK       I    between atoms: N34_29  and  C35_30 
REMARK   10  A    between atoms: C35_30  and  C37_32 
REMARK   11  A    between atoms: C37_32  and  C39_33 
REMARK   12  A    between atoms: C37_32  and  N43_37 
REMARK   13  A    between atoms: C39_33  and  C40_34 
REMARK       I    between atoms: C40_34  and  N41_35 
REMARK       I    between atoms: N43_37  and  C44_38 
REMARK   14  A    between atoms: C44_38  and  C46_40 
ROOT
ATOM      1  C25 ZIN A   1      18.938   2.472  11.566  0.00  0.00     0.119 C 
ENDROOT
BRANCH   1   2
ATOM      2  C22 ZIN A   1      19.013   3.681  12.500  0.00  0.00     0.169 C 
BRANCH   2   3
ATOM      3  C21 ZIN A   1      18.389   3.320  13.850  0.00  0.00     0.307 C 
BRANCH   3   4
ATOM      4  N20 ZIN A   1      17.665   4.483  14.380  0.00  0.00     0.105 N 
ATOM      5  C8  ZIN A   1      18.460   5.169  15.406  0.00  0.00     0.314 C 
ATOM      6  C10 ZIN A   1      17.628   6.289  16.037  0.00  0.00     0.050 C 
ATOM      7  C11 ZIN A   1      17.201   7.274  14.946  0.00  0.00    -0.006 C 
ATOM      8  C17 ZIN A   1      16.407   6.523  13.873  0.00  0.00     0.018 C 
ATOM      9  C13 ZIN A   1      16.329   8.372  15.554  0.00  0.00     0.005 C 
ATOM     10  C16 ZIN A   1      15.158   5.905  14.496  0.00  0.00     0.007 C 
ATOM     11  C19 ZIN A   1      17.286   5.406  13.300  0.00  0.00     0.278 C 
ATOM     12  C15 ZIN A   1      14.287   7.010  15.097  0.00  0.00     0.000 C 
ATOM     13  C14 ZIN A   1      15.079   7.750  16.178  0.00  0.00     0.000 C 
BRANCH   5  14
ATOM     14  C6  ZIN A   1      18.862   4.183  16.472  0.00  0.00     0.252 C 
ATOM     15  N5  ZIN A   1      17.917   3.510  17.159  0.00  0.00    -0.351 N 
ATOM     16  H65 ZIN A   1      16.979   3.660  16.967  0.00  0.00     0.163 HD
ATOM     17  O7  ZIN A   1      20.036   3.994  16.713  0.00  0.00    -0.271 OA
BRANCH  15  18
ATOM     18  C2  ZIN A   1      18.309   2.551  18.195  0.00  0.00     0.022 C 
ATOM     19  C1  ZIN A   1      18.820   3.307  19.423  0.00  0.00     0.037 C 
ATOM     20  C3  ZIN A   1      19.415   1.642  17.657  0.00  0.00     0.037 C 
ATOM     21  C4  ZIN A   1      17.097   1.702  18.588  0.00  0.00     0.037 C 
ENDBRANCH  15  18
ENDBRANCH   5  14
ENDBRANCH   3   4
ENDBRANCH   2   3
BRANCH   2  22
ATOM     22  O24 ZIN A   1      20.379   4.051  12.690  0.00  0.00    -0.392 OA
ATOM     23  H80 ZIN A   1      20.871   3.456  13.273  0.00  0.00     0.210 HD
ENDBRANCH   2  22
ENDBRANCH   1   2
BRANCH   1  24
ATOM     24  C27 ZIN A   1      17.983   2.776  10.410  0.00  0.00     0.066 C 
BRANCH  24  25
ATOM     25  C28 ZIN A   1      18.194   1.773   9.305  0.00  0.00    -0.056 A 
ATOM     26  C33 ZIN A   1      19.119   2.026   8.310  0.00  0.00     0.007 A 
ATOM     27  C32 ZIN A   1      19.315   1.104   7.299  0.00  0.00     0.001 A 
ATOM     28  C31 ZIN A   1      18.581  -0.068   7.280  0.00  0.00     0.000 A 
ATOM     29  C30 ZIN A   1      17.653  -0.318   8.272  0.00  0.00     0.001 A 
ATOM     30  C29 ZIN A   1      17.459   0.602   9.286  0.00  0.00     0.007 A 
ENDBRANCH  24  25
ENDBRANCH   1  24
BRANCH   1  31
ATOM     31  N34 ZIN A   1      18.448   1.309  12.310  0.00  0.00    -0.352 N 
ATOM     32  C35 ZIN A   1      19.294   0.310  12.634  0.00  0.00     0.241 C 
ATOM     33  O36 ZIN A   1      20.460   0.373  12.308  0.00  0.00    -0.271 OA
ATOM     34  H88 ZIN A   1      17.515   1.258  12.572  0.00  0.00     0.163 HD
BRANCH  32  35
ATOM     35  C37 ZIN A   1      18.789  -0.886  13.400  0.00  0.00     0.185 C 
BRANCH  35  36
ATOM     36  C39 ZIN A   1      19.721  -1.165  14.580  0.00  0.00     0.137 C 
BRANCH  36  37
ATOM     37  C40 ZIN A   1      18.907  -1.317  15.839  0.00  0.00     0.217 C 
ATOM     38  N41 ZIN A   1      17.628  -0.896  15.869  0.00  0.00    -0.370 N 
ATOM     39  H91 ZIN A   1      17.230  -0.495  15.080  0.00  0.00     0.159 HD
ATOM     40  H92 ZIN A   1      17.104  -0.993  16.680  0.00  0.00     0.159 HD
ATOM     41  O42 ZIN A   1      19.405  -1.817  16.826  0.00  0.00    -0.274 OA
ENDBRANCH  36  37
ENDBRANCH  35  36
BRANCH  35  42
ATOM     42  N43 ZIN A   1      18.757  -2.053  12.516  0.00  0.00    -0.342 N 
ATOM     43  C44 ZIN A   1      17.651  -2.322  11.795  0.00  0.00     0.271 C 
ATOM     44  O45 ZIN A   1      16.714  -1.548  11.808  0.00  0.00    -0.266 OA
ATOM     45  H93 ZIN A   1      19.532  -2.633  12.448  0.00  0.00     0.163 HD
BRANCH  43  46
ATOM     46  C46 ZIN A   1      17.575  -3.562  10.985  0.00  0.00     0.125 A 
ATOM     47  N55 ZIN A   1      17.831  -3.503   9.692  0.00  0.00    -0.243 NA
ATOM     48  C54 ZIN A   1      17.780  -4.592   8.926  0.00  0.00     0.068 A 
ATOM     49  C49 ZIN A   1      17.435  -5.845   9.498  0.00  0.00    -0.007 A 
ATOM     50  C53 ZIN A   1      18.060  -4.522   7.547  0.00  0.00     0.032 A 
ATOM     51  C48 ZIN A   1      17.156  -5.917  10.875  0.00  0.00     0.016 A 
ATOM     52  C50 ZIN A   1      17.378  -6.987   8.681  0.00  0.00     0.014 A 
ATOM     53  C47 ZIN A   1      17.229  -4.768  11.609  0.00  0.00     0.038 A 
ATOM     54  C51 ZIN A   1      17.655  -6.879   7.353  0.00  0.00     0.001 A 
ATOM     55  C52 ZIN A   1      17.994  -5.649   6.789  0.00  0.00     0.002 A 
ENDBRANCH  43  46
ENDBRANCH  35  42
ENDBRANCH  32  35
ENDBRANCH   1  31
TORSDOF 14
ENDMDL
MODEL 6
REMARK VINA RESULT:      -9.9      1.840      3.467
REMARK  14 active torsions:
REMARK  status: ('A' for Active; 'I' for Inactive)
REMARK    1  A    between atoms: C2_2  and  N5_5 
REMARK       I    between atoms: N5_5  and  C6_6 
REMARK    2  A    between atoms: C6_6  and  C8_8 
REMARK    3  A    between atoms: N20_17  and  C21_18 
REMARK    4  A    between atoms: C21_18  and  C22_19 
REMARK    5  A    between atoms: C22_19  and  O24_20 
REMARK    6  A    between atoms: C22_19  and  C25_21 
REMARK    7  A    between atoms: C25_21  and  C27_22 
REMARK    8  A    between atoms: C25_21  and  N34_29 
REMARK    9  A    between atoms: C27_22  and  C28_23 
REMARK       I    between atoms: N34_29  and  C35_30 
REMARK   10  A    between atoms: C35_30  and  C37_32 
REMARK   11  A    between atoms: C37_32  and  C39_33 
REMARK   12  A    between atoms: C37_32  and  N43_37 
REMARK   13  A    between atoms: C39_33  and  C40_34 
REMARK       I    between atoms: C40_34  and  N41_35 
REMARK       I    between atoms: N43_37  and  C44_38 
REMARK   14  A    between atoms: C44_38  and  C46_40 
ROOT
ATOM      1  C25 ZIN A   1      19.078  -0.552  10.197  0.00  0.00     0.119 C 
ENDROOT
BRANCH   1   2
ATOM      2  C22 ZIN A   1      18.876  -0.804  11.692  0.00  0.00     0.169 C 
BRANCH   2   3
ATOM      3  C21 ZIN A   1      19.741   0.171  12.494  0.00  0.00     0.307 C 
BRANCH   3   4
ATOM      4  N20 ZIN A   1      19.087   1.486  12.533  0.00  0.00     0.105 N 
ATOM      5  C8  ZIN A   1      19.068   2.019  13.901  0.00  0.00     0.314 C 
ATOM      6  C10 ZIN A   1      18.262   3.320  13.934  0.00  0.00     0.050 C 
ATOM      7  C11 ZIN A   1      18.899   4.331  12.978  0.00  0.00    -0.006 C 
ATOM      8  C17 ZIN A   1      18.938   3.733  11.568  0.00  0.00     0.018 C 
ATOM      9  C13 ZIN A   1      18.076   5.618  12.964  0.00  0.00     0.005 C 
ATOM     10  C16 ZIN A   1      17.518   3.433  11.096  0.00  0.00     0.007 C 
ATOM     11  C19 ZIN A   1      19.738   2.426  11.609  0.00  0.00     0.278 C 
ATOM     12  C15 ZIN A   1      16.703   4.727  11.079  0.00  0.00     0.000 C 
ATOM     13  C14 ZIN A   1      16.653   5.316  12.492  0.00  0.00     0.000 C 
BRANCH   5  14
ATOM     14  C6  ZIN A   1      18.431   1.011  14.823  0.00  0.00     0.252 C 
ATOM     15  N5  ZIN A   1      19.067   0.631  15.949  0.00  0.00    -0.351 N 
ATOM     16  H65 ZIN A   1      19.934   1.007  16.166  0.00  0.00     0.163 HD
ATOM     17  O7  ZIN A   1      17.346   0.541  14.551  0.00  0.00    -0.271 OA
BRANCH  15  18
ATOM     18  C2  ZIN A   1      18.448  -0.349  16.845  0.00  0.00     0.022 C 
ATOM     19  C1  ZIN A   1      16.985   0.030  17.082  0.00  0.00     0.037 C 
ATOM     20  C3  ZIN A   1      19.195  -0.363  18.180  0.00  0.00     0.037 C 
ATOM     21  C4  ZIN A   1      18.517  -1.738  16.207  0.00  0.00     0.037 C 
ENDBRANCH  15  18
ENDBRANCH   5  14
ENDBRANCH   3   4
ENDBRANCH   2   3
BRANCH   2  22
ATOM     22  O24 ZIN A   1      17.501  -0.605  12.026  0.00  0.00    -0.392 OA
ATOM     23  H80 ZIN A   1      17.362  -0.151  12.868  0.00  0.00     0.210 HD
ENDBRANCH   2  22
ENDBRANCH   1   2
BRANCH   1  24
ATOM     24  C27 ZIN A   1      17.803   0.050   9.603  0.00  0.00     0.066 C 
BRANCH  24  25
ATOM     25  C28 ZIN A   1      17.980   0.236   8.118  0.00  0.00    -0.056 A 
ATOM     26  C33 ZIN A   1      18.988   1.052   7.639  0.00  0.00     0.007 A 
ATOM     27  C32 ZIN A   1      19.153   1.220   6.277  0.00  0.00     0.001 A 
ATOM     28  C31 ZIN A   1      18.305   0.578   5.394  0.00  0.00     0.000 A 
ATOM     29  C30 ZIN A   1      17.294  -0.234   5.873  0.00  0.00     0.001 A 
ATOM     30  C29 ZIN A   1      17.132  -0.405   7.235  0.00  0.00     0.007 A 
ENDBRANCH  24  25
ENDBRANCH   1  24
BRANCH   1  31
ATOM     31  N34 ZIN A   1      19.379  -1.818   9.525  0.00  0.00    -0.352 N 
ATOM     32  C35 ZIN A   1      18.513  -2.848   9.607  0.00  0.00     0.241 C 
ATOM     33  O36 ZIN A   1      17.485  -2.727  10.238  0.00  0.00    -0.271 OA
ATOM     34  H88 ZIN A   1      20.202  -1.917   9.020  0.00  0.00     0.163 HD
BRANCH  32  35
ATOM     35  C37 ZIN A   1      18.824  -4.151   8.916  0.00  0.00     0.185 C 
BRANCH  35  36
ATOM     36  C39 ZIN A   1      19.769  -3.891   7.741  0.00  0.00     0.137 C 
BRANCH  36  37
ATOM     37  C40 ZIN A   1      20.365  -5.195   7.278  0.00  0.00     0.217 C 
ATOM     38  N41 ZIN A   1      21.686  -5.421   7.423  0.00  0.00    -0.370 N 
ATOM     39  H91 ZIN A   1      22.252  -4.745   7.826  0.00  0.00     0.159 HD
ATOM     40  H92 ZIN A   1      22.070  -6.261   7.124  0.00  0.00     0.159 HD
ATOM     41  O42 ZIN A   1      19.657  -6.041   6.774  0.00  0.00    -0.274 OA
ENDBRANCH  36  37
ENDBRANCH  35  36
BRANCH  35  42
ATOM     42  N43 ZIN A   1      17.582  -4.748   8.420  0.00  0.00    -0.342 N 
ATOM     43  C44 ZIN A   1      17.055  -5.822   9.042  0.00  0.00     0.271 C 
ATOM     44  O45 ZIN A   1      17.559  -6.239  10.066  0.00  0.00    -0.266 OA
ATOM     45  H93 ZIN A   1      17.137  -4.372   7.644  0.00  0.00     0.163 HD
BRANCH  43  46
ATOM     46  C46 ZIN A   1      15.860  -6.495   8.478  0.00  0.00     0.125 A 
ATOM     47  N55 ZIN A   1      15.983  -7.709   7.974  0.00  0.00    -0.243 NA
ATOM     48  C54 ZIN A   1      14.937  -8.354   7.460  0.00  0.00     0.068 A 
ATOM     49  C49 ZIN A   1      13.661  -7.731   7.439  0.00  0.00    -0.007 A 
ATOM     50  C53 ZIN A   1      15.075  -9.652   6.930  0.00  0.00     0.032 A 
ATOM     51  C48 ZIN A   1      13.521  -6.436   7.969  0.00  0.00     0.016 A 
ATOM     52  C50 ZIN A   1      12.565  -8.418   6.890  0.00  0.00     0.014 A 
ATOM     53  C47 ZIN A   1      14.628  -5.827   8.487  0.00  0.00     0.038 A 
ATOM     54  C51 ZIN A   1      12.738  -9.670   6.386  0.00  0.00     0.001 A 
ATOM     55  C52 ZIN A   1      13.990 -10.284   6.407  0.00  0.00     0.002 A 
ENDBRANCH  43  46
ENDBRANCH  35  42
ENDBRANCH  32  35
ENDBRANCH   1  31
TORSDOF 14
ENDMDL
MODEL 7
REMARK VINA RESULT:      -9.9      2.385      5.336
REMARK  14 active torsions:
REMARK  status: ('A' for Active; 'I' for Inactive)
REMARK    1  A    between atoms: C2_2  and  N5_5 
REMARK       I    between atoms: N5_5  and  C6_6 
REMARK    2  A    between atoms: C6_6  and  C8_8 
REMARK    3  A    between atoms: N20_17  and  C21_18 
REMARK    4  A    between atoms: C21_18  and  C22_19 
REMARK    5  A    between atoms: C22_19  and  O24_20 
REMARK    6  A    between atoms: C22_19  and  C25_21 
REMARK    7  A    between atoms: C25_21  and  C27_22 
REMARK    8  A    between atoms: C25_21  and  N34_29 
REMARK    9  A    between atoms: C27_22  and  C28_23 
REMARK       I    between atoms: N34_29  and  C35_30 
REMARK   10  A    between atoms: C35_30  and  C37_32 
REMARK   11  A    between atoms: C37_32  and  C39_33 
REMARK   12  A    between atoms: C37_32  and  N43_37 
REMARK   13  A    between atoms: C39_33  and  C40_34 
REMARK       I    between atoms: C40_34  and  N41_35 
REMARK       I    between atoms: N43_37  and  C44_38 
REMARK   14  A    between atoms: C44_38  and  C46_40 
ROOT
ATOM      1  C25 ZIN A   1      17.926  -1.019   9.471  0.00  0.00     0.119 C 
ENDROOT
BRANCH   1   2
ATOM      2  C22 ZIN A   1      17.553  -0.722  10.925  0.00  0.00     0.169 C 
BRANCH   2   3
ATOM      3  C21 ZIN A   1      18.682   0.070  11.588  0.00  0.00     0.307 C 
BRANCH   3   4
ATOM      4  N20 ZIN A   1      18.572  -0.050  13.048  0.00  0.00     0.105 N 
ATOM      5  C8  ZIN A   1      17.661   0.968  13.587  0.00  0.00     0.314 C 
ATOM      6  C10 ZIN A   1      17.673   0.909  15.116  0.00  0.00     0.050 C 
ATOM      7  C11 ZIN A   1      17.240  -0.487  15.569  0.00  0.00    -0.006 C 
ATOM      8  C17 ZIN A   1      18.185  -1.528  14.962  0.00  0.00     0.018 C 
ATOM      9  C13 ZIN A   1      17.293  -0.576  17.094  0.00  0.00     0.005 C 
ATOM     10  C16 ZIN A   1      19.610  -1.273  15.445  0.00  0.00     0.007 C 
ATOM     11  C19 ZIN A   1      18.142  -1.401  13.435  0.00  0.00     0.278 C 
ATOM     12  C15 ZIN A   1      19.657  -1.369  16.970  0.00  0.00     0.000 C 
ATOM     13  C14 ZIN A   1      18.722  -0.319  17.575  0.00  0.00     0.000 C 
BRANCH   5  14
ATOM     14  C6  ZIN A   1      18.111   2.333  13.135  0.00  0.00     0.252 C 
ATOM     15  N5  ZIN A   1      17.497   2.936  12.097  0.00  0.00    -0.351 N 
ATOM     16  H65 ZIN A   1      16.766   2.491  11.641  0.00  0.00     0.163 HD
ATOM     17  O7  ZIN A   1      19.026   2.890  13.704  0.00  0.00    -0.271 OA
BRANCH  15  18
ATOM     18  C2  ZIN A   1      17.935   4.263  11.657  0.00  0.00     0.022 C 
ATOM     19  C1  ZIN A   1      17.096   5.334  12.356  0.00  0.00     0.037 C 
ATOM     20  C3  ZIN A   1      17.759   4.383  10.142  0.00  0.00     0.037 C 
ATOM     21  C4  ZIN A   1      19.411   4.458  12.016  0.00  0.00     0.037 C 
ENDBRANCH  15  18
ENDBRANCH   5  14
ENDBRANCH   3   4
ENDBRANCH   2   3
BRANCH   2  22
ATOM     22  O24 ZIN A   1      16.349   0.046  10.960  0.00  0.00    -0.392 OA
ATOM     23  H80 ZIN A   1      15.587  -0.433  11.315  0.00  0.00     0.210 HD
ENDBRANCH   2  22
ENDBRANCH   1   2
BRANCH   1  24
ATOM     24  C27 ZIN A   1      17.128  -0.102   8.542  0.00  0.00     0.066 C 
BRANCH  24  25
ATOM     25  C28 ZIN A   1      17.814  -0.023   7.202  0.00  0.00    -0.056 A 
ATOM     26  C33 ZIN A   1      17.364  -0.795   6.149  0.00  0.00     0.007 A 
ATOM     27  C32 ZIN A   1      17.991  -0.720   4.919  0.00  0.00     0.001 A 
ATOM     28  C31 ZIN A   1      19.073   0.122   4.746  0.00  0.00     0.000 A 
ATOM     29  C30 ZIN A   1      19.526   0.891   5.801  0.00  0.00     0.001 A 
ATOM     30  C29 ZIN A   1      18.897   0.819   7.029  0.00  0.00     0.007 A 
ENDBRANCH  24  25
ENDBRANCH   1  24
BRANCH   1  31
ATOM     31  N34 ZIN A   1      17.614  -2.416   9.163  0.00  0.00    -0.352 N 
ATOM     32  C35 ZIN A   1      18.542  -3.374   9.362  0.00  0.00     0.241 C 
ATOM     33  O36 ZIN A   1      19.635  -3.078   9.796  0.00  0.00    -0.271 OA
ATOM     34  H88 ZIN A   1      16.740  -2.654   8.815  0.00  0.00     0.163 HD
BRANCH  32  35
ATOM     35  C37 ZIN A   1      18.221  -4.812   9.045  0.00  0.00     0.185 C 
BRANCH  35  36
ATOM     36  C39 ZIN A   1      19.519  -5.577   8.779  0.00  0.00     0.137 C 
BRANCH  36  37
ATOM     37  C40 ZIN A   1      19.923  -5.395   7.339  0.00  0.00     0.217 C 
ATOM     38  N41 ZIN A   1      20.760  -4.396   6.995  0.00  0.00    -0.370 N 
ATOM     39  H91 ZIN A   1      21.102  -3.794   7.674  0.00  0.00     0.159 HD
ATOM     40  H92 ZIN A   1      21.020  -4.279   6.067  0.00  0.00     0.159 HD
ATOM     41  O42 ZIN A   1      19.495  -6.148   6.489  0.00  0.00    -0.274 OA
ENDBRANCH  36  37
ENDBRANCH  35  36
BRANCH  35  42
ATOM     42  N43 ZIN A   1      17.368  -4.870   7.855  0.00  0.00    -0.342 N 
ATOM     43  C44 ZIN A   1      16.382  -5.785   7.777  0.00  0.00     0.271 C 
ATOM     44  O45 ZIN A   1      16.141  -6.502   8.728  0.00  0.00    -0.266 OA
ATOM     45  H93 ZIN A   1      17.511  -4.249   7.124  0.00  0.00     0.163 HD
BRANCH  43  46
ATOM     46  C46 ZIN A   1      15.590  -5.919   6.531  0.00  0.00     0.125 A 
ATOM     47  N55 ZIN A   1      16.006  -5.313   5.436  0.00  0.00    -0.243 NA
ATOM     48  C54 ZIN A   1      15.329  -5.408   4.291  0.00  0.00     0.068 A 
ATOM     49  C49 ZIN A   1      14.130  -6.166   4.239  0.00  0.00    -0.007 A 
ATOM     50  C53 ZIN A   1      15.783  -4.763   3.125  0.00  0.00     0.032 A 
ATOM     51  C48 ZIN A   1      13.675  -6.812   5.403  0.00  0.00     0.016 A 
ATOM     52  C50 ZIN A   1      13.420  -6.256   3.029  0.00  0.00     0.014 A 
ATOM     53  C47 ZIN A   1      14.414  -6.682   6.544  0.00  0.00     0.038 A 
ATOM     54  C51 ZIN A   1      13.890  -5.618   1.924  0.00  0.00     0.001 A 
ATOM     55  C52 ZIN A   1      15.069  -4.873   1.973  0.00  0.00     0.002 A 
ENDBRANCH  43  46
ENDBRANCH  35  42
ENDBRANCH  32  35
ENDBRANCH   1  31
TORSDOF 14
ENDMDL
MODEL 8
REMARK VINA RESULT:      -9.5      2.542     10.406
REMARK  14 active torsions:
REMARK  status: ('A' for Active; 'I' for Inactive)
REMARK    1  A    between atoms: C2_2  and  N5_5 
REMARK       I    between atoms: N5_5  and  C6_6 
REMARK    2  A    between atoms: C6_6  and  C8_8 
REMARK    3  A    between atoms: N20_17  and  C21_18 
REMARK    4  A    between atoms: C21_18  and  C22_19 
REMARK    5  A    between atoms: C22_19  and  O24_20 
REMARK    6  A    between atoms: C22_19  and  C25_21 
REMARK    7  A    between atoms: C25_21  and  C27_22 
REMARK    8  A    between atoms: C25_21  and  N34_29 
REMARK    9  A    between atoms: C27_22  and  C28_23 
REMARK       I    between atoms: N34_29  and  C35_30 
REMARK   10  A    between atoms: C35_30  and  C37_32 
REMARK   11  A    between atoms: C37_32  and  C39_33 
REMARK   12  A    between atoms: C37_32  and  N43_37 
REMARK   13  A    between atoms: C39_33  and  C40_34 
REMARK       I    between atoms: C40_34  and  N41_35 
REMARK       I    between atoms: N43_37  and  C44_38 
REMARK   14  A    between atoms: C44_38  and  C46_40 
ROOT
ATOM      1  C25 ZIN A   1      18.484  -5.625   8.290  0.00  0.00     0.119 C 
ENDROOT
BRANCH   1   2
ATOM      2  C22 ZIN A   1      17.765  -6.563   7.319  0.00  0.00     0.169 C 
BRANCH   2   3
ATOM      3  C21 ZIN A   1      16.531  -5.859   6.749  0.00  0.00     0.307 C 
BRANCH   3   4
ATOM      4  N20 ZIN A   1      15.443  -6.833   6.588  0.00  0.00     0.105 N 
ATOM      5  C8  ZIN A   1      15.410  -7.355   5.216  0.00  0.00     0.314 C 
ATOM      6  C10 ZIN A   1      14.187  -8.258   5.040  0.00  0.00     0.050 C 
ATOM      7  C11 ZIN A   1      14.261  -9.408   6.047  0.00  0.00    -0.006 C 
ATOM      8  C17 ZIN A   1      14.331  -8.831   7.464  0.00  0.00     0.018 C 
ATOM      9  C13 ZIN A   1      13.021 -10.291   5.915  0.00  0.00     0.005 C 
ATOM     10  C16 ZIN A   1      13.078  -8.007   7.747  0.00  0.00     0.007 C 
ATOM     11  C19 ZIN A   1      15.561  -7.923   7.567  0.00  0.00     0.278 C 
ATOM     12  C15 ZIN A   1      11.841  -8.899   7.619  0.00  0.00     0.000 C 
ATOM     13  C14 ZIN A   1      11.766  -9.463   6.198  0.00  0.00     0.000 C 
BRANCH   5  14
ATOM     14  C6  ZIN A   1      15.330  -6.207   4.244  0.00  0.00     0.252 C 
ATOM     15  N5  ZIN A   1      16.279  -6.058   3.297  0.00  0.00    -0.351 N 
ATOM     16  H65 ZIN A   1      17.012  -6.690   3.242  0.00  0.00     0.163 HD
ATOM     17  O7  ZIN A   1      14.413  -5.416   4.312  0.00  0.00    -0.271 OA
BRANCH  15  18
ATOM     18  C2  ZIN A   1      16.200  -4.942   2.352  0.00  0.00     0.022 C 
ATOM     19  C1  ZIN A   1      17.306  -5.083   1.304  0.00  0.00     0.037 C 
ATOM     20  C3  ZIN A   1      16.374  -3.622   3.105  0.00  0.00     0.037 C 
ATOM     21  C4  ZIN A   1      14.836  -4.956   1.658  0.00  0.00     0.037 C 
ENDBRANCH  15  18
ENDBRANCH   5  14
ENDBRANCH   3   4
ENDBRANCH   2   3
BRANCH   2  22
ATOM     22  O24 ZIN A   1      18.648  -6.912   6.252  0.00  0.00    -0.392 OA
ATOM     23  H80 ZIN A   1      18.487  -6.426   5.432  0.00  0.00     0.210 HD
ENDBRANCH   2  22
ENDBRANCH   1   2
BRANCH   1  24
ATOM     24  C27 ZIN A   1      17.987  -5.883   9.714  0.00  0.00     0.066 C 
BRANCH  24  25
ATOM     25  C28 ZIN A   1      18.433  -4.759  10.613  0.00  0.00    -0.056 A 
ATOM     26  C33 ZIN A   1      19.774  -4.598  10.904  0.00  0.00     0.007 A 
ATOM     27  C32 ZIN A   1      20.185  -3.565  11.726  0.00  0.00     0.001 A 
ATOM     28  C31 ZIN A   1      19.252  -2.698  12.264  0.00  0.00     0.000 A 
ATOM     29  C30 ZIN A   1      17.909  -2.863  11.977  0.00  0.00     0.001 A 
ATOM     30  C29 ZIN A   1      17.500  -3.893  11.152  0.00  0.00     0.007 A 
ENDBRANCH  24  25
ENDBRANCH   1  24
BRANCH   1  31
ATOM     31  N34 ZIN A   1      18.206  -4.235   7.920  0.00  0.00    -0.352 N 
ATOM     32  C35 ZIN A   1      19.040  -3.578   7.090  0.00  0.00     0.241 C 
ATOM     33  O36 ZIN A   1      20.022  -4.137   6.649  0.00  0.00    -0.271 OA
ATOM     34  H88 ZIN A   1      17.421  -3.786   8.272  0.00  0.00     0.163 HD
BRANCH  32  35
ATOM     35  C37 ZIN A   1      18.754  -2.147   6.710  0.00  0.00     0.185 C 
BRANCH  35  36
ATOM     36  C39 ZIN A   1      19.597  -1.765   5.493  0.00  0.00     0.137 C 
BRANCH  36  37
ATOM     37  C40 ZIN A   1      18.968  -0.587   4.795  0.00  0.00     0.217 C 
ATOM     38  N41 ZIN A   1      19.604   0.600   4.772  0.00  0.00    -0.370 N 
ATOM     39  H91 ZIN A   1      20.467   0.697   5.203  0.00  0.00     0.159 HD
ATOM     40  H92 ZIN A   1      19.198   1.359   4.323  0.00  0.00     0.159 HD
ATOM     41  O42 ZIN A   1      17.888  -0.708   4.256  0.00  0.00    -0.274 OA
ENDBRANCH  36  37
ENDBRANCH  35  36
BRANCH  35  42
ATOM     42  N43 ZIN A   1      19.091  -1.269   7.833  0.00  0.00    -0.342 N 
ATOM     43  C44 ZIN A   1      18.200  -0.354   8.264  0.00  0.00     0.271 C 
ATOM     44  O45 ZIN A   1      17.085  -0.318   7.782  0.00  0.00    -0.266 OA
ATOM     45  H93 ZIN A   1      19.955  -1.345   8.267  0.00  0.00     0.163 HD
BRANCH  43  46
ATOM     46  C46 ZIN A   1      18.579   0.610   9.325  0.00  0.00     0.125 A 
ATOM     47  N55 ZIN A   1      17.983   1.786   9.369  0.00  0.00    -0.243 NA
ATOM     48  C54 ZIN A   1      18.288   2.682  10.308  0.00  0.00     0.068 A 
ATOM     49  C49 ZIN A   1      19.280   2.381  11.278  0.00  0.00    -0.007 A 
ATOM     50  C53 ZIN A   1      17.643   3.934  10.352  0.00  0.00     0.032 A 
ATOM     51  C48 ZIN A   1      19.924   1.132  11.236  0.00  0.00     0.016 A 
ATOM     52  C50 ZIN A   1      19.598   3.335  12.260  0.00  0.00     0.014 A 
ATOM     53  C47 ZIN A   1      19.566   0.253  10.255  0.00  0.00     0.038 A 
ATOM     54  C51 ZIN A   1      18.954   4.533  12.270  0.00  0.00     0.001 A 
ATOM     55  C52 ZIN A   1      17.979   4.830  11.317  0.00  0.00     0.002 A 
ENDBRANCH  43  46
ENDBRANCH  35  42
ENDBRANCH  32  35
ENDBRANCH   1  31
TORSDOF 14
ENDMDL
MODEL 9
REMARK VINA RESULT:      -9.0      3.420     11.585
REMARK  14 active torsions:
REMARK  status: ('A' for Active; 'I' for Inactive)
REMARK    1  A    between atoms: C2_2  and  N5_5 
REMARK       I    between atoms: N5_5  and  C6_6 
REMARK    2  A    between atoms: C6_6  and  C8_8 
REMARK    3  A    between atoms: N20_17  and  C21_18 
REMARK    4  A    between atoms: C21_18  and  C22_19 
REMARK    5  A    between atoms: C22_19  and  O24_20 
REMARK    6  A    between atoms: C22_19  and  C25_21 
REMARK    7  A    between atoms: C25_21  and  C27_22 
REMARK    8  A    between atoms: C25_21  and  N34_29 
REMARK    9  A    between atoms: C27_22  and  C28_23 
REMARK       I    between atoms: N34_29  and  C35_30 
REMARK   10  A    between atoms: C35_30  and  C37_32 
REMARK   11  A    between atoms: C37_32  and  C39_33 
REMARK   12  A    between atoms: C37_32  and  N43_37 
REMARK   13  A    between atoms: C39_33  and  C40_34 
REMARK       I    between atoms: C40_34  and  N41_35 
REMARK       I    between atoms: N43_37  and  C44_38 
REMARK   14  A    between atoms: C44_38  and  C46_40 
ROOT
ATOM      1  C25 ZIN A   1      18.213   2.787  12.722  0.00  0.00     0.119 C 
ENDROOT
BRANCH   1   2
ATOM      2  C22 ZIN A   1      18.968   1.667  12.004  0.00  0.00     0.169 C 
BRANCH   2   3
ATOM      3  C21 ZIN A   1      18.034   0.985  11.001  0.00  0.00     0.307 C 
BRANCH   3   4
ATOM      4  N20 ZIN A   1      18.321  -0.455  10.967  0.00  0.00     0.105 N 
ATOM      5  C8  ZIN A   1      19.528  -0.728  10.176  0.00  0.00     0.314 C 
ATOM      6  C10 ZIN A   1      19.724  -2.240  10.043  0.00  0.00     0.050 C 
ATOM      7  C11 ZIN A   1      19.850  -2.856  11.438  0.00  0.00    -0.006 C 
ATOM      8  C17 ZIN A   1      18.595  -2.524  12.250  0.00  0.00     0.018 C 
ATOM      9  C13 ZIN A   1      19.997  -4.373  11.322  0.00  0.00     0.005 C 
ATOM     10  C16 ZIN A   1      17.366  -3.111  11.560  0.00  0.00     0.007 C 
ATOM     11  C19 ZIN A   1      18.446  -1.000  12.326  0.00  0.00     0.278 C 
ATOM     12  C15 ZIN A   1      17.517  -4.629  11.453  0.00  0.00     0.000 C 
ATOM     13  C14 ZIN A   1      18.765  -4.959  10.630  0.00  0.00     0.000 C 
BRANCH   5  14
ATOM     14  C6  ZIN A   1      19.378  -0.119   8.806  0.00  0.00     0.252 C 
ATOM     15  N5  ZIN A   1      18.556  -0.687   7.902  0.00  0.00    -0.351 N 
ATOM     16  H65 ZIN A   1      18.059  -1.488   8.133  0.00  0.00     0.163 HD
ATOM     17  O7  ZIN A   1      19.998   0.882   8.516  0.00  0.00    -0.271 OA
BRANCH  15  18
ATOM     18  C2  ZIN A   1      18.410  -0.095   6.570  0.00  0.00     0.022 C 
ATOM     19  C1  ZIN A   1      19.256  -0.881   5.567  0.00  0.00     0.037 C 
ATOM     20  C3  ZIN A   1      18.879   1.361   6.605  0.00  0.00     0.037 C 
ATOM     21  C4  ZIN A   1      16.940  -0.146   6.147  0.00  0.00     0.037 C 
ENDBRANCH  15  18
ENDBRANCH   5  14
ENDBRANCH   3   4
ENDBRANCH   2   3
BRANCH   2  22
ATOM     22  O24 ZIN A   1      20.090   2.218  11.311  0.00  0.00    -0.392 OA
ATOM     23  H80 ZIN A   1      20.516   1.602  10.700  0.00  0.00     0.210 HD
ENDBRANCH   2  22
ENDBRANCH   1   2
BRANCH   1  24
ATOM     24  C27 ZIN A   1      18.981   4.102  12.568  0.00  0.00     0.066 C 
BRANCH  24  25
ATOM     25  C28 ZIN A   1      18.377   5.145  13.472  0.00  0.00    -0.056 A 
ATOM     26  C33 ZIN A   1      17.077   5.566  13.269  0.00  0.00     0.007 A 
ATOM     27  C32 ZIN A   1      16.521   6.521  14.101  0.00  0.00     0.001 A 
ATOM     28  C31 ZIN A   1      17.270   7.060  15.130  0.00  0.00     0.000 A 
ATOM     29  C30 ZIN A   1      18.572   6.643  15.330  0.00  0.00     0.001 A 
ATOM     30  C29 ZIN A   1      19.126   5.685  14.501  0.00  0.00     0.007 A 
ENDBRANCH  24  25
ENDBRANCH   1  24
BRANCH   1  31
ATOM     31  N34 ZIN A   1      18.088   2.458  14.143  0.00  0.00    -0.352 N 
ATOM     32  C35 ZIN A   1      19.027   1.703  14.747  0.00  0.00     0.241 C 
ATOM     33  O36 ZIN A   1      19.976   1.295  14.112  0.00  0.00    -0.271 OA
ATOM     34  H88 ZIN A   1      17.329   2.785  14.652  0.00  0.00     0.163 HD
BRANCH  32  35
ATOM     35  C37 ZIN A   1      18.898   1.365  16.210  0.00  0.00     0.185 C 
BRANCH  35  36
ATOM     36  C39 ZIN A   1      18.191   0.017  16.360  0.00  0.00     0.137 C 
BRANCH  36  37
ATOM     37  C40 ZIN A   1      19.092  -0.945  17.090  0.00  0.00     0.217 C 
ATOM     38  N41 ZIN A   1      19.627  -0.598  18.277  0.00  0.00    -0.370 N 
ATOM     39  H91 ZIN A   1      19.433   0.271  18.661  0.00  0.00     0.159 HD
ATOM     40  H92 ZIN A   1      20.208  -1.217  18.747  0.00  0.00     0.159 HD
ATOM     41  O42 ZIN A   1      19.335  -2.032  16.609  0.00  0.00    -0.274 OA
ENDBRANCH  36  37
ENDBRANCH  35  36
BRANCH  35  42
ATOM     42  N43 ZIN A   1      18.115   2.404  16.883  0.00  0.00    -0.342 N 
ATOM     43  C44 ZIN A   1      18.515   2.881  18.078  0.00  0.00     0.271 C 
ATOM     44  O45 ZIN A   1      19.571   2.515  18.556  0.00  0.00    -0.266 OA
ATOM     45  H93 ZIN A   1      17.309   2.751  16.468  0.00  0.00     0.163 HD
BRANCH  43  46
ATOM     46  C46 ZIN A   1      17.667   3.851  18.812  0.00  0.00     0.125 A 
ATOM     47  N55 ZIN A   1      17.870   5.143  18.639  0.00  0.00    -0.243 NA
ATOM     48  C54 ZIN A   1      17.129   6.051  19.274  0.00  0.00     0.068 A 
ATOM     49  C49 ZIN A   1      16.106   5.634  20.164  0.00  0.00    -0.007 A 
ATOM     50  C53 ZIN A   1      17.348   7.429  19.080  0.00  0.00     0.032 A 
ATOM     51  C48 ZIN A   1      15.885   4.258  20.359  0.00  0.00     0.016 A 
ATOM     52  C50 ZIN A   1      15.334   6.599  20.833  0.00  0.00     0.014 A 
ATOM     53  C47 ZIN A   1      16.672   3.375  19.677  0.00  0.00     0.038 A 
ATOM     54  C51 ZIN A   1      15.576   7.921  20.620  0.00  0.00     0.001 A 
ATOM     55  C52 ZIN A   1      16.581   8.333  19.745  0.00  0.00     0.002 A 
ENDBRANCH  43  46
ENDBRANCH  35  42
ENDBRANCH  32  35
ENDBRANCH   1  31
TORSDOF 14
ENDMDL
