MODEL 1
REMARK VINA RESULT:      -7.8      0.000      0.000
REMARK  9 active torsions:
REMARK  status: ('A' for Active; 'I' for Inactive)
REMARK    1  A    between atoms: C2_2  and  C4_3 
REMARK    2  A    between atoms: C2_2  and  N12_11 
REMARK    3  A    between atoms: C4_3  and  C5_4 
REMARK    4  A    between atoms: C5_4  and  C6_5 
REMARK    5  A    between atoms: N12_11  and  C15_14 
REMARK    6  A    between atoms: C15_14  and  C16_15 
REMARK    7  A    between atoms: C16_15  and  O18_16 
REMARK    8  A    between atoms: C16_15  and  C19_17 
REMARK    9  A    between atoms: C24_22  and  C25_23 
REMARK       I    between atoms: C25_23  and  N26_24 
ROOT
ATOM      1  C16 ZIN A   1      20.634  -0.125  10.993  0.00  0.00     0.176 C 
ENDROOT
BRANCH   1   2
ATOM      2  C15 ZIN A   1      20.547   0.796  12.212  0.00  0.00     0.269 C 
BRANCH   2   3
ATOM      3  N12 ZIN A   1      20.727   2.190  11.785  0.00  0.00    -0.069 N 
ATOM      4  H13 ZIN A   1      21.052   2.210  10.831  0.00  0.00     0.277 HD
ATOM      5  H14 ZIN A   1      21.406   2.639  12.381  0.00  0.00     0.277 HD
BRANCH   3   6
ATOM      6  C2  ZIN A   1      19.445   2.901  11.882  0.00  0.00     0.182 C 
ATOM      7  C1  ZIN A   1      19.675   4.286  12.493  0.00  0.00     0.040 C 
BRANCH   6   8
ATOM      8  C4  ZIN A   1      18.840   3.054  10.485  0.00  0.00     0.037 C 
BRANCH   8   9
ATOM      9  C5  ZIN A   1      17.762   1.989  10.277  0.00  0.00     0.040 C 
BRANCH   9  10
ATOM     10  C6  ZIN A   1      18.000   1.282   8.967  0.00  0.00    -0.058 A 
ATOM     11  C11 ZIN A   1      17.250   0.168   8.638  0.00  0.00     0.007 A 
ATOM     12  C10 ZIN A   1      17.466  -0.478   7.434  0.00  0.00     0.001 A 
ATOM     13  C9  ZIN A   1      18.437  -0.015   6.565  0.00  0.00     0.000 A 
ATOM     14  C8  ZIN A   1      19.190   1.095   6.898  0.00  0.00     0.001 A 
ATOM     15  C7  ZIN A   1      18.971   1.744   8.099  0.00  0.00     0.007 A 
ENDBRANCH   9  10
ENDBRANCH   8   9
ENDBRANCH   6   8
ENDBRANCH   3   6
ENDBRANCH   2   3
ENDBRANCH   1   2
BRANCH   1  16
ATOM     16  O18 ZIN A   1      21.916  -0.755  10.963  0.00  0.00    -0.389 OA
ATOM     17  H43 ZIN A   1      21.991  -1.464  10.310  0.00  0.00     0.210 HD
ENDBRANCH   1  16
BRANCH   1  18
ATOM     18  C19 ZIN A   1      19.559  -1.178  11.082  0.00  0.00    -0.027 A 
ATOM     19  C28 ZIN A   1      19.451  -2.133  10.095  0.00  0.00     0.029 A 
ATOM     20  C24 ZIN A   1      18.459  -3.113  10.179  0.00  0.00     0.068 A 
ATOM     21  C22 ZIN A   1      17.573  -3.110  11.266  0.00  0.00     0.122 A 
ATOM     22  C21 ZIN A   1      17.693  -2.137  12.247  0.00  0.00     0.041 A 
ATOM     23  O23 ZIN A   1      16.602  -4.053  11.355  0.00  0.00    -0.191 OA
ATOM     24  C20 ZIN A   1      18.680  -1.178  12.154  0.00  0.00     0.012 A 
BRANCH  20  25
ATOM     25  C25 ZIN A   1      18.342  -4.142   9.129  0.00  0.00     0.252 C 
ATOM     26  N26 ZIN A   1      17.277  -4.145   8.303  0.00  0.00    -0.366 N 
ATOM     27  H46 ZIN A   1      16.588  -3.469   8.398  0.00  0.00     0.159 HD
ATOM     28  H47 ZIN A   1      17.200  -4.821   7.613  0.00  0.00     0.159 HD
ATOM     29  O27 ZIN A   1      19.206  -4.990   9.010  0.00  0.00    -0.268 OA
ENDBRANCH  20  25
ENDBRANCH   1  18
TORSDOF 9
ENDMDL
MODEL 2
REMARK VINA RESULT:      -7.5      3.270      5.981
REMARK  9 active torsions:
REMARK  status: ('A' for Active; 'I' for Inactive)
REMARK    1  A    between atoms: C2_2  and  C4_3 
REMARK    2  A    between atoms: C2_2  and  N12_11 
REMARK    3  A    between atoms: C4_3  and  C5_4 
REMARK    4  A    between atoms: C5_4  and  C6_5 
REMARK    5  A    between atoms: N12_11  and  C15_14 
REMARK    6  A    between atoms: C15_14  and  C16_15 
REMARK    7  A    between atoms: C16_15  and  O18_16 
REMARK    8  A    between atoms: C16_15  and  C19_17 
REMARK    9  A    between atoms: C24_22  and  C25_23 
REMARK       I    between atoms: C25_23  and  N26_24 
ROOT
ATOM      1  C16 ZIN A   1      20.396  -0.089  12.165  0.00  0.00     0.176 C 
ENDROOT
BRANCH   1   2
ATOM      2  C15 ZIN A   1      19.419   0.567  11.187  0.00  0.00     0.269 C 
BRANCH   2   3
ATOM      3  N12 ZIN A   1      20.099   0.811   9.908  0.00  0.00    -0.069 N 
ATOM      4  H13 ZIN A   1      20.053  -0.020   9.339  0.00  0.00     0.277 HD
ATOM      5  H14 ZIN A   1      21.064   1.049  10.080  0.00  0.00     0.277 HD
BRANCH   3   6
ATOM      6  C2  ZIN A   1      19.439   1.921   9.207  0.00  0.00     0.182 C 
ATOM      7  C1  ZIN A   1      19.033   1.468   7.803  0.00  0.00     0.040 C 
BRANCH   6   8
ATOM      8  C4  ZIN A   1      18.193   2.347   9.986  0.00  0.00     0.037 C 
BRANCH   8   9
ATOM      9  C5  ZIN A   1      18.072   3.872   9.962  0.00  0.00     0.040 C 
BRANCH   9  10
ATOM     10  C6  ZIN A   1      17.919   4.387  11.370  0.00  0.00    -0.058 A 
ATOM     11  C11 ZIN A   1      16.736   4.986  11.762  0.00  0.00     0.007 A 
ATOM     12  C10 ZIN A   1      16.595   5.454  13.055  0.00  0.00     0.001 A 
ATOM     13  C9  ZIN A   1      17.640   5.332  13.953  0.00  0.00     0.000 A 
ATOM     14  C8  ZIN A   1      18.824   4.738  13.559  0.00  0.00     0.001 A 
ATOM     15  C7  ZIN A   1      18.964   4.266  12.267  0.00  0.00     0.007 A 
ENDBRANCH   9  10
ENDBRANCH   8   9
ENDBRANCH   6   8
ENDBRANCH   3   6
ENDBRANCH   2   3
ENDBRANCH   1   2
BRANCH   1  16
ATOM     16  O18 ZIN A   1      21.622   0.644  12.178  0.00  0.00    -0.389 OA
ATOM     17  H43 ZIN A   1      21.606   1.428  12.746  0.00  0.00     0.210 HD
ENDBRANCH   1  16
BRANCH   1  18
ATOM     18  C19 ZIN A   1      19.797  -0.090  13.548  0.00  0.00    -0.027 A 
ATOM     19  C28 ZIN A   1      19.725   1.084  14.266  0.00  0.00     0.029 A 
ATOM     20  C24 ZIN A   1      19.165   1.085  15.545  0.00  0.00     0.068 A 
ATOM     21  C22 ZIN A   1      18.688  -0.114  16.094  0.00  0.00     0.122 A 
ATOM     22  C21 ZIN A   1      18.774  -1.287  15.360  0.00  0.00     0.041 A 
ATOM     23  O23 ZIN A   1      18.147  -0.125  17.338  0.00  0.00    -0.191 OA
ATOM     24  C20 ZIN A   1      19.326  -1.273  14.095  0.00  0.00     0.012 A 
BRANCH  20  25
ATOM     25  C25 ZIN A   1      19.078   2.340  16.316  0.00  0.00     0.252 C 
ATOM     26  N26 ZIN A   1      17.904   2.719  16.859  0.00  0.00    -0.366 N 
ATOM     27  H46 ZIN A   1      17.115   2.165  16.744  0.00  0.00     0.159 HD
ATOM     28  H47 ZIN A   1      17.848   3.543  17.365  0.00  0.00     0.159 HD
ATOM     29  O27 ZIN A   1      20.067   3.034  16.460  0.00  0.00    -0.268 OA
ENDBRANCH  20  25
ENDBRANCH   1  18
TORSDOF 9
ENDMDL
MODEL 3
REMARK VINA RESULT:      -7.4      2.195      4.057
REMARK  9 active torsions:
REMARK  status: ('A' for Active; 'I' for Inactive)
REMARK    1  A    between atoms: C2_2  and  C4_3 
REMARK    2  A    between atoms: C2_2  and  N12_11 
REMARK    3  A    between atoms: C4_3  and  C5_4 
REMARK    4  A    between atoms: C5_4  and  C6_5 
REMARK    5  A    between atoms: N12_11  and  C15_14 
REMARK    6  A    between atoms: C15_14  and  C16_15 
REMARK    7  A    between atoms: C16_15  and  O18_16 
REMARK    8  A    between atoms: C16_15  and  C19_17 
REMARK    9  A    between atoms: C24_22  and  C25_23 
REMARK       I    between atoms: C25_23  and  N26_24 
ROOT
ATOM      1  C16 ZIN A   1      20.681   0.791  11.139  0.00  0.00     0.176 C 
ENDROOT
BRANCH   1   2
ATOM      2  C15 ZIN A   1      20.008   1.216  12.445  0.00  0.00     0.269 C 
BRANCH   2   3
ATOM      3  N12 ZIN A   1      20.545   0.417  13.554  0.00  0.00    -0.069 N 
ATOM      4  H13 ZIN A   1      21.264   0.941  14.029  0.00  0.00     0.277 HD
ATOM      5  H14 ZIN A   1      20.935  -0.440  13.194  0.00  0.00     0.277 HD
BRANCH   3   6
ATOM      6  C2  ZIN A   1      19.464   0.103  14.499  0.00  0.00     0.182 C 
ATOM      7  C1  ZIN A   1      18.257   0.997  14.209  0.00  0.00     0.040 C 
BRANCH   6   8
ATOM      8  C4  ZIN A   1      19.061  -1.365  14.343  0.00  0.00     0.037 C 
BRANCH   8   9
ATOM      9  C5  ZIN A   1      17.934  -1.477  13.315  0.00  0.00     0.040 C 
BRANCH   9  10
ATOM     10  C6  ZIN A   1      18.358  -2.403  12.203  0.00  0.00    -0.058 A 
ATOM     11  C11 ZIN A   1      17.474  -2.712  11.186  0.00  0.00     0.007 A 
ATOM     12  C10 ZIN A   1      17.865  -3.557  10.165  0.00  0.00     0.001 A 
ATOM     13  C9  ZIN A   1      19.135  -4.102  10.165  0.00  0.00     0.000 A 
ATOM     14  C8  ZIN A   1      20.017  -3.798  11.186  0.00  0.00     0.001 A 
ATOM     15  C7  ZIN A   1      19.628  -2.949  12.205  0.00  0.00     0.007 A 
ENDBRANCH   9  10
ENDBRANCH   8   9
ENDBRANCH   6   8
ENDBRANCH   3   6
ENDBRANCH   2   3
ENDBRANCH   1   2
BRANCH   1  16
ATOM     16  O18 ZIN A   1      21.512  -0.346  11.379  0.00  0.00    -0.389 OA
ATOM     17  H43 ZIN A   1      21.694  -0.875  10.591  0.00  0.00     0.210 HD
ENDBRANCH   1  16
BRANCH   1  18
ATOM     18  C19 ZIN A   1      19.626   0.436  10.123  0.00  0.00    -0.027 A 
ATOM     19  C28 ZIN A   1      19.963  -0.317   9.018  0.00  0.00     0.029 A 
ATOM     20  C24 ZIN A   1      18.985  -0.652   8.079  0.00  0.00     0.068 A 
ATOM     21  C22 ZIN A   1      17.667  -0.209   8.263  0.00  0.00     0.122 A 
ATOM     22  C21 ZIN A   1      17.348   0.552   9.377  0.00  0.00     0.041 A 
ATOM     23  O23 ZIN A   1      16.710  -0.525   7.355  0.00  0.00    -0.191 OA
ATOM     24  C20 ZIN A   1      18.323   0.872  10.300  0.00  0.00     0.012 A 
BRANCH  20  25
ATOM     25  C25 ZIN A   1      19.337  -1.463   6.899  0.00  0.00     0.252 C 
ATOM     26  N26 ZIN A   1      19.199  -0.948   5.661  0.00  0.00    -0.366 N 
ATOM     27  H46 ZIN A   1      18.868  -0.042   5.546  0.00  0.00     0.159 HD
ATOM     28  H47 ZIN A   1      19.430  -1.481   4.885  0.00  0.00     0.159 HD
ATOM     29  O27 ZIN A   1      19.751  -2.598   7.042  0.00  0.00    -0.268 OA
ENDBRANCH  20  25
ENDBRANCH   1  18
TORSDOF 9
ENDMDL
MODEL 4
REMARK VINA RESULT:      -7.3      2.296      4.940
REMARK  9 active torsions:
REMARK  status: ('A' for Active; 'I' for Inactive)
REMARK    1  A    between atoms: C2_2  and  C4_3 
REMARK    2  A    between atoms: C2_2  and  N12_11 
REMARK    3  A    between atoms: C4_3  and  C5_4 
REMARK    4  A    between atoms: C5_4  and  C6_5 
REMARK    5  A    between atoms: N12_11  and  C15_14 
REMARK    6  A    between atoms: C15_14  and  C16_15 
REMARK    7  A    between atoms: C16_15  and  O18_16 
REMARK    8  A    between atoms: C16_15  and  C19_17 
REMARK    9  A    between atoms: C24_22  and  C25_23 
REMARK       I    between atoms: C25_23  and  N26_24 
ROOT
ATOM      1  C16 ZIN A   1      19.551   1.480  11.651  0.00  0.00     0.176 C 
ENDROOT
BRANCH   1   2
ATOM      2  C15 ZIN A   1      18.832   0.474  12.554  0.00  0.00     0.269 C 
BRANCH   2   3
ATOM      3  N12 ZIN A   1      19.725   0.078  13.651  0.00  0.00    -0.069 N 
ATOM      4  H13 ZIN A   1      19.570   0.681  14.445  0.00  0.00     0.277 HD
ATOM      5  H14 ZIN A   1      20.684   0.158  13.350  0.00  0.00     0.277 HD
BRANCH   3   6
ATOM      6  C2  ZIN A   1      19.445  -1.313  14.032  0.00  0.00     0.182 C 
ATOM      7  C1  ZIN A   1      18.533  -1.332  15.260  0.00  0.00     0.040 C 
BRANCH   6   8
ATOM      8  C4  ZIN A   1      18.752  -2.030  12.871  0.00  0.00     0.037 C 
BRANCH   8   9
ATOM      9  C5  ZIN A   1      19.732  -3.005  12.216  0.00  0.00     0.040 C 
BRANCH   9  10
ATOM     10  C6  ZIN A   1      18.964  -4.031  11.422  0.00  0.00    -0.058 A 
ATOM     11  C11 ZIN A   1      19.597  -4.745  10.421  0.00  0.00     0.007 A 
ATOM     12  C10 ZIN A   1      18.894  -5.689   9.696  0.00  0.00     0.001 A 
ATOM     13  C9  ZIN A   1      17.556  -5.911   9.963  0.00  0.00     0.000 A 
ATOM     14  C8  ZIN A   1      16.922  -5.192  10.959  0.00  0.00     0.001 A 
ATOM     15  C7  ZIN A   1      17.626  -4.252  11.688  0.00  0.00     0.007 A 
ENDBRANCH   9  10
ENDBRANCH   8   9
ENDBRANCH   6   8
ENDBRANCH   3   6
ENDBRANCH   2   3
ENDBRANCH   1   2
BRANCH   1  16
ATOM     16  O18 ZIN A   1      20.950   1.462  11.938  0.00  0.00    -0.389 OA
ATOM     17  H43 ZIN A   1      21.500   1.158  11.202  0.00  0.00     0.210 HD
ENDBRANCH   1  16
BRANCH   1  18
ATOM     18  C19 ZIN A   1      19.330   1.106  10.208  0.00  0.00    -0.027 A 
ATOM     19  C28 ZIN A   1      19.164  -0.218   9.859  0.00  0.00     0.029 A 
ATOM     20  C24 ZIN A   1      18.953  -0.564   8.523  0.00  0.00     0.068 A 
ATOM     21  C22 ZIN A   1      18.923   0.438   7.543  0.00  0.00     0.122 A 
ATOM     22  C21 ZIN A   1      19.098   1.763   7.911  0.00  0.00     0.041 A 
ATOM     23  O23 ZIN A   1      18.724   0.111   6.242  0.00  0.00    -0.191 OA
ATOM     24  C20 ZIN A   1      19.300   2.093   9.236  0.00  0.00     0.012 A 
BRANCH  20  25
ATOM     25  C25 ZIN A   1      18.768  -1.978   8.145  0.00  0.00     0.252 C 
ATOM     26  N26 ZIN A   1      19.720  -2.617   7.436  0.00  0.00    -0.366 N 
ATOM     27  H46 ZIN A   1      20.528  -2.147   7.176  0.00  0.00     0.159 HD
ATOM     28  H47 ZIN A   1      19.598  -3.546   7.187  0.00  0.00     0.159 HD
ATOM     29  O27 ZIN A   1      17.754  -2.567   8.470  0.00  0.00    -0.268 OA
ENDBRANCH  20  25
ENDBRANCH   1  18
TORSDOF 9
ENDMDL
MODEL 5
REMARK VINA RESULT:      -7.3      3.571      5.207
REMARK  9 active torsions:
REMARK  status: ('A' for Active; 'I' for Inactive)
REMARK    1  A    between atoms: C2_2  and  C4_3 
REMARK    2  A    between atoms: C2_2  and  N12_11 
REMARK    3  A    between atoms: C4_3  and  C5_4 
REMARK    4  A    between atoms: C5_4  and  C6_5 
REMARK    5  A    between atoms: N12_11  and  C15_14 
REMARK    6  A    between atoms: C15_14  and  C16_15 
REMARK    7  A    between atoms: C16_15  and  O18_16 
REMARK    8  A    between atoms: C16_15  and  C19_17 
REMARK    9  A    between atoms: C24_22  and  C25_23 
REMARK       I    between atoms: C25_23  and  N26_24 
ROOT
ATOM      1  C16 ZIN A   1      19.564  -0.201  12.945  0.00  0.00     0.176 C 
ENDROOT
BRANCH   1   2
ATOM      2  C15 ZIN A   1      20.792   0.646  12.603  0.00  0.00     0.269 C 
BRANCH   2   3
ATOM      3  N12 ZIN A   1      20.514   1.448  11.404  0.00  0.00    -0.069 N 
ATOM      4  H13 ZIN A   1      20.459   0.842  10.599  0.00  0.00     0.277 HD
ATOM      5  H14 ZIN A   1      21.253   2.121  11.270  0.00  0.00     0.277 HD
BRANCH   3   6
ATOM      6  C2  ZIN A   1      19.236   2.153  11.573  0.00  0.00     0.182 C 
ATOM      7  C1  ZIN A   1      19.493   3.539  12.169  0.00  0.00     0.040 C 
BRANCH   6   8
ATOM      8  C4  ZIN A   1      18.551   2.302  10.213  0.00  0.00     0.037 C 
BRANCH   8   9
ATOM      9  C5  ZIN A   1      17.881   0.981   9.832  0.00  0.00     0.040 C 
BRANCH   9  10
ATOM     10  C6  ZIN A   1      18.024   0.753   8.349  0.00  0.00    -0.058 A 
ATOM     11  C11 ZIN A   1      17.186  -0.136   7.702  0.00  0.00     0.007 A 
ATOM     12  C10 ZIN A   1      17.315  -0.340   6.341  0.00  0.00     0.001 A 
ATOM     13  C9  ZIN A   1      18.288   0.335   5.629  0.00  0.00     0.000 A 
ATOM     14  C8  ZIN A   1      19.130   1.219   6.277  0.00  0.00     0.001 A 
ATOM     15  C7  ZIN A   1      18.998   1.428   7.637  0.00  0.00     0.007 A 
ENDBRANCH   9  10
ENDBRANCH   8   9
ENDBRANCH   6   8
ENDBRANCH   3   6
ENDBRANCH   2   3
ENDBRANCH   1   2
BRANCH   1  16
ATOM     16  O18 ZIN A   1      19.784  -1.549  12.529  0.00  0.00    -0.389 OA
ATOM     17  H43 ZIN A   1      20.460  -1.645  11.843  0.00  0.00     0.210 HD
ENDBRANCH   1  16
BRANCH   1  18
ATOM     18  C19 ZIN A   1      19.331  -0.167  14.434  0.00  0.00    -0.027 A 
ATOM     19  C28 ZIN A   1      19.257   1.042  15.091  0.00  0.00     0.029 A 
ATOM     20  C24 ZIN A   1      19.036   1.074  16.469  0.00  0.00     0.068 A 
ATOM     21  C22 ZIN A   1      18.900  -0.128  17.177  0.00  0.00     0.122 A 
ATOM     22  C21 ZIN A   1      18.983  -1.336  16.502  0.00  0.00     0.041 A 
ATOM     23  O23 ZIN A   1      18.690  -0.108  18.517  0.00  0.00    -0.191 OA
ATOM     24  C20 ZIN A   1      19.198  -1.353  15.138  0.00  0.00     0.012 A 
BRANCH  20  25
ATOM     25  C25 ZIN A   1      18.949   2.366  17.176  0.00  0.00     0.252 C 
ATOM     26  N26 ZIN A   1      17.790   2.742  17.754  0.00  0.00    -0.366 N 
ATOM     27  H46 ZIN A   1      17.014   2.162  17.706  0.00  0.00     0.159 HD
ATOM     28  H47 ZIN A   1      17.733   3.591  18.219  0.00  0.00     0.159 HD
ATOM     29  O27 ZIN A   1      19.922   3.093  17.237  0.00  0.00    -0.268 OA
ENDBRANCH  20  25
ENDBRANCH   1  18
TORSDOF 9
ENDMDL
MODEL 6
REMARK VINA RESULT:      -7.2      2.315      4.505
REMARK  9 active torsions:
REMARK  status: ('A' for Active; 'I' for Inactive)
REMARK    1  A    between atoms: C2_2  and  C4_3 
REMARK    2  A    between atoms: C2_2  and  N12_11 
REMARK    3  A    between atoms: C4_3  and  C5_4 
REMARK    4  A    between atoms: C5_4  and  C6_5 
REMARK    5  A    between atoms: N12_11  and  C15_14 
REMARK    6  A    between atoms: C15_14  and  C16_15 
REMARK    7  A    between atoms: C16_15  and  O18_16 
REMARK    8  A    between atoms: C16_15  and  C19_17 
REMARK    9  A    between atoms: C24_22  and  C25_23 
REMARK       I    between atoms: C25_23  and  N26_24 
ROOT
ATOM      1  C16 ZIN A   1      20.250  -0.214  10.697  0.00  0.00     0.176 C 
ENDROOT
BRANCH   1   2
ATOM      2  C15 ZIN A   1      19.398  -1.258  11.422  0.00  0.00     0.269 C 
BRANCH   2   3
ATOM      3  N12 ZIN A   1      19.769  -1.290  12.843  0.00  0.00    -0.069 N 
ATOM      4  H13 ZIN A   1      20.289  -0.458  13.074  0.00  0.00     0.277 HD
ATOM      5  H14 ZIN A   1      20.337  -2.104  13.024  0.00  0.00     0.277 HD
BRANCH   3   6
ATOM      6  C2  ZIN A   1      18.552  -1.350  13.664  0.00  0.00     0.182 C 
ATOM      7  C1  ZIN A   1      18.930  -1.254  15.144  0.00  0.00     0.040 C 
BRANCH   6   8
ATOM      8  C4  ZIN A   1      17.630  -0.186  13.297  0.00  0.00     0.037 C 
BRANCH   8   9
ATOM      9  C5  ZIN A   1      18.160   1.103  13.928  0.00  0.00     0.040 C 
BRANCH   9  10
ATOM     10  C6  ZIN A   1      18.226   2.185  12.880  0.00  0.00    -0.058 A 
ATOM     11  C11 ZIN A   1      19.025   3.295  13.083  0.00  0.00     0.007 A 
ATOM     12  C10 ZIN A   1      19.089   4.284  12.120  0.00  0.00     0.001 A 
ATOM     13  C9  ZIN A   1      18.346   4.170  10.960  0.00  0.00     0.000 A 
ATOM     14  C8  ZIN A   1      17.541   3.064  10.761  0.00  0.00     0.001 A 
ATOM     15  C7  ZIN A   1      17.481   2.071  11.721  0.00  0.00     0.007 A 
ENDBRANCH   9  10
ENDBRANCH   8   9
ENDBRANCH   6   8
ENDBRANCH   3   6
ENDBRANCH   2   3
ENDBRANCH   1   2
BRANCH   1  16
ATOM     16  O18 ZIN A   1      21.617  -0.627  10.702  0.00  0.00    -0.389 OA
ATOM     17  H43 ZIN A   1      22.144  -0.238  11.414  0.00  0.00     0.210 HD
ENDBRANCH   1  16
BRANCH   1  18
ATOM     18  C19 ZIN A   1      19.773  -0.076   9.274  0.00  0.00    -0.027 A 
ATOM     19  C28 ZIN A   1      19.602  -1.201   8.496  0.00  0.00     0.029 A 
ATOM     20  C24 ZIN A   1      19.155  -1.075   7.179  0.00  0.00     0.068 A 
ATOM     21  C22 ZIN A   1      18.892   0.198   6.655  0.00  0.00     0.122 A 
ATOM     22  C21 ZIN A   1      19.074   1.319   7.450  0.00  0.00     0.041 A 
ATOM     23  O23 ZIN A   1      18.461   0.332   5.376  0.00  0.00    -0.191 OA
ATOM     24  C20 ZIN A   1      19.512   1.180   8.752  0.00  0.00     0.012 A 
BRANCH  20  25
ATOM     25  C25 ZIN A   1      18.964  -2.276   6.343  0.00  0.00     0.252 C 
ATOM     26  N26 ZIN A   1      17.738  -2.583   5.874  0.00  0.00    -0.366 N 
ATOM     27  H46 ZIN A   1      16.981  -2.014   6.085  0.00  0.00     0.159 HD
ATOM     28  H47 ZIN A   1      17.612  -3.372   5.325  0.00  0.00     0.159 HD
ATOM     29  O27 ZIN A   1      19.912  -2.989   6.078  0.00  0.00    -0.268 OA
ENDBRANCH  20  25
ENDBRANCH   1  18
TORSDOF 9
ENDMDL
MODEL 7
REMARK VINA RESULT:      -7.2      3.175      6.805
REMARK  9 active torsions:
REMARK  status: ('A' for Active; 'I' for Inactive)
REMARK    1  A    between atoms: C2_2  and  C4_3 
REMARK    2  A    between atoms: C2_2  and  N12_11 
REMARK    3  A    between atoms: C4_3  and  C5_4 
REMARK    4  A    between atoms: C5_4  and  C6_5 
REMARK    5  A    between atoms: N12_11  and  C15_14 
REMARK    6  A    between atoms: C15_14  and  C16_15 
REMARK    7  A    between atoms: C16_15  and  O18_16 
REMARK    8  A    between atoms: C16_15  and  C19_17 
REMARK    9  A    between atoms: C24_22  and  C25_23 
REMARK       I    between atoms: C25_23  and  N26_24 
ROOT
ATOM      1  C16 ZIN A   1      20.652   0.250  11.911  0.00  0.00     0.176 C 
ENDROOT
BRANCH   1   2
ATOM      2  C15 ZIN A   1      20.701  -0.660  10.683  0.00  0.00     0.269 C 
BRANCH   2   3
ATOM      3  N12 ZIN A   1      20.471  -2.051  11.095  0.00  0.00    -0.069 N 
ATOM      4  H13 ZIN A   1      20.728  -2.161  12.065  0.00  0.00     0.277 HD
ATOM      5  H14 ZIN A   1      21.030  -2.668  10.526  0.00  0.00     0.277 HD
BRANCH   3   6
ATOM      6  C2  ZIN A   1      19.049  -2.383  10.926  0.00  0.00     0.182 C 
ATOM      7  C1  ZIN A   1      18.920  -3.657  10.088  0.00  0.00     0.040 C 
BRANCH   6   8
ATOM      8  C4  ZIN A   1      18.411  -2.608  12.297  0.00  0.00     0.037 C 
BRANCH   8   9
ATOM      9  C5  ZIN A   1      17.593  -1.375  12.687  0.00  0.00     0.040 C 
BRANCH   9  10
ATOM     10  C6  ZIN A   1      17.960  -0.950  14.086  0.00  0.00    -0.058 A 
ATOM     11  C11 ZIN A   1      17.419   0.205  14.621  0.00  0.00     0.007 A 
ATOM     12  C10 ZIN A   1      17.753   0.592  15.906  0.00  0.00     0.001 A 
ATOM     13  C9  ZIN A   1      18.634  -0.170  16.651  0.00  0.00     0.000 A 
ATOM     14  C8  ZIN A   1      19.178  -1.321  16.113  0.00  0.00     0.001 A 
ATOM     15  C7  ZIN A   1      18.841  -1.711  14.831  0.00  0.00     0.007 A 
ENDBRANCH   9  10
ENDBRANCH   8   9
ENDBRANCH   6   8
ENDBRANCH   3   6
ENDBRANCH   2   3
ENDBRANCH   1   2
BRANCH   1  16
ATOM     16  O18 ZIN A   1      21.927   0.868  12.097  0.00  0.00    -0.389 OA
ATOM     17  H43 ZIN A   1      22.314   1.224  11.286  0.00  0.00     0.210 HD
ENDBRANCH   1  16
BRANCH   1  18
ATOM     18  C19 ZIN A   1      19.604   1.314  11.706  0.00  0.00    -0.027 A 
ATOM     19  C28 ZIN A   1      19.383   2.258  12.686  0.00  0.00     0.029 A 
ATOM     20  C24 ZIN A   1      18.417   3.247  12.495  0.00  0.00     0.068 A 
ATOM     21  C22 ZIN A   1      17.669   3.266  11.309  0.00  0.00     0.122 A 
ATOM     22  C21 ZIN A   1      17.901   2.305  10.336  0.00  0.00     0.041 A 
ATOM     23  O23 ZIN A   1      16.725   4.220  11.114  0.00  0.00    -0.191 OA
ATOM     24  C20 ZIN A   1      18.863   1.336  10.536  0.00  0.00     0.012 A 
BRANCH  20  25
ATOM     25  C25 ZIN A   1      18.180   4.265  13.537  0.00  0.00     0.252 C 
ATOM     26  N26 ZIN A   1      17.365   3.991  14.574  0.00  0.00    -0.366 N 
ATOM     27  H46 ZIN A   1      16.934   3.123  14.637  0.00  0.00     0.159 HD
ATOM     28  H47 ZIN A   1      17.209   4.659  15.259  0.00  0.00     0.159 HD
ATOM     29  O27 ZIN A   1      18.720   5.352  13.459  0.00  0.00    -0.268 OA
ENDBRANCH  20  25
ENDBRANCH   1  18
TORSDOF 9
ENDMDL
MODEL 8
REMARK VINA RESULT:      -7.2      2.404      4.720
REMARK  9 active torsions:
REMARK  status: ('A' for Active; 'I' for Inactive)
REMARK    1  A    between atoms: C2_2  and  C4_3 
REMARK    2  A    between atoms: C2_2  and  N12_11 
REMARK    3  A    between atoms: C4_3  and  C5_4 
REMARK    4  A    between atoms: C5_4  and  C6_5 
REMARK    5  A    between atoms: N12_11  and  C15_14 
REMARK    6  A    between atoms: C15_14  and  C16_15 
REMARK    7  A    between atoms: C16_15  and  O18_16 
REMARK    8  A    between atoms: C16_15  and  C19_17 
REMARK    9  A    between atoms: C24_22  and  C25_23 
REMARK       I    between atoms: C25_23  and  N26_24 
ROOT
ATOM      1  C16 ZIN A   1      18.491   1.564   9.183  0.00  0.00     0.176 C 
ENDROOT
BRANCH   1   2
ATOM      2  C15 ZIN A   1      17.730   1.425  10.504  0.00  0.00     0.269 C 
BRANCH   2   3
ATOM      3  N12 ZIN A   1      18.651   1.656  11.625  0.00  0.00    -0.069 N 
ATOM      4  H13 ZIN A   1      18.451   2.551  12.045  0.00  0.00     0.277 HD
ATOM      5  H14 ZIN A   1      19.601   1.647  11.287  0.00  0.00     0.277 HD
BRANCH   3   6
ATOM      6  C2  ZIN A   1      18.478   0.595  12.627  0.00  0.00     0.182 C 
ATOM      7  C1  ZIN A   1      17.041   0.072  12.573  0.00  0.00     0.040 C 
BRANCH   6   8
ATOM      8  C4  ZIN A   1      19.448  -0.550  12.329  0.00  0.00     0.037 C 
BRANCH   8   9
ATOM      9  C5  ZIN A   1      19.035  -1.789  13.125  0.00  0.00     0.040 C 
BRANCH   9  10
ATOM     10  C6  ZIN A   1      18.898  -2.964  12.191  0.00  0.00    -0.058 A 
ATOM     11  C11 ZIN A   1      17.656  -3.528  11.968  0.00  0.00     0.007 A 
ATOM     12  C10 ZIN A   1      17.530  -4.602  11.107  0.00  0.00     0.001 A 
ATOM     13  C9  ZIN A   1      18.647  -5.120  10.479  0.00  0.00     0.000 A 
ATOM     14  C8  ZIN A   1      19.890  -4.560  10.708  0.00  0.00     0.001 A 
ATOM     15  C7  ZIN A   1      20.016  -3.482  11.564  0.00  0.00     0.007 A 
ENDBRANCH   9  10
ENDBRANCH   8   9
ENDBRANCH   6   8
ENDBRANCH   3   6
ENDBRANCH   2   3
ENDBRANCH   1   2
BRANCH   1  16
ATOM     16  O18 ZIN A   1      19.852   1.904   9.452  0.00  0.00    -0.389 OA
ATOM     17  H43 ZIN A   1      20.040   2.852   9.398  0.00  0.00     0.210 HD
ENDBRANCH   1  16
BRANCH   1  18
ATOM     18  C19 ZIN A   1      18.439   0.257   8.434  0.00  0.00    -0.027 A 
ATOM     19  C28 ZIN A   1      18.672   0.235   7.075  0.00  0.00     0.029 A 
ATOM     20  C24 ZIN A   1      18.629  -0.976   6.381  0.00  0.00     0.068 A 
ATOM     21  C22 ZIN A   1      18.339  -2.161   7.072  0.00  0.00     0.122 A 
ATOM     22  C21 ZIN A   1      18.101  -2.119   8.437  0.00  0.00     0.041 A 
ATOM     23  O23 ZIN A   1      18.290  -3.342   6.406  0.00  0.00    -0.191 OA
ATOM     24  C20 ZIN A   1      18.151  -0.916   9.112  0.00  0.00     0.012 A 
BRANCH  20  25
ATOM     25  C25 ZIN A   1      18.885  -1.007   4.929  0.00  0.00     0.252 C 
ATOM     26  N26 ZIN A   1      17.882  -1.291   4.073  0.00  0.00    -0.366 N 
ATOM     27  H46 ZIN A   1      16.992  -1.474   4.413  0.00  0.00     0.159 HD
ATOM     28  H47 ZIN A   1      18.050  -1.312   3.119  0.00  0.00     0.159 HD
ATOM     29  O27 ZIN A   1      20.001  -0.778   4.502  0.00  0.00    -0.268 OA
ENDBRANCH  20  25
ENDBRANCH   1  18
TORSDOF 9
ENDMDL
MODEL 9
REMARK VINA RESULT:      -7.2      2.411      5.062
REMARK  9 active torsions:
REMARK  status: ('A' for Active; 'I' for Inactive)
REMARK    1  A    between atoms: C2_2  and  C4_3 
REMARK    2  A    between atoms: C2_2  and  N12_11 
REMARK    3  A    between atoms: C4_3  and  C5_4 
REMARK    4  A    between atoms: C5_4  and  C6_5 
REMARK    5  A    between atoms: N12_11  and  C15_14 
REMARK    6  A    between atoms: C15_14  and  C16_15 
REMARK    7  A    between atoms: C16_15  and  O18_16 
REMARK    8  A    between atoms: C16_15  and  C19_17 
REMARK    9  A    between atoms: C24_22  and  C25_23 
REMARK       I    between atoms: C25_23  and  N26_24 
ROOT
ATOM      1  C16 ZIN A   1      20.314   0.217  10.566  0.00  0.00     0.176 C 
ENDROOT
BRANCH   1   2
ATOM      2  C15 ZIN A   1      19.286  -0.309  11.570  0.00  0.00     0.269 C 
BRANCH   2   3
ATOM      3  N12 ZIN A   1      19.922  -1.301  12.447  0.00  0.00    -0.069 N 
ATOM      4  H13 ZIN A   1      20.449  -0.826  13.164  0.00  0.00     0.277 HD
ATOM      5  H14 ZIN A   1      20.541  -1.883  11.903  0.00  0.00     0.277 HD
BRANCH   3   6
ATOM      6  C2  ZIN A   1      18.887  -2.136  13.072  0.00  0.00     0.182 C 
ATOM      7  C1  ZIN A   1      18.091  -1.298  14.075  0.00  0.00     0.040 C 
BRANCH   6   8
ATOM      8  C4  ZIN A   1      17.943  -2.672  11.993  0.00  0.00     0.037 C 
BRANCH   8   9
ATOM      9  C5  ZIN A   1      17.796  -4.186  12.149  0.00  0.00     0.040 C 
BRANCH   9  10
ATOM     10  C6  ZIN A   1      18.255  -4.869  10.886  0.00  0.00    -0.058 A 
ATOM     11  C11 ZIN A   1      19.542  -4.671  10.422  0.00  0.00     0.007 A 
ATOM     12  C10 ZIN A   1      19.964  -5.301   9.267  0.00  0.00     0.001 A 
ATOM     13  C9  ZIN A   1      19.096  -6.120   8.569  0.00  0.00     0.000 A 
ATOM     14  C8  ZIN A   1      17.807  -6.313   9.030  0.00  0.00     0.001 A 
ATOM     15  C7  ZIN A   1      17.386  -5.687  10.188  0.00  0.00     0.007 A 
ENDBRANCH   9  10
ENDBRANCH   8   9
ENDBRANCH   6   8
ENDBRANCH   3   6
ENDBRANCH   2   3
ENDBRANCH   1   2
BRANCH   1  16
ATOM     16  O18 ZIN A   1      21.529  -0.524  10.697  0.00  0.00    -0.389 OA
ATOM     17  H43 ZIN A   1      21.801  -0.676  11.612  0.00  0.00     0.210 HD
ENDBRANCH   1  16
BRANCH   1  18
ATOM     18  C19 ZIN A   1      19.777   0.058   9.167  0.00  0.00    -0.027 A 
ATOM     19  C28 ZIN A   1      19.676  -1.198   8.609  0.00  0.00     0.029 A 
ATOM     20  C24 ZIN A   1      19.173  -1.347   7.315  0.00  0.00     0.068 A 
ATOM     21  C22 ZIN A   1      18.785  -0.213   6.588  0.00  0.00     0.122 A 
ATOM     22  C21 ZIN A   1      18.899   1.043   7.162  0.00  0.00     0.041 A 
ATOM     23  O23 ZIN A   1      18.299  -0.346   5.328  0.00  0.00    -0.191 OA
ATOM     24  C20 ZIN A   1      19.393   1.176   8.444  0.00  0.00     0.012 A 
BRANCH  20  25
ATOM     25  C25 ZIN A   1      19.055  -2.689   6.715  0.00  0.00     0.252 C 
ATOM     26  N26 ZIN A   1      17.855  -3.300   6.657  0.00  0.00    -0.366 N 
ATOM     27  H46 ZIN A   1      17.067  -2.855   7.009  0.00  0.00     0.159 HD
ATOM     28  H47 ZIN A   1      17.778  -4.182   6.263  0.00  0.00     0.159 HD
ATOM     29  O27 ZIN A   1      20.042  -3.247   6.273  0.00  0.00    -0.268 OA
ENDBRANCH  20  25
ENDBRANCH   1  18
TORSDOF 9
ENDMDL
