MODEL 1
REMARK VINA RESULT:      -6.2      0.000      0.000
REMARK  2 active torsions:
REMARK  status: ('A' for Active; 'I' for Inactive)
REMARK    1  A    between atoms: C3_3  and  N4_4 
REMARK    2  A    between atoms: N4_4  and  C5_5 
ROOT
ATOM      1 Cl1  ZIN A   1      19.607   1.692   8.323  0.00  0.00    -0.082 Cl
ATOM      2  C2  ZIN A   1      19.068   2.116   9.918  0.00  0.00     0.063 A 
ATOM      3  C3  ZIN A   1      19.555   1.431  10.990  0.00  0.00     0.102 A 
ATOM      4  C11 ZIN A   1      19.122   1.770  12.302  0.00  0.00     0.125 A 
ATOM      5  N12 ZIN A   1      19.443   1.261  13.480  0.00  0.00    -0.189 NA
ATOM      6  S13 ZIN A   1      18.666   2.016  14.597  0.00  0.00     0.117 SA
ATOM      7  N14 ZIN A   1      17.867   3.035  13.737  0.00  0.00    -0.191 NA
ATOM      8  C15 ZIN A   1      18.158   2.855  12.459  0.00  0.00     0.098 A 
ATOM      9  C16 ZIN A   1      17.695   3.523  11.296  0.00  0.00     0.036 A 
ATOM     10  C17 ZIN A   1      18.152   3.155  10.074  0.00  0.00     0.029 A 
ENDROOT
BRANCH   3  11
ATOM     11  N4  ZIN A   1      20.478   0.397  10.801  0.00  0.00    -0.188 N 
ATOM     12  H18 ZIN A   1      21.406   0.605  10.613  0.00  0.00     0.184 HD
BRANCH  11  13
ATOM     13  C5  ZIN A   1      20.070  -0.908  10.882  0.00  0.00     0.674 A 
ATOM     14  N10 ZIN A   1      20.080  -1.592  12.014  0.00  0.00    -0.225 N 
ATOM     15  C9  ZIN A   1      19.582  -2.953  11.764  0.00  0.00     0.158 A 
ATOM     16  H23 ZIN A   1      20.365  -1.247  12.875  0.00  0.00     0.177 HD
ATOM     17  C8  ZIN A   1      19.281  -2.952  10.251  0.00  0.00     0.158 A 
ATOM     18  N6  ZIN A   1      19.640  -1.587   9.831  0.00  0.00    -0.225 N 
ATOM     19  H7  ZIN A   1      19.572  -1.242   8.928  0.00  0.00     0.177 HD
ENDBRANCH  11  13
ENDBRANCH   3  11
TORSDOF 2
ENDMDL
MODEL 2
REMARK VINA RESULT:      -6.2      1.807      2.514
REMARK  2 active torsions:
REMARK  status: ('A' for Active; 'I' for Inactive)
REMARK    1  A    between atoms: C3_3  and  N4_4 
REMARK    2  A    between atoms: N4_4  and  C5_5 
ROOT
ATOM      1 Cl1  ZIN A   1      19.337   2.157   9.083  0.00  0.00    -0.082 Cl
ATOM      2  C2  ZIN A   1      18.761   3.193  10.351  0.00  0.00     0.063 A 
ATOM      3  C3  ZIN A   1      19.298   3.081  11.598  0.00  0.00     0.102 A 
ATOM      4  C11 ZIN A   1      18.836   3.926  12.645  0.00  0.00     0.125 A 
ATOM      5  N12 ZIN A   1      19.192   4.006  13.917  0.00  0.00    -0.189 NA
ATOM      6  S13 ZIN A   1      18.355   5.114  14.618  0.00  0.00     0.117 SA
ATOM      7  N14 ZIN A   1      17.480   5.595  13.426  0.00  0.00    -0.191 NA
ATOM      8  C15 ZIN A   1      17.788   4.897  12.345  0.00  0.00     0.098 A 
ATOM      9  C16 ZIN A   1      17.277   4.956  11.023  0.00  0.00     0.036 A 
ATOM     10  C17 ZIN A   1      17.766   4.127  10.068  0.00  0.00     0.029 A 
ENDROOT
BRANCH   3  11
ATOM     11  N4  ZIN A   1      20.300   2.139  11.848  0.00  0.00    -0.188 N 
ATOM     12  H18 ZIN A   1      21.215   2.322  11.584  0.00  0.00     0.184 HD
BRANCH  11  13
ATOM     13  C5  ZIN A   1      19.990   0.956  12.466  0.00  0.00     0.674 A 
ATOM     14  N10 ZIN A   1      19.584  -0.113  11.801  0.00  0.00    -0.225 N 
ATOM     15  C9  ZIN A   1      19.339  -1.210  12.750  0.00  0.00     0.158 A 
ATOM     16  H23 ZIN A   1      19.471  -0.166  10.840  0.00  0.00     0.177 HD
ATOM     17  C8  ZIN A   1      19.670  -0.582  14.119  0.00  0.00     0.158 A 
ATOM     18  N6  ZIN A   1      20.069   0.793  13.777  0.00  0.00    -0.225 N 
ATOM     19  H7  ZIN A   1      20.343   1.472  14.412  0.00  0.00     0.177 HD
ENDBRANCH  11  13
ENDBRANCH   3  11
TORSDOF 2
ENDMDL
MODEL 3
REMARK VINA RESULT:      -6.1      2.680      4.010
REMARK  2 active torsions:
REMARK  status: ('A' for Active; 'I' for Inactive)
REMARK    1  A    between atoms: C3_3  and  N4_4 
REMARK    2  A    between atoms: N4_4  and  C5_5 
ROOT
ATOM      1 Cl1  ZIN A   1      20.152   3.466  11.838  0.00  0.00    -0.082 Cl
ATOM      2  C2  ZIN A   1      19.608   2.105  10.910  0.00  0.00     0.063 A 
ATOM      3  C3  ZIN A   1      19.921   0.846  11.327  0.00  0.00     0.102 A 
ATOM      4  C11 ZIN A   1      19.480  -0.278  10.575  0.00  0.00     0.125 A 
ATOM      5  N12 ZIN A   1      19.653  -1.575  10.769  0.00  0.00    -0.189 NA
ATOM      6  S13 ZIN A   1      18.950  -2.367   9.629  0.00  0.00     0.117 SA
ATOM      7  N14 ZIN A   1      18.371  -1.191   8.794  0.00  0.00    -0.191 NA
ATOM      8  C15 ZIN A   1      18.695  -0.043   9.365  0.00  0.00     0.098 A 
ATOM      9  C16 ZIN A   1      18.409   1.296   8.994  0.00  0.00     0.036 A 
ATOM     10  C17 ZIN A   1      18.853   2.323   9.758  0.00  0.00     0.029 A 
ENDROOT
BRANCH   3  11
ATOM     11  N4  ZIN A   1      20.674   0.659  12.490  0.00  0.00    -0.188 N 
ATOM     12  H18 ZIN A   1      21.634   0.794  12.473  0.00  0.00     0.184 HD
BRANCH  11  13
ATOM     13  C5  ZIN A   1      20.055   0.286  13.653  0.00  0.00     0.674 A 
ATOM     14  N10 ZIN A   1      19.602   1.162  14.535  0.00  0.00    -0.225 N 
ATOM     15  C9  ZIN A   1      18.992   0.443  15.664  0.00  0.00     0.158 A 
ATOM     16  H23 ZIN A   1      19.658   2.126  14.447  0.00  0.00     0.177 HD
ATOM     17  C8  ZIN A   1      19.179  -1.041  15.287  0.00  0.00     0.158 A 
ATOM     18  N6  ZIN A   1      19.867  -0.981  13.987  0.00  0.00    -0.225 N 
ATOM     19  H7  ZIN A   1      20.140  -1.747  13.461  0.00  0.00     0.177 HD
ENDBRANCH  11  13
ENDBRANCH   3  11
TORSDOF 2
ENDMDL
MODEL 4
REMARK VINA RESULT:      -6.1      2.480      3.594
REMARK  2 active torsions:
REMARK  status: ('A' for Active; 'I' for Inactive)
REMARK    1  A    between atoms: C3_3  and  N4_4 
REMARK    2  A    between atoms: N4_4  and  C5_5 
ROOT
ATOM      1 Cl1  ZIN A   1      20.090  -3.239  11.457  0.00  0.00    -0.082 Cl
ATOM      2  C2  ZIN A   1      19.544  -1.781  12.226  0.00  0.00     0.063 A 
ATOM      3  C3  ZIN A   1      19.879  -0.576  11.685  0.00  0.00     0.102 A 
ATOM      4  C11 ZIN A   1      19.437   0.625  12.306  0.00  0.00     0.125 A 
ATOM      5  N12 ZIN A   1      19.629   1.892  11.979  0.00  0.00    -0.189 NA
ATOM      6  S13 ZIN A   1      18.915   2.807  13.015  0.00  0.00     0.117 SA
ATOM      7  N14 ZIN A   1      18.306   1.730  13.959  0.00  0.00    -0.191 NA
ATOM      8  C15 ZIN A   1      18.628   0.526  13.518  0.00  0.00     0.098 A 
ATOM      9  C16 ZIN A   1      18.320  -0.763  14.023  0.00  0.00     0.036 A 
ATOM     10  C17 ZIN A   1      18.766  -1.870  13.380  0.00  0.00     0.029 A 
ENDROOT
BRANCH   3  11
ATOM     11  N4  ZIN A   1      20.655  -0.521  10.523  0.00  0.00    -0.188 N 
ATOM     12  H18 ZIN A   1      21.616  -0.642  10.576  0.00  0.00     0.184 HD
BRANCH  11  13
ATOM     13  C5  ZIN A   1      20.058  -0.295   9.312  0.00  0.00     0.674 A 
ATOM     14  N10 ZIN A   1      19.789   0.920   8.862  0.00  0.00    -0.225 N 
ATOM     15  C9  ZIN A   1      19.156   0.819   7.539  0.00  0.00     0.158 A 
ATOM     16  H23 ZIN A   1      19.984   1.747   9.331  0.00  0.00     0.177 HD
ATOM     17  C8  ZIN A   1      19.090  -0.701   7.287  0.00  0.00     0.158 A 
ATOM     18  N6  ZIN A   1      19.700  -1.275   8.498  0.00  0.00    -0.225 N 
ATOM     19  H7  ZIN A   1      19.819  -2.221   8.672  0.00  0.00     0.177 HD
ENDBRANCH  11  13
ENDBRANCH   3  11
TORSDOF 2
ENDMDL
MODEL 5
REMARK VINA RESULT:      -6.0      3.586      5.231
REMARK  2 active torsions:
REMARK  status: ('A' for Active; 'I' for Inactive)
REMARK    1  A    between atoms: C3_3  and  N4_4 
REMARK    2  A    between atoms: N4_4  and  C5_5 
ROOT
ATOM      1 Cl1  ZIN A   1      19.069  -1.740  13.487  0.00  0.00    -0.082 Cl
ATOM      2  C2  ZIN A   1      18.816  -0.775  14.908  0.00  0.00     0.063 A 
ATOM      3  C3  ZIN A   1      19.244   0.519  14.919  0.00  0.00     0.102 A 
ATOM      4  C11 ZIN A   1      19.041   1.320  16.077  0.00  0.00     0.125 A 
ATOM      5  N12 ZIN A   1      19.361   2.579  16.328  0.00  0.00    -0.189 NA
ATOM      6  S13 ZIN A   1      18.900   2.952  17.766  0.00  0.00     0.117 SA
ATOM      7  N14 ZIN A   1      18.266   1.603  18.211  0.00  0.00    -0.191 NA
ATOM      8  C15 ZIN A   1      18.371   0.723  17.229  0.00  0.00     0.098 A 
ATOM      9  C16 ZIN A   1      17.954  -0.630  17.144  0.00  0.00     0.036 A 
ATOM     10  C17 ZIN A   1      18.171  -1.338  16.008  0.00  0.00     0.029 A 
ENDROOT
BRANCH   3  11
ATOM     11  N4  ZIN A   1      19.881   1.057  13.797  0.00  0.00    -0.188 N 
ATOM     12  H18 ZIN A   1      20.790   0.795  13.583  0.00  0.00     0.184 HD
BRANCH  11  13
ATOM     13  C5  ZIN A   1      19.221   1.954  13.000  0.00  0.00     0.674 A 
ATOM     14  N10 ZIN A   1      18.288   1.591  12.135  0.00  0.00    -0.225 N 
ATOM     15  C9  ZIN A   1      17.776   2.784  11.443  0.00  0.00     0.158 A 
ATOM     16  H23 ZIN A   1      17.985   0.682  11.985  0.00  0.00     0.177 HD
ATOM     17  C8  ZIN A   1      18.597   3.935  12.060  0.00  0.00     0.158 A 
ATOM     18  N6  ZIN A   1      19.469   3.254  13.030  0.00  0.00    -0.225 N 
ATOM     19  H7  ZIN A   1      20.122   3.688  13.600  0.00  0.00     0.177 HD
ENDBRANCH  11  13
ENDBRANCH   3  11
TORSDOF 2
ENDMDL
MODEL 6
REMARK VINA RESULT:      -6.0      2.923      5.385
REMARK  2 active torsions:
REMARK  status: ('A' for Active; 'I' for Inactive)
REMARK    1  A    between atoms: C3_3  and  N4_4 
REMARK    2  A    between atoms: N4_4  and  C5_5 
ROOT
ATOM      1 Cl1  ZIN A   1      19.489  -1.475  14.511  0.00  0.00    -0.082 Cl
ATOM      2  C2  ZIN A   1      19.165  -1.692  12.819  0.00  0.00     0.063 A 
ATOM      3  C3  ZIN A   1      19.747  -0.853  11.917  0.00  0.00     0.102 A 
ATOM      4  C11 ZIN A   1      19.491  -1.022  10.528  0.00  0.00     0.125 A 
ATOM      5  N12 ZIN A   1      19.928  -0.349   9.476  0.00  0.00    -0.189 NA
ATOM      6  S13 ZIN A   1      19.326  -0.965   8.181  0.00  0.00     0.117 SA
ATOM      7  N14 ZIN A   1      18.474  -2.114   8.793  0.00  0.00    -0.191 NA
ATOM      8  C15 ZIN A   1      18.600  -2.102  10.110  0.00  0.00     0.098 A 
ATOM      9  C16 ZIN A   1      18.031  -2.934  11.107  0.00  0.00     0.036 A 
ATOM     10  C17 ZIN A   1      18.321  -2.725  12.414  0.00  0.00     0.029 A 
ENDROOT
BRANCH   3  11
ATOM     11  N4  ZIN A   1      20.594   0.169  12.354  0.00  0.00    -0.188 N 
ATOM     12  H18 ZIN A   1      21.505  -0.035  12.617  0.00  0.00     0.184 HD
BRANCH  11  13
ATOM     13  C5  ZIN A   1      20.137   1.459  12.413  0.00  0.00     0.674 A 
ATOM     14  N10 ZIN A   1      20.445   2.369  11.503  0.00  0.00    -0.225 N 
ATOM     15  C9  ZIN A   1      19.797   3.642  11.851  0.00  0.00     0.158 A 
ATOM     16  H23 ZIN A   1      21.007   2.218  10.727  0.00  0.00     0.177 HD
ATOM     17  C8  ZIN A   1      19.045   3.316  13.157  0.00  0.00     0.158 A 
ATOM     18  N6  ZIN A   1      19.355   1.896  13.387  0.00  0.00    -0.225 N 
ATOM     19  H7  ZIN A   1      19.038   1.365  14.133  0.00  0.00     0.177 HD
ENDBRANCH  11  13
ENDBRANCH   3  11
TORSDOF 2
ENDMDL
MODEL 7
REMARK VINA RESULT:      -6.0      4.063      6.409
REMARK  2 active torsions:
REMARK  status: ('A' for Active; 'I' for Inactive)
REMARK    1  A    between atoms: C3_3  and  N4_4 
REMARK    2  A    between atoms: N4_4  and  C5_5 
ROOT
ATOM      1 Cl1  ZIN A   1      18.878   1.833  18.399  0.00  0.00    -0.082 Cl
ATOM      2  C2  ZIN A   1      18.885   0.789  17.013  0.00  0.00     0.063 A 
ATOM      3  C3  ZIN A   1      19.268   1.288  15.804  0.00  0.00     0.102 A 
ATOM      4  C11 ZIN A   1      19.280   0.441  14.661  0.00  0.00     0.125 A 
ATOM      5  N12 ZIN A   1      19.604   0.687  13.403  0.00  0.00    -0.189 NA
ATOM      6  S13 ZIN A   1      19.433  -0.611  12.562  0.00  0.00     0.117 SA
ATOM      7  N14 ZIN A   1      18.945  -1.591  13.666  0.00  0.00    -0.191 NA
ATOM      8  C15 ZIN A   1      18.876  -0.953  14.822  0.00  0.00     0.098 A 
ATOM      9  C16 ZIN A   1      18.489  -1.401  16.111  0.00  0.00     0.036 A 
ATOM     10  C17 ZIN A   1      18.507  -0.545  17.162  0.00  0.00     0.029 A 
ENDROOT
BRANCH   3  11
ATOM     11  N4  ZIN A   1      19.649   2.628  15.688  0.00  0.00    -0.188 N 
ATOM     12  H18 ZIN A   1      20.452   2.944  16.130  0.00  0.00     0.184 HD
BRANCH  11  13
ATOM     13  C5  ZIN A   1      18.887   3.495  14.951  0.00  0.00     0.674 A 
ATOM     14  N10 ZIN A   1      17.704   3.929  15.355  0.00  0.00    -0.225 N 
ATOM     15  C9  ZIN A   1      17.151   4.843  14.344  0.00  0.00     0.158 A 
ATOM     16  H23 ZIN A   1      17.272   3.686  16.189  0.00  0.00     0.177 HD
ATOM     17  C8  ZIN A   1      18.235   4.864  13.248  0.00  0.00     0.158 A 
ATOM     18  N6  ZIN A   1      19.273   3.963  13.775  0.00  0.00    -0.225 N 
ATOM     19  H7  ZIN A   1      20.106   3.745  13.330  0.00  0.00     0.177 HD
ENDBRANCH  11  13
ENDBRANCH   3  11
TORSDOF 2
ENDMDL
MODEL 8
REMARK VINA RESULT:      -6.0      4.029      5.518
REMARK  2 active torsions:
REMARK  status: ('A' for Active; 'I' for Inactive)
REMARK    1  A    between atoms: C3_3  and  N4_4 
REMARK    2  A    between atoms: N4_4  and  C5_5 
ROOT
ATOM      1 Cl1  ZIN A   1      19.078   1.905   8.746  0.00  0.00    -0.082 Cl
ATOM      2  C2  ZIN A   1      18.931   0.592   7.621  0.00  0.00     0.063 A 
ATOM      3  C3  ZIN A   1      19.376  -0.645   7.979  0.00  0.00     0.102 A 
ATOM      4  C11 ZIN A   1      19.259  -1.730   7.066  0.00  0.00     0.125 A 
ATOM      5  N12 ZIN A   1      19.611  -3.000   7.177  0.00  0.00    -0.189 NA
ATOM      6  S13 ZIN A   1      19.250  -3.753   5.865  0.00  0.00     0.117 SA
ATOM      7  N14 ZIN A   1      18.629  -2.589   5.041  0.00  0.00    -0.191 NA
ATOM      8  C15 ZIN A   1      18.658  -1.478   5.758  0.00  0.00     0.098 A 
ATOM      9  C16 ZIN A   1      18.218  -0.164   5.457  0.00  0.00     0.036 A 
ATOM     10  C17 ZIN A   1      18.352   0.825   6.374  0.00  0.00     0.029 A 
ENDROOT
BRANCH   3  11
ATOM     11  N4  ZIN A   1      19.945  -0.848   9.239  0.00  0.00    -0.188 N 
ATOM     12  H18 ZIN A   1      20.812  -0.467   9.447  0.00  0.00     0.184 HD
BRANCH  11  13
ATOM     13  C5  ZIN A   1      19.278  -1.586  10.181  0.00  0.00     0.674 A 
ATOM     14  N10 ZIN A   1      19.629  -2.821  10.502  0.00  0.00    -0.225 N 
ATOM     15  C9  ZIN A   1      18.720  -3.329  11.541  0.00  0.00     0.158 A 
ATOM     16  H23 ZIN A   1      20.372  -3.311  10.116  0.00  0.00     0.177 HD
ATOM     17  C8  ZIN A   1      17.748  -2.155  11.772  0.00  0.00     0.158 A 
ATOM     18  N6  ZIN A   1      18.228  -1.122  10.840  0.00  0.00    -0.225 N 
ATOM     19  H7  ZIN A   1      17.837  -0.243  10.726  0.00  0.00     0.177 HD
ENDBRANCH  11  13
ENDBRANCH   3  11
TORSDOF 2
ENDMDL
MODEL 9
REMARK VINA RESULT:      -5.9      1.553      2.134
REMARK  2 active torsions:
REMARK  status: ('A' for Active; 'I' for Inactive)
REMARK    1  A    between atoms: C3_3  and  N4_4 
REMARK    2  A    between atoms: N4_4  and  C5_5 
ROOT
ATOM      1 Cl1  ZIN A   1      19.123   1.048   6.943  0.00  0.00    -0.082 Cl
ATOM      2  C2  ZIN A   1      19.207   1.262   8.664  0.00  0.00     0.063 A 
ATOM      3  C3  ZIN A   1      19.634   0.229   9.444  0.00  0.00     0.102 A 
ATOM      4  C11 ZIN A   1      19.708   0.394  10.855  0.00  0.00     0.125 A 
ATOM      5  N12 ZIN A   1      20.083  -0.444  11.807  0.00  0.00    -0.189 NA
ATOM      6  S13 ZIN A   1      19.968   0.261  13.190  0.00  0.00     0.117 SA
ATOM      7  N14 ZIN A   1      19.448   1.657  12.744  0.00  0.00    -0.191 NA
ATOM      8  C15 ZIN A   1      19.319   1.679  11.428  0.00  0.00     0.098 A 
ATOM      9  C16 ZIN A   1      18.884   2.707  10.553  0.00  0.00     0.036 A 
ATOM     10  C17 ZIN A   1      18.843   2.489   9.216  0.00  0.00     0.029 A 
ENDROOT
BRANCH   3  11
ATOM     11  N4  ZIN A   1      19.998  -0.987   8.859  0.00  0.00    -0.188 N 
ATOM     12  H18 ZIN A   1      20.781  -1.036   8.289  0.00  0.00     0.184 HD
BRANCH  11  13
ATOM     13  C5  ZIN A   1      19.248  -2.110   9.091  0.00  0.00     0.674 A 
ATOM     14  N10 ZIN A   1      19.628  -3.063   9.925  0.00  0.00    -0.225 N 
ATOM     15  C9  ZIN A   1      18.606  -4.121   9.951  0.00  0.00     0.158 A 
ATOM     16  H23 ZIN A   1      20.448  -3.062  10.443  0.00  0.00     0.177 HD
ATOM     17  C8  ZIN A   1      17.541  -3.615   8.957  0.00  0.00     0.158 A 
ATOM     18  N6  ZIN A   1      18.088  -2.329   8.494  0.00  0.00    -0.225 N 
ATOM     19  H7  ZIN A   1      17.665  -1.738   7.852  0.00  0.00     0.177 HD
ENDBRANCH  11  13
ENDBRANCH   3  11
TORSDOF 2
ENDMDL
