MODEL 1
REMARK VINA RESULT:      -7.7      0.000      0.000
REMARK  5 active torsions:
REMARK  status: ('A' for Active; 'I' for Inactive)
REMARK    1  A    between atoms: C2_2  and  C3_3 
REMARK    2  A    between atoms: C4_4  and  C5_5 
REMARK    3  A    between atoms: C14_14  and  C15_15 
REMARK    4  A    between atoms: C16_16  and  C17_17 
REMARK    5  A    between atoms: C19_19  and  C20_20 
ROOT
ATOM      1  C1  ZIN A   1      19.149  -4.431  10.690  0.00  0.00     0.048 C 
ATOM      2  C2  ZIN A   1      18.449  -3.098  10.626  0.00  0.00    -0.062 C 
ATOM      3  C14 ZIN A   1      18.030  -2.491  11.774  0.00  0.00     0.007 C 
ENDROOT
BRANCH   2   4
ATOM      4  C3  ZIN A   1      18.227  -2.480   9.382  0.00  0.00     0.007 C 
ATOM      5  C4  ZIN A   1      19.273  -1.975   8.678  0.00  0.00     0.009 C 
BRANCH   5   6
ATOM      6  C5  ZIN A   1      19.069  -1.466   7.371  0.00  0.00    -0.048 C 
ATOM      7  C11 ZIN A   1      18.557  -0.061   7.230  0.00  0.00    -0.020 C 
ATOM      8  C10 ZIN A   1      18.806   0.448   5.808  0.00  0.00     0.014 C 
ATOM      9  C12 ZIN A   1      17.056  -0.027   7.526  0.00  0.00     0.020 C 
ATOM     10  C13 ZIN A   1      19.287   0.840   8.227  0.00  0.00     0.020 C 
ATOM     11  C9  ZIN A   1      18.281  -0.600   4.819  0.00  0.00     0.005 C 
ATOM     12  C8  ZIN A   1      19.169  -1.843   4.910  0.00  0.00     0.034 C 
ATOM     13  C6  ZIN A   1      19.333  -2.256   6.344  0.00  0.00    -0.077 C 
ATOM     14  C7  ZIN A   1      19.827  -3.651   6.630  0.00  0.00     0.044 C 
ENDBRANCH   5   6
ENDBRANCH   2   4
BRANCH   3  15
ATOM     15  C15 ZIN A   1      17.378  -1.251  11.714  0.00  0.00     0.001 C 
ATOM     16  C16 ZIN A   1      17.614  -0.301  12.682  0.00  0.00     0.007 C 
BRANCH  16  17
ATOM     17  C17 ZIN A   1      18.595  -0.525  13.656  0.00  0.00    -0.056 C 
ATOM     18  C18 ZIN A   1      18.217  -1.129  14.984  0.00  0.00     0.048 C 
ATOM     19  C19 ZIN A   1      19.907  -0.192  13.400  0.00  0.00     0.091 C 
BRANCH  19  20
ATOM     20  C20 ZIN A   1      20.243   0.484  12.216  0.00  0.00     0.199 C 
ATOM     21  O21 ZIN A   1      20.000   1.791  12.104  0.00  0.00    -0.644 OA
ATOM     22  O22 ZIN A   1      20.804  -0.179  11.205  0.00  0.00    -0.644 OA
ENDBRANCH  19  20
ENDBRANCH  16  17
ENDBRANCH   3  15
TORSDOF 5
ENDMDL
MODEL 2
REMARK VINA RESULT:      -7.6      2.130      3.358
REMARK  5 active torsions:
REMARK  status: ('A' for Active; 'I' for Inactive)
REMARK    1  A    between atoms: C2_2  and  C3_3 
REMARK    2  A    between atoms: C4_4  and  C5_5 
REMARK    3  A    between atoms: C14_14  and  C15_15 
REMARK    4  A    between atoms: C16_16  and  C17_17 
REMARK    5  A    between atoms: C19_19  and  C20_20 
ROOT
ATOM      1  C1  ZIN A   1      17.855   3.102  10.408  0.00  0.00     0.048 C 
ATOM      2  C2  ZIN A   1      17.612   1.640  10.682  0.00  0.00    -0.062 C 
ATOM      3  C14 ZIN A   1      17.376   1.215  11.957  0.00  0.00     0.007 C 
ENDROOT
BRANCH   2   4
ATOM      4  C3  ZIN A   1      17.629   0.715   9.624  0.00  0.00     0.007 C 
ATOM      5  C4  ZIN A   1      18.766   0.523   8.906  0.00  0.00     0.009 C 
BRANCH   5   6
ATOM      6  C5  ZIN A   1      18.822  -0.496   7.923  0.00  0.00    -0.048 C 
ATOM      7  C11 ZIN A   1      18.498  -0.130   6.503  0.00  0.00    -0.020 C 
ATOM      8  C10 ZIN A   1      19.017  -1.212   5.551  0.00  0.00     0.014 C 
ATOM      9  C12 ZIN A   1      16.983   0.006   6.339  0.00  0.00     0.020 C 
ATOM     10  C13 ZIN A   1      19.164   1.205   6.167  0.00  0.00     0.020 C 
ATOM     11  C9  ZIN A   1      18.535  -2.577   6.059  0.00  0.00     0.005 C 
ATOM     12  C8  ZIN A   1      19.253  -2.888   7.373  0.00  0.00     0.034 C 
ATOM     13  C6  ZIN A   1      19.149  -1.718   8.309  0.00  0.00    -0.077 C 
ATOM     14  C7  ZIN A   1      19.434  -1.950   9.770  0.00  0.00     0.044 C 
ENDBRANCH   5   6
ENDBRANCH   2   4
BRANCH   3  15
ATOM     15  C15 ZIN A   1      17.149  -0.145  12.212  0.00  0.00     0.001 C 
ATOM     16  C16 ZIN A   1      18.060  -0.868  12.948  0.00  0.00     0.007 C 
BRANCH  16  17
ATOM     17  C17 ZIN A   1      19.149  -0.220  13.546  0.00  0.00    -0.056 C 
ATOM     18  C18 ZIN A   1      20.309   0.240  12.702  0.00  0.00     0.048 C 
ATOM     19  C19 ZIN A   1      19.158  -0.003  14.906  0.00  0.00     0.091 C 
BRANCH  19  20
ATOM     20  C20 ZIN A   1      18.140  -0.540  15.710  0.00  0.00     0.199 C 
ATOM     21  O21 ZIN A   1      17.054   0.186  15.983  0.00  0.00    -0.644 OA
ATOM     22  O22 ZIN A   1      18.257  -1.775  16.199  0.00  0.00    -0.644 OA
ENDBRANCH  19  20
ENDBRANCH  16  17
ENDBRANCH   3  15
TORSDOF 5
ENDMDL
MODEL 3
REMARK VINA RESULT:      -7.4      2.438      7.242
REMARK  5 active torsions:
REMARK  status: ('A' for Active; 'I' for Inactive)
REMARK    1  A    between atoms: C2_2  and  C3_3 
REMARK    2  A    between atoms: C4_4  and  C5_5 
REMARK    3  A    between atoms: C14_14  and  C15_15 
REMARK    4  A    between atoms: C16_16  and  C17_17 
REMARK    5  A    between atoms: C19_19  and  C20_20 
ROOT
ATOM      1  C1  ZIN A   1      18.366  -3.282  12.397  0.00  0.00     0.048 C 
ATOM      2  C2  ZIN A   1      19.058  -1.965  12.158  0.00  0.00    -0.062 C 
ATOM      3  C14 ZIN A   1      19.417  -1.604  10.892  0.00  0.00     0.007 C 
ENDROOT
BRANCH   2   4
ATOM      4  C3  ZIN A   1      19.335  -1.110  13.238  0.00  0.00     0.007 C 
ATOM      5  C4  ZIN A   1      18.317  -0.498  13.899  0.00  0.00     0.009 C 
BRANCH   5   6
ATOM      6  C5  ZIN A   1      18.584   0.263  15.064  0.00  0.00    -0.048 C 
ATOM      7  C11 ZIN A   1      18.431  -0.406  16.399  0.00  0.00    -0.020 C 
ATOM      8  C10 ZIN A   1      19.156   0.403  17.479  0.00  0.00     0.014 C 
ATOM      9  C12 ZIN A   1      16.946  -0.512  16.755  0.00  0.00     0.020 C 
ATOM     10  C13 ZIN A   1      19.033  -1.810  16.327  0.00  0.00     0.020 C 
ATOM     11  C9  ZIN A   1      18.714   1.867  17.365  0.00  0.00     0.005 C 
ATOM     12  C8  ZIN A   1      19.267   2.443  16.060  0.00  0.00     0.034 C 
ATOM     13  C6  ZIN A   1      18.948   1.526  14.915  0.00  0.00    -0.077 C 
ATOM     14  C7  ZIN A   1      19.047   2.076  13.515  0.00  0.00     0.044 C 
ENDBRANCH   5   6
ENDBRANCH   2   4
BRANCH   3  15
ATOM     15  C15 ZIN A   1      20.062  -0.378  10.668  0.00  0.00     0.001 C 
ATOM     16  C16 ZIN A   1      19.415   0.625   9.985  0.00  0.00     0.007 C 
BRANCH  16  17
ATOM     17  C17 ZIN A   1      18.072   0.470   9.618  0.00  0.00    -0.056 C 
ATOM     18  C18 ZIN A   1      16.992   0.522  10.668  0.00  0.00     0.048 C 
ATOM     19  C19 ZIN A   1      17.738   0.269   8.297  0.00  0.00     0.091 C 
BRANCH  19  20
ATOM     20  C20 ZIN A   1      18.746   0.095   7.336  0.00  0.00     0.199 C 
ATOM     21  O21 ZIN A   1      19.296  -1.107   7.157  0.00  0.00    -0.644 OA
ATOM     22  O22 ZIN A   1      19.154   1.130   6.602  0.00  0.00    -0.644 OA
ENDBRANCH  19  20
ENDBRANCH  16  17
ENDBRANCH   3  15
TORSDOF 5
ENDMDL
MODEL 4
REMARK VINA RESULT:      -7.4      2.925      8.042
REMARK  5 active torsions:
REMARK  status: ('A' for Active; 'I' for Inactive)
REMARK    1  A    between atoms: C2_2  and  C3_3 
REMARK    2  A    between atoms: C4_4  and  C5_5 
REMARK    3  A    between atoms: C14_14  and  C15_15 
REMARK    4  A    between atoms: C16_16  and  C17_17 
REMARK    5  A    between atoms: C19_19  and  C20_20 
ROOT
ATOM      1  C1  ZIN A   1      18.328   3.638  12.210  0.00  0.00     0.048 C 
ATOM      2  C2  ZIN A   1      17.887   2.237  12.545  0.00  0.00    -0.062 C 
ATOM      3  C14 ZIN A   1      17.527   1.379  11.547  0.00  0.00     0.007 C 
ENDROOT
BRANCH   2   4
ATOM      4  C3  ZIN A   1      17.846   1.814  13.885  0.00  0.00     0.007 C 
ATOM      5  C4  ZIN A   1      18.998   1.520  14.541  0.00  0.00     0.009 C 
BRANCH   5   6
ATOM      6  C5  ZIN A   1      18.970   1.215  15.925  0.00  0.00    -0.048 C 
ATOM      7  C11 ZIN A   1      18.608  -0.183  16.335  0.00  0.00    -0.020 C 
ATOM      8  C10 ZIN A   1      19.040  -0.434  17.783  0.00  0.00     0.014 C 
ATOM      9  C12 ZIN A   1      17.096  -0.381  16.215  0.00  0.00     0.020 C 
ATOM     10  C13 ZIN A   1      19.321  -1.175  15.414  0.00  0.00     0.020 C 
ATOM     11  C9  ZIN A   1      18.516   0.717  18.651  0.00  0.00     0.005 C 
ATOM     12  C8  ZIN A   1      19.270   1.994  18.272  0.00  0.00     0.034 C 
ATOM     13  C6  ZIN A   1      19.256   2.180  16.782  0.00  0.00    -0.077 C 
ATOM     14  C7  ZIN A   1      19.586   3.544  16.234  0.00  0.00     0.044 C 
ENDBRANCH   5   6
ENDBRANCH   2   4
BRANCH   3  15
ATOM     15  C15 ZIN A   1      17.116   0.074  11.858  0.00  0.00     0.001 C 
ATOM     16  C16 ZIN A   1      17.867  -1.001  11.443  0.00  0.00     0.007 C 
BRANCH  16  17
ATOM     17  C17 ZIN A   1      19.103  -0.793  10.818  0.00  0.00    -0.056 C 
ATOM     18  C18 ZIN A   1      20.294  -0.351  11.629  0.00  0.00     0.048 C 
ATOM     19  C19 ZIN A   1      19.230  -0.992   9.461  0.00  0.00     0.091 C 
BRANCH  19  20
ATOM     20  C20 ZIN A   1      18.097  -1.281   8.684  0.00  0.00     0.199 C 
ATOM     21  O21 ZIN A   1      17.757  -2.550   8.448  0.00  0.00    -0.644 OA
ATOM     22  O22 ZIN A   1      17.359  -0.289   8.184  0.00  0.00    -0.644 OA
ENDBRANCH  19  20
ENDBRANCH  16  17
ENDBRANCH   3  15
TORSDOF 5
ENDMDL
MODEL 5
REMARK VINA RESULT:      -7.3      2.696      7.022
REMARK  5 active torsions:
REMARK  status: ('A' for Active; 'I' for Inactive)
REMARK    1  A    between atoms: C2_2  and  C3_3 
REMARK    2  A    between atoms: C4_4  and  C5_5 
REMARK    3  A    between atoms: C14_14  and  C15_15 
REMARK    4  A    between atoms: C16_16  and  C17_17 
REMARK    5  A    between atoms: C19_19  and  C20_20 
ROOT
ATOM      1  C1  ZIN A   1      17.958   3.793  10.004  0.00  0.00     0.048 C 
ATOM      2  C2  ZIN A   1      18.790   2.539   9.929  0.00  0.00    -0.062 C 
ATOM      3  C14 ZIN A   1      19.233   2.086   8.720  0.00  0.00     0.007 C 
ENDROOT
BRANCH   2   4
ATOM      4  C3  ZIN A   1      19.108   1.835  11.103  0.00  0.00     0.007 C 
ATOM      5  C4  ZIN A   1      18.120   1.282  11.854  0.00  0.00     0.009 C 
BRANCH   5   6
ATOM      6  C5  ZIN A   1      18.445   0.468  12.967  0.00  0.00    -0.048 C 
ATOM      7  C11 ZIN A   1      18.811  -0.966  12.713  0.00  0.00    -0.020 C 
ATOM      8  C10 ZIN A   1      19.529  -1.549  13.934  0.00  0.00     0.014 C 
ATOM      9  C12 ZIN A   1      17.545  -1.779  12.433  0.00  0.00     0.020 C 
ATOM     10  C13 ZIN A   1      19.736  -1.039  11.498  0.00  0.00     0.020 C 
ATOM     11  C9  ZIN A   1      18.691  -1.241  15.182  0.00  0.00     0.005 C 
ATOM     12  C8  ZIN A   1      18.731   0.267  15.434  0.00  0.00     0.034 C 
ATOM     13  C6  ZIN A   1      18.403   1.011  14.172  0.00  0.00    -0.077 C 
ATOM     14  C7  ZIN A   1      18.004   2.460  14.284  0.00  0.00     0.044 C 
ENDBRANCH   5   6
ENDBRANCH   2   4
BRANCH   3  15
ATOM     15  C15 ZIN A   1      20.006   0.918   8.649  0.00  0.00     0.001 C 
ATOM     16  C16 ZIN A   1      19.462  -0.237   8.136  0.00  0.00     0.007 C 
BRANCH  16  17
ATOM     17  C17 ZIN A   1      18.180  -0.218   7.573  0.00  0.00    -0.056 C 
ATOM     18  C18 ZIN A   1      16.965  -0.335   8.457  0.00  0.00     0.048 C 
ATOM     19  C19 ZIN A   1      18.029  -0.090   6.210  0.00  0.00     0.091 C 
BRANCH  19  20
ATOM     20  C20 ZIN A   1      19.157  -0.105   5.374  0.00  0.00     0.199 C 
ATOM     21  O21 ZIN A   1      19.652  -1.267   4.943  0.00  0.00    -0.644 OA
ATOM     22  O22 ZIN A   1      19.733   1.040   5.009  0.00  0.00    -0.644 OA
ENDBRANCH  19  20
ENDBRANCH  16  17
ENDBRANCH   3  15
TORSDOF 5
ENDMDL
MODEL 6
REMARK VINA RESULT:      -7.2      3.999      8.070
REMARK  5 active torsions:
REMARK  status: ('A' for Active; 'I' for Inactive)
REMARK    1  A    between atoms: C2_2  and  C3_3 
REMARK    2  A    between atoms: C4_4  and  C5_5 
REMARK    3  A    between atoms: C14_14  and  C15_15 
REMARK    4  A    between atoms: C16_16  and  C17_17 
REMARK    5  A    between atoms: C19_19  and  C20_20 
ROOT
ATOM      1  C1  ZIN A   1      17.003   5.119  10.363  0.00  0.00     0.048 C 
ATOM      2  C2  ZIN A   1      18.042   4.124  10.811  0.00  0.00    -0.062 C 
ATOM      3  C14 ZIN A   1      18.519   3.194   9.934  0.00  0.00     0.007 C 
ENDROOT
BRANCH   2   4
ATOM      4  C3  ZIN A   1      18.518   4.153  12.133  0.00  0.00     0.007 C 
ATOM      5  C4  ZIN A   1      17.718   3.747  13.153  0.00  0.00     0.009 C 
BRANCH   5   6
ATOM      6  C5  ZIN A   1      18.237   3.657  14.469  0.00  0.00    -0.048 C 
ATOM      7  C11 ZIN A   1      18.255   4.900  15.311  0.00  0.00    -0.020 C 
ATOM      8  C10 ZIN A   1      18.431   4.532  16.787  0.00  0.00     0.014 C 
ATOM      9  C12 ZIN A   1      19.408   5.804  14.871  0.00  0.00     0.020 C 
ATOM     10  C13 ZIN A   1      16.932   5.647  15.128  0.00  0.00     0.020 C 
ATOM     11  C9  ZIN A   1      19.626   3.577  16.908  0.00  0.00     0.005 C 
ATOM     12  C8  ZIN A   1      19.251   2.246  16.255  0.00  0.00     0.034 C 
ATOM     13  C6  ZIN A   1      18.684   2.484  14.885  0.00  0.00    -0.077 C 
ATOM     14  C7  ZIN A   1      18.622   1.320  13.929  0.00  0.00     0.044 C 
ENDBRANCH   5   6
ENDBRANCH   2   4
BRANCH   3  15
ATOM     15  C15 ZIN A   1      19.485   2.267  10.351  0.00  0.00     0.001 C 
ATOM     16  C16 ZIN A   1      19.444   0.973   9.884  0.00  0.00     0.007 C 
BRANCH  16  17
ATOM     17  C17 ZIN A   1      18.514   0.613   8.901  0.00  0.00    -0.056 C 
ATOM     18  C18 ZIN A   1      18.756   0.984   7.461  0.00  0.00     0.048 C 
ATOM     19  C19 ZIN A   1      17.377  -0.082   9.251  0.00  0.00     0.091 C 
BRANCH  19  20
ATOM     20  C20 ZIN A   1      17.088  -0.319  10.604  0.00  0.00     0.199 C 
ATOM     21  O21 ZIN A   1      16.421   0.594  11.313  0.00  0.00    -0.644 OA
ATOM     22  O22 ZIN A   1      17.478  -1.456  11.180  0.00  0.00    -0.644 OA
ENDBRANCH  19  20
ENDBRANCH  16  17
ENDBRANCH   3  15
TORSDOF 5
ENDMDL
MODEL 7
REMARK VINA RESULT:      -7.2      2.626      4.868
REMARK  5 active torsions:
REMARK  status: ('A' for Active; 'I' for Inactive)
REMARK    1  A    between atoms: C2_2  and  C3_3 
REMARK    2  A    between atoms: C4_4  and  C5_5 
REMARK    3  A    between atoms: C14_14  and  C15_15 
REMARK    4  A    between atoms: C16_16  and  C17_17 
REMARK    5  A    between atoms: C19_19  and  C20_20 
ROOT
ATOM      1  C1  ZIN A   1      17.659  -0.434  13.995  0.00  0.00     0.048 C 
ATOM      2  C2  ZIN A   1      17.813  -0.193  12.516  0.00  0.00    -0.062 C 
ATOM      3  C14 ZIN A   1      17.406   0.991  11.972  0.00  0.00     0.007 C 
ENDROOT
BRANCH   2   4
ATOM      4  C3  ZIN A   1      18.373  -1.187  11.696  0.00  0.00     0.007 C 
ATOM      5  C4  ZIN A   1      17.599  -2.203  11.233  0.00  0.00     0.009 C 
BRANCH   5   6
ATOM      6  C5  ZIN A   1      18.131  -3.135  10.307  0.00  0.00    -0.048 C 
ATOM      7  C11 ZIN A   1      18.620  -4.455  10.831  0.00  0.00    -0.020 C 
ATOM      8  C10 ZIN A   1      18.745  -5.461   9.684  0.00  0.00     0.014 C 
ATOM      9  C12 ZIN A   1      19.986  -4.270  11.496  0.00  0.00     0.020 C 
ATOM     10  C13 ZIN A   1      17.624  -4.983  11.864  0.00  0.00     0.020 C 
ATOM     11  C9  ZIN A   1      19.546  -4.807   8.550  0.00  0.00     0.005 C 
ATOM     12  C8  ZIN A   1      18.703  -3.684   7.945  0.00  0.00     0.034 C 
ATOM     13  C6  ZIN A   1      18.173  -2.792   9.031  0.00  0.00    -0.077 C 
ATOM     14  C7  ZIN A   1      17.662  -1.428   8.644  0.00  0.00     0.044 C 
ENDBRANCH   5   6
ENDBRANCH   2   4
BRANCH   3  15
ATOM     15  C15 ZIN A   1      17.548   1.216  10.595  0.00  0.00     0.001 C 
ATOM     16  C16 ZIN A   1      18.289   2.285  10.146  0.00  0.00     0.007 C 
BRANCH  16  17
ATOM     17  C17 ZIN A   1      19.002   3.075  11.056  0.00  0.00    -0.056 C 
ATOM     18  C18 ZIN A   1      20.233   2.526  11.730  0.00  0.00     0.048 C 
ATOM     19  C19 ZIN A   1      18.578   4.356  11.334  0.00  0.00     0.091 C 
BRANCH  19  20
ATOM     20  C20 ZIN A   1      17.366   4.825  10.805  0.00  0.00     0.199 C 
ATOM     21  O21 ZIN A   1      17.351   5.451   9.626  0.00  0.00    -0.644 OA
ATOM     22  O22 ZIN A   1      16.229   4.644  11.477  0.00  0.00    -0.644 OA
ENDBRANCH  19  20
ENDBRANCH  16  17
ENDBRANCH   3  15
TORSDOF 5
ENDMDL
MODEL 8
REMARK VINA RESULT:      -7.1      2.485      7.584
REMARK  5 active torsions:
REMARK  status: ('A' for Active; 'I' for Inactive)
REMARK    1  A    between atoms: C2_2  and  C3_3 
REMARK    2  A    between atoms: C4_4  and  C5_5 
REMARK    3  A    between atoms: C14_14  and  C15_15 
REMARK    4  A    between atoms: C16_16  and  C17_17 
REMARK    5  A    between atoms: C19_19  and  C20_20 
ROOT
ATOM      1  C1  ZIN A   1      19.221  -2.662  12.641  0.00  0.00     0.048 C 
ATOM      2  C2  ZIN A   1      18.316  -1.459  12.703  0.00  0.00    -0.062 C 
ATOM      3  C14 ZIN A   1      17.775  -0.952  11.557  0.00  0.00     0.007 C 
ENDROOT
BRANCH   2   4
ATOM      4  C3  ZIN A   1      18.030  -0.858  13.941  0.00  0.00     0.007 C 
ATOM      5  C4  ZIN A   1      19.044  -0.489  14.767  0.00  0.00     0.009 C 
BRANCH   5   6
ATOM      6  C5  ZIN A   1      18.763   0.229  15.957  0.00  0.00    -0.048 C 
ATOM      7  C11 ZIN A   1      18.432  -0.553  17.196  0.00  0.00    -0.020 C 
ATOM      8  C10 ZIN A   1      18.586   0.335  18.434  0.00  0.00     0.014 C 
ATOM      9  C12 ZIN A   1      16.992  -1.064  17.113  0.00  0.00     0.020 C 
ATOM     10  C13 ZIN A   1      19.384  -1.745  17.304  0.00  0.00     0.020 C 
ATOM     11  C9  ZIN A   1      17.816   1.640  18.193  0.00  0.00     0.005 C 
ATOM     12  C8  ZIN A   1      18.534   2.432  17.099  0.00  0.00     0.034 C 
ATOM     13  C6  ZIN A   1      18.802   1.550  15.913  0.00  0.00    -0.077 C 
ATOM     14  C7  ZIN A   1      19.133   2.208  14.598  0.00  0.00     0.044 C 
ENDBRANCH   5   6
ENDBRANCH   2   4
BRANCH   3  15
ATOM     15  C15 ZIN A   1      16.934   0.168  11.615  0.00  0.00     0.001 C 
ATOM     16  C16 ZIN A   1      17.081   1.187  10.701  0.00  0.00     0.007 C 
BRANCH  16  17
ATOM     17  C17 ZIN A   1      17.986   1.051   9.641  0.00  0.00    -0.056 C 
ATOM     18  C18 ZIN A   1      17.606   0.251   8.422  0.00  0.00     0.048 C 
ATOM     19  C19 ZIN A   1      19.224   1.651   9.713  0.00  0.00     0.091 C 
BRANCH  19  20
ATOM     20  C20 ZIN A   1      19.627   2.291  10.895  0.00  0.00     0.199 C 
ATOM     21  O21 ZIN A   1      20.352   1.628  11.798  0.00  0.00    -0.644 OA
ATOM     22  O22 ZIN A   1      19.287   3.561  11.117  0.00  0.00    -0.644 OA
ENDBRANCH  19  20
ENDBRANCH  16  17
ENDBRANCH   3  15
TORSDOF 5
ENDMDL
MODEL 9
REMARK VINA RESULT:      -6.9      3.486      7.844
REMARK  5 active torsions:
REMARK  status: ('A' for Active; 'I' for Inactive)
REMARK    1  A    between atoms: C2_2  and  C3_3 
REMARK    2  A    between atoms: C4_4  and  C5_5 
REMARK    3  A    between atoms: C14_14  and  C15_15 
REMARK    4  A    between atoms: C16_16  and  C17_17 
REMARK    5  A    between atoms: C19_19  and  C20_20 
ROOT
ATOM      1  C1  ZIN A   1      16.960   4.850  10.712  0.00  0.00     0.048 C 
ATOM      2  C2  ZIN A   1      18.045   3.821  10.900  0.00  0.00    -0.062 C 
ATOM      3  C14 ZIN A   1      18.502   3.109   9.829  0.00  0.00     0.007 C 
ENDROOT
BRANCH   2   4
ATOM      4  C3  ZIN A   1      18.584   3.593  12.178  0.00  0.00     0.007 C 
ATOM      5  C4  ZIN A   1      17.781   3.168  13.188  0.00  0.00     0.009 C 
BRANCH   5   6
ATOM      6  C5  ZIN A   1      18.343   2.818  14.441  0.00  0.00    -0.048 C 
ATOM      7  C11 ZIN A   1      18.661   1.373  14.698  0.00  0.00    -0.020 C 
ATOM      8  C10 ZIN A   1      19.627   1.249  15.879  0.00  0.00     0.014 C 
ATOM      9  C12 ZIN A   1      17.372   0.610  15.013  0.00  0.00     0.020 C 
ATOM     10  C13 ZIN A   1      19.307   0.774  13.448  0.00  0.00     0.020 C 
ATOM     11  C9  ZIN A   1      19.069   2.071  17.049  0.00  0.00     0.005 C 
ATOM     12  C8  ZIN A   1      19.148   3.554  16.682  0.00  0.00     0.034 C 
ATOM     13  C6  ZIN A   1      18.553   3.782  15.322  0.00  0.00    -0.077 C 
ATOM     14  C7  ZIN A   1      18.173   5.189  14.940  0.00  0.00     0.044 C 
ENDBRANCH   5   6
ENDBRANCH   2   4
BRANCH   3  15
ATOM     15  C15 ZIN A   1      19.511   2.151  10.004  0.00  0.00     0.001 C 
ATOM     16  C16 ZIN A   1      19.201   0.810   9.962  0.00  0.00     0.007 C 
BRANCH  16  17
ATOM     17  C17 ZIN A   1      17.904   0.402   9.625  0.00  0.00    -0.056 C 
ATOM     18  C18 ZIN A   1      16.861   0.240  10.700  0.00  0.00     0.048 C 
ATOM     19  C19 ZIN A   1      17.583   0.149   8.310  0.00  0.00     0.091 C 
BRANCH  19  20
ATOM     20  C20 ZIN A   1      18.582   0.178   7.325  0.00  0.00     0.199 C 
ATOM     21  O21 ZIN A   1      18.863   1.319   6.693  0.00  0.00    -0.644 OA
ATOM     22  O22 ZIN A   1      19.252  -0.934   7.020  0.00  0.00    -0.644 OA
ENDBRANCH  19  20
ENDBRANCH  16  17
ENDBRANCH   3  15
TORSDOF 5
ENDMDL
