MODEL 1
REMARK VINA RESULT:      -6.2      0.000      0.000
REMARK  7 active torsions:
REMARK  status: ('A' for Active; 'I' for Inactive)
REMARK    1  A    between atoms: C2_2  and  C4_3 
REMARK    2  A    between atoms: C2_2  and  O15_14 
REMARK    3  A    between atoms: C4_3  and  N5_4 
REMARK    4  A    between atoms: C9_8  and  N10_9 
REMARK    5  A    between atoms: O15_14  and  C16_15 
REMARK    6  A    between atoms: C16_15  and  P17_16 
REMARK    7  A    between atoms: P17_16  and  O20_19 
ROOT
ATOM      1  N5  ZIN A   1      18.402  -1.246  12.945  0.00  0.00    -0.322 N 
ATOM      2  C6  ZIN A   1      17.300  -0.706  12.353  0.00  0.00     0.212 A 
ATOM      3  N7  ZIN A   1      17.050  -1.323  11.235  0.00  0.00    -0.236 NA
ATOM      4  C8  ZIN A   1      17.971  -2.296  11.040  0.00  0.00     0.149 A 
ATOM      5  C9  ZIN A   1      18.200  -3.255  10.039  0.00  0.00     0.155 A 
ATOM      6  N11 ZIN A   1      19.233  -4.080  10.175  0.00  0.00    -0.222 NA
ATOM      7  C12 ZIN A   1      20.032  -4.006  11.223  0.00  0.00     0.237 A 
ATOM      8  N13 ZIN A   1      19.858  -3.124  12.186  0.00  0.00    -0.222 NA
ATOM      9  C14 ZIN A   1      18.854  -2.255  12.133  0.00  0.00     0.165 A 
ENDROOT
BRANCH   1  10
ATOM     10  C4  ZIN A   1      18.998  -0.824  14.216  0.00  0.00     0.163 C 
BRANCH  10  11
ATOM     11  C2  ZIN A   1      17.913  -0.768  15.293  0.00  0.00     0.136 C 
ATOM     12  C1  ZIN A   1      18.325  -1.646  16.477  0.00  0.00     0.041 C 
BRANCH  11  13
ATOM     13  O15 ZIN A   1      17.750   0.581  15.736  0.00  0.00    -0.372 OA
BRANCH  13  14
ATOM     14  C16 ZIN A   1      18.958   1.343  15.731  0.00  0.00     0.303 C 
BRANCH  14  15
ATOM     15  P17 ZIN A   1      19.132   2.216  17.322  0.00  0.00     0.271 P 
ATOM     16  O18 ZIN A   1      20.031   3.457  17.133  0.00  0.00    -0.645 OA
ATOM     17  O19 ZIN A   1      19.772   1.268  18.362  0.00  0.00    -0.645 OA
BRANCH  15  18
ATOM     18  O20 ZIN A   1      17.680   2.679  17.842  0.00  0.00    -0.321 OA
ATOM     19  H32 ZIN A   1      17.611   3.627  18.023  0.00  0.00     0.221 HD
ENDBRANCH  15  18
ENDBRANCH  14  15
ENDBRANCH  13  14
ENDBRANCH  11  13
ENDBRANCH  10  11
ENDBRANCH   1  10
BRANCH   5  20
ATOM     20  N10 ZIN A   1      17.368  -3.339   8.936  0.00  0.00    -0.382 N 
ATOM     21  H27 ZIN A   1      16.592  -2.762   8.869  0.00  0.00     0.157 HD
ATOM     22  H28 ZIN A   1      17.561  -3.975   8.230  0.00  0.00     0.157 HD
ENDBRANCH   5  20
TORSDOF 7
ENDMDL
MODEL 2
REMARK VINA RESULT:      -6.2      2.977      4.094
REMARK  7 active torsions:
REMARK  status: ('A' for Active; 'I' for Inactive)
REMARK    1  A    between atoms: C2_2  and  C4_3 
REMARK    2  A    between atoms: C2_2  and  O15_14 
REMARK    3  A    between atoms: C4_3  and  N5_4 
REMARK    4  A    between atoms: C9_8  and  N10_9 
REMARK    5  A    between atoms: O15_14  and  C16_15 
REMARK    6  A    between atoms: C16_15  and  P17_16 
REMARK    7  A    between atoms: P17_16  and  O20_19 
ROOT
ATOM      1  N5  ZIN A   1      19.632   0.821  12.779  0.00  0.00    -0.322 N 
ATOM      2  C6  ZIN A   1      20.122  -0.120  11.922  0.00  0.00     0.212 A 
ATOM      3  N7  ZIN A   1      19.952   0.269  10.692  0.00  0.00    -0.236 NA
ATOM      4  C8  ZIN A   1      19.346   1.480  10.680  0.00  0.00     0.149 A 
ATOM      5  C9  ZIN A   1      18.923   2.364   9.674  0.00  0.00     0.155 A 
ATOM      6  N11 ZIN A   1      18.345   3.505  10.035  0.00  0.00    -0.222 NA
ATOM      7  C12 ZIN A   1      18.167   3.809  11.307  0.00  0.00     0.237 A 
ATOM      8  N13 ZIN A   1      18.545   3.011  12.284  0.00  0.00    -0.222 NA
ATOM      9  C14 ZIN A   1      19.128   1.846  12.019  0.00  0.00     0.165 A 
ENDROOT
BRANCH   1  10
ATOM     10  C4  ZIN A   1      19.638   0.747  14.242  0.00  0.00     0.163 C 
BRANCH  10  11
ATOM     11  C2  ZIN A   1      18.324   0.133  14.728  0.00  0.00     0.136 C 
ATOM     12  C1  ZIN A   1      18.574  -1.302  15.195  0.00  0.00     0.041 C 
BRANCH  11  13
ATOM     13  O15 ZIN A   1      17.810   0.906  15.815  0.00  0.00    -0.372 OA
BRANCH  13  14
ATOM     14  C16 ZIN A   1      18.785   1.736  16.448  0.00  0.00     0.303 C 
BRANCH  14  15
ATOM     15  P17 ZIN A   1      18.883   1.315  18.220  0.00  0.00     0.271 P 
ATOM     16  O18 ZIN A   1      19.705   0.019  18.396  0.00  0.00    -0.645 OA
ATOM     17  O19 ZIN A   1      17.458   1.103  18.778  0.00  0.00    -0.645 OA
BRANCH  15  18
ATOM     18  O20 ZIN A   1      19.598   2.517  19.018  0.00  0.00    -0.321 OA
ATOM     19  H32 ZIN A   1      20.561   2.537  18.918  0.00  0.00     0.221 HD
ENDBRANCH  15  18
ENDBRANCH  14  15
ENDBRANCH  13  14
ENDBRANCH  11  13
ENDBRANCH  10  11
ENDBRANCH   1  10
BRANCH   5  20
ATOM     20  N10 ZIN A   1      19.107   2.055   8.337  0.00  0.00    -0.382 N 
ATOM     21  H27 ZIN A   1      19.999   2.060   7.956  0.00  0.00     0.157 HD
ATOM     22  H28 ZIN A   1      18.344   1.832   7.782  0.00  0.00     0.157 HD
ENDBRANCH   5  20
TORSDOF 7
ENDMDL
MODEL 3
REMARK VINA RESULT:      -6.1      3.888      5.652
REMARK  7 active torsions:
REMARK  status: ('A' for Active; 'I' for Inactive)
REMARK    1  A    between atoms: C2_2  and  C4_3 
REMARK    2  A    between atoms: C2_2  and  O15_14 
REMARK    3  A    between atoms: C4_3  and  N5_4 
REMARK    4  A    between atoms: C9_8  and  N10_9 
REMARK    5  A    between atoms: O15_14  and  C16_15 
REMARK    6  A    between atoms: C16_15  and  P17_16 
REMARK    7  A    between atoms: P17_16  and  O20_19 
ROOT
ATOM      1  N5  ZIN A   1      18.592  -1.349   7.462  0.00  0.00    -0.322 N 
ATOM      2  C6  ZIN A   1      19.161  -1.398   6.224  0.00  0.00     0.212 A 
ATOM      3  N7  ZIN A   1      19.676  -2.576   6.019  0.00  0.00    -0.236 NA
ATOM      4  C8  ZIN A   1      19.469  -3.355   7.107  0.00  0.00     0.149 A 
ATOM      5  C9  ZIN A   1      19.790  -4.679   7.450  0.00  0.00     0.155 A 
ATOM      6  N11 ZIN A   1      19.419  -5.133   8.643  0.00  0.00    -0.222 NA
ATOM      7  C12 ZIN A   1      18.763  -4.364   9.493  0.00  0.00     0.237 A 
ATOM      8  N13 ZIN A   1      18.441  -3.117   9.215  0.00  0.00    -0.222 NA
ATOM      9  C14 ZIN A   1      18.776  -2.576   8.048  0.00  0.00     0.165 A 
ENDROOT
BRANCH   1  10
ATOM     10  C4  ZIN A   1      17.912  -0.197   8.057  0.00  0.00     0.163 C 
BRANCH  10  11
ATOM     11  C2  ZIN A   1      18.925   0.647   8.834  0.00  0.00     0.136 C 
ATOM     12  C1  ZIN A   1      19.144   1.976   8.109  0.00  0.00     0.041 C 
BRANCH  11  13
ATOM     13  O15 ZIN A   1      18.425   0.899  10.150  0.00  0.00    -0.372 OA
BRANCH  13  14
ATOM     14  C16 ZIN A   1      18.807  -0.084  11.113  0.00  0.00     0.303 C 
BRANCH  14  15
ATOM     15  P17 ZIN A   1      17.330  -0.660  12.013  0.00  0.00     0.271 P 
ATOM     16  O18 ZIN A   1      16.099   0.152  11.553  0.00  0.00    -0.645 OA
ATOM     17  O19 ZIN A   1      17.541  -0.461  13.531  0.00  0.00    -0.645 OA
BRANCH  15  18
ATOM     18  O20 ZIN A   1      17.089  -2.222  11.704  0.00  0.00    -0.321 OA
ATOM     19  H32 ZIN A   1      17.859  -2.780  11.878  0.00  0.00     0.221 HD
ENDBRANCH  15  18
ENDBRANCH  14  15
ENDBRANCH  13  14
ENDBRANCH  11  13
ENDBRANCH  10  11
ENDBRANCH   1  10
BRANCH   5  20
ATOM     20  N10 ZIN A   1      20.477  -5.493   6.566  0.00  0.00    -0.382 N 
ATOM     21  H27 ZIN A   1      20.393  -6.457   6.630  0.00  0.00     0.157 HD
ATOM     22  H28 ZIN A   1      21.041  -5.100   5.882  0.00  0.00     0.157 HD
ENDBRANCH   5  20
TORSDOF 7
ENDMDL
MODEL 4
REMARK VINA RESULT:      -6.1      4.501      5.838
REMARK  7 active torsions:
REMARK  status: ('A' for Active; 'I' for Inactive)
REMARK    1  A    between atoms: C2_2  and  C4_3 
REMARK    2  A    between atoms: C2_2  and  O15_14 
REMARK    3  A    between atoms: C4_3  and  N5_4 
REMARK    4  A    between atoms: C9_8  and  N10_9 
REMARK    5  A    between atoms: O15_14  and  C16_15 
REMARK    6  A    between atoms: C16_15  and  P17_16 
REMARK    7  A    between atoms: P17_16  and  O20_19 
ROOT
ATOM      1  N5  ZIN A   1      18.905  -1.121   8.375  0.00  0.00    -0.322 N 
ATOM      2  C6  ZIN A   1      18.755  -2.476   8.368  0.00  0.00     0.212 A 
ATOM      3  N7  ZIN A   1      18.779  -2.919   7.145  0.00  0.00    -0.236 NA
ATOM      4  C8  ZIN A   1      18.946  -1.881   6.291  0.00  0.00     0.149 A 
ATOM      5  C9  ZIN A   1      19.044  -1.754   4.895  0.00  0.00     0.155 A 
ATOM      6  N11 ZIN A   1      19.211  -0.541   4.379  0.00  0.00    -0.222 NA
ATOM      7  C12 ZIN A   1      19.283   0.527   5.153  0.00  0.00     0.237 A 
ATOM      8  N13 ZIN A   1      19.196   0.457   6.465  0.00  0.00    -0.222 NA
ATOM      9  C14 ZIN A   1      19.023  -0.714   7.070  0.00  0.00     0.165 A 
ENDROOT
BRANCH   1  10
ATOM     10  C4  ZIN A   1      18.930  -0.259   9.558  0.00  0.00     0.163 C 
BRANCH  10  11
ATOM     11  C2  ZIN A   1      17.572   0.427   9.718  0.00  0.00     0.136 C 
ATOM     12  C1  ZIN A   1      16.851  -0.149  10.938  0.00  0.00     0.041 C 
BRANCH  11  13
ATOM     13  O15 ZIN A   1      17.766   1.832   9.899  0.00  0.00    -0.372 OA
BRANCH  13  14
ATOM     14  C16 ZIN A   1      19.137   2.233   9.895  0.00  0.00     0.303 C 
BRANCH  14  15
ATOM     15  P17 ZIN A   1      19.548   3.007  11.494  0.00  0.00     0.271 P 
ATOM     16  O18 ZIN A   1      19.071   2.094  12.645  0.00  0.00    -0.645 OA
ATOM     17  O19 ZIN A   1      18.845   4.379  11.598  0.00  0.00    -0.645 OA
BRANCH  15  18
ATOM     18  O20 ZIN A   1      21.142   3.213  11.597  0.00  0.00    -0.321 OA
ATOM     19  H32 ZIN A   1      21.409   4.121  11.794  0.00  0.00     0.221 HD
ENDBRANCH  15  18
ENDBRANCH  14  15
ENDBRANCH  13  14
ENDBRANCH  11  13
ENDBRANCH  10  11
ENDBRANCH   1  10
BRANCH   5  20
ATOM     20  N10 ZIN A   1      18.969  -2.868   4.076  0.00  0.00    -0.382 N 
ATOM     21  H27 ZIN A   1      19.749  -3.431   3.952  0.00  0.00     0.157 HD
ATOM     22  H28 ZIN A   1      18.138  -3.085   3.628  0.00  0.00     0.157 HD
ENDBRANCH   5  20
TORSDOF 7
ENDMDL
MODEL 5
REMARK VINA RESULT:      -6.1      3.906      5.413
REMARK  7 active torsions:
REMARK  status: ('A' for Active; 'I' for Inactive)
REMARK    1  A    between atoms: C2_2  and  C4_3 
REMARK    2  A    between atoms: C2_2  and  O15_14 
REMARK    3  A    between atoms: C4_3  and  N5_4 
REMARK    4  A    between atoms: C9_8  and  N10_9 
REMARK    5  A    between atoms: O15_14  and  C16_15 
REMARK    6  A    between atoms: C16_15  and  P17_16 
REMARK    7  A    between atoms: P17_16  and  O20_19 
ROOT
ATOM      1  N5  ZIN A   1      18.046  -1.099   8.519  0.00  0.00    -0.322 N 
ATOM      2  C6  ZIN A   1      18.120  -2.237   9.266  0.00  0.00     0.212 A 
ATOM      3  N7  ZIN A   1      18.645  -3.197   8.563  0.00  0.00    -0.236 NA
ATOM      4  C8  ZIN A   1      18.942  -2.739   7.323  0.00  0.00     0.149 A 
ATOM      5  C9  ZIN A   1      19.509  -3.305   6.169  0.00  0.00     0.155 A 
ATOM      6  N11 ZIN A   1      19.659  -2.537   5.095  0.00  0.00    -0.222 NA
ATOM      7  C12 ZIN A   1      19.286  -1.271   5.102  0.00  0.00     0.237 A 
ATOM      8  N13 ZIN A   1      18.750  -0.698   6.159  0.00  0.00    -0.222 NA
ATOM      9  C14 ZIN A   1      18.556  -1.388   7.279  0.00  0.00     0.165 A 
ENDROOT
BRANCH   1  10
ATOM     10  C4  ZIN A   1      17.515   0.193   8.958  0.00  0.00     0.163 C 
BRANCH  10  11
ATOM     11  C2  ZIN A   1      18.628   1.000   9.630  0.00  0.00     0.136 C 
ATOM     12  C1  ZIN A   1      18.915   2.257   8.806  0.00  0.00     0.041 C 
BRANCH  11  13
ATOM     13  O15 ZIN A   1      18.215   1.377  10.946  0.00  0.00    -0.372 OA
BRANCH  13  14
ATOM     14  C16 ZIN A   1      19.268   1.903  11.756  0.00  0.00     0.303 C 
BRANCH  14  15
ATOM     15  P17 ZIN A   1      20.143   0.532  12.579  0.00  0.00     0.271 P 
ATOM     16  O18 ZIN A   1      19.543  -0.814  12.117  0.00  0.00    -0.645 OA
ATOM     17  O19 ZIN A   1      19.988   0.668  14.111  0.00  0.00    -0.645 OA
BRANCH  15  18
ATOM     18  O20 ZIN A   1      21.706   0.584  12.192  0.00  0.00    -0.321 OA
ATOM     19  H32 ZIN A   1      22.043  -0.238  11.810  0.00  0.00     0.221 HD
ENDBRANCH  15  18
ENDBRANCH  14  15
ENDBRANCH  13  14
ENDBRANCH  11  13
ENDBRANCH  10  11
ENDBRANCH   1  10
BRANCH   5  20
ATOM     20  N10 ZIN A   1      19.904  -4.632   6.152  0.00  0.00    -0.382 N 
ATOM     21  H27 ZIN A   1      20.204  -5.037   5.324  0.00  0.00     0.157 HD
ATOM     22  H28 ZIN A   1      19.882  -5.154   6.968  0.00  0.00     0.157 HD
ENDBRANCH   5  20
TORSDOF 7
ENDMDL
MODEL 6
REMARK VINA RESULT:      -6.1      2.638      3.890
REMARK  7 active torsions:
REMARK  status: ('A' for Active; 'I' for Inactive)
REMARK    1  A    between atoms: C2_2  and  C4_3 
REMARK    2  A    between atoms: C2_2  and  O15_14 
REMARK    3  A    between atoms: C4_3  and  N5_4 
REMARK    4  A    between atoms: C9_8  and  N10_9 
REMARK    5  A    between atoms: O15_14  and  C16_15 
REMARK    6  A    between atoms: C16_15  and  P17_16 
REMARK    7  A    between atoms: P17_16  and  O20_19 
ROOT
ATOM      1  N5  ZIN A   1      18.611   0.475  10.827  0.00  0.00    -0.322 N 
ATOM      2  C6  ZIN A   1      19.956   0.628  10.661  0.00  0.00     0.212 A 
ATOM      3  N7  ZIN A   1      20.560  -0.506  10.866  0.00  0.00    -0.236 NA
ATOM      4  C8  ZIN A   1      19.646  -1.457  11.174  0.00  0.00     0.149 A 
ATOM      5  C9  ZIN A   1      19.708  -2.825  11.484  0.00  0.00     0.155 A 
ATOM      6  N11 ZIN A   1      18.575  -3.469  11.741  0.00  0.00    -0.222 NA
ATOM      7  C12 ZIN A   1      17.412  -2.846  11.709  0.00  0.00     0.237 A 
ATOM      8  N13 ZIN A   1      17.304  -1.565  11.424  0.00  0.00    -0.222 NA
ATOM      9  C14 ZIN A   1      18.384  -0.837  11.158  0.00  0.00     0.165 A 
ENDROOT
BRANCH   1  10
ATOM     10  C4  ZIN A   1      17.596   1.520  10.683  0.00  0.00     0.163 C 
BRANCH  10  11
ATOM     11  C2  ZIN A   1      18.120   2.827  11.282  0.00  0.00     0.136 C 
ATOM     12  C1  ZIN A   1      17.627   4.007  10.443  0.00  0.00     0.041 C 
BRANCH  11  13
ATOM     13  O15 ZIN A   1      17.642   2.962  12.622  0.00  0.00    -0.372 OA
BRANCH  13  14
ATOM     14  C16 ZIN A   1      18.677   3.100  13.597  0.00  0.00     0.303 C 
BRANCH  14  15
ATOM     15  P17 ZIN A   1      18.899   1.519  14.476  0.00  0.00     0.271 P 
ATOM     16  O18 ZIN A   1      17.652   0.633  14.265  0.00  0.00    -0.645 OA
ATOM     17  O19 ZIN A   1      19.089   1.791  15.985  0.00  0.00    -0.645 OA
BRANCH  15  18
ATOM     18  O20 ZIN A   1      20.199   0.763  13.899  0.00  0.00    -0.321 OA
ATOM     19  H32 ZIN A   1      20.728   0.319  14.577  0.00  0.00     0.221 HD
ENDBRANCH  15  18
ENDBRANCH  14  15
ENDBRANCH  13  14
ENDBRANCH  11  13
ENDBRANCH  10  11
ENDBRANCH   1  10
BRANCH   5  20
ATOM     20  N10 ZIN A   1      20.923  -3.488  11.520  0.00  0.00    -0.382 N 
ATOM     21  H27 ZIN A   1      21.751  -2.984  11.493  0.00  0.00     0.157 HD
ATOM     22  H28 ZIN A   1      20.946  -4.456  11.574  0.00  0.00     0.157 HD
ENDBRANCH   5  20
TORSDOF 7
ENDMDL
MODEL 7
REMARK VINA RESULT:      -6.1      4.906      6.838
REMARK  7 active torsions:
REMARK  status: ('A' for Active; 'I' for Inactive)
REMARK    1  A    between atoms: C2_2  and  C4_3 
REMARK    2  A    between atoms: C2_2  and  O15_14 
REMARK    3  A    between atoms: C4_3  and  N5_4 
REMARK    4  A    between atoms: C9_8  and  N10_9 
REMARK    5  A    between atoms: O15_14  and  C16_15 
REMARK    6  A    between atoms: C16_15  and  P17_16 
REMARK    7  A    between atoms: P17_16  and  O20_19 
ROOT
ATOM      1  N5  ZIN A   1      18.796   2.004  10.188  0.00  0.00    -0.322 N 
ATOM      2  C6  ZIN A   1      17.669   2.723  10.455  0.00  0.00     0.212 A 
ATOM      3  N7  ZIN A   1      17.392   2.658  11.725  0.00  0.00    -0.236 NA
ATOM      4  C8  ZIN A   1      18.320   1.897  12.352  0.00  0.00     0.149 A 
ATOM      5  C9  ZIN A   1      18.531   1.487  13.679  0.00  0.00     0.155 A 
ATOM      6  N11 ZIN A   1      19.580   0.716  13.946  0.00  0.00    -0.222 NA
ATOM      7  C12 ZIN A   1      20.411   0.339  12.992  0.00  0.00     0.237 A 
ATOM      8  N13 ZIN A   1      20.254   0.698  11.735  0.00  0.00    -0.222 NA
ATOM      9  C14 ZIN A   1      19.230   1.463  11.372  0.00  0.00     0.165 A 
ENDROOT
BRANCH   1  10
ATOM     10  C4  ZIN A   1      19.426   1.836   8.876  0.00  0.00     0.163 C 
BRANCH  10  11
ATOM     11  C2  ZIN A   1      18.605   0.854   8.039  0.00  0.00     0.136 C 
ATOM     12  C1  ZIN A   1      18.836   1.134   6.552  0.00  0.00     0.041 C 
BRANCH  11  13
ATOM     13  O15 ZIN A   1      19.011  -0.484   8.339  0.00  0.00    -0.372 OA
BRANCH  13  14
ATOM     14  C16 ZIN A   1      17.931  -1.354   8.682  0.00  0.00     0.303 C 
BRANCH  14  15
ATOM     15  P17 ZIN A   1      18.331  -2.240  10.225  0.00  0.00     0.271 P 
ATOM     16  O18 ZIN A   1      17.925  -3.724  10.086  0.00  0.00    -0.645 OA
ATOM     17  O19 ZIN A   1      17.559  -1.601  11.401  0.00  0.00    -0.645 OA
BRANCH  15  18
ATOM     18  O20 ZIN A   1      19.914  -2.141  10.505  0.00  0.00    -0.321 OA
ATOM     19  H32 ZIN A   1      20.457  -2.161   9.704  0.00  0.00     0.221 HD
ENDBRANCH  15  18
ENDBRANCH  14  15
ENDBRANCH  13  14
ENDBRANCH  11  13
ENDBRANCH  10  11
ENDBRANCH   1  10
BRANCH   5  20
ATOM     20  N10 ZIN A   1      17.665   1.878  14.687  0.00  0.00    -0.382 N 
ATOM     21  H27 ZIN A   1      17.024   1.246  15.046  0.00  0.00     0.157 HD
ATOM     22  H28 ZIN A   1      17.702   2.782  15.033  0.00  0.00     0.157 HD
ENDBRANCH   5  20
TORSDOF 7
ENDMDL
MODEL 8
REMARK VINA RESULT:      -6.1      4.769      7.073
REMARK  7 active torsions:
REMARK  status: ('A' for Active; 'I' for Inactive)
REMARK    1  A    between atoms: C2_2  and  C4_3 
REMARK    2  A    between atoms: C2_2  and  O15_14 
REMARK    3  A    between atoms: C4_3  and  N5_4 
REMARK    4  A    between atoms: C9_8  and  N10_9 
REMARK    5  A    between atoms: O15_14  and  C16_15 
REMARK    6  A    between atoms: C16_15  and  P17_16 
REMARK    7  A    between atoms: P17_16  and  O20_19 
ROOT
ATOM      1  N5  ZIN A   1      18.470   1.793  15.666  0.00  0.00    -0.322 N 
ATOM      2  C6  ZIN A   1      19.055   1.870  16.895  0.00  0.00     0.212 A 
ATOM      3  N7  ZIN A   1      19.637   3.025  17.037  0.00  0.00    -0.236 NA
ATOM      4  C8  ZIN A   1      19.464   3.760  15.913  0.00  0.00     0.149 A 
ATOM      5  C9  ZIN A   1      19.856   5.045  15.501  0.00  0.00     0.155 A 
ATOM      6  N11 ZIN A   1      19.498   5.459  14.290  0.00  0.00    -0.222 NA
ATOM      7  C12 ZIN A   1      18.791   4.688  13.485  0.00  0.00     0.237 A 
ATOM      8  N13 ZIN A   1      18.401   3.477  13.827  0.00  0.00    -0.222 NA
ATOM      9  C14 ZIN A   1      18.717   2.976  15.017  0.00  0.00     0.165 A 
ENDROOT
BRANCH   1  10
ATOM     10  C4  ZIN A   1      17.719   0.653  15.134  0.00  0.00     0.163 C 
BRANCH  10  11
ATOM     11  C2  ZIN A   1      18.692  -0.357  14.521  0.00  0.00     0.136 C 
ATOM     12  C1  ZIN A   1      18.786  -1.588  15.426  0.00  0.00     0.041 C 
BRANCH  11  13
ATOM     13  O15 ZIN A   1      18.220  -0.749  13.230  0.00  0.00    -0.372 OA
BRANCH  13  14
ATOM     14  C16 ZIN A   1      18.717   0.058  12.161  0.00  0.00     0.303 C 
BRANCH  14  15
ATOM     15  P17 ZIN A   1      17.320   0.670  11.162  0.00  0.00     0.271 P 
ATOM     16  O18 ZIN A   1      16.013   0.002  11.643  0.00  0.00    -0.645 OA
ATOM     17  O19 ZIN A   1      17.560   0.324   9.676  0.00  0.00    -0.645 OA
BRANCH  15  18
ATOM     18  O20 ZIN A   1      17.200   2.267  11.330  0.00  0.00    -0.321 OA
ATOM     19  H32 ZIN A   1      17.897   2.763  10.879  0.00  0.00     0.221 HD
ENDBRANCH  15  18
ENDBRANCH  14  15
ENDBRANCH  13  14
ENDBRANCH  11  13
ENDBRANCH  10  11
ENDBRANCH   1  10
BRANCH   5  20
ATOM     20  N10 ZIN A   1      20.597   5.861  16.338  0.00  0.00    -0.382 N 
ATOM     21  H27 ZIN A   1      20.824   5.560  17.231  0.00  0.00     0.157 HD
ATOM     22  H28 ZIN A   1      20.890   6.732  16.030  0.00  0.00     0.157 HD
ENDBRANCH   5  20
TORSDOF 7
ENDMDL
MODEL 9
REMARK VINA RESULT:      -5.9      3.895      4.818
REMARK  7 active torsions:
REMARK  status: ('A' for Active; 'I' for Inactive)
REMARK    1  A    between atoms: C2_2  and  C4_3 
REMARK    2  A    between atoms: C2_2  and  O15_14 
REMARK    3  A    between atoms: C4_3  and  N5_4 
REMARK    4  A    between atoms: C9_8  and  N10_9 
REMARK    5  A    between atoms: O15_14  and  C16_15 
REMARK    6  A    between atoms: C16_15  and  P17_16 
REMARK    7  A    between atoms: P17_16  and  O20_19 
ROOT
ATOM      1  N5  ZIN A   1      19.404  -1.145   9.866  0.00  0.00    -0.322 N 
ATOM      2  C6  ZIN A   1      18.727  -2.301   9.613  0.00  0.00     0.212 A 
ATOM      3  N7  ZIN A   1      18.104  -2.210   8.474  0.00  0.00    -0.236 NA
ATOM      4  C8  ZIN A   1      18.341  -0.995   7.925  0.00  0.00     0.149 A 
ATOM      5  C9  ZIN A   1      17.946  -0.350   6.741  0.00  0.00     0.155 A 
ATOM      6  N11 ZIN A   1      18.381   0.885   6.515  0.00  0.00    -0.222 NA
ATOM      7  C12 ZIN A   1      19.167   1.501   7.379  0.00  0.00     0.237 A 
ATOM      8  N13 ZIN A   1      19.563   0.937   8.502  0.00  0.00    -0.222 NA
ATOM      9  C14 ZIN A   1      19.173  -0.295   8.815  0.00  0.00     0.165 A 
ENDROOT
BRANCH   1  10
ATOM     10  C4  ZIN A   1      20.222  -0.862  11.047  0.00  0.00     0.163 C 
BRANCH  10  11
ATOM     11  C2  ZIN A   1      19.316  -0.454  12.211  0.00  0.00     0.136 C 
ATOM     12  C1  ZIN A   1      19.271  -1.583  13.242  0.00  0.00     0.041 C 
BRANCH  11  13
ATOM     13  O15 ZIN A   1      19.830   0.731  12.823  0.00  0.00    -0.372 OA
BRANCH  13  14
ATOM     14  C16 ZIN A   1      18.833   1.709  13.123  0.00  0.00     0.303 C 
BRANCH  14  15
ATOM     15  P17 ZIN A   1      18.597   2.799  11.682  0.00  0.00     0.271 P 
ATOM     16  O18 ZIN A   1      18.365   4.248  12.165  0.00  0.00    -0.645 OA
ATOM     17  O19 ZIN A   1      17.371   2.323  10.870  0.00  0.00    -0.645 OA
BRANCH  15  18
ATOM     18  O20 ZIN A   1      19.910   2.748  10.750  0.00  0.00    -0.321 OA
ATOM     19  H32 ZIN A   1      20.365   1.894  10.759  0.00  0.00     0.221 HD
ENDBRANCH  15  18
ENDBRANCH  14  15
ENDBRANCH  13  14
ENDBRANCH  11  13
ENDBRANCH  10  11
ENDBRANCH   1  10
BRANCH   5  20
ATOM     20  N10 ZIN A   1      17.122  -0.988   5.829  0.00  0.00    -0.382 N 
ATOM     21  H27 ZIN A   1      16.283  -1.376   6.122  0.00  0.00     0.157 HD
ATOM     22  H28 ZIN A   1      17.383  -1.045   4.897  0.00  0.00     0.157 HD
ENDBRANCH   5  20
TORSDOF 7
ENDMDL
