MODEL 1
REMARK VINA RESULT:      -7.7      0.000      0.000
REMARK  7 active torsions:
REMARK  status: ('A' for Active; 'I' for Inactive)
REMARK    1  A    between atoms: C2_2  and  C3_3 
REMARK    2  A    between atoms: C6_6  and  C7_7 
REMARK    3  A    between atoms: C7_7  and  C8_8 
REMARK    4  A    between atoms: C8_8  and  O9_9 
REMARK    5  A    between atoms: O9_9  and  C10_10 
REMARK    6  A    between atoms: C13_13  and  C14_14 
REMARK    7  A    between atoms: C14_14  and  C15_15 
ROOT
ATOM      1  C10 <0> d   1      18.342  -0.506  10.555  0.00  0.00     0.068 A 
ATOM      2  C11 <0> d   1      19.466  -1.061  11.150  0.00  0.00     0.037 A 
ATOM      3  C12 <0> d   1      19.475  -1.311  12.508  0.00  0.00     0.010 A 
ATOM      4  C13 <0> d   1      18.365  -1.010  13.275  0.00  0.00    -0.056 A 
ATOM      5  C23 <0> d   1      17.244  -0.457  12.684  0.00  0.00     0.010 A 
ATOM      6  C24 <0> d   1      17.232  -0.198  11.328  0.00  0.00     0.037 A 
ENDROOT
BRANCH   1   7
ATOM      7  O9  <0> d   1      18.333  -0.258   9.219  0.00  0.00    -0.351 OA
BRANCH   7   8
ATOM      8  C8  <0> d   1      18.041   1.079   8.809  0.00  0.00     0.181 C 
BRANCH   8   9
ATOM      9  C7  <0> d   1      19.241   1.980   9.110  0.00  0.00     0.086 C 
BRANCH   9  10
ATOM     10  C6  <0> d   1      18.909   2.892  10.263  0.00  0.00     0.036 A 
ATOM     11  C5  <0> d   1      17.753   3.648  10.224  0.00  0.00     0.028 A 
ATOM     12  C4  <0> d   1      17.456   4.484  11.289  0.00  0.00     0.010 A 
ATOM     13  C3  <0> d   1      18.336   4.527  12.359  0.00  0.00    -0.041 A 
ATOM     14  C26 <0> d   1      19.476   3.745  12.325  0.00  0.00     0.124 A 
ATOM     15  N25 <0> d   1      19.723   2.957  11.297  0.00  0.00    -0.265 NA
BRANCH  13  16
ATOM     16  C2  <0> d   1      18.058   5.420  13.541  0.00  0.00     0.035 C 
ATOM     17  C1  <0> d   1      16.555   5.687  13.636  0.00  0.00     0.010 C 
ENDBRANCH  13  16
ENDBRANCH   9  10
ENDBRANCH   8   9
ENDBRANCH   7   8
ENDBRANCH   1   7
BRANCH   4  18
ATOM     18  C14 <0> d   1      18.376  -1.285  14.757  0.00  0.00     0.064 C 
BRANCH  18  19
ATOM     19  C15 <0> d   1      17.832  -0.066  15.506  0.00  0.00     0.155 A 
ATOM     20  C21 <0> d   1      17.396  -0.449  16.904  0.00  0.00     0.261 A 
ATOM     21  N20 <0> d   1      18.070   0.177  17.859  0.00  0.00    -0.167 NA
ATOM     22  O22 <0> d   1      16.518  -1.252  17.131  0.00  0.00    -0.270 OA
ATOM     23  C18 <0> d   1      19.031   1.057  17.568  0.00  0.00     0.309 A 
ATOM     24  S17 <0> d   1      19.156   1.153  15.803  0.00  0.00    -0.052 SA
ATOM     25  O19 <0> d   1      19.700   1.680  18.370  0.00  0.00    -0.258 OA
ENDBRANCH  18  19
ENDBRANCH   4  18
TORSDOF 7
ENDMDL
MODEL 2
REMARK VINA RESULT:      -7.7      2.963      7.264
REMARK  7 active torsions:
REMARK  status: ('A' for Active; 'I' for Inactive)
REMARK    1  A    between atoms: C2_2  and  C3_3 
REMARK    2  A    between atoms: C6_6  and  C7_7 
REMARK    3  A    between atoms: C7_7  and  C8_8 
REMARK    4  A    between atoms: C8_8  and  O9_9 
REMARK    5  A    between atoms: O9_9  and  C10_10 
REMARK    6  A    between atoms: C13_13  and  C14_14 
REMARK    7  A    between atoms: C14_14  and  C15_15 
ROOT
ATOM      1  C10 <0> d   1      18.259   5.435  13.693  0.00  0.00     0.068 A 
ATOM      2  C11 <0> d   1      17.073   5.412  12.972  0.00  0.00     0.037 A 
ATOM      3  C12 <0> d   1      17.031   4.809  11.730  0.00  0.00     0.010 A 
ATOM      4  C13 <0> d   1      18.171   4.226  11.206  0.00  0.00    -0.056 A 
ATOM      5  C23 <0> d   1      19.353   4.248  11.921  0.00  0.00     0.010 A 
ATOM      6  C24 <0> d   1      19.402   4.856  13.160  0.00  0.00     0.037 A 
ENDROOT
BRANCH   1   7
ATOM      7  O9  <0> d   1      18.302   6.030  14.913  0.00  0.00    -0.351 OA
BRANCH   7   8
ATOM      8  C8  <0> d   1      17.895   5.243  16.033  0.00  0.00     0.181 C 
BRANCH   8   9
ATOM      9  C7  <0> d   1      19.130   4.771  16.802  0.00  0.00     0.086 C 
BRANCH   9  10
ATOM     10  C6  <0> d   1      19.098   3.270  16.932  0.00  0.00     0.036 A 
ATOM     11  C5  <0> d   1      18.803   2.495  15.827  0.00  0.00     0.028 A 
ATOM     12  C4  <0> d   1      18.776   1.115  15.956  0.00  0.00     0.010 A 
ATOM     13  C3  <0> d   1      19.049   0.563  17.198  0.00  0.00    -0.041 A 
ATOM     14  C26 <0> d   1      19.332   1.403  18.260  0.00  0.00     0.124 A 
ATOM     15  N25 <0> d   1      19.354   2.711  18.098  0.00  0.00    -0.265 NA
BRANCH  13  16
ATOM     16  C2  <0> d   1      19.032  -0.931  17.391  0.00  0.00     0.035 C 
ATOM     17  C1  <0> d   1      18.301  -1.588  16.218  0.00  0.00     0.010 C 
ENDBRANCH  13  16
ENDBRANCH   9  10
ENDBRANCH   8   9
ENDBRANCH   7   8
ENDBRANCH   1   7
BRANCH   4  18
ATOM     18  C14 <0> d   1      18.123   3.567   9.851  0.00  0.00     0.064 C 
BRANCH  18  19
ATOM     19  C15 <0> d   1      18.691   2.149   9.954  0.00  0.00     0.155 A 
ATOM     20  C21 <0> d   1      17.594   1.155  10.268  0.00  0.00     0.261 A 
ATOM     21  N20 <0> d   1      17.427   0.236   9.327  0.00  0.00    -0.167 NA
ATOM     22  O22 <0> d   1      16.929   1.196  11.280  0.00  0.00    -0.270 OA
ATOM     23  C18 <0> d   1      18.182   0.224   8.226  0.00  0.00     0.309 A 
ATOM     24  S17 <0> d   1      19.313   1.584   8.335  0.00  0.00    -0.052 SA
ATOM     25  O19 <0> d   1      18.105  -0.575   7.313  0.00  0.00    -0.258 OA
ENDBRANCH  18  19
ENDBRANCH   4  18
TORSDOF 7
ENDMDL
MODEL 3
REMARK VINA RESULT:      -7.6      4.434      7.215
REMARK  7 active torsions:
REMARK  status: ('A' for Active; 'I' for Inactive)
REMARK    1  A    between atoms: C2_2  and  C3_3 
REMARK    2  A    between atoms: C6_6  and  C7_7 
REMARK    3  A    between atoms: C7_7  and  C8_8 
REMARK    4  A    between atoms: C8_8  and  O9_9 
REMARK    5  A    between atoms: O9_9  and  C10_10 
REMARK    6  A    between atoms: C13_13  and  C14_14 
REMARK    7  A    between atoms: C14_14  and  C15_15 
ROOT
ATOM      1  C10 <0> d   1      19.015  -0.626  12.158  0.00  0.00     0.068 A 
ATOM      2  C11 <0> d   1      17.958  -1.438  12.546  0.00  0.00     0.037 A 
ATOM      3  C12 <0> d   1      17.934  -2.766  12.169  0.00  0.00     0.010 A 
ATOM      4  C13 <0> d   1      18.963  -3.289  11.408  0.00  0.00    -0.056 A 
ATOM      5  C23 <0> d   1      20.017  -2.483  11.020  0.00  0.00     0.010 A 
ATOM      6  C24 <0> d   1      20.043  -1.152  11.388  0.00  0.00     0.037 A 
ENDROOT
BRANCH   1   7
ATOM      7  O9  <0> d   1      19.040   0.681  12.526  0.00  0.00    -0.351 OA
BRANCH   7   8
ATOM      8  C8  <0> d   1      19.489   1.622  11.550  0.00  0.00     0.181 C 
BRANCH   8   9
ATOM      9  C7  <0> d   1      18.289   2.150  10.760  0.00  0.00     0.086 C 
BRANCH   9  10
ATOM     10  C6  <0> d   1      18.248   1.489   9.407  0.00  0.00     0.036 A 
ATOM     11  C5  <0> d   1      19.086   1.934   8.402  0.00  0.00     0.028 A 
ATOM     12  C4  <0> d   1      19.040   1.319   7.161  0.00  0.00     0.010 A 
ATOM     13  C3  <0> d   1      18.150   0.273   6.975  0.00  0.00    -0.041 A 
ATOM     14  C26 <0> d   1      17.339  -0.115   8.026  0.00  0.00     0.124 A 
ATOM     15  N25 <0> d   1      17.413   0.490   9.195  0.00  0.00    -0.265 NA
BRANCH  13  16
ATOM     16  C2  <0> d   1      18.062  -0.428   5.645  0.00  0.00     0.035 C 
ATOM     17  C1  <0> d   1      19.311  -0.113   4.819  0.00  0.00     0.010 C 
ENDBRANCH  13  16
ENDBRANCH   9  10
ENDBRANCH   8   9
ENDBRANCH   7   8
ENDBRANCH   1   7
BRANCH   4  18
ATOM     18  C14 <0> d   1      18.935  -4.739  11.000  0.00  0.00     0.064 C 
BRANCH  18  19
ATOM     19  C15 <0> d   1      18.579  -4.844   9.514  0.00  0.00     0.155 A 
ATOM     20  C21 <0> d   1      19.292  -6.017   8.876  0.00  0.00     0.261 A 
ATOM     21  N20 <0> d   1      18.468  -6.935   8.389  0.00  0.00    -0.167 NA
ATOM     22  O22 <0> d   1      20.499  -6.111   8.817  0.00  0.00    -0.270 OA
ATOM     23  C18 <0> d   1      17.144  -6.794   8.472  0.00  0.00     0.309 A 
ATOM     24  S17 <0> d   1      16.817  -5.262   9.300  0.00  0.00    -0.052 SA
ATOM     25  O19 <0> d   1      16.312  -7.577   8.056  0.00  0.00    -0.258 OA
ENDBRANCH  18  19
ENDBRANCH   4  18
TORSDOF 7
ENDMDL
MODEL 4
REMARK VINA RESULT:      -7.5      4.961      7.846
REMARK  7 active torsions:
REMARK  status: ('A' for Active; 'I' for Inactive)
REMARK    1  A    between atoms: C2_2  and  C3_3 
REMARK    2  A    between atoms: C6_6  and  C7_7 
REMARK    3  A    between atoms: C7_7  and  C8_8 
REMARK    4  A    between atoms: C8_8  and  O9_9 
REMARK    5  A    between atoms: O9_9  and  C10_10 
REMARK    6  A    between atoms: C13_13  and  C14_14 
REMARK    7  A    between atoms: C14_14  and  C15_15 
ROOT
ATOM      1  C10 <0> d   1      18.740  -2.582  12.271  0.00  0.00     0.068 A 
ATOM      2  C11 <0> d   1      19.881  -3.295  11.935  0.00  0.00     0.037 A 
ATOM      3  C12 <0> d   1      19.800  -4.349  11.045  0.00  0.00     0.010 A 
ATOM      4  C13 <0> d   1      18.582  -4.691  10.488  0.00  0.00    -0.056 A 
ATOM      5  C23 <0> d   1      17.443  -3.983  10.821  0.00  0.00     0.010 A 
ATOM      6  C24 <0> d   1      17.518  -2.933  11.716  0.00  0.00     0.037 A 
ENDROOT
BRANCH   1   7
ATOM      7  O9  <0> d   1      18.818  -1.547  13.147  0.00  0.00    -0.351 OA
BRANCH   7   8
ATOM      8  C8  <0> d   1      18.527  -0.243  12.640  0.00  0.00     0.181 C 
BRANCH   8   9
ATOM      9  C7  <0> d   1      19.787   0.353  12.009  0.00  0.00     0.086 C 
BRANCH   9  10
ATOM     10  C6  <0> d   1      19.552   0.580  10.537  0.00  0.00     0.036 A 
ATOM     11  C5  <0> d   1      19.214   1.842  10.087  0.00  0.00     0.028 A 
ATOM     12  C4  <0> d   1      19.001   2.040   8.731  0.00  0.00     0.010 A 
ATOM     13  C3  <0> d   1      19.137   0.958   7.876  0.00  0.00    -0.041 A 
ATOM     14  C26 <0> d   1      19.474  -0.276   8.401  0.00  0.00     0.124 A 
ATOM     15  N25 <0> d   1      19.674  -0.427   9.695  0.00  0.00    -0.265 NA
BRANCH  13  16
ATOM     16  C2  <0> d   1      18.915   1.122   6.395  0.00  0.00     0.035 C 
ATOM     17  C1  <0> d   1      17.696   0.303   5.968  0.00  0.00     0.010 C 
ENDBRANCH  13  16
ENDBRANCH   9  10
ENDBRANCH   8   9
ENDBRANCH   7   8
ENDBRANCH   1   7
BRANCH   4  18
ATOM     18  C14 <0> d   1      18.496  -5.840   9.516  0.00  0.00     0.064 C 
BRANCH  18  19
ATOM     19  C15 <0> d   1      18.204  -5.301   8.113  0.00  0.00     0.155 A 
ATOM     20  C21 <0> d   1      19.299  -5.702   7.149  0.00  0.00     0.261 A 
ATOM     21  N20 <0> d   1      18.873  -6.464   6.151  0.00  0.00    -0.167 NA
ATOM     22  O22 <0> d   1      20.455  -5.361   7.276  0.00  0.00    -0.270 OA
ATOM     23  C18 <0> d   1      17.590  -6.817   6.046  0.00  0.00     0.309 A 
ATOM     24  S17 <0> d   1      16.720  -6.096   7.412  0.00  0.00    -0.052 SA
ATOM     25  O19 <0> d   1      17.106  -7.508   5.171  0.00  0.00    -0.258 OA
ENDBRANCH  18  19
ENDBRANCH   4  18
TORSDOF 7
ENDMDL
MODEL 5
REMARK VINA RESULT:      -7.5      2.813      5.416
REMARK  7 active torsions:
REMARK  status: ('A' for Active; 'I' for Inactive)
REMARK    1  A    between atoms: C2_2  and  C3_3 
REMARK    2  A    between atoms: C6_6  and  C7_7 
REMARK    3  A    between atoms: C7_7  and  C8_8 
REMARK    4  A    between atoms: C8_8  and  O9_9 
REMARK    5  A    between atoms: O9_9  and  C10_10 
REMARK    6  A    between atoms: C13_13  and  C14_14 
REMARK    7  A    between atoms: C14_14  and  C15_15 
ROOT
ATOM      1  C10 <0> d   1      18.903   2.795  10.347  0.00  0.00     0.068 A 
ATOM      2  C11 <0> d   1      19.813   3.042  11.365  0.00  0.00     0.037 A 
ATOM      3  C12 <0> d   1      19.509   3.952  12.358  0.00  0.00     0.010 A 
ATOM      4  C13 <0> d   1      18.296   4.617  12.339  0.00  0.00    -0.056 A 
ATOM      5  C23 <0> d   1      17.388   4.374  11.326  0.00  0.00     0.010 A 
ATOM      6  C24 <0> d   1      17.690   3.469  10.327  0.00  0.00     0.037 A 
ENDROOT
BRANCH   1   7
ATOM      7  O9  <0> d   1      19.201   1.901   9.369  0.00  0.00    -0.351 OA
BRANCH   7   8
ATOM      8  C8  <0> d   1      19.453   0.555   9.775  0.00  0.00     0.181 C 
BRANCH   8   9
ATOM      9  C7  <0> d   1      18.139  -0.106  10.197  0.00  0.00     0.086 C 
BRANCH   9  10
ATOM     10  C6  <0> d   1      18.185  -0.418  11.671  0.00  0.00     0.036 A 
ATOM     11  C5  <0> d   1      17.515   0.398  12.563  0.00  0.00     0.028 A 
ATOM     12  C4  <0> d   1      17.563   0.103  13.916  0.00  0.00     0.010 A 
ATOM     13  C3  <0> d   1      18.285  -1.008  14.324  0.00  0.00    -0.041 A 
ATOM     14  C26 <0> d   1      18.934  -1.775  13.373  0.00  0.00     0.124 A 
ATOM     15  N25 <0> d   1      18.862  -1.467  12.094  0.00  0.00    -0.265 NA
BRANCH  13  16
ATOM     16  C2  <0> d   1      18.368  -1.371  15.784  0.00  0.00     0.035 C 
ATOM     17  C1  <0> d   1      17.354  -0.542  16.574  0.00  0.00     0.010 C 
ENDBRANCH  13  16
ENDBRANCH   9  10
ENDBRANCH   8   9
ENDBRANCH   7   8
ENDBRANCH   1   7
BRANCH   4  18
ATOM     18  C14 <0> d   1      17.965   5.609  13.424  0.00  0.00     0.064 C 
BRANCH  18  19
ATOM     19  C15 <0> d   1      18.747   5.257  14.692  0.00  0.00     0.155 A 
ATOM     20  C21 <0> d   1      19.605   6.423  15.132  0.00  0.00     0.261 A 
ATOM     21  N20 <0> d   1      19.290   6.890  16.333  0.00  0.00    -0.167 NA
ATOM     22  O22 <0> d   1      20.494   6.890  14.452  0.00  0.00    -0.270 OA
ATOM     23  C18 <0> d   1      18.305   6.347  17.052  0.00  0.00     0.309 A 
ATOM     24  S17 <0> d   1      17.616   5.018  16.103  0.00  0.00    -0.052 SA
ATOM     25  O19 <0> d   1      17.945   6.702  18.157  0.00  0.00    -0.258 OA
ENDBRANCH  18  19
ENDBRANCH   4  18
TORSDOF 7
ENDMDL
MODEL 6
REMARK VINA RESULT:      -7.4      4.063      8.530
REMARK  7 active torsions:
REMARK  status: ('A' for Active; 'I' for Inactive)
REMARK    1  A    between atoms: C2_2  and  C3_3 
REMARK    2  A    between atoms: C6_6  and  C7_7 
REMARK    3  A    between atoms: C7_7  and  C8_8 
REMARK    4  A    between atoms: C8_8  and  O9_9 
REMARK    5  A    between atoms: O9_9  and  C10_10 
REMARK    6  A    between atoms: C13_13  and  C14_14 
REMARK    7  A    between atoms: C14_14  and  C15_15 
ROOT
ATOM      1  C10 <0> d   1      18.338   0.631  11.289  0.00  0.00     0.068 A 
ATOM      2  C11 <0> d   1      19.541   0.876  10.642  0.00  0.00     0.037 A 
ATOM      3  C12 <0> d   1      19.601   0.848   9.262  0.00  0.00     0.010 A 
ATOM      4  C13 <0> d   1      18.462   0.577   8.526  0.00  0.00    -0.056 A 
ATOM      5  C23 <0> d   1      17.263   0.333   9.168  0.00  0.00     0.010 A 
ATOM      6  C24 <0> d   1      17.199   0.353  10.547  0.00  0.00     0.037 A 
ENDROOT
BRANCH   1   7
ATOM      7  O9  <0> d   1      18.278   0.657  12.646  0.00  0.00    -0.351 OA
BRANCH   7   8
ATOM      8  C8  <0> d   1      17.802  -0.522  13.297  0.00  0.00     0.181 C 
BRANCH   8   9
ATOM      9  C7  <0> d   1      18.944  -1.532  13.424  0.00  0.00     0.086 C 
BRANCH   9  10
ATOM     10  C6  <0> d   1      18.773  -2.617  12.391  0.00  0.00     0.036 A 
ATOM     11  C5  <0> d   1      19.888  -3.242  11.866  0.00  0.00     0.028 A 
ATOM     12  C4  <0> d   1      19.720  -4.238  10.917  0.00  0.00     0.010 A 
ATOM     13  C3  <0> d   1      18.431  -4.570  10.530  0.00  0.00    -0.041 A 
ATOM     14  C26 <0> d   1      17.364  -3.897  11.097  0.00  0.00     0.124 A 
ATOM     15  N25 <0> d   1      17.561  -2.959  12.001  0.00  0.00    -0.265 NA
BRANCH  13  16
ATOM     16  C2  <0> d   1      18.195  -5.646   9.501  0.00  0.00     0.035 C 
ATOM     17  C1  <0> d   1      19.538  -6.114   8.937  0.00  0.00     0.010 C 
ENDBRANCH  13  16
ENDBRANCH   9  10
ENDBRANCH   8   9
ENDBRANCH   7   8
ENDBRANCH   1   7
BRANCH   4  18
ATOM     18  C14 <0> d   1      18.530   0.549   7.020  0.00  0.00     0.064 C 
BRANCH  18  19
ATOM     19  C15 <0> d   1      18.093  -0.830   6.517  0.00  0.00     0.155 A 
ATOM     20  C21 <0> d   1      18.717  -1.129   5.170  0.00  0.00     0.261 A 
ATOM     21  N20 <0> d   1      19.512  -2.190   5.179  0.00  0.00    -0.167 NA
ATOM     22  O22 <0> d   1      18.512  -0.461   4.179  0.00  0.00    -0.270 OA
ATOM     23  C18 <0> d   1      19.710  -2.900   6.291  0.00  0.00     0.309 A 
ATOM     24  S17 <0> d   1      18.761  -2.148   7.586  0.00  0.00    -0.052 SA
ATOM     25  O19 <0> d   1      20.416  -3.884   6.397  0.00  0.00    -0.258 OA
ENDBRANCH  18  19
ENDBRANCH   4  18
TORSDOF 7
ENDMDL
MODEL 7
REMARK VINA RESULT:      -7.4      2.229      3.534
REMARK  7 active torsions:
REMARK  status: ('A' for Active; 'I' for Inactive)
REMARK    1  A    between atoms: C2_2  and  C3_3 
REMARK    2  A    between atoms: C6_6  and  C7_7 
REMARK    3  A    between atoms: C7_7  and  C8_8 
REMARK    4  A    between atoms: C8_8  and  O9_9 
REMARK    5  A    between atoms: O9_9  and  C10_10 
REMARK    6  A    between atoms: C13_13  and  C14_14 
REMARK    7  A    between atoms: C14_14  and  C15_15 
ROOT
ATOM      1  C10 <0> d   1      18.039  -2.686  11.359  0.00  0.00     0.068 A 
ATOM      2  C11 <0> d   1      19.333  -2.948  11.788  0.00  0.00     0.037 A 
ATOM      3  C12 <0> d   1      19.905  -2.167  12.773  0.00  0.00     0.010 A 
ATOM      4  C13 <0> d   1      19.188  -1.126  13.333  0.00  0.00    -0.056 A 
ATOM      5  C23 <0> d   1      17.899  -0.863  12.908  0.00  0.00     0.010 A 
ATOM      6  C24 <0> d   1      17.326  -1.636  11.918  0.00  0.00     0.037 A 
ENDROOT
BRANCH   1   7
ATOM      7  O9  <0> d   1      17.477  -3.452  10.389  0.00  0.00    -0.351 OA
BRANCH   7   8
ATOM      8  C8  <0> d   1      18.339  -3.928   9.355  0.00  0.00     0.181 C 
BRANCH   8   9
ATOM      9  C7  <0> d   1      18.099  -3.122   8.077  0.00  0.00     0.086 C 
BRANCH   9  10
ATOM     10  C6  <0> d   1      18.337  -1.660   8.353  0.00  0.00     0.036 A 
ATOM     11  C5  <0> d   1      19.613  -1.220   8.651  0.00  0.00     0.028 A 
ATOM     12  C4  <0> d   1      19.822   0.127   8.903  0.00  0.00     0.010 A 
ATOM     13  C3  <0> d   1      18.736   0.985   8.845  0.00  0.00    -0.041 A 
ATOM     14  C26 <0> d   1      17.487   0.471   8.545  0.00  0.00     0.124 A 
ATOM     15  N25 <0> d   1      17.327  -0.815   8.306  0.00  0.00    -0.265 NA
BRANCH  13  16
ATOM     16  C2  <0> d   1      18.911   2.458   9.112  0.00  0.00     0.035 C 
ATOM     17  C1  <0> d   1      18.153   2.839  10.386  0.00  0.00     0.010 C 
ENDBRANCH  13  16
ENDBRANCH   9  10
ENDBRANCH   8   9
ENDBRANCH   7   8
ENDBRANCH   1   7
BRANCH   4  18
ATOM     18  C14 <0> d   1      19.813  -0.275  14.410  0.00  0.00     0.064 C 
BRANCH  18  19
ATOM     19  C15 <0> d   1      18.745   0.116  15.435  0.00  0.00     0.155 A 
ATOM     20  C21 <0> d   1      18.863  -0.736  16.680  0.00  0.00     0.261 A 
ATOM     21  N20 <0> d   1      19.129  -0.039  17.776  0.00  0.00    -0.167 NA
ATOM     22  O22 <0> d   1      18.729  -1.941  16.677  0.00  0.00    -0.270 OA
ATOM     23  C18 <0> d   1      19.268   1.288  17.738  0.00  0.00     0.309 A 
ATOM     24  S17 <0> d   1      19.038   1.805  16.058  0.00  0.00    -0.052 SA
ATOM     25  O19 <0> d   1      19.510   2.011  18.685  0.00  0.00    -0.258 OA
ENDBRANCH  18  19
ENDBRANCH   4  18
TORSDOF 7
ENDMDL
MODEL 8
REMARK VINA RESULT:      -7.4      3.285      5.933
REMARK  7 active torsions:
REMARK  status: ('A' for Active; 'I' for Inactive)
REMARK    1  A    between atoms: C2_2  and  C3_3 
REMARK    2  A    between atoms: C6_6  and  C7_7 
REMARK    3  A    between atoms: C7_7  and  C8_8 
REMARK    4  A    between atoms: C8_8  and  O9_9 
REMARK    5  A    between atoms: O9_9  and  C10_10 
REMARK    6  A    between atoms: C13_13  and  C14_14 
REMARK    7  A    between atoms: C14_14  and  C15_15 
ROOT
ATOM      1  C10 <0> d   1      18.010   0.440  14.224  0.00  0.00     0.068 A 
ATOM      2  C11 <0> d   1      17.259   0.205  13.081  0.00  0.00     0.037 A 
ATOM      3  C12 <0> d   1      17.497  -0.921  12.317  0.00  0.00     0.010 A 
ATOM      4  C13 <0> d   1      18.483  -1.815  12.692  0.00  0.00    -0.056 A 
ATOM      5  C23 <0> d   1      19.233  -1.583  13.830  0.00  0.00     0.010 A 
ATOM      6  C24 <0> d   1      19.003  -0.455  14.593  0.00  0.00     0.037 A 
ENDROOT
BRANCH   1   7
ATOM      7  O9  <0> d   1      17.778   1.548  14.974  0.00  0.00    -0.351 OA
BRANCH   7   8
ATOM      8  C8  <0> d   1      18.823   2.518  15.040  0.00  0.00     0.181 C 
BRANCH   8   9
ATOM      9  C7  <0> d   1      18.420   3.759  14.241  0.00  0.00     0.086 C 
BRANCH   9  10
ATOM     10  C6  <0> d   1      18.513   3.459  12.767  0.00  0.00     0.036 A 
ATOM     11  C5  <0> d   1      17.459   3.787  11.936  0.00  0.00     0.028 A 
ATOM     12  C4  <0> d   1      17.553   3.507  10.581  0.00  0.00     0.010 A 
ATOM     13  C3  <0> d   1      18.710   2.905  10.112  0.00  0.00    -0.041 A 
ATOM     14  C26 <0> d   1      19.722   2.602  11.005  0.00  0.00     0.124 A 
ATOM     15  N25 <0> d   1      19.599   2.888  12.285  0.00  0.00    -0.265 NA
BRANCH  13  16
ATOM     16  C2  <0> d   1      18.862   2.580   8.648  0.00  0.00     0.035 C 
ATOM     17  C1  <0> d   1      19.387   1.151   8.495  0.00  0.00     0.010 C 
ENDBRANCH  13  16
ENDBRANCH   9  10
ENDBRANCH   8   9
ENDBRANCH   7   8
ENDBRANCH   1   7
BRANCH   4  18
ATOM     18  C14 <0> d   1      18.741  -3.044  11.858  0.00  0.00     0.064 C 
BRANCH  18  19
ATOM     19  C15 <0> d   1      17.472  -3.408  11.082  0.00  0.00     0.155 A 
ATOM     20  C21 <0> d   1      17.743  -3.424   9.593  0.00  0.00     0.261 A 
ATOM     21  N20 <0> d   1      17.550  -4.610   9.032  0.00  0.00    -0.167 NA
ATOM     22  O22 <0> d   1      18.104  -2.448   8.972  0.00  0.00    -0.270 OA
ATOM     23  C18 <0> d   1      17.150  -5.661   9.751  0.00  0.00     0.309 A 
ATOM     24  S17 <0> d   1      16.973  -5.127  11.432  0.00  0.00    -0.052 SA
ATOM     25  O19 <0> d   1      16.946  -6.783   9.328  0.00  0.00    -0.258 OA
ENDBRANCH  18  19
ENDBRANCH   4  18
TORSDOF 7
ENDMDL
MODEL 9
REMARK VINA RESULT:      -7.4      4.223      6.255
REMARK  7 active torsions:
REMARK  status: ('A' for Active; 'I' for Inactive)
REMARK    1  A    between atoms: C2_2  and  C3_3 
REMARK    2  A    between atoms: C6_6  and  C7_7 
REMARK    3  A    between atoms: C7_7  and  C8_8 
REMARK    4  A    between atoms: C8_8  and  O9_9 
REMARK    5  A    between atoms: O9_9  and  C10_10 
REMARK    6  A    between atoms: C13_13  and  C14_14 
REMARK    7  A    between atoms: C14_14  and  C15_15 
ROOT
ATOM      1  C10 <0> d   1      18.908  -5.074   9.986  0.00  0.00     0.068 A 
ATOM      2  C11 <0> d   1      19.993  -4.506  10.640  0.00  0.00     0.037 A 
ATOM      3  C12 <0> d   1      19.791  -3.526  11.591  0.00  0.00     0.010 A 
ATOM      4  C13 <0> d   1      18.507  -3.111  11.894  0.00  0.00    -0.056 A 
ATOM      5  C23 <0> d   1      17.425  -3.674  11.245  0.00  0.00     0.010 A 
ATOM      6  C24 <0> d   1      17.622  -4.650  10.288  0.00  0.00     0.037 A 
ENDROOT
BRANCH   1   7
ATOM      7  O9  <0> d   1      19.106  -6.037   9.049  0.00  0.00    -0.351 OA
BRANCH   7   8
ATOM      8  C8  <0> d   1      19.844  -5.667   7.883  0.00  0.00     0.181 C 
BRANCH   8   9
ATOM      9  C7  <0> d   1      18.874  -5.385   6.733  0.00  0.00     0.086 C 
BRANCH   9  10
ATOM     10  C6  <0> d   1      18.996  -3.943   6.315  0.00  0.00     0.036 A 
ATOM     11  C5  <0> d   1      19.194  -2.968   7.274  0.00  0.00     0.028 A 
ATOM     12  C4  <0> d   1      19.305  -1.644   6.879  0.00  0.00     0.010 A 
ATOM     13  C3  <0> d   1      19.213  -1.348   5.528  0.00  0.00    -0.041 A 
ATOM     14  C26 <0> d   1      19.009  -2.377   4.627  0.00  0.00     0.124 A 
ATOM     15  N25 <0> d   1      18.914  -3.625   5.038  0.00  0.00    -0.265 NA
BRANCH  13  16
ATOM     16  C2  <0> d   1      19.327   0.076   5.048  0.00  0.00     0.035 C 
ATOM     17  C1  <0> d   1      18.959   1.029   6.187  0.00  0.00     0.010 C 
ENDBRANCH  13  16
ENDBRANCH   9  10
ENDBRANCH   8   9
ENDBRANCH   7   8
ENDBRANCH   1   7
BRANCH   4  18
ATOM     18  C14 <0> d   1      18.288  -2.042  12.934  0.00  0.00     0.064 C 
BRANCH  18  19
ATOM     19  C15 <0> d   1      18.567  -0.668  12.319  0.00  0.00     0.155 A 
ATOM     20  C21 <0> d   1      17.328   0.201  12.369  0.00  0.00     0.261 A 
ATOM     21  N20 <0> d   1      17.483   1.302  13.091  0.00  0.00    -0.167 NA
ATOM     22  O22 <0> d   1      16.293  -0.083  11.806  0.00  0.00    -0.270 OA
ATOM     23  C18 <0> d   1      18.640   1.580  13.695  0.00  0.00     0.309 A 
ATOM     24  S17 <0> d   1      19.767   0.261  13.330  0.00  0.00    -0.052 SA
ATOM     25  O19 <0> d   1      18.878   2.561  14.373  0.00  0.00    -0.258 OA
ENDBRANCH  18  19
ENDBRANCH   4  18
TORSDOF 7
ENDMDL
