MODEL 1
REMARK VINA RESULT:      -9.7      0.000      0.000
REMARK  0 active torsions:
REMARK  status: ('A' for Active; 'I' for Inactive)
ROOT
ATOM      1  N1  <0> d   1      21.615  -0.586  10.979  0.00  0.00    -0.235 N 
ATOM      2  H2  <0> d   1      21.520  -0.899  10.066  0.00  0.00     0.174 HD
ATOM      3  H3  <0> d   1      22.441  -0.745  11.463  0.00  0.00     0.174 HD
ATOM      4  C4  <0> d   1      20.634   0.051  11.555  0.00  0.00     0.675 A 
ATOM      5  N5  <0> d   1      20.688   0.530  12.835  0.00  0.00    -0.224 N 
ATOM      6  C6  <0> d   1      19.421   1.208  13.145  0.00  0.00     0.169 A 
ATOM      7  C7  <0> d   1      18.594   1.079  11.850  0.00  0.00     0.160 A 
ATOM      8  C9  <0> d   1      18.223   2.449  11.363  0.00  0.00    -0.026 A 
ATOM      9  C10 <0> d   1      17.625   3.263  12.330  0.00  0.00     0.010 A 
ATOM     10  C11 <0> d   1      17.182   4.530  12.030  0.00  0.00     0.001 A 
ATOM     11  C12 <0> d   1      17.325   5.006  10.740  0.00  0.00     0.001 A 
ATOM     12  C13 <0> d   1      17.930   4.215   9.792  0.00  0.00     0.008 A 
ATOM     13  C14 <0> d   1      18.411   2.936  10.099  0.00  0.00    -0.045 A 
ATOM     14  C15 <0> d   1      19.152   2.280   8.979  0.00  0.00     0.080 C 
ATOM     15  C16 <0> d   1      18.790   0.858   8.702  0.00  0.00    -0.026 A 
ATOM     16  C17 <0> d   1      18.203   0.489   7.508  0.00  0.00     0.010 A 
ATOM     17  C18 <0> d   1      17.951  -0.847   7.249  0.00  0.00     0.001 A 
ATOM     18  C19 <0> d   1      18.292  -1.813   8.177  0.00  0.00     0.002 A 
ATOM     19  C20 <0> d   1      18.852  -1.445   9.386  0.00  0.00     0.031 A 
ATOM     20  C21 <0> d   1      19.064  -0.101   9.663  0.00  0.00     0.059 A 
ATOM     21  N22 <0> d   1      19.435   0.322  10.940  0.00  0.00    -0.173 N 
ATOM     22  H23 <0> d   1      21.439   0.437  13.441  0.00  0.00     0.177 HD
ENDROOT
TORSDOF 0
ENDMDL
MODEL 2
REMARK VINA RESULT:      -8.5      2.616      6.000
REMARK  0 active torsions:
REMARK  status: ('A' for Active; 'I' for Inactive)
ROOT
ATOM      1  N1  <0> d   1      21.613   0.564  12.010  0.00  0.00    -0.235 N 
ATOM      2  H2  <0> d   1      21.428   0.744  12.945  0.00  0.00     0.174 HD
ATOM      3  H3  <0> d   1      22.484   0.772  11.639  0.00  0.00     0.174 HD
ATOM      4  C4  <0> d   1      20.690   0.038  11.253  0.00  0.00     0.675 A 
ATOM      5  N5  <0> d   1      20.870  -0.252   9.928  0.00  0.00    -0.224 N 
ATOM      6  C6  <0> d   1      19.636  -0.850   9.399  0.00  0.00     0.169 A 
ATOM      7  C7  <0> d   1      18.683  -0.890  10.610  0.00  0.00     0.160 A 
ATOM      8  C9  <0> d   1      18.254  -2.308  10.853  0.00  0.00    -0.026 A 
ATOM      9  C10 <0> d   1      17.750  -2.960   9.724  0.00  0.00     0.010 A 
ATOM     10  C11 <0> d   1      17.270  -4.247   9.790  0.00  0.00     0.001 A 
ATOM     11  C12 <0> d   1      17.277  -4.906  11.006  0.00  0.00     0.001 A 
ATOM     12  C13 <0> d   1      17.789  -4.275  12.113  0.00  0.00     0.008 A 
ATOM     13  C14 <0> d   1      18.309  -2.976  12.045  0.00  0.00    -0.045 A 
ATOM     14  C15 <0> d   1      18.937  -2.504  13.316  0.00  0.00     0.080 C 
ATOM     15  C16 <0> d   1      18.559  -1.129  13.760  0.00  0.00    -0.026 A 
ATOM     16  C17 <0> d   1      17.857  -0.923  14.931  0.00  0.00     0.010 A 
ATOM     17  C18 <0> d   1      17.590   0.367  15.356  0.00  0.00     0.001 A 
ATOM     18  C19 <0> d   1      18.031   1.449  14.616  0.00  0.00     0.002 A 
ATOM     19  C20 <0> d   1      18.708   1.246  13.428  0.00  0.00     0.031 A 
ATOM     20  C21 <0> d   1      18.938  -0.049  12.981  0.00  0.00     0.059 A 
ATOM     21  N22 <0> d   1      19.433  -0.291  11.699  0.00  0.00    -0.173 N 
ATOM     22  H23 <0> d   1      21.679  -0.089   9.420  0.00  0.00     0.177 HD
ENDROOT
TORSDOF 0
ENDMDL
MODEL 3
REMARK VINA RESULT:      -8.3      2.169      4.672
REMARK  0 active torsions:
REMARK  status: ('A' for Active; 'I' for Inactive)
ROOT
ATOM      1  N1  <0> d   1      21.218  -0.371  10.205  0.00  0.00    -0.235 N 
ATOM      2  H2  <0> d   1      21.128   0.565   9.967  0.00  0.00     0.174 HD
ATOM      3  H3  <0> d   1      21.930  -0.903   9.817  0.00  0.00     0.174 HD
ATOM      4  C4  <0> d   1      20.384  -0.912  11.048  0.00  0.00     0.675 A 
ATOM      5  N5  <0> d   1      20.443  -2.222  11.439  0.00  0.00    -0.224 N 
ATOM      6  C6  <0> d   1      19.367  -2.480  12.407  0.00  0.00     0.169 A 
ATOM      7  C7  <0> d   1      18.652  -1.122  12.553  0.00  0.00     0.160 A 
ATOM      8  C9  <0> d   1      18.686  -0.699  13.992  0.00  0.00    -0.026 A 
ATOM      9  C10 <0> d   1      18.230  -1.670  14.890  0.00  0.00     0.010 A 
ATOM     10  C11 <0> d   1      18.151  -1.421  16.239  0.00  0.00     0.001 A 
ATOM     11  C12 <0> d   1      18.524  -0.179  16.719  0.00  0.00     0.001 A 
ATOM     12  C13 <0> d   1      18.990   0.771  15.842  0.00  0.00     0.008 A 
ATOM     13  C14 <0> d   1      19.102   0.513  14.470  0.00  0.00    -0.045 A 
ATOM     14  C15 <0> d   1      19.749   1.615  13.694  0.00  0.00     0.080 C 
ATOM     15  C16 <0> d   1      19.064   2.011  12.428  0.00  0.00    -0.026 A 
ATOM     16  C17 <0> d   1      18.511   3.266  12.275  0.00  0.00     0.010 A 
ATOM     17  C18 <0> d   1      17.953   3.631  11.063  0.00  0.00     0.001 A 
ATOM     18  C19 <0> d   1      17.954   2.745  10.002  0.00  0.00     0.002 A 
ATOM     19  C20 <0> d   1      18.479   1.476  10.159  0.00  0.00     0.031 A 
ATOM     20  C21 <0> d   1      19.000   1.096  11.389  0.00  0.00     0.059 A 
ATOM     21  N22 <0> d   1      19.351  -0.229  11.645  0.00  0.00    -0.173 N 
ATOM     22  H23 <0> d   1      21.089  -2.875  11.129  0.00  0.00     0.177 HD
ENDROOT
TORSDOF 0
ENDMDL
MODEL 4
REMARK VINA RESULT:      -8.3      2.922      4.796
REMARK  0 active torsions:
REMARK  status: ('A' for Active; 'I' for Inactive)
ROOT
ATOM      1  N1  <0> d   1      20.726  -3.367  11.588  0.00  0.00    -0.235 N 
ATOM      2  H2  <0> d   1      20.285  -4.225  11.482  0.00  0.00     0.174 HD
ATOM      3  H3  <0> d   1      21.543  -3.303  12.106  0.00  0.00     0.174 HD
ATOM      4  C4  <0> d   1      20.221  -2.302  11.031  0.00  0.00     0.675 A 
ATOM      5  N5  <0> d   1      20.781  -1.057  11.127  0.00  0.00    -0.224 N 
ATOM      6  C6  <0> d   1      19.961  -0.105  10.365  0.00  0.00     0.169 A 
ATOM      7  C7  <0> d   1      18.823  -0.965   9.780  0.00  0.00     0.160 A 
ATOM      8  C9  <0> d   1      18.833  -0.844   8.284  0.00  0.00    -0.026 A 
ATOM      9  C10 <0> d   1      18.838   0.472   7.811  0.00  0.00     0.010 A 
ATOM     10  C11 <0> d   1      18.798   0.753   6.466  0.00  0.00     0.001 A 
ATOM     11  C12 <0> d   1      18.742  -0.290   5.561  0.00  0.00     0.001 A 
ATOM     12  C13 <0> d   1      18.755  -1.584   6.022  0.00  0.00     0.008 A 
ATOM     13  C14 <0> d   1      18.828  -1.878   7.389  0.00  0.00    -0.045 A 
ATOM     14  C15 <0> d   1      18.964  -3.335   7.693  0.00  0.00     0.080 C 
ATOM     15  C16 <0> d   1      18.071  -3.864   8.767  0.00  0.00    -0.026 A 
ATOM     16  C17 <0> d   1      17.093  -4.798   8.489  0.00  0.00     0.010 A 
ATOM     17  C18 <0> d   1      16.334  -5.327   9.518  0.00  0.00     0.001 A 
ATOM     18  C19 <0> d   1      16.557  -4.930  10.823  0.00  0.00     0.002 A 
ATOM     19  C20 <0> d   1      17.515  -3.973  11.102  0.00  0.00     0.031 A 
ATOM     20  C21 <0> d   1      18.246  -3.410  10.064  0.00  0.00     0.059 A 
ATOM     21  N22 <0> d   1      19.071  -2.306  10.279  0.00  0.00    -0.173 N 
ATOM     22  H23 <0> d   1      21.587  -0.838  11.619  0.00  0.00     0.177 HD
ENDROOT
TORSDOF 0
ENDMDL
MODEL 5
REMARK VINA RESULT:      -8.2      2.077      3.907
REMARK  0 active torsions:
REMARK  status: ('A' for Active; 'I' for Inactive)
ROOT
ATOM      1  N1  <0> d   1      17.681   4.396   9.967  0.00  0.00    -0.235 N 
ATOM      2  H2  <0> d   1      17.322   4.014   9.151  0.00  0.00     0.174 HD
ATOM      3  H3  <0> d   1      17.448   5.303  10.220  0.00  0.00     0.174 HD
ATOM      4  C4  <0> d   1      18.472   3.690  10.724  0.00  0.00     0.675 A 
ATOM      5  N5  <0> d   1      19.016   4.151  11.892  0.00  0.00    -0.224 N 
ATOM      6  C6  <0> d   1      19.835   3.087  12.490  0.00  0.00     0.169 A 
ATOM      7  C7  <0> d   1      19.695   1.903  11.512  0.00  0.00     0.160 A 
ATOM      8  C9  <0> d   1      19.141   0.718  12.248  0.00  0.00    -0.026 A 
ATOM      9  C10 <0> d   1      19.829   0.395  13.421  0.00  0.00     0.010 A 
ATOM     10  C11 <0> d   1      19.478  -0.694  14.184  0.00  0.00     0.001 A 
ATOM     11  C12 <0> d   1      18.425  -1.492  13.776  0.00  0.00     0.001 A 
ATOM     12  C13 <0> d   1      17.735  -1.166  12.633  0.00  0.00     0.008 A 
ATOM     13  C14 <0> d   1      18.068  -0.040  11.869  0.00  0.00    -0.045 A 
ATOM     14  C15 <0> d   1      17.128   0.227  10.738  0.00  0.00     0.080 C 
ATOM     15  C16 <0> d   1      17.762   0.530   9.420  0.00  0.00    -0.026 A 
ATOM     16  C17 <0> d   1      17.605  -0.315   8.339  0.00  0.00     0.010 A 
ATOM     17  C18 <0> d   1      18.138   0.032   7.111  0.00  0.00     0.001 A 
ATOM     18  C19 <0> d   1      18.822   1.224   6.960  0.00  0.00     0.002 A 
ATOM     19  C20 <0> d   1      19.008   2.058   8.047  0.00  0.00     0.031 A 
ATOM     20  C21 <0> d   1      18.509   1.689   9.289  0.00  0.00     0.059 A 
ATOM     21  N22 <0> d   1      18.848   2.398  10.441  0.00  0.00    -0.173 N 
ATOM     22  H23 <0> d   1      18.883   5.036  12.265  0.00  0.00     0.177 HD
ENDROOT
TORSDOF 0
ENDMDL
MODEL 6
REMARK VINA RESULT:      -8.1      2.749      5.819
REMARK  0 active torsions:
REMARK  status: ('A' for Active; 'I' for Inactive)
ROOT
ATOM      1  N1  <0> d   1      20.752   3.234  11.483  0.00  0.00    -0.235 N 
ATOM      2  H2  <0> d   1      20.427   4.122  11.696  0.00  0.00     0.174 HD
ATOM      3  H3  <0> d   1      21.570   3.126  10.973  0.00  0.00     0.174 HD
ATOM      4  C4  <0> d   1      20.092   2.184  11.886  0.00  0.00     0.675 A 
ATOM      5  N5  <0> d   1      20.483   0.898  11.633  0.00  0.00    -0.224 N 
ATOM      6  C6  <0> d   1      19.520  -0.024  12.250  0.00  0.00     0.169 A 
ATOM      7  C7  <0> d   1      18.489   0.900  12.928  0.00  0.00     0.160 A 
ATOM      8  C9  <0> d   1      18.434   0.586  14.395  0.00  0.00    -0.026 A 
ATOM      9  C10 <0> d   1      18.248  -0.769  14.688  0.00  0.00     0.010 A 
ATOM     10  C11 <0> d   1      18.127  -1.214  15.983  0.00  0.00     0.001 A 
ATOM     11  C12 <0> d   1      18.181  -0.299  17.018  0.00  0.00     0.001 A 
ATOM     12  C13 <0> d   1      18.383   1.029  16.734  0.00  0.00     0.008 A 
ATOM     13  C14 <0> d   1      18.538   1.485  15.419  0.00  0.00    -0.045 A 
ATOM     14  C15 <0> d   1      18.877   2.938  15.314  0.00  0.00     0.080 C 
ATOM     15  C16 <0> d   1      18.098   3.718  14.307  0.00  0.00    -0.026 A 
ATOM     16  C17 <0> d   1      17.245   4.733  14.692  0.00  0.00     0.010 A 
ATOM     17  C18 <0> d   1      16.597   5.490  13.732  0.00  0.00     0.001 A 
ATOM     18  C19 <0> d   1      16.807   5.239  12.389  0.00  0.00     0.002 A 
ATOM     19  C20 <0> d   1      17.637   4.204  12.000  0.00  0.00     0.031 A 
ATOM     20  C21 <0> d   1      18.252   3.417  12.964  0.00  0.00     0.059 A 
ATOM     21  N22 <0> d   1      18.929   2.248  12.615  0.00  0.00    -0.173 N 
ATOM     22  H23 <0> d   1      21.269   0.636  11.128  0.00  0.00     0.177 HD
ENDROOT
TORSDOF 0
ENDMDL
MODEL 7
REMARK VINA RESULT:      -8.1      1.745      2.304
REMARK  0 active torsions:
REMARK  status: ('A' for Active; 'I' for Inactive)
ROOT
ATOM      1  N1  <0> d   1      20.735  -3.316  11.469  0.00  0.00    -0.235 N 
ATOM      2  H2  <0> d   1      20.881  -3.646  10.569  0.00  0.00     0.174 HD
ATOM      3  H3  <0> d   1      21.277  -3.648  12.201  0.00  0.00     0.174 HD
ATOM      4  C4  <0> d   1      19.812  -2.423  11.694  0.00  0.00     0.675 A 
ATOM      5  N5  <0> d   1      19.545  -1.902  12.931  0.00  0.00    -0.224 N 
ATOM      6  C6  <0> d   1      18.464  -0.914  12.809  0.00  0.00     0.169 A 
ATOM      7  C7  <0> d   1      18.124  -0.905  11.306  0.00  0.00     0.160 A 
ATOM      8  C9  <0> d   1      18.301   0.485  10.768  0.00  0.00    -0.026 A 
ATOM      9  C10 <0> d   1      17.636   1.475  11.498  0.00  0.00     0.010 A 
ATOM     10  C11 <0> d   1      17.658   2.793  11.108  0.00  0.00     0.001 A 
ATOM     11  C12 <0> d   1      18.347   3.146   9.962  0.00  0.00     0.001 A 
ATOM     12  C13 <0> d   1      19.017   2.178   9.254  0.00  0.00     0.008 A 
ATOM     13  C14 <0> d   1      19.025   0.838   9.663  0.00  0.00    -0.045 A 
ATOM     14  C15 <0> d   1      19.912  -0.043   8.844  0.00  0.00     0.080 C 
ATOM     15  C16 <0> d   1      19.318  -1.343   8.411  0.00  0.00    -0.026 A 
ATOM     16  C17 <0> d   1      19.100  -1.621   7.076  0.00  0.00     0.010 A 
ATOM     17  C18 <0> d   1      18.622  -2.864   6.700  0.00  0.00     0.001 A 
ATOM     18  C19 <0> d   1      18.370  -3.831   7.655  0.00  0.00     0.002 A 
ATOM     19  C20 <0> d   1      18.558  -3.547   8.995  0.00  0.00     0.031 A 
ATOM     20  C21 <0> d   1      18.997  -2.285   9.374  0.00  0.00     0.059 A 
ATOM     21  N22 <0> d   1      19.004  -1.898  10.715  0.00  0.00    -0.173 N 
ATOM     22  H23 <0> d   1      19.995  -2.146  13.754  0.00  0.00     0.177 HD
ENDROOT
TORSDOF 0
ENDMDL
MODEL 8
REMARK VINA RESULT:      -8.0      2.854      5.147
REMARK  0 active torsions:
REMARK  status: ('A' for Active; 'I' for Inactive)
ROOT
ATOM      1  N1  <0> d   1      20.716  -1.696  11.124  0.00  0.00    -0.235 N 
ATOM      2  H2  <0> d   1      20.459  -2.620  11.270  0.00  0.00     0.174 HD
ATOM      3  H3  <0> d   1      21.450  -1.311  11.628  0.00  0.00     0.174 HD
ATOM      4  C4  <0> d   1      20.078  -0.973  10.246  0.00  0.00     0.675 A 
ATOM      5  N5  <0> d   1      20.380   0.334   9.976  0.00  0.00    -0.224 N 
ATOM      6  C6  <0> d   1      19.477   0.825   8.926  0.00  0.00     0.169 A 
ATOM      7  C7  <0> d   1      18.588  -0.389   8.590  0.00  0.00     0.160 A 
ATOM      8  C9  <0> d   1      18.727  -0.714   7.131  0.00  0.00    -0.026 A 
ATOM      9  C10 <0> d   1      18.531   0.375   6.276  0.00  0.00     0.010 A 
ATOM     10  C11 <0> d   1      18.575   0.234   4.910  0.00  0.00     0.001 A 
ATOM     11  C12 <0> d   1      18.810  -1.016   4.368  0.00  0.00     0.001 A 
ATOM     12  C13 <0> d   1      19.022  -2.085   5.206  0.00  0.00     0.008 A 
ATOM     13  C14 <0> d   1      19.009  -1.941   6.599  0.00  0.00    -0.045 A 
ATOM     14  C15 <0> d   1      19.387  -3.182   7.342  0.00  0.00     0.080 C 
ATOM     15  C16 <0> d   1      18.505  -3.549   8.491  0.00  0.00    -0.026 A 
ATOM     16  C17 <0> d   1      17.755  -4.708   8.476  0.00  0.00     0.010 A 
ATOM     17  C18 <0> d   1      17.010  -5.060   9.587  0.00  0.00     0.001 A 
ATOM     18  C19 <0> d   1      17.019  -4.259  10.714  0.00  0.00     0.002 A 
ATOM     19  C20 <0> d   1      17.745  -3.082  10.722  0.00  0.00     0.031 A 
ATOM     20  C21 <0> d   1      18.458  -2.708   9.590  0.00  0.00     0.059 A 
ATOM     21  N22 <0> d   1      19.032  -1.441   9.487  0.00  0.00    -0.173 N 
ATOM     22  H23 <0> d   1      21.076   0.853  10.408  0.00  0.00     0.177 HD
ENDROOT
TORSDOF 0
ENDMDL
MODEL 9
REMARK VINA RESULT:      -8.0      4.134      6.241
REMARK  0 active torsions:
REMARK  status: ('A' for Active; 'I' for Inactive)
ROOT
ATOM      1  N1  <0> d   1      16.610  -5.388   8.109  0.00  0.00    -0.235 N 
ATOM      2  H2  <0> d   1      16.736  -5.315   9.068  0.00  0.00     0.174 HD
ATOM      3  H3  <0> d   1      15.912  -5.960   7.754  0.00  0.00     0.174 HD
ATOM      4  C4  <0> d   1      17.374  -4.712   7.298  0.00  0.00     0.675 A 
ATOM      5  N5  <0> d   1      17.259  -4.753   5.935  0.00  0.00    -0.224 N 
ATOM      6  C6  <0> d   1      18.264  -3.857   5.344  0.00  0.00     0.169 A 
ATOM      7  C7  <0> d   1      18.999  -3.255   6.558  0.00  0.00     0.160 A 
ATOM      8  C9  <0> d   1      18.881  -1.759   6.514  0.00  0.00    -0.026 A 
ATOM      9  C10 <0> d   1      19.255  -1.187   5.294  0.00  0.00     0.010 A 
ATOM     10  C11 <0> d   1      19.252   0.175   5.108  0.00  0.00     0.001 A 
ATOM     11  C12 <0> d   1      18.878   0.998   6.155  0.00  0.00     0.001 A 
ATOM     12  C13 <0> d   1      18.492   0.437   7.348  0.00  0.00     0.008 A 
ATOM     13  C14 <0> d   1      18.463  -0.951   7.534  0.00  0.00    -0.045 A 
ATOM     14  C15 <0> d   1      17.894  -1.377   8.849  0.00  0.00     0.080 C 
ATOM     15  C16 <0> d   1      18.669  -2.417   9.589  0.00  0.00    -0.026 A 
ATOM     16  C17 <0> d   1      19.260  -2.139  10.805  0.00  0.00     0.010 A 
ATOM     17  C18 <0> d   1      19.904  -3.145  11.504  0.00  0.00     0.001 A 
ATOM     18  C19 <0> d   1      19.951  -4.428  10.992  0.00  0.00     0.002 A 
ATOM     19  C20 <0> d   1      19.387  -4.704   9.761  0.00  0.00     0.031 A 
ATOM     20  C21 <0> d   1      18.779  -3.684   9.041  0.00  0.00     0.059 A 
ATOM     21  N22 <0> d   1      18.381  -3.875   7.717  0.00  0.00    -0.173 N 
ATOM     22  H23 <0> d   1      16.620  -5.287   5.439  0.00  0.00     0.177 HD
ENDROOT
TORSDOF 0
ENDMDL
