MODEL 1
REMARK VINA RESULT:      -5.9      0.000      0.000
REMARK  5 active torsions:
REMARK  status: ('A' for Active; 'I' for Inactive)
REMARK    1  A    between atoms: C2_2  and  C3_3 
REMARK    2  A    between atoms: C3_3  and  C4_4 
REMARK    3  A    between atoms: N9_8  and  C10_9 
REMARK    4  A    between atoms: C10_9  and  C12_10 
REMARK    5  A    between atoms: C10_9  and  C14_12 
REMARK       I    between atoms: C14_12  and  N15_13 
ROOT
ATOM      1  C4  ZIN A   1      18.529   1.022   7.517  0.00  0.00     0.012 C 
ATOM      2  C6  ZIN A   1      19.074   2.285   8.223  0.00  0.00     0.109 C 
ATOM      3  C7  ZIN A   1      19.151   1.892   9.680  0.00  0.00     0.221 C 
ATOM      4  O8  ZIN A   1      19.261   2.670  10.605  0.00  0.00    -0.273 OA
ATOM      5  N9  ZIN A   1      19.081   0.555   9.804  0.00  0.00    -0.338 N 
ATOM      6  C17 ZIN A   1      18.961  -0.095   8.493  0.00  0.00     0.132 C 
ENDROOT
BRANCH   5   7
ATOM      7  C10 ZIN A   1      19.117  -0.160  11.081  0.00  0.00     0.178 C 
BRANCH   7   8
ATOM      8  C12 ZIN A   1      17.823  -0.955  11.257  0.00  0.00     0.030 C 
ATOM      9  C13 ZIN A   1      16.723  -0.031  11.784  0.00  0.00     0.007 C 
ENDBRANCH   7   8
BRANCH   7  10
ATOM     10  C14 ZIN A   1      20.293  -1.103  11.096  0.00  0.00     0.238 C 
ATOM     11  N15 ZIN A   1      21.545  -0.622  10.972  0.00  0.00    -0.368 N 
ATOM     12  H32 ZIN A   1      21.690   0.332  10.873  0.00  0.00     0.159 HD
ATOM     13  H33 ZIN A   1      22.301  -1.229  10.982  0.00  0.00     0.159 HD
ATOM     14  O16 ZIN A   1      20.111  -2.296  11.220  0.00  0.00    -0.271 OA
ENDBRANCH   7  10
ENDBRANCH   5   7
BRANCH   1  15
ATOM     15  C3  ZIN A   1      19.184   0.834   6.147  0.00  0.00     0.006 C 
BRANCH  15  16
ATOM     16  C2  ZIN A   1      18.268  -0.007   5.255  0.00  0.00    -0.004 C 
ATOM     17  C1  ZIN A   1      19.077  -1.137   4.614  0.00  0.00     0.005 C 
ENDBRANCH  15  16
ENDBRANCH   1  15
TORSDOF 5
ENDMDL
MODEL 2
REMARK VINA RESULT:      -5.7      3.839      4.848
REMARK  5 active torsions:
REMARK  status: ('A' for Active; 'I' for Inactive)
REMARK    1  A    between atoms: C2_2  and  C3_3 
REMARK    2  A    between atoms: C3_3  and  C4_4 
REMARK    3  A    between atoms: N9_8  and  C10_9 
REMARK    4  A    between atoms: C10_9  and  C12_10 
REMARK    5  A    between atoms: C10_9  and  C14_12 
REMARK       I    between atoms: C14_12  and  N15_13 
ROOT
ATOM      1  C4  ZIN A   1      18.742  -3.806  11.780  0.00  0.00     0.012 C 
ATOM      2  C6  ZIN A   1      17.470  -3.125  11.224  0.00  0.00     0.109 C 
ATOM      3  C7  ZIN A   1      17.543  -1.712  11.757  0.00  0.00     0.221 C 
ATOM      4  O8  ZIN A   1      16.613  -0.933  11.790  0.00  0.00    -0.273 OA
ATOM      5  N9  ZIN A   1      18.787  -1.444  12.189  0.00  0.00    -0.338 N 
ATOM      6  C17 ZIN A   1      19.676  -2.596  12.001  0.00  0.00     0.132 C 
ENDROOT
BRANCH   5   7
ATOM      7  C10 ZIN A   1      19.201  -0.167  12.775  0.00  0.00     0.178 C 
BRANCH   7   8
ATOM      8  C12 ZIN A   1      19.854  -0.418  14.135  0.00  0.00     0.030 C 
ATOM      9  C13 ZIN A   1      18.794  -0.889  15.132  0.00  0.00     0.007 C 
ENDBRANCH   7   8
BRANCH   7  10
ATOM     10  C14 ZIN A   1      20.189   0.509  11.860  0.00  0.00     0.238 C 
ATOM     11  N15 ZIN A   1      21.498   0.536  12.182  0.00  0.00    -0.368 N 
ATOM     12  H32 ZIN A   1      21.803   0.119  13.004  0.00  0.00     0.159 HD
ATOM     13  H33 ZIN A   1      22.133   0.970  11.593  0.00  0.00     0.159 HD
ATOM     14  O16 ZIN A   1      19.807   1.029  10.833  0.00  0.00    -0.271 OA
ENDBRANCH   7  10
ENDBRANCH   5   7
BRANCH   1  15
ATOM     15  C3  ZIN A   1      19.336  -4.776  10.756  0.00  0.00     0.006 C 
BRANCH  15  16
ATOM     16  C2  ZIN A   1      18.206  -5.543  10.065  0.00  0.00    -0.004 C 
ATOM     17  C1  ZIN A   1      18.760  -6.276   8.842  0.00  0.00     0.005 C 
ENDBRANCH  15  16
ENDBRANCH   1  15
TORSDOF 5
ENDMDL
MODEL 3
REMARK VINA RESULT:      -5.6      2.433      4.859
REMARK  5 active torsions:
REMARK  status: ('A' for Active; 'I' for Inactive)
REMARK    1  A    between atoms: C2_2  and  C3_3 
REMARK    2  A    between atoms: C3_3  and  C4_4 
REMARK    3  A    between atoms: N9_8  and  C10_9 
REMARK    4  A    between atoms: C10_9  and  C12_10 
REMARK    5  A    between atoms: C10_9  and  C14_12 
REMARK       I    between atoms: C14_12  and  N15_13 
ROOT
ATOM      1  C4  ZIN A   1      19.169  -1.350  12.054  0.00  0.00     0.012 C 
ATOM      2  C6  ZIN A   1      17.641  -1.363  12.289  0.00  0.00     0.109 C 
ATOM      3  C7  ZIN A   1      17.108  -0.331  11.320  0.00  0.00     0.221 C 
ATOM      4  O8  ZIN A   1      16.003   0.168  11.374  0.00  0.00    -0.273 OA
ATOM      5  N9  ZIN A   1      18.036  -0.047  10.390  0.00  0.00    -0.338 N 
ATOM      6  C17 ZIN A   1      19.261  -0.828  10.603  0.00  0.00     0.132 C 
ENDROOT
BRANCH   5   7
ATOM      7  C10 ZIN A   1      17.851   0.919   9.305  0.00  0.00     0.178 C 
BRANCH   7   8
ATOM      8  C12 ZIN A   1      18.922   2.008   9.403  0.00  0.00     0.030 C 
ATOM      9  C13 ZIN A   1      18.410   3.150  10.282  0.00  0.00     0.007 C 
ENDBRANCH   7   8
BRANCH   7  10
ATOM     10  C14 ZIN A   1      17.970   0.215   7.978  0.00  0.00     0.238 C 
ATOM     11  N15 ZIN A   1      17.000  -0.629   7.573  0.00  0.00    -0.368 N 
ATOM     12  H32 ZIN A   1      16.225  -0.782   8.137  0.00  0.00     0.159 HD
ATOM     13  H33 ZIN A   1      17.076  -1.081   6.719  0.00  0.00     0.159 HD
ATOM     14  O16 ZIN A   1      18.939   0.407   7.274  0.00  0.00    -0.271 OA
ENDBRANCH   7  10
ENDBRANCH   5   7
BRANCH   1  15
ATOM     15  C3  ZIN A   1      19.751  -2.761  12.166  0.00  0.00     0.006 C 
BRANCH  15  16
ATOM     16  C2  ZIN A   1      18.790  -3.762  11.519  0.00  0.00    -0.004 C 
ATOM     17  C1  ZIN A   1      19.570  -4.688  10.584  0.00  0.00     0.005 C 
ENDBRANCH  15  16
ENDBRANCH   1  15
TORSDOF 5
ENDMDL
MODEL 4
REMARK VINA RESULT:      -5.6      4.126      6.502
REMARK  5 active torsions:
REMARK  status: ('A' for Active; 'I' for Inactive)
REMARK    1  A    between atoms: C2_2  and  C3_3 
REMARK    2  A    between atoms: C3_3  and  C4_4 
REMARK    3  A    between atoms: N9_8  and  C10_9 
REMARK    4  A    between atoms: C10_9  and  C12_10 
REMARK    5  A    between atoms: C10_9  and  C14_12 
REMARK       I    between atoms: C14_12  and  N15_13 
ROOT
ATOM      1  C4  ZIN A   1      17.983  -0.033  14.401  0.00  0.00     0.012 C 
ATOM      2  C6  ZIN A   1      17.432  -0.527  13.043  0.00  0.00     0.109 C 
ATOM      3  C7  ZIN A   1      17.411   0.712  12.178  0.00  0.00     0.221 C 
ATOM      4  O8  ZIN A   1      16.793   0.824  11.139  0.00  0.00    -0.273 OA
ATOM      5  N9  ZIN A   1      18.174   1.673  12.726  0.00  0.00    -0.338 N 
ATOM      6  C17 ZIN A   1      18.789   1.215  13.978  0.00  0.00     0.132 C 
ENDROOT
BRANCH   5   7
ATOM      7  C10 ZIN A   1      18.366   3.005  12.150  0.00  0.00     0.178 C 
BRANCH   7   8
ATOM      8  C12 ZIN A   1      18.625   4.013  13.271  0.00  0.00     0.030 C 
ATOM      9  C13 ZIN A   1      17.369   4.855  13.502  0.00  0.00     0.007 C 
ENDBRANCH   7   8
BRANCH   7  10
ATOM     10  C14 ZIN A   1      19.546   2.983  11.212  0.00  0.00     0.238 C 
ATOM     11  N15 ZIN A   1      20.783   3.247  11.678  0.00  0.00    -0.368 N 
ATOM     12  H32 ZIN A   1      20.913   3.452  12.617  0.00  0.00     0.159 HD
ATOM     13  H33 ZIN A   1      21.541   3.232  11.074  0.00  0.00     0.159 HD
ATOM     14  O16 ZIN A   1      19.382   2.727  10.038  0.00  0.00    -0.271 OA
ENDBRANCH   7  10
ENDBRANCH   5   7
BRANCH   1  15
ATOM     15  C3  ZIN A   1      18.895  -1.084  15.037  0.00  0.00     0.006 C 
BRANCH  15  16
ATOM     16  C2  ZIN A   1      18.265  -1.586  16.338  0.00  0.00    -0.004 C 
ATOM     17  C1  ZIN A   1      17.155  -0.626  16.771  0.00  0.00     0.005 C 
ENDBRANCH  15  16
ENDBRANCH   1  15
TORSDOF 5
ENDMDL
MODEL 5
REMARK VINA RESULT:      -5.6      1.786      2.084
REMARK  5 active torsions:
REMARK  status: ('A' for Active; 'I' for Inactive)
REMARK    1  A    between atoms: C2_2  and  C3_3 
REMARK    2  A    between atoms: C3_3  and  C4_4 
REMARK    3  A    between atoms: N9_8  and  C10_9 
REMARK    4  A    between atoms: C10_9  and  C12_10 
REMARK    5  A    between atoms: C10_9  and  C14_12 
REMARK       I    between atoms: C14_12  and  N15_13 
ROOT
ATOM      1  C4  ZIN A   1      18.419   0.832   8.586  0.00  0.00     0.012 C 
ATOM      2  C6  ZIN A   1      18.083   2.041   9.490  0.00  0.00     0.109 C 
ATOM      3  C7  ZIN A   1      18.241   1.507  10.896  0.00  0.00     0.221 C 
ATOM      4  O8  ZIN A   1      17.806   2.042  11.895  0.00  0.00    -0.273 OA
ATOM      5  N9  ZIN A   1      18.932   0.355  10.879  0.00  0.00    -0.338 N 
ATOM      6  C17 ZIN A   1      19.320  -0.014   9.512  0.00  0.00     0.132 C 
ENDROOT
BRANCH   5   7
ATOM      7  C10 ZIN A   1      19.256  -0.433  12.070  0.00  0.00     0.178 C 
BRANCH   7   8
ATOM      8  C12 ZIN A   1      19.729  -1.825  11.649  0.00  0.00     0.030 C 
ATOM      9  C13 ZIN A   1      18.693  -2.867  12.076  0.00  0.00     0.007 C 
ENDBRANCH   7   8
BRANCH   7  10
ATOM     10  C14 ZIN A   1      20.349   0.255  12.847  0.00  0.00     0.238 C 
ATOM     11  N15 ZIN A   1      21.497   0.602  12.232  0.00  0.00    -0.368 N 
ATOM     12  H32 ZIN A   1      21.620   0.408  11.289  0.00  0.00     0.159 HD
ATOM     13  H33 ZIN A   1      22.200   1.045  12.732  0.00  0.00     0.159 HD
ATOM     14  O16 ZIN A   1      20.195   0.497  14.026  0.00  0.00    -0.271 OA
ENDBRANCH   7  10
ENDBRANCH   5   7
BRANCH   1  15
ATOM     15  C3  ZIN A   1      19.182   1.278   7.337  0.00  0.00     0.006 C 
BRANCH  15  16
ATOM     16  C2  ZIN A   1      18.434   0.809   6.087  0.00  0.00    -0.004 C 
ATOM     17  C1  ZIN A   1      17.261  -0.084   6.499  0.00  0.00     0.005 C 
ENDBRANCH  15  16
ENDBRANCH   1  15
TORSDOF 5
ENDMDL
MODEL 6
REMARK VINA RESULT:      -5.6      4.050      7.295
REMARK  5 active torsions:
REMARK  status: ('A' for Active; 'I' for Inactive)
REMARK    1  A    between atoms: C2_2  and  C3_3 
REMARK    2  A    between atoms: C3_3  and  C4_4 
REMARK    3  A    between atoms: N9_8  and  C10_9 
REMARK    4  A    between atoms: C10_9  and  C12_10 
REMARK    5  A    between atoms: C10_9  and  C14_12 
REMARK       I    between atoms: C14_12  and  N15_13 
ROOT
ATOM      1  C4  ZIN A   1      18.523   0.134  16.074  0.00  0.00     0.012 C 
ATOM      2  C6  ZIN A   1      18.623  -1.322  15.562  0.00  0.00     0.109 C 
ATOM      3  C7  ZIN A   1      18.682  -1.182  14.058  0.00  0.00     0.221 C 
ATOM      4  O8  ZIN A   1      18.485  -2.083  13.268  0.00  0.00    -0.273 OA
ATOM      5  N9  ZIN A   1      18.985   0.083  13.722  0.00  0.00    -0.338 N 
ATOM      6  C17 ZIN A   1      19.168   0.921  14.913  0.00  0.00     0.132 C 
ENDROOT
BRANCH   5   7
ATOM      7  C10 ZIN A   1      19.113   0.565  12.345  0.00  0.00     0.178 C 
BRANCH   7   8
ATOM      8  C12 ZIN A   1      19.036   2.093  12.329  0.00  0.00     0.030 C 
ATOM      9  C13 ZIN A   1      17.839   2.535  11.486  0.00  0.00     0.007 C 
ENDBRANCH   7   8
BRANCH   7  10
ATOM     10  C14 ZIN A   1      20.437   0.123  11.778  0.00  0.00     0.238 C 
ATOM     11  N15 ZIN A   1      21.581   0.677  12.226  0.00  0.00    -0.368 N 
ATOM     12  H32 ZIN A   1      21.551   1.361  12.914  0.00  0.00     0.159 HD
ATOM     13  H33 ZIN A   1      22.433   0.392  11.862  0.00  0.00     0.159 HD
ATOM     14  O16 ZIN A   1      20.474  -0.732  10.918  0.00  0.00    -0.271 OA
ENDBRANCH   7  10
ENDBRANCH   5   7
BRANCH   1  15
ATOM     15  C3  ZIN A   1      19.320   0.315  17.368  0.00  0.00     0.006 C 
BRANCH  15  16
ATOM     16  C2  ZIN A   1      18.384   0.163  18.569  0.00  0.00    -0.004 C 
ATOM     17  C1  ZIN A   1      17.491   1.400  18.680  0.00  0.00     0.005 C 
ENDBRANCH  15  16
ENDBRANCH   1  15
TORSDOF 5
ENDMDL
MODEL 7
REMARK VINA RESULT:      -5.5      2.218      2.709
REMARK  5 active torsions:
REMARK  status: ('A' for Active; 'I' for Inactive)
REMARK    1  A    between atoms: C2_2  and  C3_3 
REMARK    2  A    between atoms: C3_3  and  C4_4 
REMARK    3  A    between atoms: N9_8  and  C10_9 
REMARK    4  A    between atoms: C10_9  and  C12_10 
REMARK    5  A    between atoms: C10_9  and  C14_12 
REMARK       I    between atoms: C14_12  and  N15_13 
ROOT
ATOM      1  C4  ZIN A   1      18.061   0.164   8.697  0.00  0.00     0.012 C 
ATOM      2  C6  ZIN A   1      17.292   0.904   9.816  0.00  0.00     0.109 C 
ATOM      3  C7  ZIN A   1      17.053  -0.157  10.866  0.00  0.00     0.221 C 
ATOM      4  O8  ZIN A   1      16.249  -0.070  11.771  0.00  0.00    -0.273 OA
ATOM      5  N9  ZIN A   1      17.860  -1.210  10.652  0.00  0.00    -0.338 N 
ATOM      6  C17 ZIN A   1      18.717  -0.995   9.479  0.00  0.00     0.132 C 
ENDROOT
BRANCH   5   7
ATOM      7  C10 ZIN A   1      17.880  -2.418  11.480  0.00  0.00     0.178 C 
BRANCH   7   8
ATOM      8  C12 ZIN A   1      17.575  -3.639  10.609  0.00  0.00     0.030 C 
ATOM      9  C13 ZIN A   1      16.761  -4.651  11.417  0.00  0.00     0.007 C 
ENDBRANCH   7   8
BRANCH   7  10
ATOM     10  C14 ZIN A   1      19.241  -2.576  12.107  0.00  0.00     0.238 C 
ATOM     11  N15 ZIN A   1      19.622  -1.757  13.107  0.00  0.00    -0.368 N 
ATOM     12  H32 ZIN A   1      19.020  -1.065  13.423  0.00  0.00     0.159 HD
ATOM     13  H33 ZIN A   1      20.498  -1.859  13.510  0.00  0.00     0.159 HD
ATOM     14  O16 ZIN A   1      19.995  -3.441  11.711  0.00  0.00    -0.271 OA
ENDBRANCH   7  10
ENDBRANCH   5   7
BRANCH   1  15
ATOM     15  C3  ZIN A   1      19.123   1.071   8.071  0.00  0.00     0.006 C 
BRANCH  15  16
ATOM     16  C2  ZIN A   1      18.934   1.104   6.553  0.00  0.00    -0.004 C 
ATOM     17  C1  ZIN A   1      17.681   0.311   6.177  0.00  0.00     0.005 C 
ENDBRANCH  15  16
ENDBRANCH   1  15
TORSDOF 5
ENDMDL
MODEL 8
REMARK VINA RESULT:      -5.4      3.564      6.786
REMARK  5 active torsions:
REMARK  status: ('A' for Active; 'I' for Inactive)
REMARK    1  A    between atoms: C2_2  and  C3_3 
REMARK    2  A    between atoms: C3_3  and  C4_4 
REMARK    3  A    between atoms: N9_8  and  C10_9 
REMARK    4  A    between atoms: C10_9  and  C12_10 
REMARK    5  A    between atoms: C10_9  and  C14_12 
REMARK       I    between atoms: C14_12  and  N15_13 
ROOT
ATOM      1  C4  ZIN A   1      18.095  -0.227  14.141  0.00  0.00     0.012 C 
ATOM      2  C6  ZIN A   1      19.614  -0.441  13.947  0.00  0.00     0.109 C 
ATOM      3  C7  ZIN A   1      20.005   0.592  12.915  0.00  0.00     0.221 C 
ATOM      4  O8  ZIN A   1      21.039   0.582  12.278  0.00  0.00    -0.273 OA
ATOM      5  N9  ZIN A   1      19.042   1.523  12.804  0.00  0.00    -0.338 N 
ATOM      6  C17 ZIN A   1      17.928   1.249  13.719  0.00  0.00     0.132 C 
ENDROOT
BRANCH   5   7
ATOM      7  C10 ZIN A   1      19.097   2.663  11.886  0.00  0.00     0.178 C 
BRANCH   7   8
ATOM      8  C12 ZIN A   1      17.997   2.523  10.832  0.00  0.00     0.030 C 
ATOM      9  C13 ZIN A   1      18.624   2.161   9.485  0.00  0.00     0.007 C 
ENDBRANCH   7   8
BRANCH   7  10
ATOM     10  C14 ZIN A   1      18.892   3.941  12.659  0.00  0.00     0.238 C 
ATOM     11  N15 ZIN A   1      19.840   4.370  13.516  0.00  0.00    -0.368 N 
ATOM     12  H32 ZIN A   1      20.654   3.855  13.635  0.00  0.00     0.159 HD
ATOM     13  H33 ZIN A   1      19.708   5.192  14.013  0.00  0.00     0.159 HD
ATOM     14  O16 ZIN A   1      17.874   4.584  12.509  0.00  0.00    -0.271 OA
ENDBRANCH   7  10
ENDBRANCH   5   7
BRANCH   1  15
ATOM     15  C3  ZIN A   1      17.696  -0.427  15.605  0.00  0.00     0.006 C 
BRANCH  15  16
ATOM     16  C2  ZIN A   1      18.804  -1.189  16.335  0.00  0.00    -0.004 C 
ATOM     17  C1  ZIN A   1      19.101  -0.503  17.670  0.00  0.00     0.005 C 
ENDBRANCH  15  16
ENDBRANCH   1  15
TORSDOF 5
ENDMDL
MODEL 9
REMARK VINA RESULT:      -5.4      1.897      2.897
REMARK  5 active torsions:
REMARK  status: ('A' for Active; 'I' for Inactive)
REMARK    1  A    between atoms: C2_2  and  C3_3 
REMARK    2  A    between atoms: C3_3  and  C4_4 
REMARK    3  A    between atoms: N9_8  and  C10_9 
REMARK    4  A    between atoms: C10_9  and  C12_10 
REMARK    5  A    between atoms: C10_9  and  C14_12 
REMARK       I    between atoms: C14_12  and  N15_13 
ROOT
ATOM      1  C4  ZIN A   1      18.819   0.180   8.009  0.00  0.00     0.012 C 
ATOM      2  C6  ZIN A   1      17.360   0.027   8.496  0.00  0.00     0.109 C 
ATOM      3  C7  ZIN A   1      17.418   0.393   9.962  0.00  0.00     0.221 C 
ATOM      4  O8  ZIN A   1      16.555   0.138  10.777  0.00  0.00    -0.273 OA
ATOM      5  N9  ZIN A   1      18.564   1.041  10.232  0.00  0.00    -0.338 N 
ATOM      6  C17 ZIN A   1      19.386   1.194   9.026  0.00  0.00     0.132 C 
ENDROOT
BRANCH   5   7
ATOM      7  C10 ZIN A   1      18.945   1.529  11.559  0.00  0.00     0.178 C 
BRANCH   7   8
ATOM      8  C12 ZIN A   1      20.016   0.613  12.152  0.00  0.00     0.030 C 
ATOM      9  C13 ZIN A   1      19.545   0.089  13.510  0.00  0.00     0.007 C 
ENDBRANCH   7   8
BRANCH   7  10
ATOM     10  C14 ZIN A   1      19.490   2.930  11.442  0.00  0.00     0.238 C 
ATOM     11  N15 ZIN A   1      20.794   3.168  11.685  0.00  0.00    -0.368 N 
ATOM     12  H32 ZIN A   1      21.382   2.438  11.934  0.00  0.00     0.159 HD
ATOM     13  H33 ZIN A   1      21.144   4.069  11.609  0.00  0.00     0.159 HD
ATOM     14  O16 ZIN A   1      18.754   3.843  11.130  0.00  0.00    -0.271 OA
ENDBRANCH   7  10
ENDBRANCH   5   7
BRANCH   1  15
ATOM     15  C3  ZIN A   1      18.865   0.745   6.588  0.00  0.00     0.006 C 
BRANCH  15  16
ATOM     16  C2  ZIN A   1      18.015  -0.130   5.663  0.00  0.00    -0.004 C 
ATOM     17  C1  ZIN A   1      18.924  -0.852   4.666  0.00  0.00     0.005 C 
ENDBRANCH  15  16
ENDBRANCH   1  15
TORSDOF 5
ENDMDL
