MODEL 1
REMARK VINA RESULT:      -8.4      0.000      0.000
REMARK  9 active torsions:
REMARK  status: ('A' for Active; 'I' for Inactive)
REMARK    1  A    between atoms: O2_2  and  C3_3 
REMARK    2  A    between atoms: C8_8  and  O9_9 
REMARK    3  A    between atoms: C14_13  and  O16_14 
REMARK    4  A    between atoms: O16_14  and  C17_15 
REMARK    5  A    between atoms: C17_15  and  C19_17 
REMARK    6  A    between atoms: C19_17  and  N21_18 
REMARK    7  A    between atoms: C19_17  and  C25_22 
REMARK    8  A    between atoms: C28_25  and  C30_26 
REMARK    9  A    between atoms: C30_26  and  C31_27 
ROOT
ATOM      1  C3  ZIN A   1      18.993  -2.778   6.953  0.00  0.00     0.102 A 
ATOM      2  C4  ZIN A   1      18.979  -3.697   7.988  0.00  0.00     0.047 A 
ATOM      3  C5  ZIN A   1      19.109  -3.276   9.302  0.00  0.00    -0.045 A 
ATOM      4  C6  ZIN A   1      19.255  -1.933   9.584  0.00  0.00    -0.018 A 
ATOM      5  C7  ZIN A   1      19.267  -1.008   8.551  0.00  0.00     0.049 A 
ATOM      6  C8  ZIN A   1      19.143  -1.424   7.237  0.00  0.00     0.102 A 
ATOM      7  C11 ZIN A   1      19.407  -1.437  10.996  0.00  0.00     0.224 C 
ATOM      8  C13 ZIN A   1      18.612  -0.143  11.184  0.00  0.00     0.071 C 
ATOM      9  C14 ZIN A   1      18.825   0.372  12.611  0.00  0.00     0.140 C 
ATOM     10  C28 ZIN A   1      18.417  -0.717  13.607  0.00  0.00     0.041 C 
ATOM     11  C34 ZIN A   1      19.214  -1.993  13.322  0.00  0.00     0.243 C 
ATOM     12  N35 ZIN A   1      18.927  -2.437  11.952  0.00  0.00    -0.062 N 
ATOM     13  H36 ZIN A   1      17.933  -2.570  11.845  0.00  0.00     0.280 HD
ATOM     14  C37 ZIN A   1      19.620  -3.704  11.680  0.00  0.00     0.240 C 
ATOM     15  C38 ZIN A   1      19.082  -4.311  10.397  0.00  0.00     0.067 C 
ENDROOT
BRANCH   9  16
ATOM     16  O16 ZIN A   1      18.014   1.556  12.826  0.00  0.00    -0.314 OA
BRANCH  16  17
ATOM     17  C17 ZIN A   1      18.665   2.708  13.053  0.00  0.00     0.290 C 
ATOM     18  O18 ZIN A   1      18.923   3.042  14.185  0.00  0.00    -0.263 OA
BRANCH  17  19
ATOM     19  C19 ZIN A   1      19.072   3.585  11.897  0.00  0.00     0.285 C 
BRANCH  19  20
ATOM     20  N21 ZIN A   1      20.403   3.182  11.423  0.00  0.00    -0.066 N 
ATOM     21  H22 ZIN A   1      20.304   2.510  10.676  0.00  0.00     0.275 HD
ATOM     22  H23 ZIN A   1      20.898   3.994  11.083  0.00  0.00     0.275 HD
ATOM     23  H24 ZIN A   1      20.920   2.767  12.183  0.00  0.00     0.275 HD
ENDBRANCH  19  20
BRANCH  19  24
ATOM     24  C25 ZIN A   1      18.058   3.435  10.761  0.00  0.00     0.018 C 
ATOM     25  C26 ZIN A   1      17.427   4.795  10.457  0.00  0.00     0.012 C 
ATOM     26  C27 ZIN A   1      18.766   2.909   9.511  0.00  0.00     0.012 C 
ENDBRANCH  19  24
ENDBRANCH  17  19
ENDBRANCH  16  17
ENDBRANCH   9  16
BRANCH  10  27
ATOM     27  C30 ZIN A   1      18.707  -0.241  15.032  0.00  0.00     0.012 C 
BRANCH  27  28
ATOM     28  C31 ZIN A   1      18.191  -1.278  16.031  0.00  0.00    -0.022 C 
ATOM     29  C32 ZIN A   1      19.306  -1.634  17.017  0.00  0.00     0.009 C 
ATOM     30  C33 ZIN A   1      16.999  -0.699  16.796  0.00  0.00     0.009 C 
ENDBRANCH  27  28
ENDBRANCH  10  27
BRANCH   6  31
ATOM     31  O9  ZIN A   1      19.157  -0.512   6.227  0.00  0.00    -0.353 OA
ATOM     32  C10 ZIN A   1      17.950   0.216   5.995  0.00  0.00     0.210 C 
ENDBRANCH   6  31
BRANCH   1  33
ATOM     33  O2  ZIN A   1      18.867  -3.197   5.666  0.00  0.00    -0.353 OA
ATOM     34  C1  ZIN A   1      18.161  -4.421   5.447  0.00  0.00     0.210 C 
ENDBRANCH   1  33
TORSDOF 9
ENDMDL
MODEL 2
REMARK VINA RESULT:      -8.3      1.569      2.212
REMARK  9 active torsions:
REMARK  status: ('A' for Active; 'I' for Inactive)
REMARK    1  A    between atoms: O2_2  and  C3_3 
REMARK    2  A    between atoms: C8_8  and  O9_9 
REMARK    3  A    between atoms: C14_13  and  O16_14 
REMARK    4  A    between atoms: O16_14  and  C17_15 
REMARK    5  A    between atoms: C17_15  and  C19_17 
REMARK    6  A    between atoms: C19_17  and  N21_18 
REMARK    7  A    between atoms: C19_17  and  C25_22 
REMARK    8  A    between atoms: C28_25  and  C30_26 
REMARK    9  A    between atoms: C30_26  and  C31_27 
ROOT
ATOM      1  C3  ZIN A   1      18.770  -3.343   5.559  0.00  0.00     0.102 A 
ATOM      2  C4  ZIN A   1      18.320  -4.113   6.617  0.00  0.00     0.047 A 
ATOM      3  C5  ZIN A   1      18.263  -3.582   7.896  0.00  0.00    -0.045 A 
ATOM      4  C6  ZIN A   1      18.660  -2.280   8.120  0.00  0.00    -0.018 A 
ATOM      5  C7  ZIN A   1      19.110  -1.504   7.063  0.00  0.00     0.049 A 
ATOM      6  C8  ZIN A   1      19.173  -2.030   5.785  0.00  0.00     0.102 A 
ATOM      7  C11 ZIN A   1      18.622  -1.671   9.495  0.00  0.00     0.224 C 
ATOM      8  C13 ZIN A   1      18.134  -0.222   9.411  0.00  0.00     0.071 C 
ATOM      9  C14 ZIN A   1      18.156   0.393  10.814  0.00  0.00     0.140 C 
ATOM     10  C28 ZIN A   1      17.299  -0.460  11.753  0.00  0.00     0.041 C 
ATOM     11  C34 ZIN A   1      17.813  -1.902  11.743  0.00  0.00     0.243 C 
ATOM     12  N35 ZIN A   1      17.727  -2.427  10.373  0.00  0.00    -0.062 N 
ATOM     13  H36 ZIN A   1      16.775  -2.353  10.046  0.00  0.00     0.280 HD
ATOM     14  C37 ZIN A   1      18.142  -3.836  10.350  0.00  0.00     0.240 C 
ATOM     15  C38 ZIN A   1      17.760  -4.455   9.017  0.00  0.00     0.067 C 
ENDROOT
BRANCH   9  16
ATOM     16  O16 ZIN A   1      17.621   1.742  10.760  0.00  0.00    -0.314 OA
BRANCH  16  17
ATOM     17  C17 ZIN A   1      18.508   2.746  10.664  0.00  0.00     0.290 C 
ATOM     18  O18 ZIN A   1      18.689   3.291   9.602  0.00  0.00    -0.263 OA
BRANCH  17  19
ATOM     19  C19 ZIN A   1      19.276   3.191  11.881  0.00  0.00     0.285 C 
BRANCH  19  20
ATOM     20  N21 ZIN A   1      20.716   3.170  11.586  0.00  0.00    -0.066 N 
ATOM     21  H22 ZIN A   1      20.858   2.892  10.627  0.00  0.00     0.275 HD
ATOM     22  H23 ZIN A   1      21.102   4.091  11.731  0.00  0.00     0.275 HD
ATOM     23  H24 ZIN A   1      21.174   2.512  12.199  0.00  0.00     0.275 HD
ENDBRANCH  19  20
BRANCH  19  24
ATOM     24  C25 ZIN A   1      18.853   4.612  12.260  0.00  0.00     0.018 C 
ATOM     25  C26 ZIN A   1      17.417   4.594  12.786  0.00  0.00     0.012 C 
ATOM     26  C27 ZIN A   1      19.788   5.150  13.346  0.00  0.00     0.012 C 
ENDBRANCH  19  24
ENDBRANCH  17  19
ENDBRANCH  16  17
ENDBRANCH   9  16
BRANCH  10  27
ATOM     27  C30 ZIN A   1      17.384   0.102  13.174  0.00  0.00     0.012 C 
BRANCH  27  28
ATOM     28  C31 ZIN A   1      18.517  -0.595  13.931  0.00  0.00    -0.022 C 
ATOM     29  C32 ZIN A   1      19.713   0.353  14.042  0.00  0.00     0.009 C 
ATOM     30  C33 ZIN A   1      18.035  -0.975  15.332  0.00  0.00     0.009 C 
ENDBRANCH  27  28
ENDBRANCH  10  27
BRANCH   6  31
ATOM     31  O9  ZIN A   1      19.617  -1.265   4.752  0.00  0.00    -0.353 OA
ATOM     32  C10 ZIN A   1      19.235   0.112   4.755  0.00  0.00     0.210 C 
ENDBRANCH   6  31
BRANCH   1  33
ATOM     33  O2  ZIN A   1      18.825  -3.869   4.306  0.00  0.00    -0.353 OA
ATOM     34  C1  ZIN A   1      17.582  -4.060   3.627  0.00  0.00     0.210 C 
ENDBRANCH   1  33
TORSDOF 9
ENDMDL
MODEL 3
REMARK VINA RESULT:      -7.9      1.169      1.722
REMARK  9 active torsions:
REMARK  status: ('A' for Active; 'I' for Inactive)
REMARK    1  A    between atoms: O2_2  and  C3_3 
REMARK    2  A    between atoms: C8_8  and  O9_9 
REMARK    3  A    between atoms: C14_13  and  O16_14 
REMARK    4  A    between atoms: O16_14  and  C17_15 
REMARK    5  A    between atoms: C17_15  and  C19_17 
REMARK    6  A    between atoms: C19_17  and  N21_18 
REMARK    7  A    between atoms: C19_17  and  C25_22 
REMARK    8  A    between atoms: C28_25  and  C30_26 
REMARK    9  A    between atoms: C30_26  and  C31_27 
ROOT
ATOM      1  C3  ZIN A   1      18.598  -3.443   6.851  0.00  0.00     0.102 A 
ATOM      2  C4  ZIN A   1      18.834  -4.257   7.946  0.00  0.00     0.047 A 
ATOM      3  C5  ZIN A   1      19.007  -3.705   9.206  0.00  0.00    -0.045 A 
ATOM      4  C6  ZIN A   1      18.944  -2.337   9.373  0.00  0.00    -0.018 A 
ATOM      5  C7  ZIN A   1      18.706  -1.518   8.280  0.00  0.00     0.049 A 
ATOM      6  C8  ZIN A   1      18.539  -2.063   7.019  0.00  0.00     0.102 A 
ATOM      7  C11 ZIN A   1      19.134  -1.699  10.722  0.00  0.00     0.224 C 
ATOM      8  C13 ZIN A   1      18.149  -0.541  10.896  0.00  0.00     0.071 C 
ATOM      9  C14 ZIN A   1      18.397   0.126  12.253  0.00  0.00     0.140 C 
ATOM     10  C28 ZIN A   1      18.272  -0.923  13.362  0.00  0.00     0.041 C 
ATOM     11  C34 ZIN A   1      19.248  -2.071  13.090  0.00  0.00     0.243 C 
ATOM     12  N35 ZIN A   1      18.920  -2.676  11.792  0.00  0.00    -0.062 N 
ATOM     13  H36 ZIN A   1      17.958  -2.979  11.798  0.00  0.00     0.280 HD
ATOM     14  C37 ZIN A   1      19.793  -3.831  11.543  0.00  0.00     0.240 C 
ATOM     15  C38 ZIN A   1      19.255  -4.629  10.370  0.00  0.00     0.067 C 
ENDROOT
BRANCH   9  16
ATOM     16  O16 ZIN A   1      17.417   1.176  12.464  0.00  0.00    -0.314 OA
BRANCH  16  17
ATOM     17  C17 ZIN A   1      17.820   2.438  12.248  0.00  0.00     0.290 C 
ATOM     18  O18 ZIN A   1      17.235   3.130  11.450  0.00  0.00    -0.263 OA
BRANCH  17  19
ATOM     19  C19 ZIN A   1      19.002   2.991  13.001  0.00  0.00     0.285 C 
BRANCH  19  20
ATOM     20  N21 ZIN A   1      19.897   3.685  12.065  0.00  0.00    -0.066 N 
ATOM     21  H22 ZIN A   1      19.347   4.195  11.390  0.00  0.00     0.275 HD
ATOM     22  H23 ZIN A   1      20.484   4.329  12.577  0.00  0.00     0.275 HD
ATOM     23  H24 ZIN A   1      20.475   3.010  11.588  0.00  0.00     0.275 HD
ENDBRANCH  19  20
BRANCH  19  24
ATOM     24  C25 ZIN A   1      18.514   3.974  14.067  0.00  0.00     0.018 C 
ATOM     25  C26 ZIN A   1      18.709   3.361  15.454  0.00  0.00     0.012 C 
ATOM     26  C27 ZIN A   1      19.315   5.274  13.966  0.00  0.00     0.012 C 
ENDBRANCH  19  24
ENDBRANCH  17  19
ENDBRANCH  16  17
ENDBRANCH   9  16
BRANCH  10  27
ATOM     27  C30 ZIN A   1      18.602  -0.281  14.711  0.00  0.00     0.012 C 
BRANCH  27  28
ATOM     28  C31 ZIN A   1      18.090  -1.177  15.840  0.00  0.00    -0.022 C 
ATOM     29  C32 ZIN A   1      19.257  -1.565  16.752  0.00  0.00     0.009 C 
ATOM     30  C33 ZIN A   1      17.038  -0.422  16.654  0.00  0.00     0.009 C 
ENDBRANCH  27  28
ENDBRANCH  10  27
BRANCH   6  31
ATOM     31  O9  ZIN A   1      18.306  -1.255   5.950  0.00  0.00    -0.353 OA
ATOM     32  C10 ZIN A   1      18.468   0.150   6.152  0.00  0.00     0.210 C 
ENDBRANCH   6  31
BRANCH   1  33
ATOM     33  O2  ZIN A   1      18.432  -3.990   5.617  0.00  0.00    -0.353 OA
ATOM     34  C1  ZIN A   1      18.042  -5.364   5.563  0.00  0.00     0.210 C 
ENDBRANCH   1  33
TORSDOF 9
ENDMDL
MODEL 4
REMARK VINA RESULT:      -7.9      2.613      8.593
REMARK  9 active torsions:
REMARK  status: ('A' for Active; 'I' for Inactive)
REMARK    1  A    between atoms: O2_2  and  C3_3 
REMARK    2  A    between atoms: C8_8  and  O9_9 
REMARK    3  A    between atoms: C14_13  and  O16_14 
REMARK    4  A    between atoms: O16_14  and  C17_15 
REMARK    5  A    between atoms: C17_15  and  C19_17 
REMARK    6  A    between atoms: C19_17  and  N21_18 
REMARK    7  A    between atoms: C19_17  and  C25_22 
REMARK    8  A    between atoms: C28_25  and  C30_26 
REMARK    9  A    between atoms: C30_26  and  C31_27 
ROOT
ATOM      1  C3  ZIN A   1      18.768   3.320  17.509  0.00  0.00     0.102 A 
ATOM      2  C4  ZIN A   1      18.307   4.174  16.521  0.00  0.00     0.047 A 
ATOM      3  C5  ZIN A   1      18.276   3.764  15.198  0.00  0.00    -0.045 A 
ATOM      4  C6  ZIN A   1      18.709   2.498  14.858  0.00  0.00    -0.018 A 
ATOM      5  C7  ZIN A   1      19.170   1.639  15.844  0.00  0.00     0.049 A 
ATOM      6  C8  ZIN A   1      19.208   2.045  17.166  0.00  0.00     0.102 A 
ATOM      7  C11 ZIN A   1      18.699   2.019  13.432  0.00  0.00     0.224 C 
ATOM      8  C13 ZIN A   1      18.250   0.557  13.376  0.00  0.00     0.071 C 
ATOM      9  C14 ZIN A   1      18.300   0.075  11.922  0.00  0.00     0.140 C 
ATOM     10  C28 ZIN A   1      17.429   0.990  11.057  0.00  0.00     0.041 C 
ATOM     11  C34 ZIN A   1      17.905   2.438  11.207  0.00  0.00     0.243 C 
ATOM     12  N35 ZIN A   1      17.792   2.831  12.618  0.00  0.00    -0.062 N 
ATOM     13  H36 ZIN A   1      16.840   2.702  12.926  0.00  0.00     0.280 HD
ATOM     14  C37 ZIN A   1      18.169   4.242  12.777  0.00  0.00     0.240 C 
ATOM     15  C38 ZIN A   1      17.760   4.724  14.157  0.00  0.00     0.067 C 
ENDROOT
BRANCH   9  16
ATOM     16  O16 ZIN A   1      17.801  -1.286  11.845  0.00  0.00    -0.314 OA
BRANCH  16  17
ATOM     17  C17 ZIN A   1      18.675  -2.271  12.104  0.00  0.00     0.290 C 
ATOM     18  O18 ZIN A   1      18.821  -2.667  13.236  0.00  0.00    -0.263 OA
BRANCH  17  19
ATOM     19  C19 ZIN A   1      19.475  -2.883  10.983  0.00  0.00     0.285 C 
BRANCH  19  20
ATOM     20  N21 ZIN A   1      20.824  -3.210  11.466  0.00  0.00    -0.066 N 
ATOM     21  H22 ZIN A   1      21.505  -2.679  10.944  0.00  0.00     0.275 HD
ATOM     22  H23 ZIN A   1      20.895  -2.980  12.446  0.00  0.00     0.275 HD
ATOM     23  H24 ZIN A   1      20.996  -4.196  11.338  0.00  0.00     0.275 HD
ENDBRANCH  19  20
BRANCH  19  24
ATOM     24  C25 ZIN A   1      18.782  -4.158  10.498  0.00  0.00     0.018 C 
ATOM     25  C26 ZIN A   1      17.671  -3.792   9.513  0.00  0.00     0.012 C 
ATOM     26  C27 ZIN A   1      19.803  -5.061   9.804  0.00  0.00     0.012 C 
ENDBRANCH  19  24
ENDBRANCH  17  19
ENDBRANCH  16  17
ENDBRANCH   9  16
BRANCH  10  27
ATOM     27  C30 ZIN A   1      17.542   0.566   9.591  0.00  0.00     0.012 C 
BRANCH  27  28
ATOM     28  C31 ZIN A   1      18.995   0.701   9.131  0.00  0.00    -0.022 C 
ATOM     29  C32 ZIN A   1      19.441  -0.601   8.463  0.00  0.00     0.009 C 
ATOM     30  C33 ZIN A   1      19.107   1.852   8.130  0.00  0.00     0.009 C 
ENDBRANCH  27  28
ENDBRANCH  10  27
BRANCH   6  31
ATOM     31  O9  ZIN A   1      19.662   1.198  18.129  0.00  0.00    -0.353 OA
ATOM     32  C10 ZIN A   1      19.227  -0.160  18.055  0.00  0.00     0.210 C 
ENDBRANCH   6  31
BRANCH   1  33
ATOM     33  O2  ZIN A   1      18.798   3.728  18.805  0.00  0.00    -0.353 OA
ATOM     34  C1  ZIN A   1      17.540   3.990  19.433  0.00  0.00     0.210 C 
ENDBRANCH   1  33
TORSDOF 9
ENDMDL
MODEL 5
REMARK VINA RESULT:      -7.8      2.507      8.315
REMARK  9 active torsions:
REMARK  status: ('A' for Active; 'I' for Inactive)
REMARK    1  A    between atoms: O2_2  and  C3_3 
REMARK    2  A    between atoms: C8_8  and  O9_9 
REMARK    3  A    between atoms: C14_13  and  O16_14 
REMARK    4  A    between atoms: O16_14  and  C17_15 
REMARK    5  A    between atoms: C17_15  and  C19_17 
REMARK    6  A    between atoms: C19_17  and  N21_18 
REMARK    7  A    between atoms: C19_17  and  C25_22 
REMARK    8  A    between atoms: C28_25  and  C30_26 
REMARK    9  A    between atoms: C30_26  and  C31_27 
ROOT
ATOM      1  C3  ZIN A   1      17.456   4.657  14.800  0.00  0.00     0.102 A 
ATOM      2  C4  ZIN A   1      17.010   5.231  13.622  0.00  0.00     0.047 A 
ATOM      3  C5  ZIN A   1      17.453   4.753  12.398  0.00  0.00    -0.045 A 
ATOM      4  C6  ZIN A   1      18.344   3.701  12.350  0.00  0.00    -0.018 A 
ATOM      5  C7  ZIN A   1      18.792   3.122  13.527  0.00  0.00     0.049 A 
ATOM      6  C8  ZIN A   1      18.358   3.598  14.752  0.00  0.00     0.102 A 
ATOM      7  C11 ZIN A   1      18.854   3.160  11.042  0.00  0.00     0.224 C 
ATOM      8  C13 ZIN A   1      18.933   1.633  11.104  0.00  0.00     0.071 C 
ATOM      9  C14 ZIN A   1      19.505   1.109   9.782  0.00  0.00     0.140 C 
ATOM     10  C28 ZIN A   1      18.636   1.605   8.624  0.00  0.00     0.041 C 
ATOM     11  C34 ZIN A   1      18.561   3.134   8.660  0.00  0.00     0.243 C 
ATOM     12  N35 ZIN A   1      17.972   3.550   9.940  0.00  0.00    -0.062 N 
ATOM     13  H36 ZIN A   1      17.067   3.116  10.049  0.00  0.00     0.280 HD
ATOM     14  C37 ZIN A   1      17.817   5.011   9.969  0.00  0.00     0.240 C 
ATOM     15  C38 ZIN A   1      16.936   5.404  11.140  0.00  0.00     0.067 C 
ENDROOT
BRANCH   9  16
ATOM     16  O16 ZIN A   1      19.512  -0.342   9.798  0.00  0.00    -0.314 OA
BRANCH  16  17
ATOM     17  C17 ZIN A   1      20.187  -0.938  10.794  0.00  0.00     0.290 C 
ATOM     18  O18 ZIN A   1      21.307  -0.577  11.065  0.00  0.00    -0.263 OA
BRANCH  17  19
ATOM     19  C19 ZIN A   1      19.548  -2.057  11.574  0.00  0.00     0.285 C 
BRANCH  19  20
ATOM     20  N21 ZIN A   1      19.887  -1.919  12.997  0.00  0.00    -0.066 N 
ATOM     21  H22 ZIN A   1      20.695  -2.487  13.206  0.00  0.00     0.275 HD
ATOM     22  H23 ZIN A   1      20.092  -0.952  13.202  0.00  0.00     0.275 HD
ATOM     23  H24 ZIN A   1      19.107  -2.224  13.559  0.00  0.00     0.275 HD
ENDBRANCH  19  20
BRANCH  19  24
ATOM     24  C25 ZIN A   1      18.028  -1.995  11.403  0.00  0.00     0.018 C 
ATOM     25  C26 ZIN A   1      17.451  -3.411  11.450  0.00  0.00     0.012 C 
ATOM     26  C27 ZIN A   1      17.422  -1.159  12.531  0.00  0.00     0.012 C 
ENDBRANCH  19  24
ENDBRANCH  17  19
ENDBRANCH  16  17
ENDBRANCH   9  16
BRANCH  10  27
ATOM     27  C30 ZIN A   1      19.249   1.156   7.296  0.00  0.00     0.012 C 
BRANCH  27  28
ATOM     28  C31 ZIN A   1      18.138   0.694   6.351  0.00  0.00    -0.022 C 
ATOM     29  C32 ZIN A   1      18.755  -0.040   5.159  0.00  0.00     0.009 C 
ATOM     30  C33 ZIN A   1      17.194  -0.250   7.098  0.00  0.00     0.009 C 
ENDBRANCH  27  28
ENDBRANCH  10  27
BRANCH   6  31
ATOM     31  O9  ZIN A   1      18.801   3.026  15.904  0.00  0.00    -0.353 OA
ATOM     32  C10 ZIN A   1      18.962   1.606  15.903  0.00  0.00     0.210 C 
ENDBRANCH   6  31
BRANCH   1  33
ATOM     33  O2  ZIN A   1      17.021   5.130  15.998  0.00  0.00    -0.353 OA
ATOM     34  C1  ZIN A   1      16.105   6.227  15.968  0.00  0.00     0.210 C 
ENDBRANCH   1  33
TORSDOF 9
ENDMDL
MODEL 6
REMARK VINA RESULT:      -7.8      1.783      8.191
REMARK  9 active torsions:
REMARK  status: ('A' for Active; 'I' for Inactive)
REMARK    1  A    between atoms: O2_2  and  C3_3 
REMARK    2  A    between atoms: C8_8  and  O9_9 
REMARK    3  A    between atoms: C14_13  and  O16_14 
REMARK    4  A    between atoms: O16_14  and  C17_15 
REMARK    5  A    between atoms: C17_15  and  C19_17 
REMARK    6  A    between atoms: C19_17  and  N21_18 
REMARK    7  A    between atoms: C19_17  and  C25_22 
REMARK    8  A    between atoms: C28_25  and  C30_26 
REMARK    9  A    between atoms: C30_26  and  C31_27 
ROOT
ATOM      1  C3  ZIN A   1      18.322   2.489  13.737  0.00  0.00     0.102 A 
ATOM      2  C4  ZIN A   1      18.196   3.203  12.557  0.00  0.00     0.047 A 
ATOM      3  C5  ZIN A   1      18.433   2.589  11.337  0.00  0.00    -0.045 A 
ATOM      4  C6  ZIN A   1      18.797   1.259  11.294  0.00  0.00    -0.018 A 
ATOM      5  C7  ZIN A   1      18.922   0.539  12.473  0.00  0.00     0.049 A 
ATOM      6  C8  ZIN A   1      18.693   1.149  13.694  0.00  0.00     0.102 A 
ATOM      7  C11 ZIN A   1      19.070   0.559   9.991  0.00  0.00     0.224 C 
ATOM      8  C13 ZIN A   1      18.495  -0.859  10.029  0.00  0.00     0.071 C 
ATOM      9  C14 ZIN A   1      18.833  -1.570   8.714  0.00  0.00     0.140 C 
ATOM     10  C28 ZIN A   1      18.289  -0.748   7.542  0.00  0.00     0.041 C 
ATOM     11  C34 ZIN A   1      18.866   0.669   7.603  0.00  0.00     0.243 C 
ATOM     12  N35 ZIN A   1      18.469   1.290   8.874  0.00  0.00    -0.062 N 
ATOM     13  H36 ZIN A   1      17.463   1.278   8.952  0.00  0.00     0.280 HD
ATOM     14  C37 ZIN A   1      18.945   2.679   8.923  0.00  0.00     0.240 C 
ATOM     15  C38 ZIN A   1      18.278   3.403  10.078  0.00  0.00     0.067 C 
ENDROOT
BRANCH   9  16
ATOM     16  O16 ZIN A   1      18.225  -2.888   8.706  0.00  0.00    -0.314 OA
BRANCH  16  17
ATOM     17  C17 ZIN A   1      19.047  -3.939   8.864  0.00  0.00     0.290 C 
ATOM     18  O18 ZIN A   1      19.671  -4.364   7.922  0.00  0.00    -0.263 OA
BRANCH  17  19
ATOM     19  C19 ZIN A   1      19.188  -4.588  10.217  0.00  0.00     0.285 C 
BRANCH  19  20
ATOM     20  N21 ZIN A   1      20.293  -3.957  10.950  0.00  0.00    -0.066 N 
ATOM     21  H22 ZIN A   1      20.920  -3.513  10.295  0.00  0.00     0.275 HD
ATOM     22  H23 ZIN A   1      19.924  -3.264  11.585  0.00  0.00     0.275 HD
ATOM     23  H24 ZIN A   1      20.794  -4.659  11.473  0.00  0.00     0.275 HD
ENDBRANCH  19  20
BRANCH  19  24
ATOM     24  C25 ZIN A   1      17.887  -4.414  11.004  0.00  0.00     0.018 C 
ATOM     25  C26 ZIN A   1      17.383  -5.783  11.464  0.00  0.00     0.012 C 
ATOM     26  C27 ZIN A   1      18.145  -3.529  12.225  0.00  0.00     0.012 C 
ENDBRANCH  19  24
ENDBRANCH  17  19
ENDBRANCH  16  17
ENDBRANCH   9  16
BRANCH  10  27
ATOM     27  C30 ZIN A   1      18.696  -1.409   6.224  0.00  0.00     0.012 C 
BRANCH  27  28
ATOM     28  C31 ZIN A   1      17.858  -0.828   5.083  0.00  0.00    -0.022 C 
ATOM     29  C32 ZIN A   1      18.758  -0.008   4.155  0.00  0.00     0.009 C 
ATOM     30  C33 ZIN A   1      17.215  -1.968   4.291  0.00  0.00     0.009 C 
ENDBRANCH  27  28
ENDBRANCH  10  27
BRANCH   6  31
ATOM     31  O9  ZIN A   1      18.819   0.438  14.847  0.00  0.00    -0.353 OA
ATOM     32  C10 ZIN A   1      18.177  -0.838  14.895  0.00  0.00     0.210 C 
ENDBRANCH   6  31
BRANCH   1  33
ATOM     33  O2  ZIN A   1      18.091   3.097  14.931  0.00  0.00    -0.353 OA
ATOM     34  C1  ZIN A   1      19.151   3.891  15.471  0.00  0.00     0.210 C 
ENDBRANCH   1  33
TORSDOF 9
ENDMDL
MODEL 7
REMARK VINA RESULT:      -7.7      2.081      6.594
REMARK  9 active torsions:
REMARK  status: ('A' for Active; 'I' for Inactive)
REMARK    1  A    between atoms: O2_2  and  C3_3 
REMARK    2  A    between atoms: C8_8  and  O9_9 
REMARK    3  A    between atoms: C14_13  and  O16_14 
REMARK    4  A    between atoms: O16_14  and  C17_15 
REMARK    5  A    between atoms: C17_15  and  C19_17 
REMARK    6  A    between atoms: C19_17  and  N21_18 
REMARK    7  A    between atoms: C19_17  and  C25_22 
REMARK    8  A    between atoms: C28_25  and  C30_26 
REMARK    9  A    between atoms: C30_26  and  C31_27 
ROOT
ATOM      1  C3  ZIN A   1      18.563   3.950  13.493  0.00  0.00     0.102 A 
ATOM      2  C4  ZIN A   1      18.632   2.944  14.441  0.00  0.00     0.047 A 
ATOM      3  C5  ZIN A   1      18.523   1.614  14.063  0.00  0.00    -0.045 A 
ATOM      4  C6  ZIN A   1      18.342   1.289  12.734  0.00  0.00    -0.018 A 
ATOM      5  C7  ZIN A   1      18.275   2.294  11.781  0.00  0.00     0.049 A 
ATOM      6  C8  ZIN A   1      18.377   3.622  12.154  0.00  0.00     0.102 A 
ATOM      7  C11 ZIN A   1      18.211  -0.140  12.285  0.00  0.00     0.224 C 
ATOM      8  C13 ZIN A   1      18.970  -0.347  10.972  0.00  0.00     0.071 C 
ATOM      9  C14 ZIN A   1      18.777  -1.794  10.506  0.00  0.00     0.140 C 
ATOM     10  C28 ZIN A   1      19.245  -2.746  11.610  0.00  0.00     0.041 C 
ATOM     11  C34 ZIN A   1      18.481  -2.444  12.902  0.00  0.00     0.243 C 
ATOM     12  N35 ZIN A   1      18.747  -1.054  13.297  0.00  0.00    -0.062 N 
ATOM     13  H36 ZIN A   1      19.742  -0.918  13.395  0.00  0.00     0.280 HD
ATOM     14  C37 ZIN A   1      18.087  -0.761  14.576  0.00  0.00     0.240 C 
ATOM     15  C38 ZIN A   1      18.610   0.552  15.128  0.00  0.00     0.067 C 
ENDROOT
BRANCH   9  16
ATOM     16  O16 ZIN A   1      19.557  -2.024   9.303  0.00  0.00    -0.314 OA
BRANCH  16  17
ATOM     17  C17 ZIN A   1      18.911  -1.923   8.130  0.00  0.00     0.290 C 
ATOM     18  O18 ZIN A   1      18.017  -2.690   7.865  0.00  0.00    -0.263 OA
BRANCH  17  19
ATOM     19  C19 ZIN A   1      19.304  -0.853   7.144  0.00  0.00     0.285 C 
BRANCH  19  20
ATOM     20  N21 ZIN A   1      19.314  -1.418   5.788  0.00  0.00    -0.066 N 
ATOM     21  H22 ZIN A   1      20.258  -1.672   5.537  0.00  0.00     0.275 HD
ATOM     22  H23 ZIN A   1      18.726  -2.238   5.760  0.00  0.00     0.275 HD
ATOM     23  H24 ZIN A   1      18.966  -0.732   5.135  0.00  0.00     0.275 HD
ENDBRANCH  19  20
BRANCH  19  24
ATOM     24  C25 ZIN A   1      18.296   0.297   7.211  0.00  0.00     0.018 C 
ATOM     25  C26 ZIN A   1      19.000   1.563   7.702  0.00  0.00     0.012 C 
ATOM     26  C27 ZIN A   1      17.712   0.544   5.819  0.00  0.00     0.012 C 
ENDBRANCH  19  24
ENDBRANCH  17  19
ENDBRANCH  16  17
ENDBRANCH   9  16
BRANCH  10  27
ATOM     27  C30 ZIN A   1      18.977  -4.192  11.185  0.00  0.00     0.012 C 
BRANCH  27  28
ATOM     28  C31 ZIN A   1      17.521  -4.550  11.486  0.00  0.00    -0.022 C 
ATOM     29  C32 ZIN A   1      16.777  -4.805  10.173  0.00  0.00     0.009 C 
ATOM     30  C33 ZIN A   1      17.475  -5.810  12.352  0.00  0.00     0.009 C 
ENDBRANCH  27  28
ENDBRANCH  10  27
BRANCH   6  31
ATOM     31  O9  ZIN A   1      18.309   4.603  11.214  0.00  0.00    -0.353 OA
ATOM     32  C10 ZIN A   1      17.014   4.921  10.702  0.00  0.00     0.210 C 
ENDBRANCH   6  31
BRANCH   1  33
ATOM     33  O2  ZIN A   1      18.668   5.252  13.870  0.00  0.00    -0.353 OA
ATOM     34  C1  ZIN A   1      19.981   5.741  14.154  0.00  0.00     0.210 C 
ENDBRANCH   1  33
TORSDOF 9
ENDMDL
MODEL 8
REMARK VINA RESULT:      -7.6      2.322      8.271
REMARK  9 active torsions:
REMARK  status: ('A' for Active; 'I' for Inactive)
REMARK    1  A    between atoms: O2_2  and  C3_3 
REMARK    2  A    between atoms: C8_8  and  O9_9 
REMARK    3  A    between atoms: C14_13  and  O16_14 
REMARK    4  A    between atoms: O16_14  and  C17_15 
REMARK    5  A    between atoms: C17_15  and  C19_17 
REMARK    6  A    between atoms: C19_17  and  N21_18 
REMARK    7  A    between atoms: C19_17  and  C25_22 
REMARK    8  A    between atoms: C28_25  and  C30_26 
REMARK    9  A    between atoms: C30_26  and  C31_27 
ROOT
ATOM      1  C3  ZIN A   1      19.535   2.105  11.118  0.00  0.00     0.102 A 
ATOM      2  C4  ZIN A   1      19.156   2.490   9.843  0.00  0.00     0.047 A 
ATOM      3  C5  ZIN A   1      19.179   1.578   8.799  0.00  0.00    -0.045 A 
ATOM      4  C6  ZIN A   1      19.584   0.279   9.028  0.00  0.00    -0.018 A 
ATOM      5  C7  ZIN A   1      19.961  -0.112  10.304  0.00  0.00     0.049 A 
ATOM      6  C8  ZIN A   1      19.945   0.795  11.348  0.00  0.00     0.102 A 
ATOM      7  C11 ZIN A   1      19.631  -0.738   7.920  0.00  0.00     0.224 C 
ATOM      8  C13 ZIN A   1      19.133  -2.092   8.431  0.00  0.00     0.071 C 
ATOM      9  C14 ZIN A   1      19.241  -3.122   7.303  0.00  0.00     0.140 C 
ATOM     10  C28 ZIN A   1      18.450  -2.627   6.089  0.00  0.00     0.041 C 
ATOM     11  C34 ZIN A   1      18.969  -1.248   5.671  0.00  0.00     0.243 C 
ATOM     12  N35 ZIN A   1      18.797  -0.315   6.792  0.00  0.00    -0.062 N 
ATOM     13  H36 ZIN A   1      17.826  -0.296   7.066  0.00  0.00     0.280 HD
ATOM     14  C37 ZIN A   1      19.216   1.034   6.391  0.00  0.00     0.240 C 
ATOM     15  C38 ZIN A   1      18.753   2.039   7.429  0.00  0.00     0.067 C 
ENDROOT
BRANCH   9  16
ATOM     16  O16 ZIN A   1      18.698  -4.391   7.752  0.00  0.00    -0.314 OA
BRANCH  16  17
ATOM     17  C17 ZIN A   1      19.522  -5.198   8.439  0.00  0.00     0.290 C 
ATOM     18  O18 ZIN A   1      20.428  -5.761   7.872  0.00  0.00    -0.263 OA
BRANCH  17  19
ATOM     19  C19 ZIN A   1      19.317  -5.401   9.918  0.00  0.00     0.285 C 
BRANCH  19  20
ATOM     20  N21 ZIN A   1      20.195  -4.490  10.664  0.00  0.00    -0.066 N 
ATOM     21  H22 ZIN A   1      20.912  -5.023  11.134  0.00  0.00     0.275 HD
ATOM     22  H23 ZIN A   1      20.625  -3.838  10.024  0.00  0.00     0.275 HD
ATOM     23  H24 ZIN A   1      19.652  -3.983  11.346  0.00  0.00     0.275 HD
ENDBRANCH  19  20
BRANCH  19  24
ATOM     24  C25 ZIN A   1      17.858  -5.110  10.275  0.00  0.00     0.018 C 
ATOM     25  C26 ZIN A   1      16.998  -6.331   9.941  0.00  0.00     0.012 C 
ATOM     26  C27 ZIN A   1      17.750  -4.803  11.770  0.00  0.00     0.012 C 
ENDBRANCH  19  24
ENDBRANCH  17  19
ENDBRANCH  16  17
ENDBRANCH   9  16
BRANCH  10  27
ATOM     27  C30 ZIN A   1      18.623  -3.611   4.930  0.00  0.00     0.012 C 
BRANCH  27  28
ATOM     28  C31 ZIN A   1      17.261  -4.192   4.547  0.00  0.00    -0.022 C 
ATOM     29  C32 ZIN A   1      16.749  -3.498   3.283  0.00  0.00     0.009 C 
ATOM     30  C33 ZIN A   1      17.403  -5.692   4.283  0.00  0.00     0.009 C 
ENDBRANCH  27  28
ENDBRANCH  10  27
BRANCH   6  31
ATOM     31  O9  ZIN A   1      20.318   0.407  12.597  0.00  0.00    -0.353 OA
ATOM     32  C10 ZIN A   1      19.374  -0.361  13.346  0.00  0.00     0.210 C 
ENDBRANCH   6  31
BRANCH   1  33
ATOM     33  O2  ZIN A   1      19.511   3.004  12.138  0.00  0.00    -0.353 OA
ATOM     34  C1  ZIN A   1      18.231   3.344  12.674  0.00  0.00     0.210 C 
ENDBRANCH   1  33
TORSDOF 9
ENDMDL
MODEL 9
REMARK VINA RESULT:      -7.6      2.331      8.306
REMARK  9 active torsions:
REMARK  status: ('A' for Active; 'I' for Inactive)
REMARK    1  A    between atoms: O2_2  and  C3_3 
REMARK    2  A    between atoms: C8_8  and  O9_9 
REMARK    3  A    between atoms: C14_13  and  O16_14 
REMARK    4  A    between atoms: O16_14  and  C17_15 
REMARK    5  A    between atoms: C17_15  and  C19_17 
REMARK    6  A    between atoms: C19_17  and  N21_18 
REMARK    7  A    between atoms: C19_17  and  C25_22 
REMARK    8  A    between atoms: C28_25  and  C30_26 
REMARK    9  A    between atoms: C30_26  and  C31_27 
ROOT
ATOM      1  C3  ZIN A   1      18.199   4.121  14.914  0.00  0.00     0.102 A 
ATOM      2  C4  ZIN A   1      17.993   4.637  13.646  0.00  0.00     0.047 A 
ATOM      3  C5  ZIN A   1      18.083   3.817  12.532  0.00  0.00    -0.045 A 
ATOM      4  C6  ZIN A   1      18.381   2.478  12.684  0.00  0.00    -0.018 A 
ATOM      5  C7  ZIN A   1      18.587   1.957  13.952  0.00  0.00     0.049 A 
ATOM      6  C8  ZIN A   1      18.504   2.772  15.067  0.00  0.00     0.102 A 
ATOM      7  C11 ZIN A   1      18.496   1.558  11.500  0.00  0.00     0.224 C 
ATOM      8  C13 ZIN A   1      17.864   0.203  11.828  0.00  0.00     0.071 C 
ATOM      9  C14 ZIN A   1      18.041  -0.734  10.629  0.00  0.00     0.140 C 
ATOM     10  C28 ZIN A   1      17.425  -0.086   9.386  0.00  0.00     0.041 C 
ATOM     11  C34 ZIN A   1      18.068   1.284   9.155  0.00  0.00     0.243 C 
ATOM     12  N35 ZIN A   1      17.824   2.129  10.331  0.00  0.00    -0.062 N 
ATOM     13  H36 ZIN A   1      16.831   2.191  10.498  0.00  0.00     0.280 HD
ATOM     14  C37 ZIN A   1      18.364   3.476  10.102  0.00  0.00     0.240 C 
ATOM     15  C38 ZIN A   1      17.844   4.419  11.171  0.00  0.00     0.067 C 
ENDROOT
BRANCH   9  16
ATOM     16  O16 ZIN A   1      17.378  -1.997  10.898  0.00  0.00    -0.314 OA
BRANCH  16  17
ATOM     17  C17 ZIN A   1      18.153  -3.024  11.280  0.00  0.00     0.290 C 
ATOM     18  O18 ZIN A   1      17.983  -3.541  12.358  0.00  0.00    -0.263 OA
BRANCH  17  19
ATOM     19  C19 ZIN A   1      19.236  -3.532  10.364  0.00  0.00     0.285 C 
BRANCH  19  20
ATOM     20  N21 ZIN A   1      20.507  -3.599  11.098  0.00  0.00    -0.066 N 
ATOM     21  H22 ZIN A   1      21.258  -3.793  10.452  0.00  0.00     0.275 HD
ATOM     22  H23 ZIN A   1      20.677  -2.717  11.557  0.00  0.00     0.275 HD
ATOM     23  H24 ZIN A   1      20.458  -4.334  11.788  0.00  0.00     0.275 HD
ENDBRANCH  19  20
BRANCH  19  24
ATOM     24  C25 ZIN A   1      18.864  -4.927   9.858  0.00  0.00     0.018 C 
ATOM     25  C26 ZIN A   1      17.703  -4.818   8.867  0.00  0.00     0.012 C 
ATOM     26  C27 ZIN A   1      20.072  -5.556   9.161  0.00  0.00     0.012 C 
ENDBRANCH  19  24
ENDBRANCH  17  19
ENDBRANCH  16  17
ENDBRANCH   9  16
BRANCH  10  27
ATOM     27  C30 ZIN A   1      17.673  -0.978   8.168  0.00  0.00     0.012 C 
BRANCH  27  28
ATOM     28  C31 ZIN A   1      17.961  -0.105   6.946  0.00  0.00    -0.022 C 
ATOM     29  C32 ZIN A   1      19.137  -0.695   6.164  0.00  0.00     0.009 C 
ATOM     30  C33 ZIN A   1      16.723  -0.059   6.049  0.00  0.00     0.009 C 
ENDBRANCH  27  28
ENDBRANCH  10  27
BRANCH   6  31
ATOM     31  O9  ZIN A   1      18.708   2.255  16.309  0.00  0.00    -0.353 OA
ATOM     32  C10 ZIN A   1      18.763   0.832  16.417  0.00  0.00     0.210 C 
ENDBRANCH   6  31
BRANCH   1  33
ATOM     33  O2  ZIN A   1      18.112   4.930  16.003  0.00  0.00    -0.353 OA
ATOM     34  C1  ZIN A   1      19.214   5.807  16.251  0.00  0.00     0.210 C 
ENDBRANCH   1  33
TORSDOF 9
ENDMDL
