MODEL 1
REMARK VINA RESULT:      -4.4      0.000      0.000
REMARK  7 active torsions:
REMARK  status: ('A' for Active; 'I' for Inactive)
REMARK    1  A    between atoms: N1_1  and  C5_5 
REMARK    2  A    between atoms: C5_5  and  C6_6 
REMARK    3  A    between atoms: C6_6  and  C7_7 
REMARK    4  A    between atoms: C7_7  and  C8_8 
REMARK    5  A    between atoms: C8_8  and  N9_9 
REMARK    6  A    between atoms: C8_8  and  C13_13 
REMARK    7  A    between atoms: C8_8  and  C16_16 
ROOT
ATOM      1  C8  <0> d   1      18.574   2.728  10.538  0.00  0.00     0.267 C 
ENDROOT
BRANCH   1   2
ATOM      2  C7  <0> d   1      19.035   2.173   9.188  0.00  0.00     0.058 C 
BRANCH   2   3
ATOM      3  C6  <0> d   1      18.446   0.777   8.982  0.00  0.00     0.030 C 
BRANCH   3   4
ATOM      4  C5  <0> d   1      19.555  -0.187   8.559  0.00  0.00     0.230 C 
BRANCH   4   5
ATOM      5  N1  <0> d   1      20.559  -0.278   9.628  0.00  0.00    -0.079 N 
ATOM      6  H2  <0> d   1      20.329   0.376  10.361  0.00  0.00     0.274 HD
ATOM      7  H3  <0> d   1      21.470  -0.055   9.252  0.00  0.00     0.274 HD
ATOM      8  H4  <0> d   1      20.570  -1.214  10.002  0.00  0.00     0.274 HD
ENDBRANCH   4   5
ENDBRANCH   3   4
ENDBRANCH   2   3
ENDBRANCH   1   2
BRANCH   1   9
ATOM      9  N9  <0> d   1      17.517   1.868  11.085  0.00  0.00    -0.055 N 
ATOM     10  H10 <0> d   1      17.603   0.941  10.696  0.00  0.00     0.276 HD
ATOM     11  H11 <0> d   1      17.608   1.821  12.089  0.00  0.00     0.276 HD
ATOM     12  H12 <0> d   1      16.615   2.251  10.846  0.00  0.00     0.276 HD
ENDBRANCH   1   9
BRANCH   1  13
ATOM     13  C13 <0> d   1      19.741   2.760  11.492  0.00  0.00     0.216 C 
ATOM     14  O14 <0> d   1      20.227   1.718  11.896  0.00  0.00    -0.646 OA
ATOM     15  O15 <0> d   1      20.198   3.829  11.860  0.00  0.00    -0.646 OA
ENDBRANCH   1  13
BRANCH   1  16
ATOM     16  C16 <0> d   1      18.032   4.146  10.348  0.00  0.00     0.399 C 
ATOM     17  F17 <0> d   1      18.123   4.503   8.999  0.00  0.00    -0.211 F 
ATOM     18  F18 <0> d   1      16.694   4.192  10.753  0.00  0.00    -0.211 F 
ENDBRANCH   1  16
TORSDOF 7
ENDMDL
MODEL 2
REMARK VINA RESULT:      -4.3      2.622      3.183
REMARK  7 active torsions:
REMARK  status: ('A' for Active; 'I' for Inactive)
REMARK    1  A    between atoms: N1_1  and  C5_5 
REMARK    2  A    between atoms: C5_5  and  C6_6 
REMARK    3  A    between atoms: C6_6  and  C7_7 
REMARK    4  A    between atoms: C7_7  and  C8_8 
REMARK    5  A    between atoms: C8_8  and  N9_9 
REMARK    6  A    between atoms: C8_8  and  C13_13 
REMARK    7  A    between atoms: C8_8  and  C16_16 
ROOT
ATOM      1  C8  <0> d   1      19.450   2.696  11.899  0.00  0.00     0.267 C 
ENDROOT
BRANCH   1   2
ATOM      2  C7  <0> d   1      19.454   1.317  12.564  0.00  0.00     0.058 C 
BRANCH   2   3
ATOM      3  C6  <0> d   1      20.710   0.552  12.143  0.00  0.00     0.030 C 
BRANCH   3   4
ATOM      4  C5  <0> d   1      20.323  -0.575  11.185  0.00  0.00     0.230 C 
BRANCH   4   5
ATOM      5  N1  <0> d   1      20.771  -0.238   9.827  0.00  0.00    -0.079 N 
ATOM      6  H2  <0> d   1      20.139  -0.646   9.153  0.00  0.00     0.274 HD
ATOM      7  H3  <0> d   1      21.701  -0.602   9.679  0.00  0.00     0.274 HD
ATOM      8  H4  <0> d   1      20.781   0.764   9.714  0.00  0.00     0.274 HD
ENDBRANCH   4   5
ENDBRANCH   3   4
ENDBRANCH   2   3
ENDBRANCH   1   2
BRANCH   1   9
ATOM      9  N9  <0> d   1      20.819   3.052  11.505  0.00  0.00    -0.055 N 
ATOM     10  H10 <0> d   1      21.018   2.665  10.595  0.00  0.00     0.276 HD
ATOM     11  H11 <0> d   1      20.907   4.058  11.469  0.00  0.00     0.276 HD
ATOM     12  H12 <0> d   1      21.471   2.681  12.179  0.00  0.00     0.276 HD
ENDBRANCH   1   9
BRANCH   1  13
ATOM     13  C13 <0> d   1      18.566   2.662  10.679  0.00  0.00     0.216 C 
ATOM     14  O14 <0> d   1      17.368   2.854  10.787  0.00  0.00    -0.646 OA
ATOM     15  O15 <0> d   1      19.051   2.441   9.582  0.00  0.00    -0.646 OA
ENDBRANCH   1  13
BRANCH   1  16
ATOM     16  C16 <0> d   1      18.916   3.736  12.887  0.00  0.00     0.399 C 
ATOM     17  F17 <0> d   1      19.035   3.245  14.191  0.00  0.00    -0.211 F 
ATOM     18  F18 <0> d   1      19.652   4.918  12.763  0.00  0.00    -0.211 F 
ENDBRANCH   1  16
TORSDOF 7
ENDMDL
MODEL 3
REMARK VINA RESULT:      -4.3      3.130      3.808
REMARK  7 active torsions:
REMARK  status: ('A' for Active; 'I' for Inactive)
REMARK    1  A    between atoms: N1_1  and  C5_5 
REMARK    2  A    between atoms: C5_5  and  C6_6 
REMARK    3  A    between atoms: C6_6  and  C7_7 
REMARK    4  A    between atoms: C7_7  and  C8_8 
REMARK    5  A    between atoms: C8_8  and  N9_9 
REMARK    6  A    between atoms: C8_8  and  C13_13 
REMARK    7  A    between atoms: C8_8  and  C16_16 
ROOT
ATOM      1  C8  <0> d   1      18.575   0.526   8.203  0.00  0.00     0.267 C 
ENDROOT
BRANCH   1   2
ATOM      2  C7  <0> d   1      18.949   1.104   6.837  0.00  0.00     0.058 C 
BRANCH   2   3
ATOM      3  C6  <0> d   1      18.034   0.512   5.764  0.00  0.00     0.030 C 
BRANCH   3   4
ATOM      4  C5  <0> d   1      18.884  -0.055   4.625  0.00  0.00     0.230 C 
BRANCH   4   5
ATOM      5  N1  <0> d   1      19.353  -1.400   4.987  0.00  0.00    -0.079 N 
ATOM      6  H2  <0> d   1      19.001  -2.070   4.319  0.00  0.00     0.274 HD
ATOM      7  H3  <0> d   1      19.016  -1.636   5.909  0.00  0.00     0.274 HD
ATOM      8  H4  <0> d   1      20.361  -1.418   4.983  0.00  0.00     0.274 HD
ENDBRANCH   4   5
ENDBRANCH   3   4
ENDBRANCH   2   3
ENDBRANCH   1   2
BRANCH   1   9
ATOM      9  N9  <0> d   1      17.219  -0.035   8.142  0.00  0.00    -0.055 N 
ATOM     10  H10 <0> d   1      17.250  -1.015   8.381  0.00  0.00     0.276 HD
ATOM     11  H11 <0> d   1      16.625   0.452   8.797  0.00  0.00     0.276 HD
ATOM     12  H12 <0> d   1      16.852   0.073   7.209  0.00  0.00     0.276 HD
ENDBRANCH   1   9
BRANCH   1  13
ATOM     13  C13 <0> d   1      19.553  -0.560   8.574  0.00  0.00     0.216 C 
ATOM     14  O14 <0> d   1      20.396  -0.355   9.429  0.00  0.00    -0.646 OA
ATOM     15  O15 <0> d   1      19.501  -1.643   8.016  0.00  0.00    -0.646 OA
ENDBRANCH   1  13
BRANCH   1  16
ATOM     16  C16 <0> d   1      18.622   1.635   9.256  0.00  0.00     0.399 C 
ATOM     17  F17 <0> d   1      18.835   2.866   8.628  0.00  0.00    -0.211 F 
ATOM     18  F18 <0> d   1      17.409   1.670   9.951  0.00  0.00    -0.211 F 
ENDBRANCH   1  16
TORSDOF 7
ENDMDL
MODEL 4
REMARK VINA RESULT:      -4.3      2.646      3.885
REMARK  7 active torsions:
REMARK  status: ('A' for Active; 'I' for Inactive)
REMARK    1  A    between atoms: N1_1  and  C5_5 
REMARK    2  A    between atoms: C5_5  and  C6_6 
REMARK    3  A    between atoms: C6_6  and  C7_7 
REMARK    4  A    between atoms: C7_7  and  C8_8 
REMARK    5  A    between atoms: C8_8  and  N9_9 
REMARK    6  A    between atoms: C8_8  and  C13_13 
REMARK    7  A    between atoms: C8_8  and  C16_16 
ROOT
ATOM      1  C8  <0> d   1      18.968   0.721   9.053  0.00  0.00     0.267 C 
ENDROOT
BRANCH   1   2
ATOM      2  C7  <0> d   1      18.069   1.578   9.948  0.00  0.00     0.058 C 
BRANCH   2   3
ATOM      3  C6  <0> d   1      18.660   2.984  10.067  0.00  0.00     0.030 C 
BRANCH   3   4
ATOM      4  C5  <0> d   1      19.115   3.225  11.508  0.00  0.00     0.230 C 
BRANCH   4   5
ATOM      5  N1  <0> d   1      20.553   2.948  11.620  0.00  0.00    -0.079 N 
ATOM      6  H2  <0> d   1      20.840   3.043  12.583  0.00  0.00     0.274 HD
ATOM      7  H3  <0> d   1      21.067   3.604  11.050  0.00  0.00     0.274 HD
ATOM      8  H4  <0> d   1      20.741   2.009  11.304  0.00  0.00     0.274 HD
ENDBRANCH   4   5
ENDBRANCH   3   4
ENDBRANCH   2   3
ENDBRANCH   1   2
BRANCH   1   9
ATOM      9  N9  <0> d   1      19.996   1.569   8.437  0.00  0.00    -0.055 N 
ATOM     10  H10 <0> d   1      19.733   2.538   8.530  0.00  0.00     0.276 HD
ATOM     11  H11 <0> d   1      20.880   1.415   8.901  0.00  0.00     0.276 HD
ATOM     12  H12 <0> d   1      20.084   1.335   7.460  0.00  0.00     0.276 HD
ENDBRANCH   1   9
BRANCH   1  13
ATOM     13  C13 <0> d   1      19.628  -0.349   9.884  0.00  0.00     0.216 C 
ATOM     14  O14 <0> d   1      19.403  -1.524   9.656  0.00  0.00    -0.646 OA
ATOM     15  O15 <0> d   1      20.389  -0.038  10.785  0.00  0.00    -0.646 OA
ENDBRANCH   1  13
BRANCH   1  16
ATOM     16  C16 <0> d   1      18.122   0.067   7.959  0.00  0.00     0.399 C 
ATOM     17  F17 <0> d   1      16.812  -0.099   8.418  0.00  0.00    -0.211 F 
ATOM     18  F18 <0> d   1      18.118   0.882   6.822  0.00  0.00    -0.211 F 
ENDBRANCH   1  16
TORSDOF 7
ENDMDL
MODEL 5
REMARK VINA RESULT:      -4.3      3.157      3.967
REMARK  7 active torsions:
REMARK  status: ('A' for Active; 'I' for Inactive)
REMARK    1  A    between atoms: N1_1  and  C5_5 
REMARK    2  A    between atoms: C5_5  and  C6_6 
REMARK    3  A    between atoms: C6_6  and  C7_7 
REMARK    4  A    between atoms: C7_7  and  C8_8 
REMARK    5  A    between atoms: C8_8  and  N9_9 
REMARK    6  A    between atoms: C8_8  and  C13_13 
REMARK    7  A    between atoms: C8_8  and  C16_16 
ROOT
ATOM      1  C8  <0> d   1      19.148   0.387   9.013  0.00  0.00     0.267 C 
ENDROOT
BRANCH   1   2
ATOM      2  C7  <0> d   1      18.506   0.561  10.390  0.00  0.00     0.058 C 
BRANCH   2   3
ATOM      3  C6  <0> d   1      19.382  -0.109  11.450  0.00  0.00     0.030 C 
BRANCH   3   4
ATOM      4  C5  <0> d   1      20.137   0.962  12.239  0.00  0.00     0.230 C 
BRANCH   4   5
ATOM      5  N1  <0> d   1      21.572   0.647  12.242  0.00  0.00    -0.079 N 
ATOM      6  H2  <0> d   1      22.066   1.323  11.677  0.00  0.00     0.274 HD
ATOM      7  H3  <0> d   1      21.714  -0.277  11.860  0.00  0.00     0.274 HD
ATOM      8  H4  <0> d   1      21.922   0.678  13.187  0.00  0.00     0.274 HD
ENDBRANCH   4   5
ENDBRANCH   3   4
ENDBRANCH   2   3
ENDBRANCH   1   2
BRANCH   1   9
ATOM      9  N9  <0> d   1      20.409  -0.354   9.151  0.00  0.00    -0.055 N 
ATOM     10  H10 <0> d   1      20.374  -1.186   8.581  0.00  0.00     0.276 HD
ATOM     11  H11 <0> d   1      21.176   0.229   8.849  0.00  0.00     0.276 HD
ATOM     12  H12 <0> d   1      20.542  -0.613  10.117  0.00  0.00     0.276 HD
ENDBRANCH   1   9
BRANCH   1  13
ATOM     13  C13 <0> d   1      18.210  -0.378   8.115  0.00  0.00     0.216 C 
ATOM     14  O14 <0> d   1      18.647  -1.224   7.355  0.00  0.00    -0.646 OA
ATOM     15  O15 <0> d   1      17.013  -0.149   8.149  0.00  0.00    -0.646 OA
ENDBRANCH   1  13
BRANCH   1  16
ATOM     16  C16 <0> d   1      19.429   1.762   8.404  0.00  0.00     0.399 C 
ATOM     17  F17 <0> d   1      19.090   1.750   7.047  0.00  0.00    -0.211 F 
ATOM     18  F18 <0> d   1      18.667   2.730   9.066  0.00  0.00    -0.211 F 
ENDBRANCH   1  16
TORSDOF 7
ENDMDL
MODEL 6
REMARK VINA RESULT:      -4.3      6.427      7.762
REMARK  7 active torsions:
REMARK  status: ('A' for Active; 'I' for Inactive)
REMARK    1  A    between atoms: N1_1  and  C5_5 
REMARK    2  A    between atoms: C5_5  and  C6_6 
REMARK    3  A    between atoms: C6_6  and  C7_7 
REMARK    4  A    between atoms: C7_7  and  C8_8 
REMARK    5  A    between atoms: C8_8  and  N9_9 
REMARK    6  A    between atoms: C8_8  and  C13_13 
REMARK    7  A    between atoms: C8_8  and  C16_16 
ROOT
ATOM      1  C8  <0> d   1      18.535   0.084  16.393  0.00  0.00     0.267 C 
ENDROOT
BRANCH   1   2
ATOM      2  C7  <0> d   1      19.210   0.563  17.680  0.00  0.00     0.058 C 
BRANCH   2   3
ATOM      3  C6  <0> d   1      18.221   1.400  18.494  0.00  0.00     0.030 C 
BRANCH   3   4
ATOM      4  C5  <0> d   1      18.695   2.853  18.533  0.00  0.00     0.230 C 
BRANCH   4   5
ATOM      5  N1  <0> d   1      17.955   3.636  17.534  0.00  0.00    -0.079 N 
ATOM      6  H2  <0> d   1      17.394   4.333  18.000  0.00  0.00     0.274 HD
ATOM      7  H3  <0> d   1      17.355   3.022  17.002  0.00  0.00     0.274 HD
ATOM      8  H4  <0> d   1      18.607   4.090  16.912  0.00  0.00     0.274 HD
ENDBRANCH   4   5
ENDBRANCH   3   4
ENDBRANCH   2   3
ENDBRANCH   1   2
BRANCH   1   9
ATOM      9  N9  <0> d   1      17.097   0.374  16.457  0.00  0.00    -0.055 N 
ATOM     10  H10 <0> d   1      16.579  -0.416  16.105  0.00  0.00     0.276 HD
ATOM     11  H11 <0> d   1      16.833   0.551  17.416  0.00  0.00     0.276 HD
ATOM     12  H12 <0> d   1      16.893   1.188  15.897  0.00  0.00     0.276 HD
ENDBRANCH   1   9
BRANCH   1  13
ATOM     13  C13 <0> d   1      19.142   0.799  15.213  0.00  0.00     0.216 C 
ATOM     14  O14 <0> d   1      19.725   0.166  14.350  0.00  0.00    -0.646 OA
ATOM     15  O15 <0> d   1      19.049   2.011  15.122  0.00  0.00    -0.646 OA
ENDBRANCH   1  13
BRANCH   1  16
ATOM     16  C16 <0> d   1      18.745  -1.424  16.239  0.00  0.00     0.399 C 
ATOM     17  F17 <0> d   1      19.743  -1.849  17.122  0.00  0.00    -0.211 F 
ATOM     18  F18 <0> d   1      17.552  -2.093  16.527  0.00  0.00    -0.211 F 
ENDBRANCH   1  16
TORSDOF 7
ENDMDL
MODEL 7
REMARK VINA RESULT:      -4.2      2.415      3.027
REMARK  7 active torsions:
REMARK  status: ('A' for Active; 'I' for Inactive)
REMARK    1  A    between atoms: N1_1  and  C5_5 
REMARK    2  A    between atoms: C5_5  and  C6_6 
REMARK    3  A    between atoms: C6_6  and  C7_7 
REMARK    4  A    between atoms: C7_7  and  C8_8 
REMARK    5  A    between atoms: C8_8  and  N9_9 
REMARK    6  A    between atoms: C8_8  and  C13_13 
REMARK    7  A    between atoms: C8_8  and  C16_16 
ROOT
ATOM      1  C8  <0> d   1      18.783   1.141   9.543  0.00  0.00     0.267 C 
ENDROOT
BRANCH   1   2
ATOM      2  C7  <0> d   1      19.823   0.241  10.213  0.00  0.00     0.058 C 
BRANCH   2   3
ATOM      3  C6  <0> d   1      19.271  -0.274  11.544  0.00  0.00     0.030 C 
BRANCH   3   4
ATOM      4  C5  <0> d   1      20.200   0.153  12.681  0.00  0.00     0.230 C 
BRANCH   4   5
ATOM      5  N1  <0> d   1      21.469   0.638  12.120  0.00  0.00    -0.079 N 
ATOM      6  H2  <0> d   1      22.186   0.600  12.829  0.00  0.00     0.274 HD
ATOM      7  H3  <0> d   1      21.356   1.591  11.807  0.00  0.00     0.274 HD
ATOM      8  H4  <0> d   1      21.736   0.057  11.340  0.00  0.00     0.274 HD
ENDBRANCH   4   5
ENDBRANCH   3   4
ENDBRANCH   2   3
ENDBRANCH   1   2
BRANCH   1   9
ATOM      9  N9  <0> d   1      17.530   0.395   9.370  0.00  0.00    -0.055 N 
ATOM     10  H10 <0> d   1      17.731  -0.516   8.987  0.00  0.00     0.276 HD
ATOM     11  H11 <0> d   1      17.076   0.290  10.266  0.00  0.00     0.276 HD
ATOM     12  H12 <0> d   1      16.922   0.899   8.742  0.00  0.00     0.276 HD
ENDBRANCH   1   9
BRANCH   1  13
ATOM     13  C13 <0> d   1      18.535   2.350  10.406  0.00  0.00     0.216 C 
ATOM     14  O14 <0> d   1      19.474   3.000  10.831  0.00  0.00    -0.646 OA
ATOM     15  O15 <0> d   1      17.393   2.678  10.681  0.00  0.00    -0.646 OA
ENDBRANCH   1  13
BRANCH   1  16
ATOM     16  C16 <0> d   1      19.303   1.589   8.175  0.00  0.00     0.399 C 
ATOM     17  F17 <0> d   1      18.824   0.723   7.187  0.00  0.00    -0.211 F 
ATOM     18  F18 <0> d   1      18.861   2.889   7.911  0.00  0.00    -0.211 F 
ENDBRANCH   1  16
TORSDOF 7
ENDMDL
MODEL 8
REMARK VINA RESULT:      -4.2      3.629      4.429
REMARK  7 active torsions:
REMARK  status: ('A' for Active; 'I' for Inactive)
REMARK    1  A    between atoms: N1_1  and  C5_5 
REMARK    2  A    between atoms: C5_5  and  C6_6 
REMARK    3  A    between atoms: C6_6  and  C7_7 
REMARK    4  A    between atoms: C7_7  and  C8_8 
REMARK    5  A    between atoms: C8_8  and  N9_9 
REMARK    6  A    between atoms: C8_8  and  C13_13 
REMARK    7  A    between atoms: C8_8  and  C16_16 
ROOT
ATOM      1  C8  <0> d   1      20.083  -0.564  11.471  0.00  0.00     0.267 C 
ENDROOT
BRANCH   1   2
ATOM      2  C7  <0> d   1      19.033  -0.281  10.395  0.00  0.00     0.058 C 
BRANCH   2   3
ATOM      3  C6  <0> d   1      19.694  -0.313   9.015  0.00  0.00     0.030 C 
BRANCH   3   4
ATOM      4  C5  <0> d   1      19.325   0.954   8.243  0.00  0.00     0.230 C 
BRANCH   4   5
ATOM      5  N1  <0> d   1      19.625   2.134   9.066  0.00  0.00    -0.079 N 
ATOM      6  H2  <0> d   1      20.399   2.639   8.661  0.00  0.00     0.274 HD
ATOM      7  H3  <0> d   1      19.869   1.838  10.000  0.00  0.00     0.274 HD
ATOM      8  H4  <0> d   1      18.815   2.733   9.104  0.00  0.00     0.274 HD
ENDBRANCH   4   5
ENDBRANCH   3   4
ENDBRANCH   2   3
ENDBRANCH   1   2
BRANCH   1   9
ATOM      9  N9  <0> d   1      21.402  -0.709  10.841  0.00  0.00    -0.055 N 
ATOM     10  H10 <0> d   1      21.430  -0.165   9.992  0.00  0.00     0.276 HD
ATOM     11  H11 <0> d   1      22.115  -0.379  11.475  0.00  0.00     0.276 HD
ATOM     12  H12 <0> d   1      21.567  -1.680  10.625  0.00  0.00     0.276 HD
ENDBRANCH   1   9
BRANCH   1  13
ATOM     13  C13 <0> d   1      20.116   0.579  12.453  0.00  0.00     0.216 C 
ATOM     14  O14 <0> d   1      20.010   1.726  12.057  0.00  0.00    -0.646 OA
ATOM     15  O15 <0> d   1      20.249   0.354  13.644  0.00  0.00    -0.646 OA
ENDBRANCH   1  13
BRANCH   1  16
ATOM     16  C16 <0> d   1      19.724  -1.858  12.205  0.00  0.00     0.399 C 
ATOM     17  F17 <0> d   1      18.333  -2.004  12.239  0.00  0.00    -0.211 F 
ATOM     18  F18 <0> d   1      20.291  -2.947  11.537  0.00  0.00    -0.211 F 
ENDBRANCH   1  16
TORSDOF 7
ENDMDL
MODEL 9
REMARK VINA RESULT:      -4.1      3.588      4.503
REMARK  7 active torsions:
REMARK  status: ('A' for Active; 'I' for Inactive)
REMARK    1  A    between atoms: N1_1  and  C5_5 
REMARK    2  A    between atoms: C5_5  and  C6_6 
REMARK    3  A    between atoms: C6_6  and  C7_7 
REMARK    4  A    between atoms: C7_7  and  C8_8 
REMARK    5  A    between atoms: C8_8  and  N9_9 
REMARK    6  A    between atoms: C8_8  and  C13_13 
REMARK    7  A    between atoms: C8_8  and  C16_16 
ROOT
ATOM      1  C8  <0> d   1      19.349  -0.435   9.278  0.00  0.00     0.267 C 
ENDROOT
BRANCH   1   2
ATOM      2  C7  <0> d   1      18.558  -0.851  10.519  0.00  0.00     0.058 C 
BRANCH   2   3
ATOM      3  C6  <0> d   1      19.521  -1.081  11.685  0.00  0.00     0.030 C 
BRANCH   3   4
ATOM      4  C5  <0> d   1      19.507  -2.560  12.075  0.00  0.00     0.230 C 
BRANCH   4   5
ATOM      5  N1  <0> d   1      20.600  -3.258  11.383  0.00  0.00    -0.079 N 
ATOM      6  H2  <0> d   1      20.815  -4.114  11.872  0.00  0.00     0.274 HD
ATOM      7  H3  <0> d   1      21.418  -2.666  11.364  0.00  0.00     0.274 HD
ATOM      8  H4  <0> d   1      20.318  -3.471  10.438  0.00  0.00     0.274 HD
ENDBRANCH   4   5
ENDBRANCH   3   4
ENDBRANCH   2   3
ENDBRANCH   1   2
BRANCH   1   9
ATOM      9  N9  <0> d   1      20.756  -0.224   9.643  0.00  0.00    -0.055 N 
ATOM     10  H10 <0> d   1      20.893  -0.470  10.611  0.00  0.00     0.276 HD
ATOM     11  H11 <0> d   1      21.345  -0.804   9.062  0.00  0.00     0.276 HD
ATOM     12  H12 <0> d   1      20.998   0.746   9.504  0.00  0.00     0.276 HD
ENDBRANCH   1   9
BRANCH   1  13
ATOM     13  C13 <0> d   1      19.257  -1.521   8.236  0.00  0.00     0.216 C 
ATOM     14  O14 <0> d   1      19.315  -1.237   7.053  0.00  0.00    -0.646 OA
ATOM     15  O15 <0> d   1      19.124  -2.683   8.579  0.00  0.00    -0.646 OA
ENDBRANCH   1  13
BRANCH   1  16
ATOM     16  C16 <0> d   1      18.768   0.863   8.714  0.00  0.00     0.399 C 
ATOM     17  F17 <0> d   1      17.860   1.404   9.631  0.00  0.00    -0.211 F 
ATOM     18  F18 <0> d   1      19.801   1.777   8.486  0.00  0.00    -0.211 F 
ENDBRANCH   1  16
TORSDOF 7
ENDMDL
