MODEL 1
REMARK VINA RESULT:      -3.5      0.000      0.000
REMARK  3 active torsions:
REMARK  status: ('A' for Active; 'I' for Inactive)
REMARK    1  A    between atoms: N1_1  and  C5_5 
REMARK    2  A    between atoms: C5_5  and  C6_6 
REMARK    3  A    between atoms: C6_6  and  C7_7 
ROOT
ATOM      1  C7  <0> d   1      19.355   1.221  10.709  0.00  0.00     0.052 A 
ATOM      2  C8  <0> d   1      19.313   2.278   9.876  0.00  0.00     0.116 A 
ATOM      3  N9  <0> d   1      19.500   1.791   8.610  0.00  0.00    -0.359 N 
ATOM      4  C10 <0> d   1      19.650   0.453   8.714  0.00  0.00     0.207 A 
ATOM      5  N11 <0> d   1      19.568   0.120   9.973  0.00  0.00    -0.247 NA
ATOM      6  H17 <0> d   1      19.520   2.310   7.791  0.00  0.00     0.166 HD
ENDROOT
BRANCH   1   7
ATOM      7  C6  <0> d   1      19.198   1.268  12.207  0.00  0.00     0.088 C 
BRANCH   7   8
ATOM      8  C5  <0> d   1      20.264   0.386  12.859  0.00  0.00     0.235 C 
BRANCH   8   9
ATOM      9  N1  <0> d   1      21.558   0.615  12.205  0.00  0.00    -0.079 N 
ATOM     10  H2  <0> d   1      22.203  -0.114  12.469  0.00  0.00     0.274 HD
ATOM     11  H3  <0> d   1      21.927   1.510  12.491  0.00  0.00     0.274 HD
ATOM     12  H4  <0> d   1      21.435   0.607  11.203  0.00  0.00     0.274 HD
ENDBRANCH   8   9
ENDBRANCH   7   8
ENDBRANCH   1   7
TORSDOF 3
ENDMDL
MODEL 2
REMARK VINA RESULT:      -3.5      1.745      2.274
REMARK  3 active torsions:
REMARK  status: ('A' for Active; 'I' for Inactive)
REMARK    1  A    between atoms: N1_1  and  C5_5 
REMARK    2  A    between atoms: C5_5  and  C6_6 
REMARK    3  A    between atoms: C6_6  and  C7_7 
ROOT
ATOM      1  C7  <0> d   1      19.286   1.228   9.882  0.00  0.00     0.052 A 
ATOM      2  C8  <0> d   1      18.845   2.185   9.044  0.00  0.00     0.116 A 
ATOM      3  N9  <0> d   1      18.579   3.289   9.809  0.00  0.00    -0.359 N 
ATOM      4  C10 <0> d   1      18.866   2.967  11.089  0.00  0.00     0.207 A 
ATOM      5  N11 <0> d   1      19.283   1.731  11.126  0.00  0.00    -0.247 NA
ATOM      6  H17 <0> d   1      18.246   4.142   9.491  0.00  0.00     0.166 HD
ENDROOT
BRANCH   1   7
ATOM      7  C6  <0> d   1      19.703  -0.167   9.492  0.00  0.00     0.088 C 
BRANCH   7   8
ATOM      8  C5  <0> d   1      20.205  -0.914  10.729  0.00  0.00     0.235 C 
BRANCH   8   9
ATOM      9  N1  <0> d   1      21.594  -0.526  11.006  0.00  0.00    -0.079 N 
ATOM     10  H2  <0> d   1      21.840  -0.803  11.944  0.00  0.00     0.274 HD
ATOM     11  H3  <0> d   1      21.689   0.474  10.914  0.00  0.00     0.274 HD
ATOM     12  H4  <0> d   1      22.208  -0.984  10.348  0.00  0.00     0.274 HD
ENDBRANCH   8   9
ENDBRANCH   7   8
ENDBRANCH   1   7
TORSDOF 3
ENDMDL
MODEL 3
REMARK VINA RESULT:      -3.5      2.264      4.406
REMARK  3 active torsions:
REMARK  status: ('A' for Active; 'I' for Inactive)
REMARK    1  A    between atoms: N1_1  and  C5_5 
REMARK    2  A    between atoms: C5_5  and  C6_6 
REMARK    3  A    between atoms: C6_6  and  C7_7 
ROOT
ATOM      1  C7  <0> d   1      19.170   0.806   7.760  0.00  0.00     0.052 A 
ATOM      2  C8  <0> d   1      19.336   1.771   8.685  0.00  0.00     0.116 A 
ATOM      3  N9  <0> d   1      19.798   1.157   9.818  0.00  0.00    -0.359 N 
ATOM      4  C10 <0> d   1      19.897  -0.163   9.546  0.00  0.00     0.207 A 
ATOM      5  N11 <0> d   1      19.513  -0.366   8.316  0.00  0.00    -0.247 NA
ATOM      6  H17 <0> d   1      20.014   1.588  10.659  0.00  0.00     0.166 HD
ENDROOT
BRANCH   1   7
ATOM      7  C6  <0> d   1      18.675   1.007   6.351  0.00  0.00     0.088 C 
BRANCH   7   8
ATOM      8  C5  <0> d   1      17.747  -0.146   5.967  0.00  0.00     0.235 C 
BRANCH   8   9
ATOM      9  N1  <0> d   1      16.820  -0.418   7.072  0.00  0.00    -0.079 N 
ATOM     10  H2  <0> d   1      17.162  -1.195   7.616  0.00  0.00     0.274 HD
ATOM     11  H3  <0> d   1      15.909  -0.645   6.699  0.00  0.00     0.274 HD
ATOM     12  H4  <0> d   1      16.748   0.399   7.660  0.00  0.00     0.274 HD
ENDBRANCH   8   9
ENDBRANCH   7   8
ENDBRANCH   1   7
TORSDOF 3
ENDMDL
MODEL 4
REMARK VINA RESULT:      -3.5      2.766      4.301
REMARK  3 active torsions:
REMARK  status: ('A' for Active; 'I' for Inactive)
REMARK    1  A    between atoms: N1_1  and  C5_5 
REMARK    2  A    between atoms: C5_5  and  C6_6 
REMARK    3  A    between atoms: C6_6  and  C7_7 
ROOT
ATOM      1  C7  <0> d   1      19.081   1.265  14.121  0.00  0.00     0.052 A 
ATOM      2  C8  <0> d   1      18.361   1.464  15.241  0.00  0.00     0.116 A 
ATOM      3  N9  <0> d   1      17.836   2.725  15.155  0.00  0.00    -0.359 N 
ATOM      4  C10 <0> d   1      18.254   3.254  13.984  0.00  0.00     0.207 A 
ATOM      5  N11 <0> d   1      19.003   2.377  13.374  0.00  0.00    -0.247 NA
ATOM      6  H17 <0> d   1      17.269   3.159  15.812  0.00  0.00     0.166 HD
ENDROOT
BRANCH   1   7
ATOM      7  C6  <0> d   1      19.847   0.016  13.771  0.00  0.00     0.088 C 
BRANCH   7   8
ATOM      8  C5  <0> d   1      20.219   0.044  12.288  0.00  0.00     0.235 C 
BRANCH   8   9
ATOM      9  N1  <0> d   1      21.549   0.645  12.128  0.00  0.00    -0.079 N 
ATOM     10  H2  <0> d   1      21.452   1.621  11.889  0.00  0.00     0.274 HD
ATOM     11  H3  <0> d   1      22.049   0.168  11.392  0.00  0.00     0.274 HD
ATOM     12  H4  <0> d   1      22.063   0.561  12.992  0.00  0.00     0.274 HD
ENDBRANCH   8   9
ENDBRANCH   7   8
ENDBRANCH   1   7
TORSDOF 3
ENDMDL
MODEL 5
REMARK VINA RESULT:      -3.5      3.315      4.111
REMARK  3 active torsions:
REMARK  status: ('A' for Active; 'I' for Inactive)
REMARK    1  A    between atoms: N1_1  and  C5_5 
REMARK    2  A    between atoms: C5_5  and  C6_6 
REMARK    3  A    between atoms: C6_6  and  C7_7 
ROOT
ATOM      1  C7  <0> d   1      19.572  -2.561  11.209  0.00  0.00     0.052 A 
ATOM      2  C8  <0> d   1      20.090  -3.784  11.431  0.00  0.00     0.116 A 
ATOM      3  N9  <0> d   1      19.868  -4.519  10.298  0.00  0.00    -0.359 N 
ATOM      4  C10 <0> d   1      19.221  -3.720   9.422  0.00  0.00     0.207 A 
ATOM      5  N11 <0> d   1      19.042  -2.552   9.977  0.00  0.00    -0.247 NA
ATOM      6  H17 <0> d   1      20.127  -5.442  10.151  0.00  0.00     0.166 HD
ENDROOT
BRANCH   1   7
ATOM      7  C6  <0> d   1      19.579  -1.408  12.179  0.00  0.00     0.088 C 
BRANCH   7   8
ATOM      8  C5  <0> d   1      20.240  -0.194  11.524  0.00  0.00     0.235 C 
BRANCH   8   9
ATOM      9  N1  <0> d   1      21.522  -0.595  10.930  0.00  0.00    -0.079 N 
ATOM     10  H2  <0> d   1      21.806   0.090  10.246  0.00  0.00     0.274 HD
ATOM     11  H3  <0> d   1      21.420  -1.494  10.483  0.00  0.00     0.274 HD
ATOM     12  H4  <0> d   1      22.223  -0.658  11.654  0.00  0.00     0.274 HD
ENDBRANCH   8   9
ENDBRANCH   7   8
ENDBRANCH   1   7
TORSDOF 3
ENDMDL
MODEL 6
REMARK VINA RESULT:      -3.5      1.577      2.214
REMARK  3 active torsions:
REMARK  status: ('A' for Active; 'I' for Inactive)
REMARK    1  A    between atoms: N1_1  and  C5_5 
REMARK    2  A    between atoms: C5_5  and  C6_6 
REMARK    3  A    between atoms: C6_6  and  C7_7 
ROOT
ATOM      1  C7  <0> d   1      19.445  -0.756  10.929  0.00  0.00     0.052 A 
ATOM      2  C8  <0> d   1      19.468  -1.975  10.357  0.00  0.00     0.116 A 
ATOM      3  N9  <0> d   1      19.602  -1.776   9.009  0.00  0.00    -0.359 N 
ATOM      4  C10 <0> d   1      19.656  -0.442   8.804  0.00  0.00     0.207 A 
ATOM      5  N11 <0> d   1      19.554   0.162   9.957  0.00  0.00    -0.247 NA
ATOM      6  H17 <0> d   1      19.650  -2.465   8.328  0.00  0.00     0.166 HD
ENDROOT
BRANCH   1   7
ATOM      7  C6  <0> d   1      19.310  -0.473  12.403  0.00  0.00     0.088 C 
BRANCH   7   8
ATOM      8  C5  <0> d   1      20.214   0.700  12.782  0.00  0.00     0.235 C 
BRANCH   8   9
ATOM      9  N1  <0> d   1      21.526   0.535  12.142  0.00  0.00    -0.079 N 
ATOM     10  H2  <0> d   1      21.833   1.421  11.769  0.00  0.00     0.274 HD
ATOM     11  H3  <0> d   1      21.453  -0.138  11.393  0.00  0.00     0.274 HD
ATOM     12  H4  <0> d   1      22.194   0.208  12.824  0.00  0.00     0.274 HD
ENDBRANCH   8   9
ENDBRANCH   7   8
ENDBRANCH   1   7
TORSDOF 3
ENDMDL
MODEL 7
REMARK VINA RESULT:      -3.4      3.424      5.110
REMARK  3 active torsions:
REMARK  status: ('A' for Active; 'I' for Inactive)
REMARK    1  A    between atoms: N1_1  and  C5_5 
REMARK    2  A    between atoms: C5_5  and  C6_6 
REMARK    3  A    between atoms: C6_6  and  C7_7 
ROOT
ATOM      1  C7  <0> d   1      18.785  -0.304  14.674  0.00  0.00     0.052 A 
ATOM      2  C8  <0> d   1      18.068   0.834  14.748  0.00  0.00     0.116 A 
ATOM      3  N9  <0> d   1      17.187   0.679  15.784  0.00  0.00    -0.359 N 
ATOM      4  C10 <0> d   1      17.395  -0.548  16.307  0.00  0.00     0.207 A 
ATOM      5  N11 <0> d   1      18.348  -1.133  15.634  0.00  0.00    -0.247 NA
ATOM      6  H17 <0> d   1      16.535   1.330  16.086  0.00  0.00     0.166 HD
ENDROOT
BRANCH   1   7
ATOM      7  C6  <0> d   1      19.880  -0.597  13.681  0.00  0.00     0.088 C 
BRANCH   7   8
ATOM      8  C5  <0> d   1      20.116   0.632  12.804  0.00  0.00     0.235 C 
BRANCH   8   9
ATOM      9  N1  <0> d   1      21.455   0.557  12.205  0.00  0.00    -0.079 N 
ATOM     10  H2  <0> d   1      21.383   0.662  11.204  0.00  0.00     0.274 HD
ATOM     11  H3  <0> d   1      21.871  -0.337  12.420  0.00  0.00     0.274 HD
ATOM     12  H4  <0> d   1      22.033   1.295  12.579  0.00  0.00     0.274 HD
ENDBRANCH   8   9
ENDBRANCH   7   8
ENDBRANCH   1   7
TORSDOF 3
ENDMDL
MODEL 8
REMARK VINA RESULT:      -3.4      2.636      3.438
REMARK  3 active torsions:
REMARK  status: ('A' for Active; 'I' for Inactive)
REMARK    1  A    between atoms: N1_1  and  C5_5 
REMARK    2  A    between atoms: C5_5  and  C6_6 
REMARK    3  A    between atoms: C6_6  and  C7_7 
ROOT
ATOM      1  C7  <0> d   1      19.023  -1.366   9.080  0.00  0.00     0.052 A 
ATOM      2  C8  <0> d   1      18.274  -1.579   7.982  0.00  0.00     0.116 A 
ATOM      3  N9  <0> d   1      17.751  -2.839   8.098  0.00  0.00    -0.359 N 
ATOM      4  C10 <0> d   1      18.200  -3.353   9.264  0.00  0.00     0.207 A 
ATOM      5  N11 <0> d   1      18.965  -2.469   9.843  0.00  0.00    -0.247 NA
ATOM      6  H17 <0> d   1      17.167  -3.280   7.462  0.00  0.00     0.166 HD
ENDROOT
BRANCH   1   7
ATOM      7  C6  <0> d   1      19.799  -0.113   9.394  0.00  0.00     0.088 C 
BRANCH   7   8
ATOM      8  C5  <0> d   1      20.127  -0.076  10.887  0.00  0.00     0.235 C 
BRANCH   8   9
ATOM      9  N1  <0> d   1      21.509  -0.525  11.096  0.00  0.00    -0.079 N 
ATOM     10  H2  <0> d   1      21.968  -0.633  10.203  0.00  0.00     0.274 HD
ATOM     11  H3  <0> d   1      21.507  -1.410  11.581  0.00  0.00     0.274 HD
ATOM     12  H4  <0> d   1      22.006   0.159  11.648  0.00  0.00     0.274 HD
ENDBRANCH   8   9
ENDBRANCH   7   8
ENDBRANCH   1   7
TORSDOF 3
ENDMDL
MODEL 9
REMARK VINA RESULT:      -3.4      1.668      2.317
REMARK  3 active torsions:
REMARK  status: ('A' for Active; 'I' for Inactive)
REMARK    1  A    between atoms: N1_1  and  C5_5 
REMARK    2  A    between atoms: C5_5  and  C6_6 
REMARK    3  A    between atoms: C6_6  and  C7_7 
ROOT
ATOM      1  C7  <0> d   1      19.351   1.275  10.238  0.00  0.00     0.052 A 
ATOM      2  C8  <0> d   1      19.631   0.644   9.082  0.00  0.00     0.116 A 
ATOM      3  N9  <0> d   1      20.252  -0.530   9.412  0.00  0.00    -0.359 N 
ATOM      4  C10 <0> d   1      20.331  -0.576  10.760  0.00  0.00     0.207 A 
ATOM      5  N11 <0> d   1      19.796   0.510  11.247  0.00  0.00    -0.247 NA
ATOM      6  H17 <0> d   1      20.575  -1.204   8.794  0.00  0.00     0.166 HD
ENDROOT
BRANCH   1   7
ATOM      7  C6  <0> d   1      18.667   2.610  10.375  0.00  0.00     0.088 C 
BRANCH   7   8
ATOM      8  C5  <0> d   1      19.289   3.386  11.537  0.00  0.00     0.235 C 
BRANCH   8   9
ATOM      9  N1  <0> d   1      20.749   3.238  11.499  0.00  0.00    -0.079 N 
ATOM     10  H2  <0> d   1      21.128   3.394  12.421  0.00  0.00     0.274 HD
ATOM     11  H3  <0> d   1      21.139   3.913  10.857  0.00  0.00     0.274 HD
ATOM     12  H4  <0> d   1      20.986   2.307  11.192  0.00  0.00     0.274 HD
ENDBRANCH   8   9
ENDBRANCH   7   8
ENDBRANCH   1   7
TORSDOF 3
ENDMDL
