MODEL 1
REMARK VINA RESULT:      -8.7      0.000      0.000
REMARK  17 active torsions:
REMARK  status: ('A' for Active; 'I' for Inactive)
REMARK    1  A    between atoms: C10_9  and  O11_10 
REMARK    2  A    between atoms: C15_14  and  C17_15 
REMARK    3  A    between atoms: C17_15  and  C18_16 
REMARK    4  A    between atoms: C18_16  and  C19_17 
REMARK    5  A    between atoms: C19_17  and  C20_18 
REMARK    6  A    between atoms: C20_18  and  C21_19 
REMARK    7  A    between atoms: C21_19  and  C22_20 
REMARK    8  A    between atoms: C22_20  and  C23_21 
REMARK    9  A    between atoms: C23_21  and  C24_22 
REMARK   10  A    between atoms: C24_22  and  C25_23 
REMARK   11  A    between atoms: C25_23  and  S26_24 
REMARK   12  A    between atoms: S26_24  and  C28_26 
REMARK   13  A    between atoms: C28_26  and  C29_27 
REMARK   14  A    between atoms: C29_27  and  C30_28 
REMARK   15  A    between atoms: C30_28  and  C31_29 
REMARK   16  A    between atoms: C31_29  and  C34_32 
REMARK   17  A    between atoms: C44_40  and  O46_41 
ROOT
ATOM      1  C1  ZIN A   1      20.035  -3.443  11.831  0.00  0.00     0.018 C 
ATOM      2  C2  ZIN A   1      18.949  -2.382  11.642  0.00  0.00    -0.014 C 
ATOM      3  C3  ZIN A   1      17.584  -3.033  11.718  0.00  0.00     0.013 C 
ATOM      4  C4  ZIN A   1      17.546  -4.160  10.668  0.00  0.00     0.010 C 
ATOM      5  C5  ZIN A   1      17.846  -3.613   9.280  0.00  0.00     0.024 C 
ATOM      6  C7  ZIN A   1      17.847  -4.697   8.241  0.00  0.00    -0.047 A 
ATOM      7  C8  ZIN A   1      16.971  -5.761   8.400  0.00  0.00     0.011 A 
ATOM      8  C9  ZIN A   1      16.924  -6.777   7.470  0.00  0.00     0.037 A 
ATOM      9  C10 ZIN A   1      17.761  -6.736   6.365  0.00  0.00     0.066 A 
ATOM     10  C12 ZIN A   1      18.639  -5.677   6.209  0.00  0.00     0.044 A 
ATOM     11  C13 ZIN A   1      18.689  -4.656   7.149  0.00  0.00    -0.048 A 
ATOM     12  C14 ZIN A   1      19.690  -3.552   6.928  0.00  0.00     0.044 C 
ATOM     13  C15 ZIN A   1      19.396  -2.348   7.823  0.00  0.00    -0.005 C 
ATOM     14  C38 ZIN A   1      19.189  -2.871   9.244  0.00  0.00     0.003 C 
ATOM     15  C40 ZIN A   1      19.093  -1.732  10.238  0.00  0.00     0.001 C 
ATOM     16  C42 ZIN A   1      20.352  -0.870  10.395  0.00  0.00     0.008 C 
ATOM     17  C43 ZIN A   1      20.181  -0.257  11.811  0.00  0.00     0.033 C 
ATOM     18  C44 ZIN A   1      19.198  -1.220  12.596  0.00  0.00     0.126 C 
ENDROOT
BRANCH  13  19
ATOM     19  C17 ZIN A   1      18.136  -1.634   7.330  0.00  0.00     0.005 C 
BRANCH  19  20
ATOM     20  C18 ZIN A   1      18.504  -0.235   6.833  0.00  0.00     0.000 C 
BRANCH  20  21
ATOM     21  C19 ZIN A   1      18.055   0.805   7.861  0.00  0.00     0.000 C 
BRANCH  21  22
ATOM     22  C20 ZIN A   1      19.231   1.723   8.204  0.00  0.00     0.000 C 
BRANCH  22  23
ATOM     23  C21 ZIN A   1      18.845   2.629   9.375  0.00  0.00     0.000 C 
BRANCH  23  24
ATOM     24  C22 ZIN A   1      17.724   1.969  10.182  0.00  0.00     0.000 C 
BRANCH  24  25
ATOM     25  C23 ZIN A   1      17.754   2.491  11.620  0.00  0.00     0.001 C 
BRANCH  25  26
ATOM     26  C24 ZIN A   1      18.326   3.910  11.635  0.00  0.00     0.012 C 
BRANCH  26  27
ATOM     27  C25 ZIN A   1      19.042   4.158  12.964  0.00  0.00     0.108 C 
BRANCH  27  28
ATOM     28  S26 ZIN A   1      18.020   3.536  14.327  0.00  0.00     0.015 S 
ATOM     29  O27 ZIN A   1      17.543   4.629  15.100  0.00  0.00    -0.258 OA
BRANCH  28  30
ATOM     30  C28 ZIN A   1      19.197   2.567  15.310  0.00  0.00     0.109 C 
BRANCH  30  31
ATOM     31  C29 ZIN A   1      18.622   2.331  16.708  0.00  0.00     0.019 C 
BRANCH  31  32
ATOM     32  C30 ZIN A   1      19.205   1.041  17.289  0.00  0.00     0.090 C 
BRANCH  32  33
ATOM     33  C31 ZIN A   1      18.070   0.146  17.786  0.00  0.00     0.339 C 
ATOM     34  F32 ZIN A   1      18.446  -0.461  18.989  0.00  0.00    -0.196 F 
ATOM     35  F33 ZIN A   1      16.922   0.920  17.993  0.00  0.00    -0.196 F 
BRANCH  33  36
ATOM     36  C34 ZIN A   1      17.775  -0.932  16.741  0.00  0.00     0.454 C 
ATOM     37  F35 ZIN A   1      17.611  -0.334  15.487  0.00  0.00    -0.165 F 
ATOM     38  F36 ZIN A   1      18.841  -1.837  16.690  0.00  0.00    -0.165 F 
ATOM     39  F37 ZIN A   1      16.603  -1.612  17.090  0.00  0.00    -0.165 F 
ENDBRANCH  33  36
ENDBRANCH  32  33
ENDBRANCH  31  32
ENDBRANCH  30  31
ENDBRANCH  28  30
ENDBRANCH  27  28
ENDBRANCH  26  27
ENDBRANCH  25  26
ENDBRANCH  24  25
ENDBRANCH  23  24
ENDBRANCH  22  23
ENDBRANCH  21  22
ENDBRANCH  20  21
ENDBRANCH  19  20
ENDBRANCH  13  19
BRANCH   9  40
ATOM     40  O11 ZIN A   1      17.720  -7.729   5.439  0.00  0.00    -0.361 OA
ATOM     41  H56 ZIN A   1      17.942  -8.604   5.787  0.00  0.00     0.217 HD
ENDBRANCH   9  40
BRANCH  18  42
ATOM     42  O46 ZIN A   1      19.822  -1.699  13.789  0.00  0.00    -0.395 OA
ATOM     43  H88 ZIN A   1      20.717  -2.040  13.654  0.00  0.00     0.210 HD
ENDBRANCH  18  42
TORSDOF 17
ENDMDL
MODEL 2
REMARK VINA RESULT:      -8.5      4.007      8.912
REMARK  17 active torsions:
REMARK  status: ('A' for Active; 'I' for Inactive)
REMARK    1  A    between atoms: C10_9  and  O11_10 
REMARK    2  A    between atoms: C15_14  and  C17_15 
REMARK    3  A    between atoms: C17_15  and  C18_16 
REMARK    4  A    between atoms: C18_16  and  C19_17 
REMARK    5  A    between atoms: C19_17  and  C20_18 
REMARK    6  A    between atoms: C20_18  and  C21_19 
REMARK    7  A    between atoms: C21_19  and  C22_20 
REMARK    8  A    between atoms: C22_20  and  C23_21 
REMARK    9  A    between atoms: C23_21  and  C24_22 
REMARK   10  A    between atoms: C24_22  and  C25_23 
REMARK   11  A    between atoms: C25_23  and  S26_24 
REMARK   12  A    between atoms: S26_24  and  C28_26 
REMARK   13  A    between atoms: C28_26  and  C29_27 
REMARK   14  A    between atoms: C29_27  and  C30_28 
REMARK   15  A    between atoms: C30_28  and  C31_29 
REMARK   16  A    between atoms: C31_29  and  C34_32 
REMARK   17  A    between atoms: C44_40  and  O46_41 
ROOT
ATOM      1  C1  ZIN A   1      17.166   0.757  16.382  0.00  0.00     0.018 C 
ATOM      2  C2  ZIN A   1      18.690   0.626  16.329  0.00  0.00    -0.014 C 
ATOM      3  C3  ZIN A   1      19.323   1.993  16.471  0.00  0.00     0.013 C 
ATOM      4  C4  ZIN A   1      18.734   2.897  15.371  0.00  0.00     0.010 C 
ATOM      5  C5  ZIN A   1      18.974   2.292  13.994  0.00  0.00     0.024 C 
ATOM      6  C7  ZIN A   1      18.382   3.137  12.904  0.00  0.00    -0.047 A 
ATOM      7  C8  ZIN A   1      18.371   4.514  13.071  0.00  0.00     0.011 A 
ATOM      8  C9  ZIN A   1      17.848   5.337  12.095  0.00  0.00     0.037 A 
ATOM      9  C10 ZIN A   1      17.329   4.781  10.936  0.00  0.00     0.066 A 
ATOM     10  C12 ZIN A   1      17.335   3.407  10.770  0.00  0.00     0.044 A 
ATOM     11  C13 ZIN A   1      17.857   2.579  11.756  0.00  0.00    -0.048 A 
ATOM     12  C14 ZIN A   1      17.803   1.093  11.519  0.00  0.00     0.044 C 
ATOM     13  C15 ZIN A   1      18.710   0.342  12.494  0.00  0.00    -0.005 C 
ATOM     14  C38 ZIN A   1      18.411   0.868  13.898  0.00  0.00     0.003 C 
ATOM     15  C40 ZIN A   1      19.115   0.040  14.954  0.00  0.00     0.001 C 
ATOM     16  C42 ZIN A   1      18.676  -1.424  15.062  0.00  0.00     0.008 C 
ATOM     17  C43 ZIN A   1      19.067  -1.800  16.517  0.00  0.00     0.033 C 
ATOM     18  C44 ZIN A   1      19.146  -0.438  17.321  0.00  0.00     0.126 C 
ENDROOT
BRANCH  13  19
ATOM     19  C17 ZIN A   1      20.176   0.591  12.133  0.00  0.00     0.005 C 
BRANCH  19  20
ATOM     20  C18 ZIN A   1      20.716  -0.602  11.342  0.00  0.00     0.000 C 
BRANCH  20  21
ATOM     21  C19 ZIN A   1      19.573  -1.574  11.042  0.00  0.00     0.000 C 
BRANCH  21  22
ATOM     22  C20 ZIN A   1      19.949  -2.972  11.538  0.00  0.00     0.000 C 
BRANCH  22  23
ATOM     23  C21 ZIN A   1      18.695  -3.685  12.049  0.00  0.00     0.000 C 
BRANCH  23  24
ATOM     24  C22 ZIN A   1      17.609  -3.640  10.971  0.00  0.00     0.000 C 
BRANCH  24  25
ATOM     25  C23 ZIN A   1      16.825  -4.954  10.982  0.00  0.00     0.001 C 
BRANCH  25  26
ATOM     26  C24 ZIN A   1      17.392  -5.895   9.917  0.00  0.00     0.012 C 
BRANCH  26  27
ATOM     27  C25 ZIN A   1      17.422  -5.177   8.566  0.00  0.00     0.108 C 
BRANCH  27  28
ATOM     28  S26 ZIN A   1      19.069  -5.347   7.826  0.00  0.00     0.015 S 
ATOM     29  O27 ZIN A   1      20.054  -5.319   8.850  0.00  0.00    -0.258 OA
BRANCH  28  30
ATOM     30  C28 ZIN A   1      19.214  -3.856   6.805  0.00  0.00     0.109 C 
BRANCH  30  31
ATOM     31  C29 ZIN A   1      19.243  -2.620   7.707  0.00  0.00     0.019 C 
BRANCH  31  32
ATOM     32  C30 ZIN A   1      18.121  -1.663   7.299  0.00  0.00     0.090 C 
BRANCH  32  33
ATOM     33  C31 ZIN A   1      18.553  -0.223   7.579  0.00  0.00     0.339 C 
ATOM     34  F32 ZIN A   1      17.664   0.364   8.485  0.00  0.00    -0.196 F 
ATOM     35  F33 ZIN A   1      19.842  -0.220   8.123  0.00  0.00    -0.196 F 
BRANCH  33  36
ATOM     36  C34 ZIN A   1      18.549   0.574   6.272  0.00  0.00     0.454 C 
ATOM     37  F35 ZIN A   1      17.277   0.511   5.693  0.00  0.00    -0.165 F 
ATOM     38  F36 ZIN A   1      18.875   1.908   6.538  0.00  0.00    -0.165 F 
ATOM     39  F37 ZIN A   1      19.490   0.030   5.392  0.00  0.00    -0.165 F 
ENDBRANCH  33  36
ENDBRANCH  32  33
ENDBRANCH  31  32
ENDBRANCH  30  31
ENDBRANCH  28  30
ENDBRANCH  27  28
ENDBRANCH  26  27
ENDBRANCH  25  26
ENDBRANCH  24  25
ENDBRANCH  23  24
ENDBRANCH  22  23
ENDBRANCH  21  22
ENDBRANCH  20  21
ENDBRANCH  19  20
ENDBRANCH  13  19
BRANCH   9  40
ATOM     40  O11 ZIN A   1      16.817   5.583   9.965  0.00  0.00    -0.361 OA
ATOM     41  H56 ZIN A   1      16.490   6.434  10.287  0.00  0.00     0.217 HD
ENDBRANCH   9  40
BRANCH  18  42
ATOM     42  O46 ZIN A   1      18.256  -0.471  18.438  0.00  0.00    -0.395 OA
ATOM     43  H88 ZIN A   1      17.712   0.324  18.531  0.00  0.00     0.210 HD
ENDBRANCH  18  42
TORSDOF 17
ENDMDL
MODEL 3
REMARK VINA RESULT:      -8.4      2.771      5.819
REMARK  17 active torsions:
REMARK  status: ('A' for Active; 'I' for Inactive)
REMARK    1  A    between atoms: C10_9  and  O11_10 
REMARK    2  A    between atoms: C15_14  and  C17_15 
REMARK    3  A    between atoms: C17_15  and  C18_16 
REMARK    4  A    between atoms: C18_16  and  C19_17 
REMARK    5  A    between atoms: C19_17  and  C20_18 
REMARK    6  A    between atoms: C20_18  and  C21_19 
REMARK    7  A    between atoms: C21_19  and  C22_20 
REMARK    8  A    between atoms: C22_20  and  C23_21 
REMARK    9  A    between atoms: C23_21  and  C24_22 
REMARK   10  A    between atoms: C24_22  and  C25_23 
REMARK   11  A    between atoms: C25_23  and  S26_24 
REMARK   12  A    between atoms: S26_24  and  C28_26 
REMARK   13  A    between atoms: C28_26  and  C29_27 
REMARK   14  A    between atoms: C29_27  and  C30_28 
REMARK   15  A    between atoms: C30_28  and  C31_29 
REMARK   16  A    between atoms: C31_29  and  C34_32 
REMARK   17  A    between atoms: C44_40  and  O46_41 
ROOT
ATOM      1  C1  ZIN A   1      17.374  -3.497  10.396  0.00  0.00     0.018 C 
ATOM      2  C2  ZIN A   1      18.813  -3.066  10.106  0.00  0.00    -0.014 C 
ATOM      3  C3  ZIN A   1      19.724  -3.565  11.208  0.00  0.00     0.013 C 
ATOM      4  C4  ZIN A   1      19.170  -3.037  12.545  0.00  0.00     0.010 C 
ATOM      5  C5  ZIN A   1      19.070  -1.518  12.524  0.00  0.00     0.024 C 
ATOM      6  C7  ZIN A   1      18.503  -0.979  13.805  0.00  0.00    -0.047 A 
ATOM      7  C8  ZIN A   1      18.797  -1.645  14.987  0.00  0.00     0.011 A 
ATOM      8  C9  ZIN A   1      18.309  -1.186  16.192  0.00  0.00     0.037 A 
ATOM      9  C10 ZIN A   1      17.518  -0.047  16.223  0.00  0.00     0.066 A 
ATOM     10  C12 ZIN A   1      17.221   0.615  15.044  0.00  0.00     0.044 A 
ATOM     11  C13 ZIN A   1      17.708   0.149  13.830  0.00  0.00    -0.048 A 
ATOM     12  C14 ZIN A   1      17.320   0.904  12.586  0.00  0.00     0.044 C 
ATOM     13  C15 ZIN A   1      18.192   0.503  11.397  0.00  0.00    -0.005 C 
ATOM     14  C38 ZIN A   1      18.224  -1.025  11.344  0.00  0.00     0.003 C 
ATOM     15  C40 ZIN A   1      18.898  -1.515  10.078  0.00  0.00     0.001 C 
ATOM     16  C42 ZIN A   1      18.193  -1.163   8.763  0.00  0.00     0.008 C 
ATOM     17  C43 ZIN A   1      18.716  -2.250   7.785  0.00  0.00     0.033 C 
ATOM     18  C44 ZIN A   1      19.189  -3.465   8.684  0.00  0.00     0.126 C 
ENDROOT
BRANCH  13  19
ATOM     19  C17 ZIN A   1      19.607   1.057  11.585  0.00  0.00     0.005 C 
BRANCH  19  20
ATOM     20  C18 ZIN A   1      19.679   2.473  11.009  0.00  0.00     0.000 C 
BRANCH  20  21
ATOM     21  C19 ZIN A   1      18.784   2.567   9.773  0.00  0.00     0.000 C 
BRANCH  21  22
ATOM     22  C20 ZIN A   1      17.990   3.875   9.816  0.00  0.00     0.000 C 
BRANCH  22  23
ATOM     23  C21 ZIN A   1      18.004   4.431  11.242  0.00  0.00     0.000 C 
BRANCH  23  24
ATOM     24  C22 ZIN A   1      16.957   5.541  11.366  0.00  0.00     0.000 C 
BRANCH  24  25
ATOM     25  C23 ZIN A   1      16.186   5.371  12.677  0.00  0.00     0.001 C 
BRANCH  25  26
ATOM     26  C24 ZIN A   1      16.597   6.471  13.656  0.00  0.00     0.012 C 
BRANCH  26  27
ATOM     27  C25 ZIN A   1      15.486   6.675  14.689  0.00  0.00     0.108 C 
BRANCH  27  28
ATOM     28  S26 ZIN A   1      16.093   6.205  16.332  0.00  0.00     0.015 S 
ATOM     29  O27 ZIN A   1      15.154   6.610  17.318  0.00  0.00    -0.258 OA
BRANCH  28  30
ATOM     30  C28 ZIN A   1      17.611   7.183  16.502  0.00  0.00     0.109 C 
BRANCH  30  31
ATOM     31  C29 ZIN A   1      18.757   6.273  16.951  0.00  0.00     0.019 C 
BRANCH  31  32
ATOM     32  C30 ZIN A   1      18.306   4.812  16.882  0.00  0.00     0.090 C 
BRANCH  32  33
ATOM     33  C31 ZIN A   1      19.421   3.963  16.271  0.00  0.00     0.339 C 
ATOM     34  F32 ZIN A   1      20.633   4.656  16.352  0.00  0.00    -0.196 F 
ATOM     35  F33 ZIN A   1      19.526   2.756  16.971  0.00  0.00    -0.196 F 
BRANCH  33  36
ATOM     36  C34 ZIN A   1      19.096   3.675  14.803  0.00  0.00     0.454 C 
ATOM     37  F35 ZIN A   1      19.591   4.711  14.004  0.00  0.00    -0.165 F 
ATOM     38  F36 ZIN A   1      19.690   2.467  14.422  0.00  0.00    -0.165 F 
ATOM     39  F37 ZIN A   1      17.709   3.584  14.642  0.00  0.00    -0.165 F 
ENDBRANCH  33  36
ENDBRANCH  32  33
ENDBRANCH  31  32
ENDBRANCH  30  31
ENDBRANCH  28  30
ENDBRANCH  27  28
ENDBRANCH  26  27
ENDBRANCH  25  26
ENDBRANCH  24  25
ENDBRANCH  23  24
ENDBRANCH  22  23
ENDBRANCH  21  22
ENDBRANCH  20  21
ENDBRANCH  19  20
ENDBRANCH  13  19
BRANCH   9  40
ATOM     40  O11 ZIN A   1      17.038   0.418  17.406  0.00  0.00    -0.361 OA
ATOM     41  H56 ZIN A   1      17.372  -0.054  18.181  0.00  0.00     0.217 HD
ENDBRANCH   9  40
BRANCH  18  42
ATOM     42  O46 ZIN A   1      18.491  -4.655   8.314  0.00  0.00    -0.395 OA
ATOM     43  H88 ZIN A   1      18.797  -5.449   8.774  0.00  0.00     0.210 HD
ENDBRANCH  18  42
TORSDOF 17
ENDMDL
MODEL 4
REMARK VINA RESULT:      -8.4      2.147      4.114
REMARK  17 active torsions:
REMARK  status: ('A' for Active; 'I' for Inactive)
REMARK    1  A    between atoms: C10_9  and  O11_10 
REMARK    2  A    between atoms: C15_14  and  C17_15 
REMARK    3  A    between atoms: C17_15  and  C18_16 
REMARK    4  A    between atoms: C18_16  and  C19_17 
REMARK    5  A    between atoms: C19_17  and  C20_18 
REMARK    6  A    between atoms: C20_18  and  C21_19 
REMARK    7  A    between atoms: C21_19  and  C22_20 
REMARK    8  A    between atoms: C22_20  and  C23_21 
REMARK    9  A    between atoms: C23_21  and  C24_22 
REMARK   10  A    between atoms: C24_22  and  C25_23 
REMARK   11  A    between atoms: C25_23  and  S26_24 
REMARK   12  A    between atoms: S26_24  and  C28_26 
REMARK   13  A    between atoms: C28_26  and  C29_27 
REMARK   14  A    between atoms: C29_27  and  C30_28 
REMARK   15  A    between atoms: C30_28  and  C31_29 
REMARK   16  A    between atoms: C31_29  and  C34_32 
REMARK   17  A    between atoms: C44_40  and  O46_41 
ROOT
ATOM      1  C1  ZIN A   1      17.372  -1.419   6.120  0.00  0.00     0.018 C 
ATOM      2  C2  ZIN A   1      18.852  -1.081   6.316  0.00  0.00    -0.014 C 
ATOM      3  C3  ZIN A   1      19.676  -2.349   6.250  0.00  0.00     0.013 C 
ATOM      4  C4  ZIN A   1      19.112  -3.326   7.300  0.00  0.00     0.010 C 
ATOM      5  C5  ZIN A   1      19.135  -2.698   8.686  0.00  0.00     0.024 C 
ATOM      6  C7  ZIN A   1      18.562  -3.617   9.725  0.00  0.00    -0.047 A 
ATOM      7  C8  ZIN A   1      18.754  -4.983   9.572  0.00  0.00     0.011 A 
ATOM      8  C9  ZIN A   1      18.257  -5.871  10.503  0.00  0.00     0.037 A 
ATOM      9  C10 ZIN A   1      17.559  -5.394  11.602  0.00  0.00     0.066 A 
ATOM     10  C12 ZIN A   1      17.363  -4.032  11.752  0.00  0.00     0.044 A 
ATOM     11  C13 ZIN A   1      17.859  -3.139  10.811  0.00  0.00    -0.048 A 
ATOM     12  C14 ZIN A   1      17.581  -1.674  11.025  0.00  0.00     0.044 C 
ATOM     13  C15 ZIN A   1      18.466  -0.804  10.132  0.00  0.00    -0.005 C 
ATOM     14  C38 ZIN A   1      18.378  -1.364   8.712  0.00  0.00     0.003 C 
ATOM     15  C40 ZIN A   1      19.060  -0.446   7.719  0.00  0.00     0.001 C 
ATOM     16  C42 ZIN A   1      18.438   0.946   7.554  0.00  0.00     0.008 C 
ATOM     17  C43 ZIN A   1      18.912   1.374   6.138  0.00  0.00     0.033 C 
ATOM     18  C44 ZIN A   1      19.251   0.037   5.361  0.00  0.00     0.126 C 
ENDROOT
BRANCH  13  19
ATOM     19  C17 ZIN A   1      19.911  -0.852  10.634  0.00  0.00     0.005 C 
BRANCH  19  20
ATOM     20  C18 ZIN A   1      20.221   0.424  11.419  0.00  0.00     0.000 C 
BRANCH  20  21
ATOM     21  C19 ZIN A   1      19.038   1.389  11.310  0.00  0.00     0.000 C 
BRANCH  21  22
ATOM     22  C20 ZIN A   1      19.490   2.670  10.605  0.00  0.00     0.000 C 
BRANCH  22  23
ATOM     23  C21 ZIN A   1      18.262   3.450  10.131  0.00  0.00     0.000 C 
BRANCH  23  24
ATOM     24  C22 ZIN A   1      17.323   3.691  11.316  0.00  0.00     0.000 C 
BRANCH  24  25
ATOM     25  C23 ZIN A   1      16.855   5.148  11.307  0.00  0.00     0.001 C 
BRANCH  25  26
ATOM     26  C24 ZIN A   1      17.188   5.798  12.651  0.00  0.00     0.012 C 
BRANCH  26  27
ATOM     27  C25 ZIN A   1      16.593   4.961  13.785  0.00  0.00     0.108 C 
BRANCH  27  28
ATOM     28  S26 ZIN A   1      17.842   4.713  15.075  0.00  0.00     0.015 S 
ATOM     29  O27 ZIN A   1      18.650   5.877  15.182  0.00  0.00    -0.258 OA
BRANCH  28  30
ATOM     30  C28 ZIN A   1      18.837   3.345  14.422  0.00  0.00     0.109 C 
BRANCH  30  31
ATOM     31  C29 ZIN A   1      18.146   2.016  14.736  0.00  0.00     0.019 C 
BRANCH  31  32
ATOM     32  C30 ZIN A   1      19.184   1.001  15.219  0.00  0.00     0.090 C 
BRANCH  32  33
ATOM     33  C31 ZIN A   1      18.642  -0.415  15.025  0.00  0.00     0.339 C 
ATOM     34  F32 ZIN A   1      17.558  -0.383  14.142  0.00  0.00    -0.196 F 
ATOM     35  F33 ZIN A   1      19.649  -1.231  14.498  0.00  0.00    -0.196 F 
BRANCH  33  36
ATOM     36  C34 ZIN A   1      18.185  -0.976  16.373  0.00  0.00     0.454 C 
ATOM     37  F35 ZIN A   1      17.888  -2.336  16.236  0.00  0.00    -0.165 F 
ATOM     38  F36 ZIN A   1      19.204  -0.814  17.317  0.00  0.00    -0.165 F 
ATOM     39  F37 ZIN A   1      17.042  -0.290  16.799  0.00  0.00    -0.165 F 
ENDBRANCH  33  36
ENDBRANCH  32  33
ENDBRANCH  31  32
ENDBRANCH  30  31
ENDBRANCH  28  30
ENDBRANCH  27  28
ENDBRANCH  26  27
ENDBRANCH  25  26
ENDBRANCH  24  25
ENDBRANCH  23  24
ENDBRANCH  22  23
ENDBRANCH  21  22
ENDBRANCH  20  21
ENDBRANCH  19  20
ENDBRANCH  13  19
BRANCH   9  40
ATOM     40  O11 ZIN A   1      17.070  -6.259  12.529  0.00  0.00    -0.361 OA
ATOM     41  H56 ZIN A   1      16.443  -5.861  13.148  0.00  0.00     0.217 HD
ENDBRANCH   9  40
BRANCH  18  42
ATOM     42  O46 ZIN A   1      18.476  -0.050   4.164  0.00  0.00    -0.395 OA
ATOM     43  H88 ZIN A   1      17.788   0.626   4.091  0.00  0.00     0.210 HD
ENDBRANCH  18  42
TORSDOF 17
ENDMDL
MODEL 5
REMARK VINA RESULT:      -8.3      2.762      5.025
REMARK  17 active torsions:
REMARK  status: ('A' for Active; 'I' for Inactive)
REMARK    1  A    between atoms: C10_9  and  O11_10 
REMARK    2  A    between atoms: C15_14  and  C17_15 
REMARK    3  A    between atoms: C17_15  and  C18_16 
REMARK    4  A    between atoms: C18_16  and  C19_17 
REMARK    5  A    between atoms: C19_17  and  C20_18 
REMARK    6  A    between atoms: C20_18  and  C21_19 
REMARK    7  A    between atoms: C21_19  and  C22_20 
REMARK    8  A    between atoms: C22_20  and  C23_21 
REMARK    9  A    between atoms: C23_21  and  C24_22 
REMARK   10  A    between atoms: C24_22  and  C25_23 
REMARK   11  A    between atoms: C25_23  and  S26_24 
REMARK   12  A    between atoms: S26_24  and  C28_26 
REMARK   13  A    between atoms: C28_26  and  C29_27 
REMARK   14  A    between atoms: C29_27  and  C30_28 
REMARK   15  A    between atoms: C30_28  and  C31_29 
REMARK   16  A    between atoms: C31_29  and  C34_32 
REMARK   17  A    between atoms: C44_40  and  O46_41 
ROOT
ATOM      1  C1  ZIN A   1      17.279  -0.606   6.581  0.00  0.00     0.018 C 
ATOM      2  C2  ZIN A   1      18.720  -0.574   7.094  0.00  0.00    -0.014 C 
ATOM      3  C3  ZIN A   1      19.580  -1.491   6.250  0.00  0.00     0.013 C 
ATOM      4  C4  ZIN A   1      18.937  -2.891   6.280  0.00  0.00     0.010 C 
ATOM      5  C5  ZIN A   1      18.798  -3.388   7.712  0.00  0.00     0.024 C 
ATOM      6  C7  ZIN A   1      18.144  -4.738   7.772  0.00  0.00    -0.047 A 
ATOM      7  C8  ZIN A   1      18.387  -5.634   6.740  0.00  0.00     0.011 A 
ATOM      8  C9  ZIN A   1      17.820  -6.890   6.752  0.00  0.00     0.037 A 
ATOM      9  C10 ZIN A   1      16.998  -7.262   7.806  0.00  0.00     0.066 A 
ATOM     10  C12 ZIN A   1      16.751  -6.368   8.833  0.00  0.00     0.044 A 
ATOM     11  C13 ZIN A   1      17.319  -5.100   8.817  0.00  0.00    -0.048 A 
ATOM     12  C14 ZIN A   1      16.982  -4.171   9.954  0.00  0.00     0.044 C 
ATOM     13  C15 ZIN A   1      17.931  -2.974   9.993  0.00  0.00    -0.005 C 
ATOM     14  C38 ZIN A   1      18.007  -2.400   8.578  0.00  0.00     0.003 C 
ATOM     15  C40 ZIN A   1      18.764  -1.088   8.560  0.00  0.00     0.001 C 
ATOM     16  C42 ZIN A   1      18.127   0.067   9.340  0.00  0.00     0.008 C 
ATOM     17  C43 ZIN A   1      18.734   1.325   8.661  0.00  0.00     0.033 C 
ATOM     18  C44 ZIN A   1      19.188   0.872   7.213  0.00  0.00     0.126 C 
ENDROOT
BRANCH  13  19
ATOM     19  C17 ZIN A   1      19.317  -3.429  10.456  0.00  0.00     0.005 C 
BRANCH  19  20
ATOM     20  C18 ZIN A   1      19.392  -3.360  11.983  0.00  0.00     0.000 C 
BRANCH  20  21
ATOM     21  C19 ZIN A   1      19.475  -1.897  12.423  0.00  0.00     0.000 C 
BRANCH  21  22
ATOM     22  C20 ZIN A   1      18.078  -1.399  12.800  0.00  0.00     0.000 C 
BRANCH  22  23
ATOM     23  C21 ZIN A   1      18.097  -0.869  14.235  0.00  0.00     0.000 C 
BRANCH  23  24
ATOM     24  C22 ZIN A   1      19.292  -1.465  14.983  0.00  0.00     0.000 C 
BRANCH  24  25
ATOM     25  C23 ZIN A   1      19.143  -1.194  16.482  0.00  0.00     0.001 C 
BRANCH  25  26
ATOM     26  C24 ZIN A   1      17.689  -0.837  16.793  0.00  0.00     0.012 C 
BRANCH  26  27
ATOM     27  C25 ZIN A   1      17.649   0.386  17.712  0.00  0.00     0.108 C 
BRANCH  27  28
ATOM     28  S26 ZIN A   1      19.182   1.335  17.522  0.00  0.00     0.015 S 
ATOM     29  O27 ZIN A   1      19.600   1.820  18.791  0.00  0.00    -0.258 OA
BRANCH  28  30
ATOM     30  C28 ZIN A   1      18.673   2.729  16.479  0.00  0.00     0.109 C 
BRANCH  30  31
ATOM     31  C29 ZIN A   1      19.056   2.444  15.025  0.00  0.00     0.019 C 
BRANCH  31  32
ATOM     32  C30 ZIN A   1      18.028   3.087  14.091  0.00  0.00     0.090 C 
BRANCH  32  33
ATOM     33  C31 ZIN A   1      18.289   2.631  12.655  0.00  0.00     0.339 C 
ATOM     34  F32 ZIN A   1      19.535   1.998  12.585  0.00  0.00    -0.196 F 
ATOM     35  F33 ZIN A   1      17.289   1.735  12.261  0.00  0.00    -0.196 F 
BRANCH  33  36
ATOM     36  C34 ZIN A   1      18.281   3.845  11.725  0.00  0.00     0.454 C 
ATOM     37  F35 ZIN A   1      16.981   4.067  11.258  0.00  0.00    -0.165 F 
ATOM     38  F36 ZIN A   1      18.724   4.973  12.425  0.00  0.00    -0.165 F 
ATOM     39  F37 ZIN A   1      19.132   3.607  10.640  0.00  0.00    -0.165 F 
ENDBRANCH  33  36
ENDBRANCH  32  33
ENDBRANCH  31  32
ENDBRANCH  30  31
ENDBRANCH  28  30
ENDBRANCH  27  28
ENDBRANCH  26  27
ENDBRANCH  25  26
ENDBRANCH  24  25
ENDBRANCH  23  24
ENDBRANCH  22  23
ENDBRANCH  21  22
ENDBRANCH  20  21
ENDBRANCH  19  20
ENDBRANCH  13  19
BRANCH   9  40
ATOM     40  O11 ZIN A   1      16.438  -8.501   7.830  0.00  0.00    -0.361 OA
ATOM     41  H56 ZIN A   1      15.970  -8.739   7.018  0.00  0.00     0.217 HD
ENDBRANCH   9  40
BRANCH  18  42
ATOM     42  O46 ZIN A   1      18.544   1.672   6.220  0.00  0.00    -0.395 OA
ATOM     43  H88 ZIN A   1      18.898   1.551   5.328  0.00  0.00     0.210 HD
ENDBRANCH  18  42
TORSDOF 17
ENDMDL
MODEL 6
REMARK VINA RESULT:      -8.2      2.585      3.884
REMARK  17 active torsions:
REMARK  status: ('A' for Active; 'I' for Inactive)
REMARK    1  A    between atoms: C10_9  and  O11_10 
REMARK    2  A    between atoms: C15_14  and  C17_15 
REMARK    3  A    between atoms: C17_15  and  C18_16 
REMARK    4  A    between atoms: C18_16  and  C19_17 
REMARK    5  A    between atoms: C19_17  and  C20_18 
REMARK    6  A    between atoms: C20_18  and  C21_19 
REMARK    7  A    between atoms: C21_19  and  C22_20 
REMARK    8  A    between atoms: C22_20  and  C23_21 
REMARK    9  A    between atoms: C23_21  and  C24_22 
REMARK   10  A    between atoms: C24_22  and  C25_23 
REMARK   11  A    between atoms: C25_23  and  S26_24 
REMARK   12  A    between atoms: S26_24  and  C28_26 
REMARK   13  A    between atoms: C28_26  and  C29_27 
REMARK   14  A    between atoms: C29_27  and  C30_28 
REMARK   15  A    between atoms: C30_28  and  C31_29 
REMARK   16  A    between atoms: C31_29  and  C34_32 
REMARK   17  A    between atoms: C44_40  and  O46_41 
ROOT
ATOM      1  C1  ZIN A   1      20.427  -1.751  11.402  0.00  0.00     0.018 C 
ATOM      2  C2  ZIN A   1      19.129  -1.170  11.966  0.00  0.00    -0.014 C 
ATOM      3  C3  ZIN A   1      17.944  -1.902  11.372  0.00  0.00     0.013 C 
ATOM      4  C4  ZIN A   1      18.058  -1.806   9.838  0.00  0.00     0.010 C 
ATOM      5  C5  ZIN A   1      18.117  -0.352   9.393  0.00  0.00     0.024 C 
ATOM      6  C7  ZIN A   1      18.260  -0.230   7.904  0.00  0.00    -0.047 A 
ATOM      7  C8  ZIN A   1      17.646  -1.182   7.104  0.00  0.00     0.011 A 
ATOM      8  C9  ZIN A   1      17.738  -1.111   5.730  0.00  0.00     0.037 A 
ATOM      9  C10 ZIN A   1      18.451  -0.076   5.142  0.00  0.00     0.066 A 
ATOM     10  C12 ZIN A   1      19.068   0.871   5.940  0.00  0.00     0.044 A 
ATOM     11  C13 ZIN A   1      18.980   0.795   7.324  0.00  0.00    -0.048 A 
ATOM     12  C14 ZIN A   1      19.701   1.845   8.128  0.00  0.00     0.044 C 
ATOM     13  C15 ZIN A   1      19.235   1.848   9.584  0.00  0.00    -0.005 C 
ATOM     14  C38 ZIN A   1      19.264   0.401  10.079  0.00  0.00     0.003 C 
ATOM     15  C40 ZIN A   1      19.013   0.329  11.572  0.00  0.00     0.001 C 
ATOM     16  C42 ZIN A   1      20.069   0.993  12.463  0.00  0.00     0.008 C 
ATOM     17  C43 ZIN A   1      19.892   0.259  13.820  0.00  0.00     0.033 C 
ATOM     18  C44 ZIN A   1      19.206  -1.129  13.487  0.00  0.00     0.126 C 
ENDROOT
BRANCH  13  19
ATOM     19  C17 ZIN A   1      17.815   2.411   9.670  0.00  0.00     0.005 C 
BRANCH  19  20
ATOM     20  C18 ZIN A   1      17.755   3.476  10.768  0.00  0.00     0.000 C 
BRANCH  20  21
ATOM     21  C19 ZIN A   1      17.608   4.858  10.128  0.00  0.00     0.000 C 
BRANCH  21  22
ATOM     22  C20 ZIN A   1      16.780   5.759  11.047  0.00  0.00     0.000 C 
BRANCH  22  23
ATOM     23  C21 ZIN A   1      16.660   5.107  12.426  0.00  0.00     0.000 C 
BRANCH  23  24
ATOM     24  C22 ZIN A   1      16.633   6.194  13.504  0.00  0.00     0.000 C 
BRANCH  24  25
ATOM     25  C23 ZIN A   1      15.750   5.738  14.667  0.00  0.00     0.001 C 
BRANCH  25  26
ATOM     26  C24 ZIN A   1      16.484   5.975  15.988  0.00  0.00     0.012 C 
BRANCH  26  27
ATOM     27  C25 ZIN A   1      17.906   6.462  15.701  0.00  0.00     0.108 C 
BRANCH  27  28
ATOM     28  S26 ZIN A   1      19.097   5.359  16.508  0.00  0.00     0.015 S 
ATOM     29  O27 ZIN A   1      20.342   5.423  15.825  0.00  0.00    -0.258 OA
BRANCH  28  30
ATOM     30  C28 ZIN A   1      18.361   3.718  16.270  0.00  0.00     0.109 C 
BRANCH  30  31
ATOM     31  C29 ZIN A   1      18.508   2.901  17.555  0.00  0.00     0.019 C 
BRANCH  31  32
ATOM     32  C30 ZIN A   1      19.113   1.535  17.226  0.00  0.00     0.090 C 
BRANCH  32  33
ATOM     33  C31 ZIN A   1      18.280   0.436  17.886  0.00  0.00     0.339 C 
ATOM     34  F32 ZIN A   1      19.119  -0.610  18.284  0.00  0.00    -0.196 F 
ATOM     35  F33 ZIN A   1      17.622   0.958  19.005  0.00  0.00    -0.196 F 
BRANCH  33  36
ATOM     36  C34 ZIN A   1      17.248  -0.091  16.887  0.00  0.00     0.454 C 
ATOM     37  F35 ZIN A   1      17.358   0.617  15.685  0.00  0.00    -0.165 F 
ATOM     38  F36 ZIN A   1      17.479  -1.451  16.650  0.00  0.00    -0.165 F 
ATOM     39  F37 ZIN A   1      15.962   0.078  17.412  0.00  0.00    -0.165 F 
ENDBRANCH  33  36
ENDBRANCH  32  33
ENDBRANCH  31  32
ENDBRANCH  30  31
ENDBRANCH  28  30
ENDBRANCH  27  28
ENDBRANCH  26  27
ENDBRANCH  25  26
ENDBRANCH  24  25
ENDBRANCH  23  24
ENDBRANCH  22  23
ENDBRANCH  21  22
ENDBRANCH  20  21
ENDBRANCH  19  20
ENDBRANCH  13  19
BRANCH   9  40
ATOM     40  O11 ZIN A   1      18.543   0.007   3.789  0.00  0.00    -0.361 OA
ATOM     41  H56 ZIN A   1      19.284   0.544   3.476  0.00  0.00     0.217 HD
ENDBRANCH   9  40
BRANCH  18  42
ATOM     42  O46 ZIN A   1      20.016  -2.207  13.960  0.00  0.00    -0.395 OA
ATOM     43  H88 ZIN A   1      20.957  -2.111  13.756  0.00  0.00     0.210 HD
ENDBRANCH  18  42
TORSDOF 17
ENDMDL
MODEL 7
REMARK VINA RESULT:      -8.1      5.108      9.286
REMARK  17 active torsions:
REMARK  status: ('A' for Active; 'I' for Inactive)
REMARK    1  A    between atoms: C10_9  and  O11_10 
REMARK    2  A    between atoms: C15_14  and  C17_15 
REMARK    3  A    between atoms: C17_15  and  C18_16 
REMARK    4  A    between atoms: C18_16  and  C19_17 
REMARK    5  A    between atoms: C19_17  and  C20_18 
REMARK    6  A    between atoms: C20_18  and  C21_19 
REMARK    7  A    between atoms: C21_19  and  C22_20 
REMARK    8  A    between atoms: C22_20  and  C23_21 
REMARK    9  A    between atoms: C23_21  and  C24_22 
REMARK   10  A    between atoms: C24_22  and  C25_23 
REMARK   11  A    between atoms: C25_23  and  S26_24 
REMARK   12  A    between atoms: S26_24  and  C28_26 
REMARK   13  A    between atoms: C28_26  and  C29_27 
REMARK   14  A    between atoms: C29_27  and  C30_28 
REMARK   15  A    between atoms: C30_28  and  C31_29 
REMARK   16  A    between atoms: C31_29  and  C34_32 
REMARK   17  A    between atoms: C44_40  and  O46_41 
ROOT
ATOM      1  C1  ZIN A   1      17.805  -5.223  10.326  0.00  0.00     0.018 C 
ATOM      2  C2  ZIN A   1      19.079  -4.700   9.660  0.00  0.00    -0.014 C 
ATOM      3  C3  ZIN A   1      20.190  -4.616  10.684  0.00  0.00     0.013 C 
ATOM      4  C4  ZIN A   1      19.687  -3.739  11.847  0.00  0.00     0.010 C 
ATOM      5  C5  ZIN A   1      19.265  -2.367  11.341  0.00  0.00     0.024 C 
ATOM      6  C7  ZIN A   1      18.741  -1.501  12.450  0.00  0.00    -0.047 A 
ATOM      7  C8  ZIN A   1      19.297  -1.641  13.714  0.00  0.00     0.011 A 
ATOM      8  C9  ZIN A   1      18.858  -0.864  14.764  0.00  0.00     0.037 A 
ATOM      9  C10 ZIN A   1      17.852   0.067  14.556  0.00  0.00     0.066 A 
ATOM     10  C12 ZIN A   1      17.293   0.204  13.297  0.00  0.00     0.044 A 
ATOM     11  C13 ZIN A   1      17.732  -0.583  12.241  0.00  0.00    -0.048 A 
ATOM     12  C14 ZIN A   1      17.058  -0.399  10.906  0.00  0.00     0.044 C 
ATOM     13  C15 ZIN A   1      17.859  -1.055   9.783  0.00  0.00    -0.005 C 
ATOM     14  C38 ZIN A   1      18.209  -2.473  10.234  0.00  0.00     0.003 C 
ATOM     15  C40 ZIN A   1      18.828  -3.271   9.104  0.00  0.00     0.001 C 
ATOM     16  C42 ZIN A   1      17.924  -3.533   7.895  0.00  0.00     0.008 C 
ATOM     17  C43 ZIN A   1      18.556  -4.800   7.256  0.00  0.00     0.033 C 
ATOM     18  C44 ZIN A   1      19.373  -5.517   8.407  0.00  0.00     0.126 C 
ENDROOT
BRANCH  13  19
ATOM     19  C17 ZIN A   1      19.135  -0.251   9.522  0.00  0.00     0.005 C 
BRANCH  19  20
ATOM     20  C18 ZIN A   1      19.110   0.295   8.093  0.00  0.00     0.000 C 
BRANCH  20  21
ATOM     21  C19 ZIN A   1      17.670   0.303   7.575  0.00  0.00     0.000 C 
BRANCH  21  22
ATOM     22  C20 ZIN A   1      17.638  -0.254   6.151  0.00  0.00     0.000 C 
BRANCH  22  23
ATOM     23  C21 ZIN A   1      19.000  -0.864   5.812  0.00  0.00     0.000 C 
BRANCH  23  24
ATOM     24  C22 ZIN A   1      18.897  -1.643   4.498  0.00  0.00     0.000 C 
BRANCH  24  25
ATOM     25  C23 ZIN A   1      17.447  -2.079   4.276  0.00  0.00     0.001 C 
BRANCH  25  26
ATOM     26  C24 ZIN A   1      17.404  -3.583   3.998  0.00  0.00     0.012 C 
BRANCH  26  27
ATOM     27  C25 ZIN A   1      16.601  -3.844   2.722  0.00  0.00     0.108 C 
BRANCH  27  28
ATOM     28  S26 ZIN A   1      15.453  -5.219   3.001  0.00  0.00     0.015 S 
ATOM     29  O27 ZIN A   1      14.140  -4.825   2.623  0.00  0.00    -0.258 OA
BRANCH  28  30
ATOM     30  C28 ZIN A   1      15.521  -5.450   4.798  0.00  0.00     0.109 C 
BRANCH  30  31
ATOM     31  C29 ZIN A   1      15.678  -6.939   5.116  0.00  0.00     0.019 C 
BRANCH  31  32
ATOM     32  C30 ZIN A   1      15.671  -7.141   6.633  0.00  0.00     0.090 C 
BRANCH  32  33
ATOM     33  C31 ZIN A   1      14.396  -7.877   7.043  0.00  0.00     0.339 C 
ATOM     34  F32 ZIN A   1      13.808  -8.458   5.914  0.00  0.00    -0.196 F 
ATOM     35  F33 ZIN A   1      14.711  -8.876   7.970  0.00  0.00    -0.196 F 
BRANCH  33  36
ATOM     36  C34 ZIN A   1      13.415  -6.887   7.675  0.00  0.00     0.454 C 
ATOM     37  F35 ZIN A   1      12.817  -6.118   6.671  0.00  0.00    -0.165 F 
ATOM     38  F36 ZIN A   1      12.428  -7.588   8.376  0.00  0.00    -0.165 F 
ATOM     39  F37 ZIN A   1      14.105  -6.047   8.557  0.00  0.00    -0.165 F 
ENDBRANCH  33  36
ENDBRANCH  32  33
ENDBRANCH  31  32
ENDBRANCH  30  31
ENDBRANCH  28  30
ENDBRANCH  27  28
ENDBRANCH  26  27
ENDBRANCH  25  26
ENDBRANCH  24  25
ENDBRANCH  23  24
ENDBRANCH  22  23
ENDBRANCH  21  22
ENDBRANCH  20  21
ENDBRANCH  19  20
ENDBRANCH  13  19
BRANCH   9  40
ATOM     40  O11 ZIN A   1      17.416   0.843  15.584  0.00  0.00    -0.361 OA
ATOM     41  H56 ZIN A   1      17.312   0.368  16.420  0.00  0.00     0.217 HD
ENDBRANCH   9  40
BRANCH  18  42
ATOM     42  O46 ZIN A   1      18.907  -6.857   8.583  0.00  0.00    -0.395 OA
ATOM     43  H88 ZIN A   1      18.410  -6.996   9.401  0.00  0.00     0.210 HD
ENDBRANCH  18  42
TORSDOF 17
ENDMDL
MODEL 8
REMARK VINA RESULT:      -7.9      4.541      8.724
REMARK  17 active torsions:
REMARK  status: ('A' for Active; 'I' for Inactive)
REMARK    1  A    between atoms: C10_9  and  O11_10 
REMARK    2  A    between atoms: C15_14  and  C17_15 
REMARK    3  A    between atoms: C17_15  and  C18_16 
REMARK    4  A    between atoms: C18_16  and  C19_17 
REMARK    5  A    between atoms: C19_17  and  C20_18 
REMARK    6  A    between atoms: C20_18  and  C21_19 
REMARK    7  A    between atoms: C21_19  and  C22_20 
REMARK    8  A    between atoms: C22_20  and  C23_21 
REMARK    9  A    between atoms: C23_21  and  C24_22 
REMARK   10  A    between atoms: C24_22  and  C25_23 
REMARK   11  A    between atoms: C25_23  and  S26_24 
REMARK   12  A    between atoms: S26_24  and  C28_26 
REMARK   13  A    between atoms: C28_26  and  C29_27 
REMARK   14  A    between atoms: C29_27  and  C30_28 
REMARK   15  A    between atoms: C30_28  and  C31_29 
REMARK   16  A    between atoms: C31_29  and  C34_32 
REMARK   17  A    between atoms: C44_40  and  O46_41 
ROOT
ATOM      1  C1  ZIN A   1      17.403   3.817  12.267  0.00  0.00     0.018 C 
ATOM      2  C2  ZIN A   1      18.703   3.183  12.769  0.00  0.00    -0.014 C 
ATOM      3  C3  ZIN A   1      19.830   3.511  11.813  0.00  0.00     0.013 C 
ATOM      4  C4  ZIN A   1      19.403   3.037  10.410  0.00  0.00     0.010 C 
ATOM      5  C5  ZIN A   1      19.072   1.552  10.422  0.00  0.00     0.024 C 
ATOM      6  C7  ZIN A   1      18.623   1.070   9.073  0.00  0.00    -0.047 A 
ATOM      7  C8  ZIN A   1      19.184   1.654   7.945  0.00  0.00     0.011 A 
ATOM      8  C9  ZIN A   1      18.813   1.241   6.683  0.00  0.00     0.037 A 
ATOM      9  C10 ZIN A   1      17.872   0.233   6.538  0.00  0.00     0.066 A 
ATOM     10  C12 ZIN A   1      17.309  -0.346   7.662  0.00  0.00     0.044 A 
ATOM     11  C13 ZIN A   1      17.678   0.074   8.934  0.00  0.00    -0.048 A 
ATOM     12  C14 ZIN A   1      17.002  -0.582  10.109  0.00  0.00     0.044 C 
ATOM     13  C15 ZIN A   1      17.742  -0.285  11.413  0.00  0.00    -0.005 C 
ATOM     14  C38 ZIN A   1      17.997   1.222  11.465  0.00  0.00     0.003 C 
ATOM     15  C40 ZIN A   1      18.545   1.638  12.815  0.00  0.00     0.001 C 
ATOM     16  C42 ZIN A   1      17.611   1.431  14.012  0.00  0.00     0.008 C 
ATOM     17  C43 ZIN A   1      18.145   2.452  15.052  0.00  0.00     0.033 C 
ATOM     18  C44 ZIN A   1      18.923   3.558  14.230  0.00  0.00     0.126 C 
ENDROOT
BRANCH  13  19
ATOM     19  C17 ZIN A   1      19.068  -1.049  11.440  0.00  0.00     0.005 C 
BRANCH  19  20
ATOM     20  C18 ZIN A   1      18.857  -2.412  12.103  0.00  0.00     0.000 C 
BRANCH  20  21
ATOM     21  C19 ZIN A   1      19.884  -3.407  11.559  0.00  0.00     0.000 C 
BRANCH  21  22
ATOM     22  C20 ZIN A   1      19.161  -4.647  11.028  0.00  0.00     0.000 C 
BRANCH  22  23
ATOM     23  C21 ZIN A   1      19.556  -4.880   9.569  0.00  0.00     0.000 C 
BRANCH  23  24
ATOM     24  C22 ZIN A   1      18.564  -4.161   8.651  0.00  0.00     0.000 C 
BRANCH  24  25
ATOM     25  C23 ZIN A   1      19.273  -3.007   7.938  0.00  0.00     0.001 C 
BRANCH  25  26
ATOM     26  C24 ZIN A   1      19.542  -3.396   6.483  0.00  0.00     0.012 C 
BRANCH  26  27
ATOM     27  C25 ZIN A   1      18.547  -4.475   6.051  0.00  0.00     0.108 C 
BRANCH  27  28
ATOM     28  S26 ZIN A   1      17.959  -4.119   4.373  0.00  0.00     0.015 S 
ATOM     29  O27 ZIN A   1      17.290  -2.865   4.360  0.00  0.00    -0.258 OA
BRANCH  28  30
ATOM     30  C28 ZIN A   1      16.763  -5.447   4.069  0.00  0.00     0.109 C 
BRANCH  30  31
ATOM     31  C29 ZIN A   1      15.834  -5.584   5.278  0.00  0.00     0.019 C 
BRANCH  31  32
ATOM     32  C30 ZIN A   1      16.025  -6.962   5.915  0.00  0.00     0.090 C 
BRANCH  32  33
ATOM     33  C31 ZIN A   1      15.694  -6.884   7.406  0.00  0.00     0.339 C 
ATOM     34  F32 ZIN A   1      15.592  -5.544   7.793  0.00  0.00    -0.196 F 
ATOM     35  F33 ZIN A   1      14.478  -7.532   7.648  0.00  0.00    -0.196 F 
BRANCH  33  36
ATOM     36  C34 ZIN A   1      16.803  -7.564   8.211  0.00  0.00     0.454 C 
ATOM     37  F35 ZIN A   1      18.016  -7.449   7.524  0.00  0.00    -0.165 F 
ATOM     38  F36 ZIN A   1      16.916  -6.950   9.463  0.00  0.00    -0.165 F 
ATOM     39  F37 ZIN A   1      16.492  -8.917   8.383  0.00  0.00    -0.165 F 
ENDBRANCH  33  36
ENDBRANCH  32  33
ENDBRANCH  31  32
ENDBRANCH  30  31
ENDBRANCH  28  30
ENDBRANCH  27  28
ENDBRANCH  26  27
ENDBRANCH  25  26
ENDBRANCH  24  25
ENDBRANCH  23  24
ENDBRANCH  22  23
ENDBRANCH  21  22
ENDBRANCH  20  21
ENDBRANCH  19  20
ENDBRANCH  13  19
BRANCH   9  40
ATOM     40  O11 ZIN A   1      17.504  -0.185   5.299  0.00  0.00    -0.361 OA
ATOM     41  H56 ZIN A   1      17.332   0.533   4.675  0.00  0.00     0.217 HD
ENDBRANCH   9  40
BRANCH  18  42
ATOM     42  O46 ZIN A   1      18.368   4.849  14.487  0.00  0.00    -0.395 OA
ATOM     43  H88 ZIN A   1      18.388   5.445  13.726  0.00  0.00     0.210 HD
ENDBRANCH  18  42
TORSDOF 17
ENDMDL
MODEL 9
REMARK VINA RESULT:      -7.9      4.570      8.961
REMARK  17 active torsions:
REMARK  status: ('A' for Active; 'I' for Inactive)
REMARK    1  A    between atoms: C10_9  and  O11_10 
REMARK    2  A    between atoms: C15_14  and  C17_15 
REMARK    3  A    between atoms: C17_15  and  C18_16 
REMARK    4  A    between atoms: C18_16  and  C19_17 
REMARK    5  A    between atoms: C19_17  and  C20_18 
REMARK    6  A    between atoms: C20_18  and  C21_19 
REMARK    7  A    between atoms: C21_19  and  C22_20 
REMARK    8  A    between atoms: C22_20  and  C23_21 
REMARK    9  A    between atoms: C23_21  and  C24_22 
REMARK   10  A    between atoms: C24_22  and  C25_23 
REMARK   11  A    between atoms: C25_23  and  S26_24 
REMARK   12  A    between atoms: S26_24  and  C28_26 
REMARK   13  A    between atoms: C28_26  and  C29_27 
REMARK   14  A    between atoms: C29_27  and  C30_28 
REMARK   15  A    between atoms: C30_28  and  C31_29 
REMARK   16  A    between atoms: C31_29  and  C34_32 
REMARK   17  A    between atoms: C44_40  and  O46_41 
ROOT
ATOM      1  C1  ZIN A   1      17.346   3.528  11.484  0.00  0.00     0.018 C 
ATOM      2  C2  ZIN A   1      18.583   2.816  12.035  0.00  0.00    -0.014 C 
ATOM      3  C3  ZIN A   1      19.771   3.094  11.138  0.00  0.00     0.013 C 
ATOM      4  C4  ZIN A   1      19.386   2.665   9.709  0.00  0.00     0.010 C 
ATOM      5  C5  ZIN A   1      18.974   1.200   9.681  0.00  0.00     0.024 C 
ATOM      6  C7  ZIN A   1      18.564   0.762   8.305  0.00  0.00    -0.047 A 
ATOM      7  C8  ZIN A   1      19.209   1.330   7.214  0.00  0.00     0.011 A 
ATOM      8  C9  ZIN A   1      18.877   0.956   5.930  0.00  0.00     0.037 A 
ATOM      9  C10 ZIN A   1      17.890   0.003   5.725  0.00  0.00     0.066 A 
ATOM     10  C12 ZIN A   1      17.243  -0.559   6.812  0.00  0.00     0.044 A 
ATOM     11  C13 ZIN A   1      17.574  -0.178   8.106  0.00  0.00    -0.048 A 
ATOM     12  C14 ZIN A   1      16.808  -0.812   9.237  0.00  0.00     0.044 C 
ATOM     13  C15 ZIN A   1      17.501  -0.574  10.579  0.00  0.00    -0.005 C 
ATOM     14  C38 ZIN A   1      17.835   0.915  10.667  0.00  0.00     0.003 C 
ATOM     15  C40 ZIN A   1      18.340   1.281  12.048  0.00  0.00     0.001 C 
ATOM     16  C42 ZIN A   1      17.340   1.109  13.196  0.00  0.00     0.008 C 
ATOM     17  C43 ZIN A   1      17.878   2.085  14.278  0.00  0.00     0.033 C 
ATOM     18  C44 ZIN A   1      18.754   3.158  13.510  0.00  0.00     0.126 C 
ENDROOT
BRANCH  13  19
ATOM     19  C17 ZIN A   1      18.780  -1.411  10.654  0.00  0.00     0.005 C 
BRANCH  19  20
ATOM     20  C18 ZIN A   1      18.499  -2.702  11.427  0.00  0.00     0.000 C 
BRANCH  20  21
ATOM     21  C19 ZIN A   1      18.108  -3.808  10.445  0.00  0.00     0.000 C 
BRANCH  21  22
ATOM     22  C20 ZIN A   1      19.334  -4.667  10.129  0.00  0.00     0.000 C 
BRANCH  22  23
ATOM     23  C21 ZIN A   1      18.880  -6.059   9.683  0.00  0.00     0.000 C 
BRANCH  23  24
ATOM     24  C22 ZIN A   1      17.350  -6.111   9.654  0.00  0.00     0.000 C 
BRANCH  24  25
ATOM     25  C23 ZIN A   1      16.895  -7.165   8.643  0.00  0.00     0.001 C 
BRANCH  25  26
ATOM     26  C24 ZIN A   1      15.747  -6.603   7.803  0.00  0.00     0.012 C 
BRANCH  26  27
ATOM     27  C25 ZIN A   1      15.931  -7.021   6.343  0.00  0.00     0.108 C 
BRANCH  27  28
ATOM     28  S26 ZIN A   1      14.865  -6.006   5.284  0.00  0.00     0.015 S 
ATOM     29  O27 ZIN A   1      13.887  -6.831   4.666  0.00  0.00    -0.258 OA
BRANCH  28  30
ATOM     30  C28 ZIN A   1      16.014  -5.383   4.026  0.00  0.00     0.109 C 
BRANCH  30  31
ATOM     31  C29 ZIN A   1      17.453  -5.583   4.505  0.00  0.00     0.019 C 
BRANCH  31  32
ATOM     32  C30 ZIN A   1      18.048  -4.233   4.913  0.00  0.00     0.090 C 
BRANCH  32  33
ATOM     33  C31 ZIN A   1      18.584  -4.324   6.342  0.00  0.00     0.339 C 
ATOM     34  F32 ZIN A   1      17.572  -3.979   7.244  0.00  0.00    -0.196 F 
ATOM     35  F33 ZIN A   1      19.012  -5.631   6.598  0.00  0.00    -0.196 F 
BRANCH  33  36
ATOM     36  C34 ZIN A   1      19.762  -3.361   6.507  0.00  0.00     0.454 C 
ATOM     37  F35 ZIN A   1      19.848  -2.533   5.382  0.00  0.00    -0.165 F 
ATOM     38  F36 ZIN A   1      19.569  -2.577   7.650  0.00  0.00    -0.165 F 
ATOM     39  F37 ZIN A   1      20.947  -4.093   6.639  0.00  0.00    -0.165 F 
ENDBRANCH  33  36
ENDBRANCH  32  33
ENDBRANCH  31  32
ENDBRANCH  30  31
ENDBRANCH  28  30
ENDBRANCH  27  28
ENDBRANCH  26  27
ENDBRANCH  25  26
ENDBRANCH  24  25
ENDBRANCH  23  24
ENDBRANCH  22  23
ENDBRANCH  21  22
ENDBRANCH  20  21
ENDBRANCH  19  20
ENDBRANCH  13  19
BRANCH   9  40
ATOM     40  O11 ZIN A   1      17.559  -0.377   4.463  0.00  0.00    -0.361 OA
ATOM     41  H56 ZIN A   1      17.686   0.313   3.797  0.00  0.00     0.217 HD
ENDBRANCH   9  40
BRANCH  18  42
ATOM     42  O46 ZIN A   1      18.258   4.474  13.763  0.00  0.00    -0.395 OA
ATOM     43  H88 ZIN A   1      17.327   4.500  14.022  0.00  0.00     0.210 HD
ENDBRANCH  18  42
TORSDOF 17
ENDMDL
