MODEL 1
REMARK VINA RESULT:      -9.6      0.000      0.000
REMARK  7 active torsions:
REMARK  status: ('A' for Active; 'I' for Inactive)
REMARK    1  A    between atoms: C5_5  and  C6_6 
REMARK       I    between atoms: C6_6  and  N8_8 
REMARK    2  A    between atoms: N8_8  and  C9_9 
REMARK    3  A    between atoms: C12_12  and  C13_13 
REMARK    4  A    between atoms: C13_13  and  N14_14 
REMARK    5  A    between atoms: C21_21  and  C22_22 
REMARK    6  A    between atoms: C28_28  and  C29_29 
REMARK    7  A    between atoms: C30_30  and  C31_31 
ROOT
ATOM      1  C6  ZIN A   1      19.440   1.950  11.145  0.00  0.00     0.256 C 
ATOM      2  O7  ZIN A   1      20.397   1.559  11.784  0.00  0.00    -0.267 OA
ATOM      3  N8  ZIN A   1      18.572   2.820  11.697  0.00  0.00    -0.323 N 
ATOM      4  H45 ZIN A   1      17.847   3.186  11.166  0.00  0.00     0.169 HD
ENDROOT
BRANCH   1   5
ATOM      5  C5  ZIN A   1      19.230   1.472   9.762  0.00  0.00     0.033 A 
ATOM      6  C4  ZIN A   1      19.086   2.390   8.719  0.00  0.00     0.017 A 
ATOM      7  C3  ZIN A   1      18.888   1.947   7.425  0.00  0.00     0.009 A 
ATOM      8  C2  ZIN A   1      18.832   0.595   7.153  0.00  0.00    -0.043 A 
ATOM      9  C1  ZIN A   1      18.616   0.122   5.739  0.00  0.00     0.049 C 
ATOM     10  C28 ZIN A   1      18.967  -0.336   8.188  0.00  0.00     0.025 A 
ATOM     11  C27 ZIN A   1      19.173   0.105   9.496  0.00  0.00     0.038 A 
BRANCH  10  12
ATOM     12  C29 ZIN A   1      18.908  -1.739   7.905  0.00  0.00    -0.059 C 
ATOM     13  C30 ZIN A   1      18.858  -2.888   7.671  0.00  0.00    -0.040 C 
BRANCH  13  14
ATOM     14  C31 ZIN A   1      18.798  -4.291   7.388  0.00  0.00     0.131 A 
ATOM     15  N39 ZIN A   1      17.809  -5.164   7.774  0.00  0.00    -0.206 N 
ATOM     16  C34 ZIN A   1      18.152  -6.399   7.287  0.00  0.00     0.151 A 
ATOM     17  N38 ZIN A   1      16.623  -5.000   8.495  0.00  0.00    -0.177 NA
ATOM     18  N33 ZIN A   1      19.306  -6.291   6.637  0.00  0.00    -0.238 NA
ATOM     19  C35 ZIN A   1      17.302  -7.491   7.535  0.00  0.00     0.054 A 
ATOM     20  C32 ZIN A   1      19.726  -5.033   6.678  0.00  0.00     0.160 A 
ATOM     21  C36 ZIN A   1      16.158  -7.295   8.247  0.00  0.00     0.025 A 
ATOM     22  C37 ZIN A   1      15.837  -6.019   8.724  0.00  0.00     0.139 A 
ENDBRANCH  13  14
ENDBRANCH  10  12
ENDBRANCH   1   5
BRANCH   3  23
ATOM     23  C9  ZIN A   1      18.714   3.196  13.037  0.00  0.00     0.035 A 
ATOM     24  C26 ZIN A   1      19.273   4.425  13.360  0.00  0.00     0.046 A 
ATOM     25  C21 ZIN A   1      19.407   4.795  14.683  0.00  0.00     0.058 A 
ATOM     26  C12 ZIN A   1      18.994   3.938  15.687  0.00  0.00    -0.015 A 
ATOM     27  C11 ZIN A   1      18.441   2.712  15.369  0.00  0.00     0.012 A 
ATOM     28  C10 ZIN A   1      18.300   2.338  14.047  0.00  0.00     0.030 A 
BRANCH  25  29
ATOM     29  C22 ZIN A   1      20.009   6.131  15.035  0.00  0.00     0.418 C 
ATOM     30  F23 ZIN A   1      19.010   6.975  15.532  0.00  0.00    -0.166 F 
ATOM     31  F24 ZIN A   1      20.999   5.956  16.007  0.00  0.00    -0.166 F 
ATOM     32  F25 ZIN A   1      20.575   6.703  13.890  0.00  0.00    -0.166 F 
ENDBRANCH  25  29
BRANCH  26  33
ATOM     33  C13 ZIN A   1      19.147   4.343  17.131  0.00  0.00     0.311 C 
BRANCH  33  34
ATOM     34  N14 ZIN A   1      17.830   4.353  17.780  0.00  0.00     0.096 N 
ATOM     35  C20 ZIN A   1      17.876   3.660  19.075  0.00  0.00     0.303 C 
ATOM     36  C19 ZIN A   1      16.470   3.624  19.680  0.00  0.00     0.302 C 
ATOM     37  N17 ZIN A   1      15.973   4.997  19.839  0.00  0.00     0.087 N 
ATOM     38  C16 ZIN A   1      15.927   5.690  18.545  0.00  0.00     0.302 C 
ATOM     39  C18 ZIN A   1      14.655   5.008  20.489  0.00  0.00     0.310 C 
ATOM     40  C15 ZIN A   1      17.333   5.727  17.939  0.00  0.00     0.303 C 
ENDBRANCH  33  34
ENDBRANCH  26  33
ENDBRANCH   3  23
TORSDOF 7
ENDMDL
MODEL 2
REMARK VINA RESULT:      -9.5      3.718      4.995
REMARK  7 active torsions:
REMARK  status: ('A' for Active; 'I' for Inactive)
REMARK    1  A    between atoms: C5_5  and  C6_6 
REMARK       I    between atoms: C6_6  and  N8_8 
REMARK    2  A    between atoms: N8_8  and  C9_9 
REMARK    3  A    between atoms: C12_12  and  C13_13 
REMARK    4  A    between atoms: C13_13  and  N14_14 
REMARK    5  A    between atoms: C21_21  and  C22_22 
REMARK    6  A    between atoms: C28_28  and  C29_29 
REMARK    7  A    between atoms: C30_30  and  C31_31 
ROOT
ATOM      1  C6  ZIN A   1      18.469  -1.738  12.837  0.00  0.00     0.256 C 
ATOM      2  O7  ZIN A   1      17.378  -1.206  12.892  0.00  0.00    -0.267 OA
ATOM      3  N8  ZIN A   1      19.469  -1.308  13.633  0.00  0.00    -0.323 N 
ATOM      4  H45 ZIN A   1      20.319  -1.776  13.640  0.00  0.00     0.169 HD
ENDROOT
BRANCH   1   5
ATOM      5  C5  ZIN A   1      18.700  -2.857  11.899  0.00  0.00     0.033 A 
ATOM      6  C4  ZIN A   1      19.975  -3.415  11.776  0.00  0.00     0.017 A 
ATOM      7  C3  ZIN A   1      20.194  -4.460  10.899  0.00  0.00     0.009 A 
ATOM      8  C2  ZIN A   1      19.156  -4.961  10.139  0.00  0.00    -0.043 A 
ATOM      9  C1  ZIN A   1      19.405  -6.101   9.186  0.00  0.00     0.049 C 
ATOM     10  C28 ZIN A   1      17.876  -4.408  10.246  0.00  0.00     0.025 A 
ATOM     11  C27 ZIN A   1      17.647  -3.355  11.135  0.00  0.00     0.038 A 
BRANCH  10  12
ATOM     12  C29 ZIN A   1      16.800  -4.927   9.456  0.00  0.00    -0.059 C 
ATOM     13  C30 ZIN A   1      15.918  -5.354   8.809  0.00  0.00    -0.040 C 
BRANCH  13  14
ATOM     14  C31 ZIN A   1      14.844  -5.874   8.019  0.00  0.00     0.131 A 
ATOM     15  N39 ZIN A   1      14.885  -6.188   6.682  0.00  0.00    -0.206 N 
ATOM     16  C34 ZIN A   1      13.641  -6.653   6.340  0.00  0.00     0.151 A 
ATOM     17  N38 ZIN A   1      15.900  -6.130   5.722  0.00  0.00    -0.177 NA
ATOM     18  N33 ZIN A   1      12.866  -6.617   7.418  0.00  0.00    -0.238 NA
ATOM     19  C35 ZIN A   1      13.404  -7.055   5.013  0.00  0.00     0.054 A 
ATOM     20  C32 ZIN A   1      13.558  -6.152   8.450  0.00  0.00     0.160 A 
ATOM     21  C36 ZIN A   1      14.415  -6.978   4.104  0.00  0.00     0.025 A 
ATOM     22  C37 ZIN A   1      15.674  -6.505   4.490  0.00  0.00     0.139 A 
ENDBRANCH  13  14
ENDBRANCH  10  12
ENDBRANCH   1   5
BRANCH   3  23
ATOM     23  C9  ZIN A   1      19.281  -0.187  14.448  0.00  0.00     0.035 A 
ATOM     24  C26 ZIN A   1      19.139  -0.341  15.821  0.00  0.00     0.046 A 
ATOM     25  C21 ZIN A   1      18.960   0.768  16.623  0.00  0.00     0.058 A 
ATOM     26  C12 ZIN A   1      18.913   2.030  16.060  0.00  0.00    -0.015 A 
ATOM     27  C11 ZIN A   1      19.049   2.186  14.694  0.00  0.00     0.012 A 
ATOM     28  C10 ZIN A   1      19.233   1.081  13.886  0.00  0.00     0.030 A 
BRANCH  25  29
ATOM     29  C22 ZIN A   1      18.812   0.603  18.114  0.00  0.00     0.418 C 
ATOM     30  F23 ZIN A   1      19.569   1.580  18.769  0.00  0.00    -0.166 F 
ATOM     31  F24 ZIN A   1      17.466   0.742  18.468  0.00  0.00    -0.166 F 
ATOM     32  F25 ZIN A   1      19.264  -0.667  18.490  0.00  0.00    -0.166 F 
ENDBRANCH  25  29
BRANCH  26  33
ATOM     33  C13 ZIN A   1      18.710   3.238  16.940  0.00  0.00     0.311 C 
BRANCH  33  34
ATOM     34  N14 ZIN A   1      18.419   4.410  16.104  0.00  0.00     0.096 N 
ATOM     35  C20 ZIN A   1      17.247   5.138  16.608  0.00  0.00     0.303 C 
ATOM     36  C19 ZIN A   1      16.930   6.302  15.666  0.00  0.00     0.302 C 
ATOM     37  N17 ZIN A   1      18.099   7.188  15.576  0.00  0.00     0.087 N 
ATOM     38  C16 ZIN A   1      19.271   6.460  15.073  0.00  0.00     0.302 C 
ATOM     39  C18 ZIN A   1      17.808   8.361  14.740  0.00  0.00     0.310 C 
ATOM     40  C15 ZIN A   1      19.588   5.296  16.014  0.00  0.00     0.303 C 
ENDBRANCH  33  34
ENDBRANCH  26  33
ENDBRANCH   3  23
TORSDOF 7
ENDMDL
MODEL 3
REMARK VINA RESULT:      -9.5      1.869      2.340
REMARK  7 active torsions:
REMARK  status: ('A' for Active; 'I' for Inactive)
REMARK    1  A    between atoms: C5_5  and  C6_6 
REMARK       I    between atoms: C6_6  and  N8_8 
REMARK    2  A    between atoms: N8_8  and  C9_9 
REMARK    3  A    between atoms: C12_12  and  C13_13 
REMARK    4  A    between atoms: C13_13  and  N14_14 
REMARK    5  A    between atoms: C21_21  and  C22_22 
REMARK    6  A    between atoms: C28_28  and  C29_29 
REMARK    7  A    between atoms: C30_30  and  C31_31 
ROOT
ATOM      1  C6  ZIN A   1      19.329   2.014  11.388  0.00  0.00     0.256 C 
ATOM      2  O7  ZIN A   1      20.430   2.292  11.820  0.00  0.00    -0.267 OA
ATOM      3  N8  ZIN A   1      18.245   2.129  12.181  0.00  0.00    -0.323 N 
ATOM      4  H45 ZIN A   1      17.359   1.974  11.818  0.00  0.00     0.169 HD
ENDROOT
BRANCH   1   5
ATOM      5  C5  ZIN A   1      19.177   1.551   9.992  0.00  0.00     0.033 A 
ATOM      6  C4  ZIN A   1      19.051   2.481   8.956  0.00  0.00     0.017 A 
ATOM      7  C3  ZIN A   1      18.909   2.051   7.651  0.00  0.00     0.009 A 
ATOM      8  C2  ZIN A   1      18.890   0.703   7.359  0.00  0.00    -0.043 A 
ATOM      9  C1  ZIN A   1      18.735   0.245   5.932  0.00  0.00     0.049 C 
ATOM     10  C28 ZIN A   1      19.008  -0.240   8.386  0.00  0.00     0.025 A 
ATOM     11  C27 ZIN A   1      19.158   0.187   9.706  0.00  0.00     0.038 A 
BRANCH  10  12
ATOM     12  C29 ZIN A   1      18.988  -1.639   8.082  0.00  0.00    -0.059 C 
ATOM     13  C30 ZIN A   1      18.971  -2.787   7.834  0.00  0.00    -0.040 C 
BRANCH  13  14
ATOM     14  C31 ZIN A   1      18.952  -4.186   7.530  0.00  0.00     0.131 A 
ATOM     15  N39 ZIN A   1      17.989  -5.094   7.902  0.00  0.00    -0.206 N 
ATOM     16  C34 ZIN A   1      18.368  -6.311   7.397  0.00  0.00     0.151 A 
ATOM     17  N38 ZIN A   1      16.799  -4.975   8.626  0.00  0.00    -0.177 NA
ATOM     18  N33 ZIN A   1      19.518  -6.160   6.749  0.00  0.00    -0.238 NA
ATOM     19  C35 ZIN A   1      17.550  -7.431   7.628  0.00  0.00     0.054 A 
ATOM     20  C32 ZIN A   1      19.901  -4.891   6.809  0.00  0.00     0.160 A 
ATOM     21  C36 ZIN A   1      16.400  -7.278   8.343  0.00  0.00     0.025 A 
ATOM     22  C37 ZIN A   1      16.042  -6.019   8.839  0.00  0.00     0.139 A 
ENDBRANCH  13  14
ENDBRANCH  10  12
ENDBRANCH   1   5
BRANCH   3  23
ATOM     23  C9  ZIN A   1      18.398   2.470  13.529  0.00  0.00     0.035 A 
ATOM     24  C26 ZIN A   1      18.462   1.476  14.496  0.00  0.00     0.046 A 
ATOM     25  C21 ZIN A   1      18.619   1.817  15.825  0.00  0.00     0.058 A 
ATOM     26  C12 ZIN A   1      18.702   3.147  16.194  0.00  0.00    -0.015 A 
ATOM     27  C11 ZIN A   1      18.633   4.139  15.234  0.00  0.00     0.012 A 
ATOM     28  C10 ZIN A   1      18.482   3.805  13.902  0.00  0.00     0.030 A 
BRANCH  25  29
ATOM     29  C22 ZIN A   1      18.694   0.739  16.875  0.00  0.00     0.418 C 
ATOM     30  F23 ZIN A   1      18.888  -0.501  16.257  0.00  0.00    -0.166 F 
ATOM     31  F24 ZIN A   1      19.762   1.001  17.738  0.00  0.00    -0.166 F 
ATOM     32  F25 ZIN A   1      17.500   0.714  17.605  0.00  0.00    -0.166 F 
ENDBRANCH  25  29
BRANCH  26  33
ATOM     33  C13 ZIN A   1      18.866   3.515  17.646  0.00  0.00     0.311 C 
BRANCH  33  34
ATOM     34  N14 ZIN A   1      17.612   4.089  18.152  0.00  0.00     0.096 N 
ATOM     35  C20 ZIN A   1      17.240   3.490  19.441  0.00  0.00     0.303 C 
ATOM     36  C19 ZIN A   1      15.891   4.054  19.893  0.00  0.00     0.302 C 
ATOM     37  N17 ZIN A   1      15.988   5.516  20.003  0.00  0.00     0.087 N 
ATOM     38  C16 ZIN A   1      16.359   6.115  18.714  0.00  0.00     0.302 C 
ATOM     39  C18 ZIN A   1      14.733   6.090  20.509  0.00  0.00     0.310 C 
ATOM     40  C15 ZIN A   1      17.708   5.551  18.262  0.00  0.00     0.303 C 
ENDBRANCH  33  34
ENDBRANCH  26  33
ENDBRANCH   3  23
TORSDOF 7
ENDMDL
MODEL 4
REMARK VINA RESULT:      -9.4      3.911     12.306
REMARK  7 active torsions:
REMARK  status: ('A' for Active; 'I' for Inactive)
REMARK    1  A    between atoms: C5_5  and  C6_6 
REMARK       I    between atoms: C6_6  and  N8_8 
REMARK    2  A    between atoms: N8_8  and  C9_9 
REMARK    3  A    between atoms: C12_12  and  C13_13 
REMARK    4  A    between atoms: C13_13  and  N14_14 
REMARK    5  A    between atoms: C21_21  and  C22_22 
REMARK    6  A    between atoms: C28_28  and  C29_29 
REMARK    7  A    between atoms: C30_30  and  C31_31 
ROOT
ATOM      1  C6  ZIN A   1      18.681   1.693   9.507  0.00  0.00     0.256 C 
ATOM      2  O7  ZIN A   1      19.692   1.800   8.840  0.00  0.00    -0.267 OA
ATOM      3  N8  ZIN A   1      17.944   0.567   9.435  0.00  0.00    -0.323 N 
ATOM      4  H45 ZIN A   1      17.177   0.452  10.017  0.00  0.00     0.169 HD
ENDROOT
BRANCH   1   5
ATOM      5  C5  ZIN A   1      18.262   2.796  10.397  0.00  0.00     0.033 A 
ATOM      6  C4  ZIN A   1      17.696   3.954   9.857  0.00  0.00     0.017 A 
ATOM      7  C3  ZIN A   1      17.305   4.987  10.686  0.00  0.00     0.009 A 
ATOM      8  C2  ZIN A   1      17.468   4.884  12.052  0.00  0.00    -0.043 A 
ATOM      9  C1  ZIN A   1      17.037   6.017  12.948  0.00  0.00     0.049 C 
ATOM     10  C28 ZIN A   1      18.039   3.734  12.607  0.00  0.00     0.025 A 
ATOM     11  C27 ZIN A   1      18.432   2.684  11.775  0.00  0.00     0.038 A 
BRANCH  10  12
ATOM     12  C29 ZIN A   1      18.210   3.629  14.025  0.00  0.00    -0.059 C 
ATOM     13  C30 ZIN A   1      18.349   3.544  15.188  0.00  0.00    -0.040 C 
BRANCH  13  14
ATOM     14  C31 ZIN A   1      18.520   3.439  16.606  0.00  0.00     0.131 A 
ATOM     15  N39 ZIN A   1      17.949   4.242  17.563  0.00  0.00    -0.206 N 
ATOM     16  C34 ZIN A   1      18.381   3.784  18.781  0.00  0.00     0.151 A 
ATOM     17  N38 ZIN A   1      17.072   5.328  17.494  0.00  0.00    -0.177 NA
ATOM     18  N33 ZIN A   1      19.190   2.750  18.581  0.00  0.00    -0.238 NA
ATOM     19  C35 ZIN A   1      17.939   4.430  19.950  0.00  0.00     0.054 A 
ATOM     20  C32 ZIN A   1      19.298   2.513  17.280  0.00  0.00     0.160 A 
ATOM     21  C36 ZIN A   1      17.090   5.490  19.843  0.00  0.00     0.025 A 
ATOM     22  C37 ZIN A   1      16.665   5.926  18.583  0.00  0.00     0.139 A 
ENDBRANCH  13  14
ENDBRANCH  10  12
ENDBRANCH   1   5
BRANCH   3  23
ATOM     23  C9  ZIN A   1      18.284  -0.436   8.521  0.00  0.00     0.035 A 
ATOM     24  C26 ZIN A   1      18.084  -0.236   7.162  0.00  0.00     0.046 A 
ATOM     25  C21 ZIN A   1      18.426  -1.226   6.262  0.00  0.00     0.058 A 
ATOM     26  C12 ZIN A   1      18.959  -2.419   6.715  0.00  0.00    -0.015 A 
ATOM     27  C11 ZIN A   1      19.155  -2.623   8.067  0.00  0.00     0.012 A 
ATOM     28  C10 ZIN A   1      18.819  -1.635   8.972  0.00  0.00     0.030 A 
BRANCH  25  29
ATOM     29  C22 ZIN A   1      18.215  -1.007   4.786  0.00  0.00     0.418 C 
ATOM     30  F23 ZIN A   1      19.293  -1.548   4.076  0.00  0.00    -0.166 F 
ATOM     31  F24 ZIN A   1      17.031  -1.636   4.386  0.00  0.00    -0.166 F 
ATOM     32  F25 ZIN A   1      18.126   0.365   4.525  0.00  0.00    -0.166 F 
ENDBRANCH  25  29
BRANCH  26  33
ATOM     33  C13 ZIN A   1      19.325  -3.499   5.729  0.00  0.00     0.311 C 
BRANCH  33  34
ATOM     34  N14 ZIN A   1      18.351  -4.595   5.819  0.00  0.00     0.096 N 
ATOM     35  C20 ZIN A   1      17.740  -4.865   4.511  0.00  0.00     0.303 C 
ATOM     36  C19 ZIN A   1      16.677  -5.956   4.663  0.00  0.00     0.302 C 
ATOM     37  N17 ZIN A   1      17.299  -7.169   5.211  0.00  0.00     0.087 N 
ATOM     38  C16 ZIN A   1      17.910  -6.899   6.519  0.00  0.00     0.302 C 
ATOM     39  C18 ZIN A   1      16.325  -8.266   5.301  0.00  0.00     0.310 C 
ATOM     40  C15 ZIN A   1      18.973  -5.808   6.367  0.00  0.00     0.303 C 
ENDBRANCH  33  34
ENDBRANCH  26  33
ENDBRANCH   3  23
TORSDOF 7
ENDMDL
MODEL 5
REMARK VINA RESULT:      -9.4      4.788     12.028
REMARK  7 active torsions:
REMARK  status: ('A' for Active; 'I' for Inactive)
REMARK    1  A    between atoms: C5_5  and  C6_6 
REMARK       I    between atoms: C6_6  and  N8_8 
REMARK    2  A    between atoms: N8_8  and  C9_9 
REMARK    3  A    between atoms: C12_12  and  C13_13 
REMARK    4  A    between atoms: C13_13  and  N14_14 
REMARK    5  A    between atoms: C21_21  and  C22_22 
REMARK    6  A    between atoms: C28_28  and  C29_29 
REMARK    7  A    between atoms: C30_30  and  C31_31 
ROOT
ATOM      1  C6  ZIN A   1      18.687   1.423   8.620  0.00  0.00     0.256 C 
ATOM      2  O7  ZIN A   1      19.687   1.414   7.929  0.00  0.00    -0.267 OA
ATOM      3  N8  ZIN A   1      17.755   0.461   8.469  0.00  0.00    -0.323 N 
ATOM      4  H45 ZIN A   1      16.991   0.427   9.067  0.00  0.00     0.169 HD
ENDROOT
BRANCH   1   5
ATOM      5  C5  ZIN A   1      18.494   2.488   9.628  0.00  0.00     0.033 A 
ATOM      6  C4  ZIN A   1      18.117   3.771   9.225  0.00  0.00     0.017 A 
ATOM      7  C3  ZIN A   1      17.937   4.769  10.164  0.00  0.00     0.009 A 
ATOM      8  C2  ZIN A   1      18.128   4.505  11.505  0.00  0.00    -0.043 A 
ATOM      9  C1  ZIN A   1      17.929   5.600  12.521  0.00  0.00     0.049 C 
ATOM     10  C28 ZIN A   1      18.513   3.227  11.923  0.00  0.00     0.025 A 
ATOM     11  C27 ZIN A   1      18.690   2.213  10.979  0.00  0.00     0.038 A 
BRANCH  10  12
ATOM     12  C29 ZIN A   1      18.711   2.955  13.315  0.00  0.00    -0.059 C 
ATOM     13  C30 ZIN A   1      18.876   2.733  14.456  0.00  0.00    -0.040 C 
BRANCH  13  14
ATOM     14  C31 ZIN A   1      19.075   2.461  15.847  0.00  0.00     0.131 A 
ATOM     15  N39 ZIN A   1      18.988   1.236  16.465  0.00  0.00    -0.206 N 
ATOM     16  C34 ZIN A   1      19.254   1.437  17.795  0.00  0.00     0.151 A 
ATOM     17  N38 ZIN A   1      18.716  -0.051  15.991  0.00  0.00    -0.177 NA
ATOM     18  N33 ZIN A   1      19.486   2.730  17.988  0.00  0.00    -0.238 NA
ATOM     19  C35 ZIN A   1      19.237   0.336  18.669  0.00  0.00     0.054 A 
ATOM     20  C32 ZIN A   1      19.386   3.379  16.835  0.00  0.00     0.160 A 
ATOM     21  C36 ZIN A   1      18.961  -0.903  18.172  0.00  0.00     0.025 A 
ATOM     22  C37 ZIN A   1      18.700  -1.072  16.808  0.00  0.00     0.139 A 
ENDBRANCH  13  14
ENDBRANCH  10  12
ENDBRANCH   1   5
BRANCH   3  23
ATOM     23  C9  ZIN A   1      17.888  -0.489   7.451  0.00  0.00     0.035 A 
ATOM     24  C26 ZIN A   1      18.540  -1.689   7.699  0.00  0.00     0.046 A 
ATOM     25  C21 ZIN A   1      18.664  -2.626   6.693  0.00  0.00     0.058 A 
ATOM     26  C12 ZIN A   1      18.149  -2.366   5.436  0.00  0.00    -0.015 A 
ATOM     27  C11 ZIN A   1      17.504  -1.170   5.185  0.00  0.00     0.012 A 
ATOM     28  C10 ZIN A   1      17.372  -0.230   6.188  0.00  0.00     0.030 A 
BRANCH  25  29
ATOM     29  C22 ZIN A   1      19.366  -3.932   6.963  0.00  0.00     0.418 C 
ATOM     30  F23 ZIN A   1      20.572  -3.968   6.254  0.00  0.00    -0.166 F 
ATOM     31  F24 ZIN A   1      19.627  -4.048   8.332  0.00  0.00    -0.166 F 
ATOM     32  F25 ZIN A   1      18.552  -4.994   6.552  0.00  0.00    -0.166 F 
ENDBRANCH  25  29
BRANCH  26  33
ATOM     33  C13 ZIN A   1      18.293  -3.389   4.339  0.00  0.00     0.311 C 
BRANCH  33  34
ATOM     34  N14 ZIN A   1      16.962  -3.814   3.886  0.00  0.00     0.096 N 
ATOM     35  C20 ZIN A   1      16.904  -3.893   2.420  0.00  0.00     0.303 C 
ATOM     36  C19 ZIN A   1      15.482  -4.259   1.988  0.00  0.00     0.302 C 
ATOM     37  N17 ZIN A   1      15.103  -5.542   2.597  0.00  0.00     0.087 N 
ATOM     38  C16 ZIN A   1      15.161  -5.463   4.062  0.00  0.00     0.302 C 
ATOM     39  C18 ZIN A   1      13.771  -5.966   2.144  0.00  0.00     0.310 C 
ATOM     40  C15 ZIN A   1      16.583  -5.096   4.495  0.00  0.00     0.303 C 
ENDBRANCH  33  34
ENDBRANCH  26  33
ENDBRANCH   3  23
TORSDOF 7
ENDMDL
MODEL 6
REMARK VINA RESULT:      -9.3      4.321     12.418
REMARK  7 active torsions:
REMARK  status: ('A' for Active; 'I' for Inactive)
REMARK    1  A    between atoms: C5_5  and  C6_6 
REMARK       I    between atoms: C6_6  and  N8_8 
REMARK    2  A    between atoms: N8_8  and  C9_9 
REMARK    3  A    between atoms: C12_12  and  C13_13 
REMARK    4  A    between atoms: C13_13  and  N14_14 
REMARK    5  A    between atoms: C21_21  and  C22_22 
REMARK    6  A    between atoms: C28_28  and  C29_29 
REMARK    7  A    between atoms: C30_30  and  C31_31 
ROOT
ATOM      1  C6  ZIN A   1      18.250  -1.759  12.798  0.00  0.00     0.256 C 
ATOM      2  O7  ZIN A   1      17.189  -1.720  12.207  0.00  0.00    -0.267 OA
ATOM      3  N8  ZIN A   1      19.259  -2.514  12.321  0.00  0.00    -0.323 N 
ATOM      4  H45 ZIN A   1      20.128  -2.491  12.752  0.00  0.00     0.169 HD
ENDROOT
BRANCH   1   5
ATOM      5  C5  ZIN A   1      18.435  -0.976  14.039  0.00  0.00     0.033 A 
ATOM      6  C4  ZIN A   1      18.610  -1.632  15.260  0.00  0.00     0.017 A 
ATOM      7  C3  ZIN A   1      18.782  -0.904  16.421  0.00  0.00     0.009 A 
ATOM      8  C2  ZIN A   1      18.782   0.475  16.384  0.00  0.00    -0.043 A 
ATOM      9  C1  ZIN A   1      18.971   1.261  17.657  0.00  0.00     0.049 C 
ATOM     10  C28 ZIN A   1      18.602   1.146  15.171  0.00  0.00     0.025 A 
ATOM     11  C27 ZIN A   1      18.433   0.416  13.993  0.00  0.00     0.038 A 
BRANCH  10  12
ATOM     12  C29 ZIN A   1      18.601   2.578  15.134  0.00  0.00    -0.059 C 
ATOM     13  C30 ZIN A   1      18.602   3.752  15.104  0.00  0.00    -0.040 C 
BRANCH  13  14
ATOM     14  C31 ZIN A   1      18.602   5.183  15.068  0.00  0.00     0.131 A 
ATOM     15  N39 ZIN A   1      17.501   6.005  15.099  0.00  0.00    -0.206 N 
ATOM     16  C34 ZIN A   1      17.962   7.296  15.048  0.00  0.00     0.151 A 
ATOM     17  N38 ZIN A   1      16.129   5.754  15.183  0.00  0.00    -0.177 NA
ATOM     18  N33 ZIN A   1      19.288   7.268  14.980  0.00  0.00    -0.238 NA
ATOM     19  C35 ZIN A   1      17.035   8.353  15.070  0.00  0.00     0.054 A 
ATOM     20  C32 ZIN A   1      19.709   6.010  14.990  0.00  0.00     0.160 A 
ATOM     21  C36 ZIN A   1      15.704   8.070  15.146  0.00  0.00     0.025 A 
ATOM     22  C37 ZIN A   1      15.271   6.740  15.202  0.00  0.00     0.139 A 
ENDBRANCH  13  14
ENDBRANCH  10  12
ENDBRANCH   1   5
BRANCH   3  23
ATOM     23  C9  ZIN A   1      19.055  -3.331  11.204  0.00  0.00     0.035 A 
ATOM     24  C26 ZIN A   1      19.237  -2.821   9.925  0.00  0.00     0.046 A 
ATOM     25  C21 ZIN A   1      19.040  -3.631   8.825  0.00  0.00     0.058 A 
ATOM     26  C12 ZIN A   1      18.650  -4.947   8.996  0.00  0.00    -0.015 A 
ATOM     27  C11 ZIN A   1      18.463  -5.457  10.267  0.00  0.00     0.012 A 
ATOM     28  C10 ZIN A   1      18.664  -4.653  11.372  0.00  0.00     0.030 A 
BRANCH  25  29
ATOM     29  C22 ZIN A   1      19.243  -3.080   7.437  0.00  0.00     0.418 C 
ATOM     30  F23 ZIN A   1      18.056  -3.206   6.708  0.00  0.00    -0.166 F 
ATOM     31  F24 ZIN A   1      19.600  -1.731   7.518  0.00  0.00    -0.166 F 
ATOM     32  F25 ZIN A   1      20.261  -3.795   6.796  0.00  0.00    -0.166 F 
ENDBRANCH  25  29
BRANCH  26  33
ATOM     33  C13 ZIN A   1      18.429  -5.827   7.792  0.00  0.00     0.311 C 
BRANCH  33  34
ATOM     34  N14 ZIN A   1      17.235  -6.655   8.003  0.00  0.00     0.096 N 
ATOM     35  C20 ZIN A   1      16.022  -5.951   7.567  0.00  0.00     0.303 C 
ATOM     36  C19 ZIN A   1      14.796  -6.813   7.876  0.00  0.00     0.302 C 
ATOM     37  N17 ZIN A   1      14.924  -8.106   7.191  0.00  0.00     0.087 N 
ATOM     38  C16 ZIN A   1      16.138  -8.811   7.627  0.00  0.00     0.302 C 
ATOM     39  C18 ZIN A   1      13.730  -8.936   7.402  0.00  0.00     0.310 C 
ATOM     40  C15 ZIN A   1      17.364  -7.949   7.318  0.00  0.00     0.303 C 
ENDBRANCH  33  34
ENDBRANCH  26  33
ENDBRANCH   3  23
TORSDOF 7
ENDMDL
MODEL 7
REMARK VINA RESULT:      -9.3      4.008     12.374
REMARK  7 active torsions:
REMARK  status: ('A' for Active; 'I' for Inactive)
REMARK    1  A    between atoms: C5_5  and  C6_6 
REMARK       I    between atoms: C6_6  and  N8_8 
REMARK    2  A    between atoms: N8_8  and  C9_9 
REMARK    3  A    between atoms: C12_12  and  C13_13 
REMARK    4  A    between atoms: C13_13  and  N14_14 
REMARK    5  A    between atoms: C21_21  and  C22_22 
REMARK    6  A    between atoms: C28_28  and  C29_29 
REMARK    7  A    between atoms: C30_30  and  C31_31 
ROOT
ATOM      1  C6  ZIN A   1      19.350  -1.074  11.640  0.00  0.00     0.256 C 
ATOM      2  O7  ZIN A   1      20.458  -1.264  11.177  0.00  0.00    -0.267 OA
ATOM      3  N8  ZIN A   1      18.259  -1.256  10.871  0.00  0.00    -0.323 N 
ATOM      4  H45 ZIN A   1      17.373  -1.172  11.258  0.00  0.00     0.169 HD
ENDROOT
BRANCH   1   5
ATOM      5  C5  ZIN A   1      19.201  -0.643  13.047  0.00  0.00     0.033 A 
ATOM      6  C4  ZIN A   1      19.207  -1.592  14.073  0.00  0.00     0.017 A 
ATOM      7  C3  ZIN A   1      19.067  -1.193  15.388  0.00  0.00     0.009 A 
ATOM      8  C2  ZIN A   1      18.920   0.143  15.699  0.00  0.00    -0.043 A 
ATOM      9  C1  ZIN A   1      18.768   0.567  17.137  0.00  0.00     0.049 C 
ATOM     10  C28 ZIN A   1      18.905   1.103  14.682  0.00  0.00     0.025 A 
ATOM     11  C27 ZIN A   1      19.052   0.708  13.351  0.00  0.00     0.038 A 
BRANCH  10  12
ATOM     12  C29 ZIN A   1      18.751   2.490  15.006  0.00  0.00    -0.059 C 
ATOM     13  C30 ZIN A   1      18.626   3.627  15.272  0.00  0.00    -0.040 C 
BRANCH  13  14
ATOM     14  C31 ZIN A   1      18.472   5.013  15.596  0.00  0.00     0.131 A 
ATOM     15  N39 ZIN A   1      17.355   5.786  15.388  0.00  0.00    -0.206 N 
ATOM     16  C34 ZIN A   1      17.646   7.045  15.848  0.00  0.00     0.151 A 
ATOM     17  N38 ZIN A   1      16.094   5.510  14.852  0.00  0.00    -0.177 NA
ATOM     18  N33 ZIN A   1      18.891   7.047  16.311  0.00  0.00    -0.238 NA
ATOM     19  C35 ZIN A   1      16.665   8.048  15.761  0.00  0.00     0.054 A 
ATOM     20  C32 ZIN A   1      19.421   5.839  16.175  0.00  0.00     0.160 A 
ATOM     21  C36 ZIN A   1      15.449   7.743  15.226  0.00  0.00     0.025 A 
ATOM     22  C37 ZIN A   1      15.185   6.446  14.772  0.00  0.00     0.139 A 
ENDBRANCH  13  14
ENDBRANCH  10  12
ENDBRANCH   1   5
BRANCH   3  23
ATOM     23  C9  ZIN A   1      18.402  -1.566   9.515  0.00  0.00     0.035 A 
ATOM     24  C26 ZIN A   1      18.408  -0.552   8.566  0.00  0.00     0.046 A 
ATOM     25  C21 ZIN A   1      18.556  -0.862   7.228  0.00  0.00     0.058 A 
ATOM     26  C12 ZIN A   1      18.687  -2.180   6.832  0.00  0.00    -0.015 A 
ATOM     27  C11 ZIN A   1      18.676  -3.192   7.774  0.00  0.00     0.012 A 
ATOM     28  C10 ZIN A   1      18.534  -2.889   9.114  0.00  0.00     0.030 A 
BRANCH  25  29
ATOM     29  C22 ZIN A   1      18.568   0.238   6.198  0.00  0.00     0.418 C 
ATOM     30  F23 ZIN A   1      18.621   1.479   6.842  0.00  0.00    -0.166 F 
ATOM     31  F24 ZIN A   1      19.688   0.093   5.373  0.00  0.00    -0.166 F 
ATOM     32  F25 ZIN A   1      17.405   0.165   5.423  0.00  0.00    -0.166 F 
ENDBRANCH  25  29
BRANCH  26  33
ATOM     33  C13 ZIN A   1      18.841  -2.514   5.371  0.00  0.00     0.311 C 
BRANCH  33  34
ATOM     34  N14 ZIN A   1      17.782  -3.448   4.967  0.00  0.00     0.096 N 
ATOM     35  C20 ZIN A   1      17.090  -2.970   3.762  0.00  0.00     0.303 C 
ATOM     36  C19 ZIN A   1      15.945  -3.928   3.422  0.00  0.00     0.302 C 
ATOM     37  N17 ZIN A   1      16.485  -5.278   3.215  0.00  0.00     0.087 N 
ATOM     38  C16 ZIN A   1      17.177  -5.756   4.419  0.00  0.00     0.302 C 
ATOM     39  C18 ZIN A   1      15.426  -6.213   2.810  0.00  0.00     0.310 C 
ATOM     40  C15 ZIN A   1      18.322  -4.799   4.760  0.00  0.00     0.303 C 
ENDBRANCH  33  34
ENDBRANCH  26  33
ENDBRANCH   3  23
TORSDOF 7
ENDMDL
MODEL 8
REMARK VINA RESULT:      -9.2      4.992     12.682
REMARK  7 active torsions:
REMARK  status: ('A' for Active; 'I' for Inactive)
REMARK    1  A    between atoms: C5_5  and  C6_6 
REMARK       I    between atoms: C6_6  and  N8_8 
REMARK    2  A    between atoms: N8_8  and  C9_9 
REMARK    3  A    between atoms: C12_12  and  C13_13 
REMARK    4  A    between atoms: C13_13  and  N14_14 
REMARK    5  A    between atoms: C21_21  and  C22_22 
REMARK    6  A    between atoms: C28_28  and  C29_29 
REMARK    7  A    between atoms: C30_30  and  C31_31 
ROOT
ATOM      1  C6  ZIN A   1      18.797  -2.034  12.932  0.00  0.00     0.256 C 
ATOM      2  O7  ZIN A   1      19.783  -2.739  12.831  0.00  0.00    -0.267 OA
ATOM      3  N8  ZIN A   1      17.879  -2.016  11.946  0.00  0.00    -0.323 N 
ATOM      4  H45 ZIN A   1      17.059  -1.509  12.056  0.00  0.00     0.169 HD
ENDROOT
BRANCH   1   5
ATOM      5  C5  ZIN A   1      18.606  -1.198  14.137  0.00  0.00     0.033 A 
ATOM      6  C4  ZIN A   1      18.289  -1.795  15.359  0.00  0.00     0.017 A 
ATOM      7  C3  ZIN A   1      18.109  -1.017  16.486  0.00  0.00     0.009 A 
ATOM      8  C2  ZIN A   1      18.241   0.354  16.414  0.00  0.00    -0.043 A 
ATOM      9  C1  ZIN A   1      18.043   1.195  17.649  0.00  0.00     0.049 C 
ATOM     10  C28 ZIN A   1      18.551   0.967  15.195  0.00  0.00     0.025 A 
ATOM     11  C27 ZIN A   1      18.740   0.186  14.054  0.00  0.00     0.038 A 
BRANCH  10  12
ATOM     12  C29 ZIN A   1      18.687   2.391  15.121  0.00  0.00    -0.059 C 
ATOM     13  C30 ZIN A   1      18.797   3.559  15.060  0.00  0.00    -0.040 C 
BRANCH  13  14
ATOM     14  C31 ZIN A   1      18.932   4.982  14.985  0.00  0.00     0.131 A 
ATOM     15  N39 ZIN A   1      17.913   5.904  14.964  0.00  0.00    -0.206 N 
ATOM     16  C34 ZIN A   1      18.495   7.143  14.890  0.00  0.00     0.151 A 
ATOM     17  N38 ZIN A   1      16.522   5.784  15.019  0.00  0.00    -0.177 NA
ATOM     18  N33 ZIN A   1      19.814   6.990  14.858  0.00  0.00    -0.238 NA
ATOM     19  C35 ZIN A   1      17.671   8.283  14.858  0.00  0.00     0.054 A 
ATOM     20  C32 ZIN A   1      20.114   5.699  14.913  0.00  0.00     0.160 A 
ATOM     21  C36 ZIN A   1      16.319   8.127  14.906  0.00  0.00     0.025 A 
ATOM     22  C37 ZIN A   1      15.760   6.847  14.988  0.00  0.00     0.139 A 
ENDBRANCH  13  14
ENDBRANCH  10  12
ENDBRANCH   1   5
BRANCH   3  23
ATOM     23  C9  ZIN A   1      18.107  -2.729  10.764  0.00  0.00     0.035 A 
ATOM     24  C26 ZIN A   1      17.743  -4.066  10.677  0.00  0.00     0.046 A 
ATOM     25  C21 ZIN A   1      17.964  -4.765   9.507  0.00  0.00     0.058 A 
ATOM     26  C12 ZIN A   1      18.556  -4.138   8.426  0.00  0.00    -0.015 A 
ATOM     27  C11 ZIN A   1      18.924  -2.808   8.512  0.00  0.00     0.012 A 
ATOM     28  C10 ZIN A   1      18.701  -2.102   9.678  0.00  0.00     0.030 A 
BRANCH  25  29
ATOM     29  C22 ZIN A   1      17.564  -6.215   9.409  0.00  0.00     0.418 C 
ATOM     30  F23 ZIN A   1      18.572  -6.933   8.756  0.00  0.00    -0.166 F 
ATOM     31  F24 ZIN A   1      17.377  -6.736  10.693  0.00  0.00    -0.166 F 
ATOM     32  F25 ZIN A   1      16.372  -6.323   8.684  0.00  0.00    -0.166 F 
ENDBRANCH  25  29
BRANCH  26  33
ATOM     33  C13 ZIN A   1      18.802  -4.906   7.153  0.00  0.00     0.311 C 
BRANCH  33  34
ATOM     34  N14 ZIN A   1      17.767  -4.567   6.168  0.00  0.00     0.096 N 
ATOM     35  C20 ZIN A   1      18.332  -3.791   5.057  0.00  0.00     0.303 C 
ATOM     36  C19 ZIN A   1      17.210  -3.390   4.095  0.00  0.00     0.302 C 
ATOM     37  N17 ZIN A   1      16.538  -4.599   3.601  0.00  0.00     0.087 N 
ATOM     38  C16 ZIN A   1      15.972  -5.376   4.712  0.00  0.00     0.302 C 
ATOM     39  C18 ZIN A   1      15.502  -4.260   2.615  0.00  0.00     0.310 C 
ATOM     40  C15 ZIN A   1      17.094  -5.776   5.674  0.00  0.00     0.303 C 
ENDBRANCH  33  34
ENDBRANCH  26  33
ENDBRANCH   3  23
TORSDOF 7
ENDMDL
MODEL 9
REMARK VINA RESULT:      -8.8      3.480      4.915
REMARK  7 active torsions:
REMARK  status: ('A' for Active; 'I' for Inactive)
REMARK    1  A    between atoms: C5_5  and  C6_6 
REMARK       I    between atoms: C6_6  and  N8_8 
REMARK    2  A    between atoms: N8_8  and  C9_9 
REMARK    3  A    between atoms: C12_12  and  C13_13 
REMARK    4  A    between atoms: C13_13  and  N14_14 
REMARK    5  A    between atoms: C21_21  and  C22_22 
REMARK    6  A    between atoms: C28_28  and  C29_29 
REMARK    7  A    between atoms: C30_30  and  C31_31 
ROOT
ATOM      1  C6  ZIN A   1      18.645  -2.075  12.540  0.00  0.00     0.256 C 
ATOM      2  O7  ZIN A   1      19.817  -1.756  12.588  0.00  0.00    -0.267 OA
ATOM      3  N8  ZIN A   1      17.727  -1.374  13.235  0.00  0.00    -0.323 N 
ATOM      4  H45 ZIN A   1      16.785  -1.584  13.142  0.00  0.00     0.169 HD
ENDROOT
BRANCH   1   5
ATOM      5  C5  ZIN A   1      18.226  -3.230  11.717  0.00  0.00     0.033 A 
ATOM      6  C4  ZIN A   1      17.802  -4.410  12.333  0.00  0.00     0.017 A 
ATOM      7  C3  ZIN A   1      17.411  -5.491  11.567  0.00  0.00     0.009 A 
ATOM      8  C2  ZIN A   1      17.435  -5.414  10.190  0.00  0.00    -0.043 A 
ATOM      9  C1  ZIN A   1      17.006  -6.599   9.363  0.00  0.00     0.049 C 
ATOM     10  C28 ZIN A   1      17.864  -4.242   9.559  0.00  0.00     0.025 A 
ATOM     11  C27 ZIN A   1      18.255  -3.144  10.327  0.00  0.00     0.038 A 
BRANCH  10  12
ATOM     12  C29 ZIN A   1      17.890  -4.164   8.129  0.00  0.00    -0.059 C 
ATOM     13  C30 ZIN A   1      17.911  -4.100   6.957  0.00  0.00    -0.040 C 
BRANCH  13  14
ATOM     14  C31 ZIN A   1      17.937  -4.023   5.527  0.00  0.00     0.131 A 
ATOM     15  N39 ZIN A   1      17.046  -4.603   4.657  0.00  0.00    -0.206 N 
ATOM     16  C34 ZIN A   1      17.448  -4.269   3.389  0.00  0.00     0.151 A 
ATOM     17  N38 ZIN A   1      15.902  -5.383   4.847  0.00  0.00    -0.177 NA
ATOM     18  N33 ZIN A   1      18.544  -3.525   3.476  0.00  0.00    -0.238 NA
ATOM     19  C35 ZIN A   1      16.701  -4.734   2.292  0.00  0.00     0.054 A 
ATOM     20  C32 ZIN A   1      18.869  -3.356   4.751  0.00  0.00     0.160 A 
ATOM     21  C36 ZIN A   1      15.595  -5.497   2.515  0.00  0.00     0.025 A 
ATOM     22  C37 ZIN A   1      15.211  -5.813   3.823  0.00  0.00     0.139 A 
ENDBRANCH  13  14
ENDBRANCH  10  12
ENDBRANCH   1   5
BRANCH   3  23
ATOM     23  C9  ZIN A   1      18.134  -0.345  14.090  0.00  0.00     0.035 A 
ATOM     24  C26 ZIN A   1      18.289  -0.588  15.448  0.00  0.00     0.046 A 
ATOM     25  C21 ZIN A   1      18.696   0.429  16.288  0.00  0.00     0.058 A 
ATOM     26  C12 ZIN A   1      18.938   1.692  15.780  0.00  0.00    -0.015 A 
ATOM     27  C11 ZIN A   1      18.779   1.939  14.430  0.00  0.00     0.012 A 
ATOM     28  C10 ZIN A   1      18.378   0.925  13.583  0.00  0.00     0.030 A 
BRANCH  25  29
ATOM     29  C22 ZIN A   1      18.871   0.164  17.762  0.00  0.00     0.418 C 
ATOM     30  F23 ZIN A   1      20.004   0.842  18.226  0.00  0.00    -0.166 F 
ATOM     31  F24 ZIN A   1      17.743   0.612  18.455  0.00  0.00    -0.166 F 
ATOM     32  F25 ZIN A   1      19.033  -1.210  17.973  0.00  0.00    -0.166 F 
ENDBRANCH  25  29
BRANCH  26  33
ATOM     33  C13 ZIN A   1      19.376   2.801  16.703  0.00  0.00     0.311 C 
BRANCH  33  34
ATOM     34  N14 ZIN A   1      18.789   4.071  16.255  0.00  0.00     0.096 N 
ATOM     35  C20 ZIN A   1      17.865   4.609  17.263  0.00  0.00     0.303 C 
ATOM     36  C19 ZIN A   1      17.217   5.887  16.726  0.00  0.00     0.302 C 
ATOM     37  N17 ZIN A   1      18.263   6.865  16.400  0.00  0.00     0.087 N 
ATOM     38  C16 ZIN A   1      19.187   6.327  15.392  0.00  0.00     0.302 C 
ATOM     39  C18 ZIN A   1      17.677   8.135  15.952  0.00  0.00     0.310 C 
ATOM     40  C15 ZIN A   1      19.836   5.049  15.929  0.00  0.00     0.303 C 
ENDBRANCH  33  34
ENDBRANCH  26  33
ENDBRANCH   3  23
TORSDOF 7
ENDMDL
