MODEL 1
REMARK VINA RESULT:      -6.9      0.000      0.000
REMARK  9 active torsions:
REMARK  status: ('A' for Active; 'I' for Inactive)
REMARK    1  A    between atoms: C2_2  and  C3_3 
REMARK       I    between atoms: C3_3  and  N5_5 
REMARK    2  A    between atoms: N5_5  and  C6_6 
REMARK    3  A    between atoms: N5_5  and  C12_12 
REMARK    4  A    between atoms: C12_12  and  C13_13 
REMARK    5  A    between atoms: C13_13  and  O15_15 
REMARK    6  A    between atoms: N19_19  and  C20_20 
REMARK    7  A    between atoms: C20_20  and  C21_21 
REMARK    8  A    between atoms: C21_21  and  C22_22 
REMARK    9  A    between atoms: C22_22  and  O24_24 
ROOT
ATOM      1  C12 <0> d   1      18.103  -1.181  10.182  0.00  0.00     0.131 C 
ATOM      2  C17 <0> d   1      16.902  -0.565   9.458  0.00  0.00     0.072 C 
ATOM      3  C18 <0> d   1      17.396   0.232   8.249  0.00  0.00     0.275 C 
ATOM      4  N19 <0> d   1      18.133  -0.658   7.342  0.00  0.00     0.089 N 
ATOM      5  C26 <0> d   1      19.318  -1.224   8.001  0.00  0.00     0.275 C 
ATOM      6  C27 <0> d   1      18.881  -2.064   9.203  0.00  0.00     0.072 C 
ENDROOT
BRANCH   1   7
ATOM      7  N5  <0> d   1      18.975  -0.113  10.678  0.00  0.00    -0.298 N 
ATOM      8  C3  <0> d   1      20.165  -0.417  11.231  0.00  0.00     0.225 C 
ATOM      9  O4  <0> d   1      20.706  -1.469  10.967  0.00  0.00    -0.273 OA
BRANCH   8  10
ATOM     10  C2  <0> d   1      20.826   0.552  12.179  0.00  0.00     0.099 C 
ATOM     11  C1  <0> d   1      20.266   0.349  13.588  0.00  0.00     0.014 C 
ENDBRANCH   8  10
BRANCH   7  12
ATOM     12  C6  <0> d   1      18.571   1.223  10.576  0.00  0.00     0.038 A 
ATOM     13  C11 <0> d   1      17.623   1.732  11.453  0.00  0.00     0.030 A 
ATOM     14  C10 <0> d   1      17.230   3.053  11.353  0.00  0.00     0.002 A 
ATOM     15  C9  <0> d   1      17.771   3.864  10.374  0.00  0.00     0.000 A 
ATOM     16  C8  <0> d   1      18.711   3.358   9.494  0.00  0.00     0.002 A 
ATOM     17  C7  <0> d   1      19.112   2.041   9.593  0.00  0.00     0.030 A 
ENDBRANCH   7  12
ENDBRANCH   1   7
BRANCH   1  18
ATOM     18  C13 <0> d   1      17.620  -2.015  11.341  0.00  0.00     0.287 C 
ATOM     19  O14 <0> d   1      16.890  -1.529  12.171  0.00  0.00    -0.262 OA
BRANCH  18  20
ATOM     20  O15 <0> d   1      18.002  -3.296  11.451  0.00  0.00    -0.325 OA
ATOM     21  C16 <0> d   1      16.963  -4.305  11.352  0.00  0.00     0.213 C 
ENDBRANCH  18  20
ENDBRANCH   1  18
BRANCH   4  22
ATOM     22  C20 <0> d   1      18.503   0.040   6.104  0.00  0.00     0.282 C 
BRANCH  22  23
ATOM     23  C21 <0> d   1      17.856  -0.662   4.909  0.00  0.00     0.141 C 
BRANCH  23  24
ATOM     24  C22 <0> d   1      18.735  -1.798   4.456  0.00  0.00     0.260 C 
ATOM     25  O23 <0> d   1      19.925  -1.630   4.334  0.00  0.00    -0.265 OA
BRANCH  24  26
ATOM     26  O24 <0> d   1      18.196  -2.998   4.189  0.00  0.00    -0.326 OA
ATOM     27  C25 <0> d   1      18.092  -3.935   5.294  0.00  0.00     0.213 C 
ENDBRANCH  24  26
ENDBRANCH  23  24
ENDBRANCH  22  23
ENDBRANCH   4  22
TORSDOF 9
ENDMDL
MODEL 2
REMARK VINA RESULT:      -6.8      1.902      4.230
REMARK  9 active torsions:
REMARK  status: ('A' for Active; 'I' for Inactive)
REMARK    1  A    between atoms: C2_2  and  C3_3 
REMARK       I    between atoms: C3_3  and  N5_5 
REMARK    2  A    between atoms: N5_5  and  C6_6 
REMARK    3  A    between atoms: N5_5  and  C12_12 
REMARK    4  A    between atoms: C12_12  and  C13_13 
REMARK    5  A    between atoms: C13_13  and  O15_15 
REMARK    6  A    between atoms: N19_19  and  C20_20 
REMARK    7  A    between atoms: C20_20  and  C21_21 
REMARK    8  A    between atoms: C21_21  and  C22_22 
REMARK    9  A    between atoms: C22_22  and  O24_24 
ROOT
ATOM      1  C12 <0> d   1      19.283   0.726  10.286  0.00  0.00     0.131 C 
ATOM      2  C17 <0> d   1      20.252  -0.158   9.496  0.00  0.00     0.072 C 
ATOM      3  C18 <0> d   1      19.456  -1.053   8.542  0.00  0.00     0.275 C 
ATOM      4  N19 <0> d   1      18.670  -0.216   7.626  0.00  0.00     0.089 N 
ATOM      5  C26 <0> d   1      17.700   0.608   8.360  0.00  0.00     0.275 C 
ATOM      6  C27 <0> d   1      18.444   1.551   9.308  0.00  0.00     0.072 C 
ENDROOT
BRANCH   1   7
ATOM      7  N5  <0> d   1      18.402  -0.118  11.098  0.00  0.00    -0.298 N 
ATOM      8  C3  <0> d   1      17.399   0.439  11.804  0.00  0.00     0.225 C 
ATOM      9  O4  <0> d   1      16.954   1.519  11.479  0.00  0.00    -0.273 OA
BRANCH   8  10
ATOM     10  C2  <0> d   1      16.828  -0.282  12.999  0.00  0.00     0.099 C 
ATOM     11  C1  <0> d   1      17.615   0.106  14.253  0.00  0.00     0.014 C 
ENDBRANCH   8  10
BRANCH   7  12
ATOM     12  C6  <0> d   1      18.603  -1.502  11.138  0.00  0.00     0.038 A 
ATOM     13  C11 <0> d   1      17.687  -2.355  10.536  0.00  0.00     0.030 A 
ATOM     14  C10 <0> d   1      17.891  -3.721  10.573  0.00  0.00     0.002 A 
ATOM     15  C9  <0> d   1      18.998  -4.240  11.217  0.00  0.00     0.000 A 
ATOM     16  C8  <0> d   1      19.908  -3.393  11.823  0.00  0.00     0.002 A 
ATOM     17  C7  <0> d   1      19.714  -2.026  11.785  0.00  0.00     0.030 A 
ENDBRANCH   7  12
ENDBRANCH   1   7
BRANCH   1  18
ATOM     18  C13 <0> d   1      20.063   1.650  11.186  0.00  0.00     0.287 C 
ATOM     19  O14 <0> d   1      20.769   1.194  12.054  0.00  0.00    -0.262 OA
BRANCH  18  20
ATOM     20  O15 <0> d   1      19.973   2.979  11.024  0.00  0.00    -0.325 OA
ATOM     21  C16 <0> d   1      19.543   3.756  12.173  0.00  0.00     0.213 C 
ENDBRANCH  18  20
ENDBRANCH   1  18
BRANCH   4  22
ATOM     22  C20 <0> d   1      18.001  -1.035   6.607  0.00  0.00     0.282 C 
BRANCH  22  23
ATOM     23  C21 <0> d   1      18.824  -2.298   6.346  0.00  0.00     0.141 C 
BRANCH  23  24
ATOM     24  C22 <0> d   1      19.122  -2.408   4.873  0.00  0.00     0.260 C 
ATOM     25  O23 <0> d   1      19.762  -1.545   4.320  0.00  0.00    -0.265 OA
BRANCH  24  26
ATOM     26  O24 <0> d   1      18.677  -3.464   4.175  0.00  0.00    -0.326 OA
ATOM     27  C25 <0> d   1      17.259  -3.498   3.864  0.00  0.00     0.213 C 
ENDBRANCH  24  26
ENDBRANCH  23  24
ENDBRANCH  22  23
ENDBRANCH   4  22
TORSDOF 9
ENDMDL
MODEL 3
REMARK VINA RESULT:      -6.8      3.393      7.508
REMARK  9 active torsions:
REMARK  status: ('A' for Active; 'I' for Inactive)
REMARK    1  A    between atoms: C2_2  and  C3_3 
REMARK       I    between atoms: C3_3  and  N5_5 
REMARK    2  A    between atoms: N5_5  and  C6_6 
REMARK    3  A    between atoms: N5_5  and  C12_12 
REMARK    4  A    between atoms: C12_12  and  C13_13 
REMARK    5  A    between atoms: C13_13  and  O15_15 
REMARK    6  A    between atoms: N19_19  and  C20_20 
REMARK    7  A    between atoms: C20_20  and  C21_21 
REMARK    8  A    between atoms: C21_21  and  C22_22 
REMARK    9  A    between atoms: C22_22  and  O24_24 
ROOT
ATOM      1  C12 <0> d   1      19.313  -0.737  12.746  0.00  0.00     0.131 C 
ATOM      2  C17 <0> d   1      20.276   0.111  13.583  0.00  0.00     0.072 C 
ATOM      3  C18 <0> d   1      19.476   0.920  14.607  0.00  0.00     0.275 C 
ATOM      4  N19 <0> d   1      18.721   0.005  15.473  0.00  0.00     0.089 N 
ATOM      5  C26 <0> d   1      17.757  -0.786  14.697  0.00  0.00     0.275 C 
ATOM      6  C27 <0> d   1      18.505  -1.645  13.676  0.00  0.00     0.072 C 
ENDROOT
BRANCH   1   7
ATOM      7  N5  <0> d   1      18.403   0.142  12.007  0.00  0.00    -0.298 N 
ATOM      8  C3  <0> d   1      17.386  -0.384  11.298  0.00  0.00     0.225 C 
ATOM      9  O4  <0> d   1      16.959  -1.485  11.574  0.00  0.00    -0.273 OA
BRANCH   8  10
ATOM     10  C2  <0> d   1      16.776   0.397  10.161  0.00  0.00     0.099 C 
ATOM     11  C1  <0> d   1      17.506   0.056   8.860  0.00  0.00     0.014 C 
ENDBRANCH   8  10
BRANCH   7  12
ATOM     12  C6  <0> d   1      18.591   1.528  12.039  0.00  0.00     0.038 A 
ATOM     13  C11 <0> d   1      17.679   2.339  12.701  0.00  0.00     0.030 A 
ATOM     14  C10 <0> d   1      17.870   3.707  12.736  0.00  0.00     0.002 A 
ATOM     15  C9  <0> d   1      18.962   4.270  12.102  0.00  0.00     0.000 A 
ATOM     16  C8  <0> d   1      19.869   3.466  11.436  0.00  0.00     0.002 A 
ATOM     17  C7  <0> d   1      19.687   2.098  11.403  0.00  0.00     0.030 A 
ENDBRANCH   7  12
ENDBRANCH   1   7
BRANCH   1  18
ATOM     18  C13 <0> d   1      20.098  -1.580  11.774  0.00  0.00     0.287 C 
ATOM     19  O14 <0> d   1      20.778  -1.050  10.927  0.00  0.00    -0.262 OA
BRANCH  18  20
ATOM     20  O15 <0> d   1      20.042  -2.918  11.848  0.00  0.00    -0.325 OA
ATOM     21  C16 <0> d   1      19.550  -3.623  10.678  0.00  0.00     0.213 C 
ENDBRANCH  18  20
ENDBRANCH   1  18
BRANCH   4  22
ATOM     22  C20 <0> d   1      18.051   0.738  16.556  0.00  0.00     0.282 C 
BRANCH  22  23
ATOM     23  C21 <0> d   1      18.729   2.095  16.751  0.00  0.00     0.141 C 
BRANCH  23  24
ATOM     24  C22 <0> d   1      19.243   2.202  18.163  0.00  0.00     0.260 C 
ATOM     25  O23 <0> d   1      19.910   1.311  18.632  0.00  0.00    -0.265 OA
BRANCH  24  26
ATOM     26  O24 <0> d   1      18.959   3.287  18.900  0.00  0.00    -0.326 OA
ATOM     27  C25 <0> d   1      17.624   3.843  18.768  0.00  0.00     0.213 C 
ENDBRANCH  24  26
ENDBRANCH  23  24
ENDBRANCH  22  23
ENDBRANCH   4  22
TORSDOF 9
ENDMDL
MODEL 4
REMARK VINA RESULT:      -6.7      2.229      4.048
REMARK  9 active torsions:
REMARK  status: ('A' for Active; 'I' for Inactive)
REMARK    1  A    between atoms: C2_2  and  C3_3 
REMARK       I    between atoms: C3_3  and  N5_5 
REMARK    2  A    between atoms: N5_5  and  C6_6 
REMARK    3  A    between atoms: N5_5  and  C12_12 
REMARK    4  A    between atoms: C12_12  and  C13_13 
REMARK    5  A    between atoms: C13_13  and  O15_15 
REMARK    6  A    between atoms: N19_19  and  C20_20 
REMARK    7  A    between atoms: C20_20  and  C21_21 
REMARK    8  A    between atoms: C21_21  and  C22_22 
REMARK    9  A    between atoms: C22_22  and  O24_24 
ROOT
ATOM      1  C12 <0> d   1      18.115  -1.369  11.472  0.00  0.00     0.131 C 
ATOM      2  C17 <0> d   1      17.296  -2.422  10.719  0.00  0.00     0.072 C 
ATOM      3  C18 <0> d   1      18.237  -3.288   9.879  0.00  0.00     0.275 C 
ATOM      4  N19 <0> d   1      19.218  -3.940  10.755  0.00  0.00     0.089 N 
ATOM      5  C26 <0> d   1      20.048  -2.949  11.453  0.00  0.00     0.275 C 
ATOM      6  C27 <0> d   1      19.161  -2.073  12.340  0.00  0.00     0.072 C 
ENDROOT
BRANCH   1   7
ATOM      7  N5  <0> d   1      18.787  -0.492  10.510  0.00  0.00    -0.298 N 
ATOM      8  C3  <0> d   1      19.669   0.431  10.940  0.00  0.00     0.225 C 
ATOM      9  O4  <0> d   1      20.219   0.291  12.011  0.00  0.00    -0.273 OA
BRANCH   8  10
ATOM     10  C2  <0> d   1      19.971   1.639  10.090  0.00  0.00     0.099 C 
ATOM     11  C1  <0> d   1      18.989   2.761  10.430  0.00  0.00     0.014 C 
ENDBRANCH   8  10
BRANCH   7  12
ATOM     12  C6  <0> d   1      18.513  -0.615   9.143  0.00  0.00     0.038 A 
ATOM     13  C11 <0> d   1      19.438  -1.217   8.299  0.00  0.00     0.030 A 
ATOM     14  C10 <0> d   1      19.162  -1.342   6.951  0.00  0.00     0.002 A 
ATOM     15  C9  <0> d   1      17.973  -0.858   6.440  0.00  0.00     0.000 A 
ATOM     16  C8  <0> d   1      17.053  -0.253   7.276  0.00  0.00     0.002 A 
ATOM     17  C7  <0> d   1      17.320  -0.130   8.625  0.00  0.00     0.030 A 
ENDBRANCH   7  12
ENDBRANCH   1   7
BRANCH   1  18
ATOM     18  C13 <0> d   1      17.202  -0.550  12.347  0.00  0.00     0.287 C 
ATOM     19  O14 <0> d   1      16.232  -0.011  11.869  0.00  0.00    -0.262 OA
BRANCH  18  20
ATOM     20  O15 <0> d   1      17.466  -0.417  13.656  0.00  0.00    -0.325 OA
ATOM     21  C16 <0> d   1      17.619   0.934  14.164  0.00  0.00     0.213 C 
ENDBRANCH  18  20
ENDBRANCH   1  18
BRANCH   4  22
ATOM     22  C20 <0> d   1      20.050  -4.887  10.002  0.00  0.00     0.282 C 
BRANCH  22  23
ATOM     23  C21 <0> d   1      19.248  -5.449   8.826  0.00  0.00     0.141 C 
BRANCH  23  24
ATOM     24  C22 <0> d   1      20.092  -5.410   7.578  0.00  0.00     0.260 C 
ATOM     25  O23 <0> d   1      21.254  -5.736   7.624  0.00  0.00    -0.265 OA
BRANCH  24  26
ATOM     26  O24 <0> d   1      19.552  -5.012   6.416  0.00  0.00    -0.326 OA
ATOM     27  C25 <0> d   1      18.113  -4.817   6.390  0.00  0.00     0.213 C 
ENDBRANCH  24  26
ENDBRANCH  23  24
ENDBRANCH  22  23
ENDBRANCH   4  22
TORSDOF 9
ENDMDL
MODEL 5
REMARK VINA RESULT:      -6.3      3.794      7.294
REMARK  9 active torsions:
REMARK  status: ('A' for Active; 'I' for Inactive)
REMARK    1  A    between atoms: C2_2  and  C3_3 
REMARK       I    between atoms: C3_3  and  N5_5 
REMARK    2  A    between atoms: N5_5  and  C6_6 
REMARK    3  A    between atoms: N5_5  and  C12_12 
REMARK    4  A    between atoms: C12_12  and  C13_13 
REMARK    5  A    between atoms: C13_13  and  O15_15 
REMARK    6  A    between atoms: N19_19  and  C20_20 
REMARK    7  A    between atoms: C20_20  and  C21_21 
REMARK    8  A    between atoms: C21_21  and  C22_22 
REMARK    9  A    between atoms: C22_22  and  O24_24 
ROOT
ATOM      1  C12 <0> d   1      18.122   1.447  11.365  0.00  0.00     0.131 C 
ATOM      2  C17 <0> d   1      17.290   2.447  12.173  0.00  0.00     0.072 C 
ATOM      3  C18 <0> d   1      18.223   3.301  13.034  0.00  0.00     0.275 C 
ATOM      4  N19 <0> d   1      19.173   4.013  12.171  0.00  0.00     0.089 N 
ATOM      5  C26 <0> d   1      20.016   3.073  11.420  0.00  0.00     0.275 C 
ATOM      6  C27 <0> d   1      19.137   2.212  10.511  0.00  0.00     0.072 C 
ENDROOT
BRANCH   1   7
ATOM      7  N5  <0> d   1      18.830   0.549  12.281  0.00  0.00    -0.298 N 
ATOM      8  C3  <0> d   1      19.723  -0.338  11.799  0.00  0.00     0.225 C 
ATOM      9  O4  <0> d   1      20.250  -0.146  10.724  0.00  0.00    -0.273 OA
BRANCH   8  10
ATOM     10  C2  <0> d   1      20.066  -1.571  12.596  0.00  0.00     0.099 C 
ATOM     11  C1  <0> d   1      19.158  -2.725  12.168  0.00  0.00     0.014 C 
ENDBRANCH   8  10
BRANCH   7  12
ATOM     12  C6  <0> d   1      18.580   0.613  13.656  0.00  0.00     0.038 A 
ATOM     13  C11 <0> d   1      19.499   1.219  14.503  0.00  0.00     0.030 A 
ATOM     14  C10 <0> d   1      19.247   1.286  15.859  0.00  0.00     0.002 A 
ATOM     15  C9  <0> d   1      18.086   0.740  16.376  0.00  0.00     0.000 A 
ATOM     16  C8  <0> d   1      17.172   0.131  15.536  0.00  0.00     0.002 A 
ATOM     17  C7  <0> d   1      17.416   0.066  14.178  0.00  0.00     0.030 A 
ENDBRANCH   7  12
ENDBRANCH   1   7
BRANCH   1  18
ATOM     18  C13 <0> d   1      17.215   0.642  10.471  0.00  0.00     0.287 C 
ATOM     19  O14 <0> d   1      16.293   0.023  10.946  0.00  0.00    -0.262 OA
BRANCH  18  20
ATOM     20  O15 <0> d   1      17.432   0.609   9.147  0.00  0.00    -0.325 OA
ATOM     21  C16 <0> d   1      17.567  -0.699   8.532  0.00  0.00     0.213 C 
ENDBRANCH  18  20
ENDBRANCH   1  18
BRANCH   4  22
ATOM     22  C20 <0> d   1      19.994   4.949  12.950  0.00  0.00     0.282 C 
BRANCH  22  23
ATOM     23  C21 <0> d   1      19.456   5.033  14.380  0.00  0.00     0.141 C 
BRANCH  23  24
ATOM     24  C22 <0> d   1      20.039   6.240  15.067  0.00  0.00     0.260 C 
ATOM     25  O23 <0> d   1      20.759   6.994  14.456  0.00  0.00    -0.265 OA
BRANCH  24  26
ATOM     26  O24 <0> d   1      19.759   6.478  16.357  0.00  0.00    -0.326 OA
ATOM     27  C25 <0> d   1      18.396   6.231  16.793  0.00  0.00     0.213 C 
ENDBRANCH  24  26
ENDBRANCH  23  24
ENDBRANCH  22  23
ENDBRANCH   4  22
TORSDOF 9
ENDMDL
MODEL 6
REMARK VINA RESULT:      -5.8      2.277      4.493
REMARK  9 active torsions:
REMARK  status: ('A' for Active; 'I' for Inactive)
REMARK    1  A    between atoms: C2_2  and  C3_3 
REMARK       I    between atoms: C3_3  and  N5_5 
REMARK    2  A    between atoms: N5_5  and  C6_6 
REMARK    3  A    between atoms: N5_5  and  C12_12 
REMARK    4  A    between atoms: C12_12  and  C13_13 
REMARK    5  A    between atoms: C13_13  and  O15_15 
REMARK    6  A    between atoms: N19_19  and  C20_20 
REMARK    7  A    between atoms: C20_20  and  C21_21 
REMARK    8  A    between atoms: C21_21  and  C22_22 
REMARK    9  A    between atoms: C22_22  and  O24_24 
ROOT
ATOM      1  C12 <0> d   1      18.853   0.364   9.589  0.00  0.00     0.131 C 
ATOM      2  C17 <0> d   1      20.069  -0.376   9.024  0.00  0.00     0.072 C 
ATOM      3  C18 <0> d   1      19.607  -1.682   8.372  0.00  0.00     0.275 C 
ATOM      4  N19 <0> d   1      18.651  -1.383   7.298  0.00  0.00     0.089 N 
ATOM      5  C26 <0> d   1      17.453  -0.714   7.825  0.00  0.00     0.275 C 
ATOM      6  C27 <0> d   1      17.851   0.620   8.460  0.00  0.00     0.072 C 
ENDROOT
BRANCH   1   7
ATOM      7  N5  <0> d   1      18.222  -0.455  10.628  0.00  0.00    -0.298 N 
ATOM      8  C3  <0> d   1      17.201   0.044  11.352  0.00  0.00     0.225 C 
ATOM      9  O4  <0> d   1      16.535   0.957  10.912  0.00  0.00    -0.273 OA
BRANCH   8  10
ATOM     10  C2  <0> d   1      16.885  -0.533  12.708  0.00  0.00     0.099 C 
ATOM     11  C1  <0> d   1      17.630   0.259  13.785  0.00  0.00     0.014 C 
ENDBRANCH   8  10
BRANCH   7  12
ATOM     12  C6  <0> d   1      18.679  -1.755  10.867  0.00  0.00     0.038 A 
ATOM     13  C11 <0> d   1      19.915  -1.958  11.467  0.00  0.00     0.030 A 
ATOM     14  C10 <0> d   1      20.363  -3.243  11.707  0.00  0.00     0.002 A 
ATOM     15  C9  <0> d   1      19.586  -4.327  11.340  0.00  0.00     0.000 A 
ATOM     16  C8  <0> d   1      18.357  -4.127  10.737  0.00  0.00     0.002 A 
ATOM     17  C7  <0> d   1      17.902  -2.846  10.500  0.00  0.00     0.030 A 
ENDBRANCH   7  12
ENDBRANCH   1   7
BRANCH   1  18
ATOM     18  C13 <0> d   1      19.293   1.678  10.182  0.00  0.00     0.287 C 
ATOM     19  O14 <0> d   1      19.084   2.708   9.587  0.00  0.00    -0.262 OA
BRANCH  18  20
ATOM     20  O15 <0> d   1      19.917   1.704  11.369  0.00  0.00    -0.325 OA
ATOM     21  C16 <0> d   1      19.697   2.871  12.204  0.00  0.00     0.213 C 
ENDBRANCH  18  20
ENDBRANCH   1  18
BRANCH   4  22
ATOM     22  C20 <0> d   1      18.292  -2.599   6.558  0.00  0.00     0.282 C 
BRANCH  22  23
ATOM     23  C21 <0> d   1      19.113  -3.779   7.084  0.00  0.00     0.141 C 
BRANCH  23  24
ATOM     24  C22 <0> d   1      18.757  -5.023   6.313  0.00  0.00     0.260 C 
ATOM     25  O23 <0> d   1      18.217  -4.932   5.236  0.00  0.00    -0.265 OA
BRANCH  24  26
ATOM     26  O24 <0> d   1      19.040  -6.232   6.822  0.00  0.00    -0.326 OA
ATOM     27  C25 <0> d   1      18.226  -6.684   7.936  0.00  0.00     0.213 C 
ENDBRANCH  24  26
ENDBRANCH  23  24
ENDBRANCH  22  23
ENDBRANCH   4  22
TORSDOF 9
ENDMDL
MODEL 7
REMARK VINA RESULT:      -5.7      2.492      3.886
REMARK  9 active torsions:
REMARK  status: ('A' for Active; 'I' for Inactive)
REMARK    1  A    between atoms: C2_2  and  C3_3 
REMARK       I    between atoms: C3_3  and  N5_5 
REMARK    2  A    between atoms: N5_5  and  C6_6 
REMARK    3  A    between atoms: N5_5  and  C12_12 
REMARK    4  A    between atoms: C12_12  and  C13_13 
REMARK    5  A    between atoms: C13_13  and  O15_15 
REMARK    6  A    between atoms: N19_19  and  C20_20 
REMARK    7  A    between atoms: C20_20  and  C21_21 
REMARK    8  A    between atoms: C21_21  and  C22_22 
REMARK    9  A    between atoms: C22_22  and  O24_24 
ROOT
ATOM      1  C12 <0> d   1      18.278  -3.333  10.299  0.00  0.00     0.131 C 
ATOM      2  C17 <0> d   1      17.214  -3.682   9.255  0.00  0.00     0.072 C 
ATOM      3  C18 <0> d   1      17.901  -4.069   7.943  0.00  0.00     0.275 C 
ATOM      4  N19 <0> d   1      18.784  -5.220   8.172  0.00  0.00     0.089 N 
ATOM      5  C26 <0> d   1      19.843  -4.893   9.136  0.00  0.00     0.275 C 
ATOM      6  C27 <0> d   1      19.213  -4.530  10.483  0.00  0.00     0.072 C 
ENDROOT
BRANCH   1   7
ATOM      7  N5  <0> d   1      19.050  -2.174   9.841  0.00  0.00    -0.298 N 
ATOM      8  C3  <0> d   1      20.107  -1.743  10.556  0.00  0.00     0.225 C 
ATOM      9  O4  <0> d   1      20.676  -2.500  11.314  0.00  0.00    -0.273 OA
BRANCH   8  10
ATOM     10  C2  <0> d   1      20.582  -0.319  10.416  0.00  0.00     0.099 C 
ATOM     11  C1  <0> d   1      20.609   0.348  11.792  0.00  0.00     0.014 C 
ENDBRANCH   8  10
BRANCH   7  12
ATOM     12  C6  <0> d   1      18.689  -1.517   8.660  0.00  0.00     0.038 A 
ATOM     13  C11 <0> d   1      19.461  -1.669   7.515  0.00  0.00     0.030 A 
ATOM     14  C10 <0> d   1      19.099  -1.023   6.349  0.00  0.00     0.002 A 
ATOM     15  C9  <0> d   1      17.977  -0.216   6.324  0.00  0.00     0.000 A 
ATOM     16  C8  <0> d   1      17.210  -0.057   7.464  0.00  0.00     0.002 A 
ATOM     17  C7  <0> d   1      17.563  -0.705   8.631  0.00  0.00     0.030 A 
ENDBRANCH   7  12
ENDBRANCH   1   7
BRANCH   1  18
ATOM     18  C13 <0> d   1      17.611  -3.007  11.610  0.00  0.00     0.287 C 
ATOM     19  O14 <0> d   1      17.728  -3.757  12.550  0.00  0.00    -0.262 OA
BRANCH  18  20
ATOM     20  O15 <0> d   1      16.886  -1.884  11.734  0.00  0.00    -0.325 OA
ATOM     21  C16 <0> d   1      17.354  -0.900  12.693  0.00  0.00     0.213 C 
ENDBRANCH  18  20
ENDBRANCH   1  18
BRANCH   4  22
ATOM     22  C20 <0> d   1      19.354  -5.707   6.909  0.00  0.00     0.282 C 
BRANCH  22  23
ATOM     23  C21 <0> d   1      18.530  -5.171   5.736  0.00  0.00     0.141 C 
BRANCH  23  24
ATOM     24  C22 <0> d   1      17.620  -6.257   5.224  0.00  0.00     0.260 C 
ATOM     25  O23 <0> d   1      18.080  -7.323   4.888  0.00  0.00    -0.265 OA
BRANCH  24  26
ATOM     26  O24 <0> d   1      16.298  -6.041   5.142  0.00  0.00    -0.326 OA
ATOM     27  C25 <0> d   1      15.496  -6.409   6.295  0.00  0.00     0.213 C 
ENDBRANCH  24  26
ENDBRANCH  23  24
ENDBRANCH  22  23
ENDBRANCH   4  22
TORSDOF 9
ENDMDL
MODEL 8
REMARK VINA RESULT:      -5.4      2.844      6.509
REMARK  9 active torsions:
REMARK  status: ('A' for Active; 'I' for Inactive)
REMARK    1  A    between atoms: C2_2  and  C3_3 
REMARK       I    between atoms: C3_3  and  N5_5 
REMARK    2  A    between atoms: N5_5  and  C6_6 
REMARK    3  A    between atoms: N5_5  and  C12_12 
REMARK    4  A    between atoms: C12_12  and  C13_13 
REMARK    5  A    between atoms: C13_13  and  O15_15 
REMARK    6  A    between atoms: N19_19  and  C20_20 
REMARK    7  A    between atoms: C20_20  and  C21_21 
REMARK    8  A    between atoms: C21_21  and  C22_22 
REMARK    9  A    between atoms: C22_22  and  O24_24 
ROOT
ATOM      1  C12 <0> d   1      18.535  -0.041   9.395  0.00  0.00     0.131 C 
ATOM      2  C17 <0> d   1      17.791   1.293   9.501  0.00  0.00     0.072 C 
ATOM      3  C18 <0> d   1      18.151   1.969  10.826  0.00  0.00     0.275 C 
ATOM      4  N19 <0> d   1      19.602   2.190  10.885  0.00  0.00     0.089 N 
ATOM      5  C26 <0> d   1      20.336   0.919  10.833  0.00  0.00     0.275 C 
ATOM      6  C27 <0> d   1      20.040   0.212   9.509  0.00  0.00     0.072 C 
ENDROOT
BRANCH   1   7
ATOM      7  N5  <0> d   1      18.104  -0.928  10.479  0.00  0.00    -0.298 N 
ATOM      8  C3  <0> d   1      17.137  -0.532  11.330  0.00  0.00     0.225 C 
ATOM      9  O4  <0> d   1      16.349   0.325  10.995  0.00  0.00    -0.273 OA
BRANCH   8  10
ATOM     10  C2  <0> d   1      17.036  -1.156  12.698  0.00  0.00     0.099 C 
ATOM     11  C1  <0> d   1      17.730  -0.255  13.722  0.00  0.00     0.014 C 
ENDBRANCH   8  10
BRANCH   7  12
ATOM     12  C6  <0> d   1      18.697  -2.187  10.629  0.00  0.00     0.038 A 
ATOM     13  C11 <0> d   1      18.164  -3.289   9.976  0.00  0.00     0.030 A 
ATOM     14  C10 <0> d   1      18.754  -4.530  10.121  0.00  0.00     0.002 A 
ATOM     15  C9  <0> d   1      19.868  -4.676  10.927  0.00  0.00     0.000 A 
ATOM     16  C8  <0> d   1      20.397  -3.581  11.585  0.00  0.00     0.002 A 
ATOM     17  C7  <0> d   1      19.815  -2.338  11.439  0.00  0.00     0.030 A 
ENDBRANCH   7  12
ENDBRANCH   1   7
BRANCH   1  18
ATOM     18  C13 <0> d   1      18.230  -0.685   8.067  0.00  0.00     0.287 C 
ATOM     19  O14 <0> d   1      17.098  -0.693   7.646  0.00  0.00    -0.262 OA
BRANCH  18  20
ATOM     20  O15 <0> d   1      19.215  -1.250   7.353  0.00  0.00    -0.325 OA
ATOM     21  C16 <0> d   1      19.108  -1.176   5.907  0.00  0.00     0.213 C 
ENDBRANCH  18  20
ENDBRANCH   1  18
BRANCH   4  22
ATOM     22  C20 <0> d   1      19.969   2.961  12.081  0.00  0.00     0.282 C 
BRANCH  22  23
ATOM     23  C21 <0> d   1      19.324   4.347  12.013  0.00  0.00     0.141 C 
BRANCH  23  24
ATOM     24  C22 <0> d   1      18.716   4.684  13.350  0.00  0.00     0.260 C 
ATOM     25  O23 <0> d   1      19.324   4.450  14.367  0.00  0.00    -0.265 OA
BRANCH  24  26
ATOM     26  O24 <0> d   1      17.498   5.244  13.410  0.00  0.00    -0.326 OA
ATOM     27  C25 <0> d   1      16.687   5.191  12.206  0.00  0.00     0.213 C 
ENDBRANCH  24  26
ENDBRANCH  23  24
ENDBRANCH  22  23
ENDBRANCH   4  22
TORSDOF 9
ENDMDL
MODEL 9
REMARK VINA RESULT:      -5.3      4.142      8.109
REMARK  9 active torsions:
REMARK  status: ('A' for Active; 'I' for Inactive)
REMARK    1  A    between atoms: C2_2  and  C3_3 
REMARK       I    between atoms: C3_3  and  N5_5 
REMARK    2  A    between atoms: N5_5  and  C6_6 
REMARK    3  A    between atoms: N5_5  and  C12_12 
REMARK    4  A    between atoms: C12_12  and  C13_13 
REMARK    5  A    between atoms: C13_13  and  O15_15 
REMARK    6  A    between atoms: N19_19  and  C20_20 
REMARK    7  A    between atoms: C20_20  and  C21_21 
REMARK    8  A    between atoms: C21_21  and  C22_22 
REMARK    9  A    between atoms: C22_22  and  O24_24 
ROOT
ATOM      1  C12 <0> d   1      17.269  -6.830   6.803  0.00  0.00     0.131 C 
ATOM      2  C17 <0> d   1      18.561  -6.455   6.072  0.00  0.00     0.072 C 
ATOM      3  C18 <0> d   1      18.636  -4.933   5.927  0.00  0.00     0.275 C 
ATOM      4  N19 <0> d   1      18.606  -4.311   7.257  0.00  0.00     0.089 N 
ATOM      5  C26 <0> d   1      17.353  -4.618   7.959  0.00  0.00     0.275 C 
ATOM      6  C27 <0> d   1      17.241  -6.131   8.165  0.00  0.00     0.072 C 
ENDROOT
BRANCH   1   7
ATOM      7  N5  <0> d   1      16.115  -6.401   6.008  0.00  0.00    -0.298 N 
ATOM      8  C3  <0> d   1      14.889  -6.366   6.564  0.00  0.00     0.225 C 
ATOM      9  O4  <0> d   1      14.771  -6.279   7.768  0.00  0.00    -0.273 OA
BRANCH   8  10
ATOM     10  C2  <0> d   1      13.662  -6.435   5.690  0.00  0.00     0.099 C 
ATOM     11  C1  <0> d   1      13.188  -7.886   5.590  0.00  0.00     0.014 C 
ENDBRANCH   8  10
BRANCH   7  12
ATOM     12  C6  <0> d   1      16.288  -6.028   4.671  0.00  0.00     0.038 A 
ATOM     13  C11 <0> d   1      16.602  -6.985   3.716  0.00  0.00     0.030 A 
ATOM     14  C10 <0> d   1      16.767  -6.614   2.395  0.00  0.00     0.002 A 
ATOM     15  C9  <0> d   1      16.632  -5.289   2.026  0.00  0.00     0.000 A 
ATOM     16  C8  <0> d   1      16.326  -4.332   2.977  0.00  0.00     0.002 A 
ATOM     17  C7  <0> d   1      16.154  -4.697   4.297  0.00  0.00     0.030 A 
ENDBRANCH   7  12
ENDBRANCH   1   7
BRANCH   1  18
ATOM     18  C13 <0> d   1      17.216  -8.323   7.002  0.00  0.00     0.287 C 
ATOM     19  O14 <0> d   1      17.842  -9.052   6.268  0.00  0.00    -0.262 OA
BRANCH  18  20
ATOM     20  O15 <0> d   1      16.475  -8.844   7.991  0.00  0.00    -0.325 OA
ATOM     21  C16 <0> d   1      15.623  -9.970   7.655  0.00  0.00     0.213 C 
ENDBRANCH  18  20
ENDBRANCH   1  18
BRANCH   4  22
ATOM     22  C20 <0> d   1      18.815  -2.860   7.164  0.00  0.00     0.282 C 
BRANCH  22  23
ATOM     23  C21 <0> d   1      19.286  -2.500   5.754  0.00  0.00     0.141 C 
BRANCH  23  24
ATOM     24  C22 <0> d   1      19.292  -1.002   5.593  0.00  0.00     0.260 C 
ATOM     25  O23 <0> d   1      19.910  -0.494   4.688  0.00  0.00    -0.265 OA
BRANCH  24  26
ATOM     26  O24 <0> d   1      18.610  -0.232   6.455  0.00  0.00    -0.326 OA
ATOM     27  C25 <0> d   1      18.980   1.171   6.521  0.00  0.00     0.213 C 
ENDBRANCH  24  26
ENDBRANCH  23  24
ENDBRANCH  22  23
ENDBRANCH   4  22
TORSDOF 9
ENDMDL
