MODEL 1
REMARK VINA RESULT:      -3.8      0.000      0.000
REMARK  5 active torsions:
REMARK  status: ('A' for Active; 'I' for Inactive)
REMARK    1  A    between atoms: C2_2  and  C4_4 
REMARK    2  A    between atoms: C4_4  and  S6_5 
REMARK    3  A    between atoms: C4_4  and  C7_6 
REMARK    4  A    between atoms: C7_6  and  S9_7 
REMARK    5  A    between atoms: C7_6  and  C10_8 
ROOT
ATOM      1  C4  <0> d   1      18.416  -1.258   6.301  0.00  0.00     0.169 C 
ENDROOT
BRANCH   1   2
ATOM      2  C2  <0> d   1      19.275  -0.421   5.388  0.00  0.00     0.188 C 
ATOM      3  O1  <0> d   1      19.344   0.785   5.551  0.00  0.00    -0.647 OA
ATOM      4  O3  <0> d   1      19.906  -0.951   4.489  0.00  0.00    -0.647 OA
ENDBRANCH   1   2
BRANCH   1   5
ATOM      5  S6  <0> d   1      17.390  -0.170   7.329  0.00  0.00    -0.165 SA
ATOM      6  H13 <0> d   1      18.248   0.249   8.275  0.00  0.00     0.102 HD
ENDBRANCH   1   5
BRANCH   1   7
ATOM      7  C7  <0> d   1      19.310  -2.114   7.199  0.00  0.00     0.169 C 
BRANCH   7   8
ATOM      8  S9  <0> d   1      18.554  -2.263   8.841  0.00  0.00    -0.165 SA
ATOM      9  H14 <0> d   1      18.329  -0.984   9.187  0.00  0.00     0.102 HD
ENDBRANCH   7   8
BRANCH   7  10
ATOM     10  C10 <0> d   1      19.466  -3.485   6.591  0.00  0.00     0.188 C 
ATOM     11  O11 <0> d   1      20.562  -4.019   6.566  0.00  0.00    -0.647 OA
ATOM     12  O12 <0> d   1      18.497  -4.059   6.125  0.00  0.00    -0.647 OA
ENDBRANCH   7  10
ENDBRANCH   1   7
TORSDOF 5
ENDMDL
MODEL 2
REMARK VINA RESULT:      -3.7     10.206     11.194
REMARK  5 active torsions:
REMARK  status: ('A' for Active; 'I' for Inactive)
REMARK    1  A    between atoms: C2_2  and  C4_4 
REMARK    2  A    between atoms: C4_4  and  S6_5 
REMARK    3  A    between atoms: C4_4  and  C7_6 
REMARK    4  A    between atoms: C7_6  and  S9_7 
REMARK    5  A    between atoms: C7_6  and  C10_8 
ROOT
ATOM      1  C4  <0> d   1      18.371   1.225  16.914  0.00  0.00     0.169 C 
ENDROOT
BRANCH   1   2
ATOM      2  C2  <0> d   1      19.300   1.080  18.092  0.00  0.00     0.188 C 
ATOM      3  O1  <0> d   1      19.675  -0.027  18.440  0.00  0.00    -0.647 OA
ATOM      4  O3  <0> d   1      19.682   2.070  18.692  0.00  0.00    -0.647 OA
ENDBRANCH   1   2
BRANCH   1   5
ATOM      5  S6  <0> d   1      17.657  -0.392  16.505  0.00  0.00    -0.165 SA
ATOM      6  H13 <0> d   1      18.489  -1.253  17.117  0.00  0.00     0.102 HD
ENDBRANCH   1   5
BRANCH   1   7
ATOM      7  C7  <0> d   1      19.152   1.757  15.711  0.00  0.00     0.169 C 
BRANCH   7   8
ATOM      8  S9  <0> d   1      19.259   0.467  14.441  0.00  0.00    -0.165 SA
ATOM      9  H14 <0> d   1      18.588   1.005  13.406  0.00  0.00     0.102 HD
ENDBRANCH   7   8
BRANCH   7  10
ATOM     10  C10 <0> d   1      18.443   2.962  15.145  0.00  0.00     0.188 C 
ATOM     11  O11 <0> d   1      18.307   3.964  15.826  0.00  0.00    -0.647 OA
ATOM     12  O12 <0> d   1      18.005   2.933  14.008  0.00  0.00    -0.647 OA
ENDBRANCH   7  10
ENDBRANCH   1   7
TORSDOF 5
ENDMDL
MODEL 3
REMARK VINA RESULT:      -3.7      5.958      7.213
REMARK  5 active torsions:
REMARK  status: ('A' for Active; 'I' for Inactive)
REMARK    1  A    between atoms: C2_2  and  C4_4 
REMARK    2  A    between atoms: C4_4  and  S6_5 
REMARK    3  A    between atoms: C4_4  and  C7_6 
REMARK    4  A    between atoms: C7_6  and  S9_7 
REMARK    5  A    between atoms: C7_6  and  C10_8 
ROOT
ATOM      1  C4  <0> d   1      18.077   0.591  11.481  0.00  0.00     0.169 C 
ENDROOT
BRANCH   1   2
ATOM      2  C2  <0> d   1      16.908  -0.351  11.614  0.00  0.00     0.188 C 
ATOM      3  O1  <0> d   1      17.101  -1.543  11.784  0.00  0.00    -0.647 OA
ATOM      4  O3  <0> d   1      15.768   0.080  11.557  0.00  0.00    -0.647 OA
ENDBRANCH   1   2
BRANCH   1   5
ATOM      5  S6  <0> d   1      19.467  -0.029  12.468  0.00  0.00    -0.165 SA
ATOM      6  H13 <0> d   1      19.711   0.985  13.317  0.00  0.00     0.102 HD
ENDBRANCH   1   5
BRANCH   1   7
ATOM      7  C7  <0> d   1      17.673   1.978  11.983  0.00  0.00     0.169 C 
BRANCH   7   8
ATOM      8  S9  <0> d   1      18.853   2.532  13.245  0.00  0.00    -0.165 SA
ATOM      9  H14 <0> d   1      18.226   3.581  13.805  0.00  0.00     0.102 HD
ENDBRANCH   7   8
BRANCH   7  10
ATOM     10  C10 <0> d   1      17.678   2.950  10.831  0.00  0.00     0.188 C 
ATOM     11  O11 <0> d   1      18.453   2.792   9.903  0.00  0.00    -0.647 OA
ATOM     12  O12 <0> d   1      16.908   3.896  10.828  0.00  0.00    -0.647 OA
ENDBRANCH   7  10
ENDBRANCH   1   7
TORSDOF 5
ENDMDL
MODEL 4
REMARK VINA RESULT:      -3.7      5.967      6.497
REMARK  5 active torsions:
REMARK  status: ('A' for Active; 'I' for Inactive)
REMARK    1  A    between atoms: C2_2  and  C4_4 
REMARK    2  A    between atoms: C4_4  and  S6_5 
REMARK    3  A    between atoms: C4_4  and  C7_6 
REMARK    4  A    between atoms: C7_6  and  S9_7 
REMARK    5  A    between atoms: C7_6  and  C10_8 
ROOT
ATOM      1  C4  <0> d   1      17.677   2.002  11.985  0.00  0.00     0.169 C 
ENDROOT
BRANCH   1   2
ATOM      2  C2  <0> d   1      17.671   3.007  10.862  0.00  0.00     0.188 C 
ATOM      3  O1  <0> d   1      18.477   2.912   9.953  0.00  0.00    -0.647 OA
ATOM      4  O3  <0> d   1      16.854   3.913  10.860  0.00  0.00    -0.647 OA
ENDBRANCH   1   2
BRANCH   1   5
ATOM      5  S6  <0> d   1      18.877   2.513  13.246  0.00  0.00    -0.165 SA
ATOM      6  H13 <0> d   1      19.692   1.447  13.338  0.00  0.00     0.102 HD
ENDBRANCH   1   5
BRANCH   1   7
ATOM      7  C7  <0> d   1      18.068   0.628  11.437  0.00  0.00     0.169 C 
BRANCH   7   8
ATOM      8  S9  <0> d   1      19.491  -0.011  12.363  0.00  0.00    -0.165 SA
ATOM      9  H14 <0> d   1      20.319   1.047  12.412  0.00  0.00     0.102 HD
ENDBRANCH   7   8
BRANCH   7  10
ATOM     10  C10 <0> d   1      16.906  -0.321  11.585  0.00  0.00     0.188 C 
ATOM     11  O11 <0> d   1      15.763   0.100  11.520  0.00  0.00    -0.647 OA
ATOM     12  O12 <0> d   1      17.108  -1.509  11.770  0.00  0.00    -0.647 OA
ENDBRANCH   7  10
ENDBRANCH   1   7
TORSDOF 5
ENDMDL
MODEL 5
REMARK VINA RESULT:      -3.7      4.892      5.240
REMARK  5 active torsions:
REMARK  status: ('A' for Active; 'I' for Inactive)
REMARK    1  A    between atoms: C2_2  and  C4_4 
REMARK    2  A    between atoms: C4_4  and  S6_5 
REMARK    3  A    between atoms: C4_4  and  C7_6 
REMARK    4  A    between atoms: C7_6  and  S9_7 
REMARK    5  A    between atoms: C7_6  and  C10_8 
ROOT
ATOM      1  C4  <0> d   1      18.136   1.136   9.972  0.00  0.00     0.169 C 
ENDROOT
BRANCH   1   2
ATOM      2  C2  <0> d   1      19.310   0.879   9.063  0.00  0.00     0.188 C 
ATOM      3  O1  <0> d   1      19.586   1.676   8.182  0.00  0.00    -0.647 OA
ATOM      4  O3  <0> d   1      19.989  -0.123   9.213  0.00  0.00    -0.647 OA
ENDBRANCH   1   2
BRANCH   1   5
ATOM      5  S6  <0> d   1      18.070   2.901  10.389  0.00  0.00    -0.165 SA
ATOM      6  H13 <0> d   1      18.616   2.942  11.618  0.00  0.00     0.102 HD
ENDBRANCH   1   5
BRANCH   1   7
ATOM      7  C7  <0> d   1      18.293   0.315  11.253  0.00  0.00     0.169 C 
BRANCH   7   8
ATOM      8  S9  <0> d   1      18.669   1.422  12.640  0.00  0.00    -0.165 SA
ATOM      9  H14 <0> d   1      19.051   2.556  12.027  0.00  0.00     0.102 HD
ENDBRANCH   7   8
BRANCH   7  10
ATOM     10  C10 <0> d   1      17.011  -0.426  11.535  0.00  0.00     0.188 C 
ATOM     11  O11 <0> d   1      17.039  -1.616  11.797  0.00  0.00    -0.647 OA
ATOM     12  O12 <0> d   1      15.945   0.165  11.499  0.00  0.00    -0.647 OA
ENDBRANCH   7  10
ENDBRANCH   1   7
TORSDOF 5
ENDMDL
MODEL 6
REMARK VINA RESULT:      -3.7      4.881      5.919
REMARK  5 active torsions:
REMARK  status: ('A' for Active; 'I' for Inactive)
REMARK    1  A    between atoms: C2_2  and  C4_4 
REMARK    2  A    between atoms: C4_4  and  S6_5 
REMARK    3  A    between atoms: C4_4  and  C7_6 
REMARK    4  A    between atoms: C7_6  and  S9_7 
REMARK    5  A    between atoms: C7_6  and  C10_8 
ROOT
ATOM      1  C4  <0> d   1      18.263   0.292  11.216  0.00  0.00     0.169 C 
ENDROOT
BRANCH   1   2
ATOM      2  C2  <0> d   1      16.989  -0.450  11.529  0.00  0.00     0.188 C 
ATOM      3  O1  <0> d   1      15.923   0.141  11.527  0.00  0.00    -0.647 OA
ATOM      4  O3  <0> d   1      17.024  -1.643  11.780  0.00  0.00    -0.647 OA
ENDBRANCH   1   2
BRANCH   1   5
ATOM      5  S6  <0> d   1      18.701   1.358  12.617  0.00  0.00    -0.165 SA
ATOM      6  H13 <0> d   1      17.507   1.806  13.042  0.00  0.00     0.102 HD
ENDBRANCH   1   5
BRANCH   1   7
ATOM      7  C7  <0> d   1      18.058   1.151   9.967  0.00  0.00     0.169 C 
BRANCH   7   8
ATOM      8  S9  <0> d   1      17.963   2.899  10.443  0.00  0.00    -0.165 SA
ATOM      9  H14 <0> d   1      18.460   3.533   9.366  0.00  0.00     0.102 HD
ENDBRANCH   7   8
BRANCH   7  10
ATOM     10  C10 <0> d   1      19.217   0.950   9.023  0.00  0.00     0.188 C 
ATOM     11  O11 <0> d   1      19.560   1.852   8.279  0.00  0.00    -0.647 OA
ATOM     12  O12 <0> d   1      19.808  -0.116   9.003  0.00  0.00    -0.647 OA
ENDBRANCH   7  10
ENDBRANCH   1   7
TORSDOF 5
ENDMDL
MODEL 7
REMARK VINA RESULT:      -3.7      2.065      2.665
REMARK  5 active torsions:
REMARK  status: ('A' for Active; 'I' for Inactive)
REMARK    1  A    between atoms: C2_2  and  C4_4 
REMARK    2  A    between atoms: C4_4  and  S6_5 
REMARK    3  A    between atoms: C4_4  and  C7_6 
REMARK    4  A    between atoms: C7_6  and  S9_7 
REMARK    5  A    between atoms: C7_6  and  C10_8 
ROOT
ATOM      1  C4  <0> d   1      18.490  -1.350   6.568  0.00  0.00     0.169 C 
ENDROOT
BRANCH   1   2
ATOM      2  C2  <0> d   1      19.398  -1.893   5.494  0.00  0.00     0.188 C 
ATOM      3  O1  <0> d   1      19.725  -3.068   5.508  0.00  0.00    -0.647 OA
ATOM      4  O3  <0> d   1      19.802  -1.159   4.608  0.00  0.00    -0.647 OA
ENDBRANCH   1   2
BRANCH   1   5
ATOM      5  S6  <0> d   1      17.792   0.234   6.024  0.00  0.00    -0.165 SA
ATOM      6  H13 <0> d   1      17.310   0.759   7.164  0.00  0.00     0.102 HD
ENDBRANCH   1   5
BRANCH   1   7
ATOM      7  C7  <0> d   1      19.291  -1.140   7.854  0.00  0.00     0.169 C 
BRANCH   7   8
ATOM      8  S9  <0> d   1      19.134   0.587   8.389  0.00  0.00    -0.165 SA
ATOM      9  H14 <0> d   1      18.680   0.473   9.649  0.00  0.00     0.102 HD
ENDBRANCH   7   8
BRANCH   7  10
ATOM     10  C10 <0> d   1      18.759  -2.050   8.931  0.00  0.00     0.188 C 
ATOM     11  O11 <0> d   1      17.815  -2.785   8.697  0.00  0.00    -0.647 OA
ATOM     12  O12 <0> d   1      19.272  -2.049  10.038  0.00  0.00    -0.647 OA
ENDBRANCH   7  10
ENDBRANCH   1   7
TORSDOF 5
ENDMDL
MODEL 8
REMARK VINA RESULT:      -3.7      9.865     10.447
REMARK  5 active torsions:
REMARK  status: ('A' for Active; 'I' for Inactive)
REMARK    1  A    between atoms: C2_2  and  C4_4 
REMARK    2  A    between atoms: C4_4  and  S6_5 
REMARK    3  A    between atoms: C4_4  and  C7_6 
REMARK    4  A    between atoms: C7_6  and  S9_7 
REMARK    5  A    between atoms: C7_6  and  C10_8 
ROOT
ATOM      1  C4  <0> d   1      19.151   0.949  15.514  0.00  0.00     0.169 C 
ENDROOT
BRANCH   1   2
ATOM      2  C2  <0> d   1      18.779   2.148  14.680  0.00  0.00     0.188 C 
ATOM      3  O1  <0> d   1      18.710   3.251  15.195  0.00  0.00    -0.647 OA
ATOM      4  O3  <0> d   1      18.553   2.017  13.489  0.00  0.00    -0.647 OA
ENDBRANCH   1   2
BRANCH   1   5
ATOM      5  S6  <0> d   1      18.764  -0.567  14.596  0.00  0.00    -0.165 SA
ATOM      6  H13 <0> d   1      17.877  -0.147  13.676  0.00  0.00     0.102 HD
ENDBRANCH   1   5
BRANCH   1   7
ATOM      7  C7  <0> d   1      18.357   0.971  16.821  0.00  0.00     0.169 C 
BRANCH   7   8
ATOM      8  S9  <0> d   1      17.104  -0.341  16.790  0.00  0.00    -0.165 SA
ATOM      9  H14 <0> d   1      17.543  -1.156  15.815  0.00  0.00     0.102 HD
ENDBRANCH   7   8
BRANCH   7  10
ATOM     10  C10 <0> d   1      19.293   0.743  17.981  0.00  0.00     0.188 C 
ATOM     11  O11 <0> d   1      19.534  -0.392  18.356  0.00  0.00    -0.647 OA
ATOM     12  O12 <0> d   1      19.807   1.694  18.545  0.00  0.00    -0.647 OA
ENDBRANCH   7  10
ENDBRANCH   1   7
TORSDOF 5
ENDMDL
MODEL 9
REMARK VINA RESULT:      -3.6      6.616      7.640
REMARK  5 active torsions:
REMARK  status: ('A' for Active; 'I' for Inactive)
REMARK    1  A    between atoms: C2_2  and  C4_4 
REMARK    2  A    between atoms: C4_4  and  S6_5 
REMARK    3  A    between atoms: C4_4  and  C7_6 
REMARK    4  A    between atoms: C7_6  and  S9_7 
REMARK    5  A    between atoms: C7_6  and  C10_8 
ROOT
ATOM      1  C4  <0> d   1      18.151  -1.147  13.009  0.00  0.00     0.169 C 
ENDROOT
BRANCH   1   2
ATOM      2  C2  <0> d   1      18.512  -1.012  14.466  0.00  0.00     0.188 C 
ATOM      3  O1  <0> d   1      17.729  -0.494  15.243  0.00  0.00    -0.647 OA
ATOM      4  O3  <0> d   1      19.586  -1.427  14.869  0.00  0.00    -0.647 OA
ENDBRANCH   1   2
BRANCH   1   5
ATOM      5  S6  <0> d   1      19.154  -2.459  12.257  0.00  0.00    -0.165 SA
ATOM      6  H13 <0> d   1      18.634  -3.580  12.790  0.00  0.00     0.102 HD
ENDBRANCH   1   5
BRANCH   1   7
ATOM      7  C7  <0> d   1      18.423   0.176  12.292  0.00  0.00     0.169 C 
BRANCH   7   8
ATOM      8  S9  <0> d   1      19.626  -0.093  10.961  0.00  0.00    -0.165 SA
ATOM      9  H14 <0> d   1      20.266  -1.209  11.352  0.00  0.00     0.102 HD
ENDBRANCH   7   8
BRANCH   7  10
ATOM     10  C10 <0> d   1      17.138   0.705  11.708  0.00  0.00     0.188 C 
ATOM     11  O11 <0> d   1      16.160  -0.019  11.633  0.00  0.00    -0.647 OA
ATOM     12  O12 <0> d   1      17.078   1.855  11.308  0.00  0.00    -0.647 OA
ENDBRANCH   7  10
ENDBRANCH   1   7
TORSDOF 5
ENDMDL
