MODEL 1
REMARK VINA RESULT:      -6.6      0.000      0.000
REMARK  7 active torsions:
REMARK  status: ('A' for Active; 'I' for Inactive)
REMARK    1  A    between atoms: C2_2  and  N4_4 
REMARK    2  A    between atoms: N4_4  and  C7_7 
REMARK    3  A    between atoms: C7_7  and  C8_8 
REMARK    4  A    between atoms: C8_8  and  O10_9 
REMARK    5  A    between atoms: C8_8  and  C11_10 
REMARK    6  A    between atoms: C14_13  and  N15_14 
REMARK    7  A    between atoms: N15_14  and  S16_15 
ROOT
ATOM      1  C11 <0> d   1      18.578   1.601   8.946  0.00  0.00    -0.028 A 
ATOM      2  C12 <0> d   1      17.755   0.518   9.194  0.00  0.00     0.012 A 
ATOM      3  C13 <0> d   1      17.507  -0.405   8.196  0.00  0.00     0.031 A 
ATOM      4  C14 <0> d   1      18.085  -0.244   6.943  0.00  0.00     0.042 A 
ATOM      5  C20 <0> d   1      18.911   0.846   6.698  0.00  0.00     0.031 A 
ATOM      6  C21 <0> d   1      19.151   1.767   7.699  0.00  0.00     0.012 A 
ENDROOT
BRANCH   1   7
ATOM      7  C8  <0> d   1      18.847   2.606  10.037  0.00  0.00     0.176 C 
BRANCH   7   8
ATOM      8  C7  <0> d   1      19.068   1.874  11.362  0.00  0.00     0.269 C 
BRANCH   8   9
ATOM      9  N4  <0> d   1      20.502   1.852  11.677  0.00  0.00    -0.069 N 
ATOM     10  H5  <0> d   1      20.706   2.556  12.368  0.00  0.00     0.277 HD
ATOM     11  H6  <0> d   1      21.033   2.039  10.839  0.00  0.00     0.277 HD
BRANCH   9  12
ATOM     12  C2  <0> d   1      20.869   0.529  12.202  0.00  0.00     0.178 C 
ATOM     13  C1  <0> d   1      19.950   0.173  13.373  0.00  0.00     0.039 C 
ATOM     14  C3  <0> d   1      20.717  -0.519  11.098  0.00  0.00     0.039 C 
ENDBRANCH   9  12
ENDBRANCH   8   9
ENDBRANCH   7   8
BRANCH   7  15
ATOM     15  O10 <0> d   1      17.728   3.486  10.159  0.00  0.00    -0.389 OA
ATOM     16  H31 <0> d   1      16.895   3.038  10.362  0.00  0.00     0.210 HD
ENDBRANCH   7  15
ENDBRANCH   1   7
BRANCH   4  17
ATOM     17  N15 <0> d   1      17.835  -1.174   5.933  0.00  0.00    -0.285 N 
ATOM     18  H34 <0> d   1      16.941  -1.265   5.568  0.00  0.00     0.178 HD
BRANCH  17  19
ATOM     19  S16 <0> d   1      19.065  -2.123   5.356  0.00  0.00     0.227 S 
ATOM     20  C17 <0> d   1      18.224  -3.527   4.574  0.00  0.00     0.186 C 
ATOM     21  O18 <0> d   1      19.702  -1.314   4.378  0.00  0.00    -0.206 OA
ATOM     22  O19 <0> d   1      19.759  -2.544   6.523  0.00  0.00    -0.206 OA
ENDBRANCH  17  19
ENDBRANCH   4  17
TORSDOF 7
ENDMDL
MODEL 2
REMARK VINA RESULT:      -6.4      1.937      2.917
REMARK  7 active torsions:
REMARK  status: ('A' for Active; 'I' for Inactive)
REMARK    1  A    between atoms: C2_2  and  N4_4 
REMARK    2  A    between atoms: N4_4  and  C7_7 
REMARK    3  A    between atoms: C7_7  and  C8_8 
REMARK    4  A    between atoms: C8_8  and  O10_9 
REMARK    5  A    between atoms: C8_8  and  C11_10 
REMARK    6  A    between atoms: C14_13  and  N15_14 
REMARK    7  A    between atoms: N15_14  and  S16_15 
ROOT
ATOM      1  C11 <0> d   1      19.569  -0.777  10.228  0.00  0.00    -0.028 A 
ATOM      2  C12 <0> d   1      19.824  -0.021   9.099  0.00  0.00     0.012 A 
ATOM      3  C13 <0> d   1      19.343  -0.430   7.870  0.00  0.00     0.031 A 
ATOM      4  C14 <0> d   1      18.604  -1.601   7.769  0.00  0.00     0.042 A 
ATOM      5  C20 <0> d   1      18.350  -2.359   8.905  0.00  0.00     0.031 A 
ATOM      6  C21 <0> d   1      18.838  -1.947  10.131  0.00  0.00     0.012 A 
ENDROOT
BRANCH   1   7
ATOM      7  C8  <0> d   1      20.094  -0.329  11.568  0.00  0.00     0.176 C 
BRANCH   7   8
ATOM      8  C7  <0> d   1      19.416   0.982  11.969  0.00  0.00     0.269 C 
BRANCH   8   9
ATOM      9  N4  <0> d   1      20.376   2.087  11.845  0.00  0.00    -0.069 N 
ATOM     10  H5  <0> d   1      21.116   1.821  11.215  0.00  0.00     0.277 HD
ATOM     11  H6  <0> d   1      20.765   2.298  12.752  0.00  0.00     0.277 HD
BRANCH   9  12
ATOM     12  C2  <0> d   1      19.690   3.276  11.320  0.00  0.00     0.178 C 
ATOM     13  C1  <0> d   1      18.326   2.870  10.756  0.00  0.00     0.039 C 
ATOM     14  C3  <0> d   1      19.494   4.291  12.447  0.00  0.00     0.039 C 
ENDBRANCH   9  12
ENDBRANCH   8   9
ENDBRANCH   7   8
BRANCH   7  15
ATOM     15  O10 <0> d   1      21.507  -0.129  11.482  0.00  0.00    -0.389 OA
ATOM     16  H31 <0> d   1      21.773   0.801  11.493  0.00  0.00     0.210 HD
ENDBRANCH   7  15
ENDBRANCH   1   7
BRANCH   4  17
ATOM     17  N15 <0> d   1      18.118  -2.017   6.528  0.00  0.00    -0.285 N 
ATOM     18  H34 <0> d   1      17.180  -1.896   6.309  0.00  0.00     0.178 HD
BRANCH  17  19
ATOM     19  S16 <0> d   1      19.141  -2.717   5.430  0.00  0.00     0.227 S 
ATOM     20  C17 <0> d   1      18.069  -3.787   4.432  0.00  0.00     0.186 C 
ATOM     21  O18 <0> d   1      19.620  -1.628   4.654  0.00  0.00    -0.206 OA
ATOM     22  O19 <0> d   1      20.026  -3.497   6.222  0.00  0.00    -0.206 OA
ENDBRANCH  17  19
ENDBRANCH   4  17
TORSDOF 7
ENDMDL
MODEL 3
REMARK VINA RESULT:      -6.2      0.876      1.600
REMARK  7 active torsions:
REMARK  status: ('A' for Active; 'I' for Inactive)
REMARK    1  A    between atoms: C2_2  and  N4_4 
REMARK    2  A    between atoms: N4_4  and  C7_7 
REMARK    3  A    between atoms: C7_7  and  C8_8 
REMARK    4  A    between atoms: C8_8  and  O10_9 
REMARK    5  A    between atoms: C8_8  and  C11_10 
REMARK    6  A    between atoms: C14_13  and  N15_14 
REMARK    7  A    between atoms: N15_14  and  S16_15 
ROOT
ATOM      1  C11 <0> d   1      18.397   1.610   9.122  0.00  0.00    -0.028 A 
ATOM      2  C12 <0> d   1      18.970   1.833   7.884  0.00  0.00     0.012 A 
ATOM      3  C13 <0> d   1      18.792   0.918   6.864  0.00  0.00     0.031 A 
ATOM      4  C14 <0> d   1      18.036  -0.226   7.083  0.00  0.00     0.042 A 
ATOM      5  C20 <0> d   1      17.461  -0.447   8.329  0.00  0.00     0.031 A 
ATOM      6  C21 <0> d   1      17.647   0.470   9.345  0.00  0.00     0.012 A 
ENDROOT
BRANCH   1   7
ATOM      7  C8  <0> d   1      18.593   2.610  10.232  0.00  0.00     0.176 C 
BRANCH   7   8
ATOM      8  C7  <0> d   1      19.407   1.969  11.358  0.00  0.00     0.269 C 
BRANCH   8   9
ATOM      9  N4  <0> d   1      18.752   2.230  12.646  0.00  0.00    -0.069 N 
ATOM     10  H5  <0> d   1      17.803   2.533  12.486  0.00  0.00     0.277 HD
ATOM     11  H6  <0> d   1      19.256   2.951  13.140  0.00  0.00     0.277 HD
BRANCH   9  12
ATOM     12  C2  <0> d   1      18.744   1.000  13.450  0.00  0.00     0.178 C 
ATOM     13  C1  <0> d   1      17.503   0.174  13.106  0.00  0.00     0.039 C 
ATOM     14  C3  <0> d   1      20.001   0.184  13.146  0.00  0.00     0.039 C 
ENDBRANCH   9  12
ENDBRANCH   8   9
ENDBRANCH   7   8
BRANCH   7  15
ATOM     15  O10 <0> d   1      17.318   3.015  10.738  0.00  0.00    -0.389 OA
ATOM     16  H31 <0> d   1      17.057   2.565  11.553  0.00  0.00     0.210 HD
ENDBRANCH   7  15
ENDBRANCH   1   7
BRANCH   4  17
ATOM     17  N15 <0> d   1      17.855  -1.153   6.055  0.00  0.00    -0.285 N 
ATOM     18  H34 <0> d   1      16.972  -1.292   5.677  0.00  0.00     0.178 HD
BRANCH  17  19
ATOM     19  S16 <0> d   1      19.146  -2.017   5.481  0.00  0.00     0.227 S 
ATOM     20  C17 <0> d   1      18.400  -3.443   4.644  0.00  0.00     0.186 C 
ATOM     21  O18 <0> d   1      19.758  -1.148   4.539  0.00  0.00    -0.206 OA
ATOM     22  O19 <0> d   1      19.838  -2.432   6.651  0.00  0.00    -0.206 OA
ENDBRANCH  17  19
ENDBRANCH   4  17
TORSDOF 7
ENDMDL
MODEL 4
REMARK VINA RESULT:      -6.2      1.947      2.723
REMARK  7 active torsions:
REMARK  status: ('A' for Active; 'I' for Inactive)
REMARK    1  A    between atoms: C2_2  and  N4_4 
REMARK    2  A    between atoms: N4_4  and  C7_7 
REMARK    3  A    between atoms: C7_7  and  C8_8 
REMARK    4  A    between atoms: C8_8  and  O10_9 
REMARK    5  A    between atoms: C8_8  and  C11_10 
REMARK    6  A    between atoms: C14_13  and  N15_14 
REMARK    7  A    between atoms: N15_14  and  S16_15 
ROOT
ATOM      1  C11 <0> d   1      18.501   1.410   9.188  0.00  0.00    -0.028 A 
ATOM      2  C12 <0> d   1      17.653   0.323   9.288  0.00  0.00     0.012 A 
ATOM      3  C13 <0> d   1      17.429  -0.483   8.188  0.00  0.00     0.031 A 
ATOM      4  C14 <0> d   1      18.057  -0.201   6.982  0.00  0.00     0.042 A 
ATOM      5  C20 <0> d   1      18.908   0.893   6.885  0.00  0.00     0.031 A 
ATOM      6  C21 <0> d   1      19.123   1.698   7.987  0.00  0.00     0.012 A 
ENDROOT
BRANCH   1   7
ATOM      7  C8  <0> d   1      18.743   2.288  10.389  0.00  0.00     0.176 C 
BRANCH   7   8
ATOM      8  C7  <0> d   1      18.104   3.659  10.156  0.00  0.00     0.269 C 
BRANCH   8   9
ATOM      9  N4  <0> d   1      17.064   3.891  11.166  0.00  0.00    -0.069 N 
ATOM     10  H5  <0> d   1      16.742   3.006  11.528  0.00  0.00     0.277 HD
ATOM     11  H6  <0> d   1      16.290   4.383  10.745  0.00  0.00     0.277 HD
BRANCH   9  12
ATOM     12  C2  <0> d   1      17.617   4.697  12.263  0.00  0.00     0.178 C 
ATOM     13  C1  <0> d   1      16.625   5.802  12.633  0.00  0.00     0.039 C 
ATOM     14  C3  <0> d   1      17.862   3.804  13.480  0.00  0.00     0.039 C 
ENDBRANCH   9  12
ENDBRANCH   8   9
ENDBRANCH   7   8
BRANCH   7  15
ATOM     15  O10 <0> d   1      20.150   2.445  10.586  0.00  0.00    -0.389 OA
ATOM     16  H31 <0> d   1      20.602   2.892   9.857  0.00  0.00     0.210 HD
ENDBRANCH   7  15
ENDBRANCH   1   7
BRANCH   4  17
ATOM     17  N15 <0> d   1      17.832  -1.013   5.869  0.00  0.00    -0.285 N 
ATOM     18  H34 <0> d   1      16.959  -1.023   5.445  0.00  0.00     0.178 HD
BRANCH  17  19
ATOM     19  S16 <0> d   1      19.053  -1.959   5.272  0.00  0.00     0.227 S 
ATOM     20  C17 <0> d   1      18.200  -3.281   4.369  0.00  0.00     0.186 C 
ATOM     21  O18 <0> d   1      19.749  -1.108   4.372  0.00  0.00    -0.206 OA
ATOM     22  O19 <0> d   1      19.692  -2.478   6.431  0.00  0.00    -0.206 OA
ENDBRANCH  17  19
ENDBRANCH   4  17
TORSDOF 7
ENDMDL
MODEL 5
REMARK VINA RESULT:      -6.1      2.521      6.533
REMARK  7 active torsions:
REMARK  status: ('A' for Active; 'I' for Inactive)
REMARK    1  A    between atoms: C2_2  and  N4_4 
REMARK    2  A    between atoms: N4_4  and  C7_7 
REMARK    3  A    between atoms: C7_7  and  C8_8 
REMARK    4  A    between atoms: C8_8  and  O10_9 
REMARK    5  A    between atoms: C8_8  and  C11_10 
REMARK    6  A    between atoms: C14_13  and  N15_14 
REMARK    7  A    between atoms: N15_14  and  S16_15 
ROOT
ATOM      1  C11 <0> d   1      18.477   0.321   6.274  0.00  0.00    -0.028 A 
ATOM      2  C12 <0> d   1      19.151   1.398   6.819  0.00  0.00     0.012 A 
ATOM      3  C13 <0> d   1      18.942   1.749   8.139  0.00  0.00     0.031 A 
ATOM      4  C14 <0> d   1      18.053   1.020   8.918  0.00  0.00     0.042 A 
ATOM      5  C20 <0> d   1      17.377  -0.061   8.367  0.00  0.00     0.031 A 
ATOM      6  C21 <0> d   1      17.587  -0.404   7.045  0.00  0.00     0.012 A 
ENDROOT
BRANCH   1   7
ATOM      7  C8  <0> d   1      18.707  -0.061   4.834  0.00  0.00     0.176 C 
BRANCH   7   8
ATOM      8  C7  <0> d   1      17.867  -1.293   4.493  0.00  0.00     0.269 C 
BRANCH   8   9
ATOM      9  N4  <0> d   1      18.738  -2.345   3.954  0.00  0.00    -0.069 N 
ATOM     10  H5  <0> d   1      19.634  -2.309   4.415  0.00  0.00     0.277 HD
ATOM     11  H6  <0> d   1      18.864  -2.203   2.963  0.00  0.00     0.277 HD
BRANCH   9  12
ATOM     12  C2  <0> d   1      18.121  -3.659   4.185  0.00  0.00     0.178 C 
ATOM     13  C1  <0> d   1      18.207  -4.008   5.672  0.00  0.00     0.039 C 
ATOM     14  C3  <0> d   1      16.654  -3.616   3.755  0.00  0.00     0.039 C 
ENDBRANCH   9  12
ENDBRANCH   8   9
ENDBRANCH   7   8
BRANCH   7  15
ATOM     15  O10 <0> d   1      20.091  -0.358   4.637  0.00  0.00    -0.389 OA
ATOM     16  H31 <0> d   1      20.329  -1.274   4.838  0.00  0.00     0.210 HD
ENDBRANCH   7  15
ENDBRANCH   1   7
BRANCH   4  17
ATOM     17  N15 <0> d   1      17.838   1.374  10.251  0.00  0.00    -0.285 N 
ATOM     18  H34 <0> d   1      17.007   1.800  10.512  0.00  0.00     0.178 HD
BRANCH  17  19
ATOM     19  S16 <0> d   1      19.003   1.067  11.388  0.00  0.00     0.227 S 
ATOM     20  C17 <0> d   1      18.074   0.756  12.915  0.00  0.00     0.186 C 
ATOM     21  O18 <0> d   1      19.631  -0.123  10.934  0.00  0.00    -0.206 OA
ATOM     22  O19 <0> d   1      19.728   2.286  11.485  0.00  0.00    -0.206 OA
ENDBRANCH  17  19
ENDBRANCH   4  17
TORSDOF 7
ENDMDL
MODEL 6
REMARK VINA RESULT:      -5.9      4.967      7.690
REMARK  7 active torsions:
REMARK  status: ('A' for Active; 'I' for Inactive)
REMARK    1  A    between atoms: C2_2  and  N4_4 
REMARK    2  A    between atoms: N4_4  and  C7_7 
REMARK    3  A    between atoms: C7_7  and  C8_8 
REMARK    4  A    between atoms: C8_8  and  O10_9 
REMARK    5  A    between atoms: C8_8  and  C11_10 
REMARK    6  A    between atoms: C14_13  and  N15_14 
REMARK    7  A    between atoms: N15_14  and  S16_15 
ROOT
ATOM      1  C11 <0> d   1      19.502  -0.125  12.022  0.00  0.00    -0.028 A 
ATOM      2  C12 <0> d   1      18.121  -0.120  12.091  0.00  0.00     0.012 A 
ATOM      3  C13 <0> d   1      17.489   0.260  13.259  0.00  0.00     0.031 A 
ATOM      4  C14 <0> d   1      18.241   0.637  14.365  0.00  0.00     0.042 A 
ATOM      5  C20 <0> d   1      19.628   0.630  14.291  0.00  0.00     0.031 A 
ATOM      6  C21 <0> d   1      20.254   0.245  13.122  0.00  0.00     0.012 A 
ENDROOT
BRANCH   1   7
ATOM      7  C8  <0> d   1      20.190  -0.539  10.746  0.00  0.00     0.176 C 
BRANCH   7   8
ATOM      8  C7  <0> d   1      19.787  -1.972  10.392  0.00  0.00     0.269 C 
BRANCH   8   9
ATOM      9  N4  <0> d   1      20.673  -2.915  11.086  0.00  0.00    -0.069 N 
ATOM     10  H5  <0> d   1      20.962  -2.520  11.968  0.00  0.00     0.277 HD
ATOM     11  H6  <0> d   1      21.486  -3.095  10.516  0.00  0.00     0.277 HD
BRANCH   9  12
ATOM     12  C2  <0> d   1      19.957  -4.175  11.326  0.00  0.00     0.178 C 
ATOM     13  C1  <0> d   1      18.534  -3.871  11.799  0.00  0.00     0.039 C 
ATOM     14  C3  <0> d   1      19.900  -4.985  10.029  0.00  0.00     0.039 C 
ENDBRANCH   9  12
ENDBRANCH   8   9
ENDBRANCH   7   8
BRANCH   7  15
ATOM     15  O10 <0> d   1      21.606  -0.473  10.927  0.00  0.00    -0.389 OA
ATOM     16  H31 <0> d   1      22.076  -0.040  10.200  0.00  0.00     0.210 HD
ENDBRANCH   7  15
ENDBRANCH   1   7
BRANCH   4  17
ATOM     17  N15 <0> d   1      17.604   1.019  15.547  0.00  0.00    -0.285 N 
ATOM     18  H34 <0> d   1      17.115   1.856  15.585  0.00  0.00     0.178 HD
BRANCH  17  19
ATOM     19  S16 <0> d   1      17.685   0.046  16.884  0.00  0.00     0.227 S 
ATOM     20  C17 <0> d   1      19.094   0.690  17.827  0.00  0.00     0.186 C 
ATOM     21  O18 <0> d   1      16.467   0.295  17.573  0.00  0.00    -0.206 OA
ATOM     22  O19 <0> d   1      17.980  -1.243  16.363  0.00  0.00    -0.206 OA
ENDBRANCH  17  19
ENDBRANCH   4  17
TORSDOF 7
ENDMDL
MODEL 7
REMARK VINA RESULT:      -5.9      4.676      5.690
REMARK  7 active torsions:
REMARK  status: ('A' for Active; 'I' for Inactive)
REMARK    1  A    between atoms: C2_2  and  N4_4 
REMARK    2  A    between atoms: N4_4  and  C7_7 
REMARK    3  A    between atoms: C7_7  and  C8_8 
REMARK    4  A    between atoms: C8_8  and  O10_9 
REMARK    5  A    between atoms: C8_8  and  C11_10 
REMARK    6  A    between atoms: C14_13  and  N15_14 
REMARK    7  A    between atoms: N15_14  and  S16_15 
ROOT
ATOM      1  C11 <0> d   1      18.647   0.652  14.091  0.00  0.00    -0.028 A 
ATOM      2  C12 <0> d   1      17.574   0.474  13.238  0.00  0.00     0.012 A 
ATOM      3  C13 <0> d   1      17.409  -0.728  12.576  0.00  0.00     0.031 A 
ATOM      4  C14 <0> d   1      18.322  -1.757  12.769  0.00  0.00     0.042 A 
ATOM      5  C20 <0> d   1      19.399  -1.574  13.627  0.00  0.00     0.031 A 
ATOM      6  C21 <0> d   1      19.561  -0.368  14.281  0.00  0.00     0.012 A 
ENDROOT
BRANCH   1   7
ATOM      7  C8  <0> d   1      18.825   1.964  14.811  0.00  0.00     0.176 C 
BRANCH   7   8
ATOM      8  C7  <0> d   1      19.107   1.699  16.291  0.00  0.00     0.269 C 
BRANCH   8   9
ATOM      9  N4  <0> d   1      17.836   1.603  17.021  0.00  0.00    -0.069 N 
ATOM     10  H5  <0> d   1      17.069   1.634  16.368  0.00  0.00     0.277 HD
ATOM     11  H6  <0> d   1      17.760   2.375  17.666  0.00  0.00     0.277 HD
BRANCH   9  12
ATOM     12  C2  <0> d   1      17.794   0.338  17.767  0.00  0.00     0.178 C 
ATOM     13  C1  <0> d   1      17.036  -0.711  16.950  0.00  0.00     0.039 C 
ATOM     14  C3  <0> d   1      19.220  -0.151  18.026  0.00  0.00     0.039 C 
ENDBRANCH   9  12
ENDBRANCH   8   9
ENDBRANCH   7   8
BRANCH   7  15
ATOM     15  O10 <0> d   1      17.632   2.742  14.684  0.00  0.00    -0.389 OA
ATOM     16  H31 <0> d   1      17.727   3.658  14.980  0.00  0.00     0.210 HD
ENDBRANCH   7  15
ENDBRANCH   1   7
BRANCH   4  17
ATOM     17  N15 <0> d   1      18.158  -2.973  12.102  0.00  0.00    -0.285 N 
ATOM     18  H34 <0> d   1      17.444  -3.576  12.361  0.00  0.00     0.178 HD
BRANCH  17  19
ATOM     19  S16 <0> d   1      19.182  -3.385  10.867  0.00  0.00     0.227 S 
ATOM     20  C17 <0> d   1      18.232  -4.561   9.865  0.00  0.00     0.186 C 
ATOM     21  O18 <0> d   1      19.382  -2.170  10.157  0.00  0.00    -0.206 OA
ATOM     22  O19 <0> d   1      20.265  -4.040  11.514  0.00  0.00    -0.206 OA
ENDBRANCH  17  19
ENDBRANCH   4  17
TORSDOF 7
ENDMDL
MODEL 8
REMARK VINA RESULT:      -5.9      4.521      7.665
REMARK  7 active torsions:
REMARK  status: ('A' for Active; 'I' for Inactive)
REMARK    1  A    between atoms: C2_2  and  N4_4 
REMARK    2  A    between atoms: N4_4  and  C7_7 
REMARK    3  A    between atoms: C7_7  and  C8_8 
REMARK    4  A    between atoms: C8_8  and  O10_9 
REMARK    5  A    between atoms: C8_8  and  C11_10 
REMARK    6  A    between atoms: C14_13  and  N15_14 
REMARK    7  A    between atoms: N15_14  and  S16_15 
ROOT
ATOM      1  C11 <0> d   1      19.755  -0.328  12.131  0.00  0.00    -0.028 A 
ATOM      2  C12 <0> d   1      20.251   0.586  13.042  0.00  0.00     0.012 A 
ATOM      3  C13 <0> d   1      19.485   0.965  14.127  0.00  0.00     0.031 A 
ATOM      4  C14 <0> d   1      18.216   0.428  14.303  0.00  0.00     0.042 A 
ATOM      5  C20 <0> d   1      17.721  -0.490  13.385  0.00  0.00     0.031 A 
ATOM      6  C21 <0> d   1      18.491  -0.861  12.299  0.00  0.00     0.012 A 
ENDROOT
BRANCH   1   7
ATOM      7  C8  <0> d   1      20.593  -0.740  10.947  0.00  0.00     0.176 C 
BRANCH   7   8
ATOM      8  C7  <0> d   1      19.809  -0.492   9.657  0.00  0.00     0.269 C 
BRANCH   8   9
ATOM      9  N4  <0> d   1      19.976   0.907   9.244  0.00  0.00    -0.069 N 
ATOM     10  H5  <0> d   1      20.543   0.947   8.411  0.00  0.00     0.277 HD
ATOM     11  H6  <0> d   1      20.428   1.424   9.983  0.00  0.00     0.277 HD
BRANCH   9  12
ATOM     12  C2  <0> d   1      18.659   1.498   8.969  0.00  0.00     0.178 C 
ATOM     13  C1  <0> d   1      17.613   0.386   8.865  0.00  0.00     0.039 C 
ATOM     14  C3  <0> d   1      18.280   2.450  10.105  0.00  0.00     0.039 C 
ENDBRANCH   9  12
ENDBRANCH   8   9
ENDBRANCH   7   8
BRANCH   7  15
ATOM     15  O10 <0> d   1      20.912  -2.130  11.052  0.00  0.00    -0.389 OA
ATOM     16  H31 <0> d   1      20.210  -2.719  10.741  0.00  0.00     0.210 HD
ENDBRANCH   7  15
ENDBRANCH   1   7
BRANCH   4  17
ATOM     17  N15 <0> d   1      17.440   0.810  15.398  0.00  0.00    -0.285 N 
ATOM     18  H34 <0> d   1      16.808   1.542  15.313  0.00  0.00     0.178 HD
BRANCH  17  19
ATOM     19  S16 <0> d   1      17.596   0.016  16.843  0.00  0.00     0.227 S 
ATOM     20  C17 <0> d   1      17.975   1.325  18.040  0.00  0.00     0.186 C 
ATOM     21  O18 <0> d   1      16.305  -0.525  17.087  0.00  0.00    -0.206 OA
ATOM     22  O19 <0> d   1      18.722  -0.832  16.658  0.00  0.00    -0.206 OA
ENDBRANCH  17  19
ENDBRANCH   4  17
TORSDOF 7
ENDMDL
MODEL 9
REMARK VINA RESULT:      -5.9      5.488      8.718
REMARK  7 active torsions:
REMARK  status: ('A' for Active; 'I' for Inactive)
REMARK    1  A    between atoms: C2_2  and  N4_4 
REMARK    2  A    between atoms: N4_4  and  C7_7 
REMARK    3  A    between atoms: C7_7  and  C8_8 
REMARK    4  A    between atoms: C8_8  and  O10_9 
REMARK    5  A    between atoms: C8_8  and  C11_10 
REMARK    6  A    between atoms: C14_13  and  N15_14 
REMARK    7  A    between atoms: N15_14  and  S16_15 
ROOT
ATOM      1  C11 <0> d   1      19.005  -0.676  13.340  0.00  0.00    -0.028 A 
ATOM      2  C12 <0> d   1      18.281   0.502  13.307  0.00  0.00     0.012 A 
ATOM      3  C13 <0> d   1      17.924   1.127  14.486  0.00  0.00     0.031 A 
ATOM      4  C14 <0> d   1      18.293   0.573  15.705  0.00  0.00     0.042 A 
ATOM      5  C20 <0> d   1      19.019  -0.611  15.734  0.00  0.00     0.031 A 
ATOM      6  C21 <0> d   1      19.369  -1.234  14.551  0.00  0.00     0.012 A 
ENDROOT
BRANCH   1   7
ATOM      7  C8  <0> d   1      19.393  -1.356  12.052  0.00  0.00     0.176 C 
BRANCH   7   8
ATOM      8  C7  <0> d   1      19.495  -2.865  12.283  0.00  0.00     0.269 C 
BRANCH   8   9
ATOM      9  N4  <0> d   1      20.293  -3.472  11.211  0.00  0.00    -0.069 N 
ATOM     10  H5  <0> d   1      21.169  -3.801  11.587  0.00  0.00     0.277 HD
ATOM     11  H6  <0> d   1      20.472  -2.784  10.494  0.00  0.00     0.277 HD
BRANCH   9  12
ATOM     12  C2  <0> d   1      19.555  -4.602  10.629  0.00  0.00     0.178 C 
ATOM     13  C1  <0> d   1      18.290  -4.861  11.450  0.00  0.00     0.039 C 
ATOM     14  C3  <0> d   1      19.169  -4.272   9.186  0.00  0.00     0.039 C 
ENDBRANCH   9  12
ENDBRANCH   8   9
ENDBRANCH   7   8
BRANCH   7  15
ATOM     15  O10 <0> d   1      20.658  -0.855  11.612  0.00  0.00    -0.389 OA
ATOM     16  H31 <0> d   1      21.392  -1.064  12.207  0.00  0.00     0.210 HD
ENDBRANCH   7  15
ENDBRANCH   1   7
BRANCH   4  17
ATOM     17  N15 <0> d   1      17.932   1.202  16.898  0.00  0.00    -0.285 N 
ATOM     18  H34 <0> d   1      17.029   1.110  17.241  0.00  0.00     0.178 HD
BRANCH  17  19
ATOM     19  S16 <0> d   1      19.045   2.105  17.727  0.00  0.00     0.227 S 
ATOM     20  C17 <0> d   1      18.048   3.253  18.716  0.00  0.00     0.186 C 
ATOM     21  O18 <0> d   1      19.704   1.167  18.566  0.00  0.00    -0.206 OA
ATOM     22  O19 <0> d   1      19.754   2.806  16.714  0.00  0.00    -0.206 OA
ENDBRANCH  17  19
ENDBRANCH   4  17
TORSDOF 7
ENDMDL
