REMARK  1 active torsions:
REMARK  status: ('A' for Active; 'I' for Inactive)
REMARK    1  A    between atoms: C4_3  and  C6_4 
ROOT
ATOM      1  C1  ZIN A   1      -0.019   1.526   0.010  0.00  0.00     0.046 C 
ATOM      2  C2  ZIN A   1       0.002  -0.004   0.002  0.00  0.00     0.251 C 
ATOM      3  C4  ZIN A   1       0.720  -0.499  -1.256  0.00  0.00     0.187 C 
ATOM      4  O12 ZIN A   1       2.082  -0.062  -1.225  0.00  0.00    -0.377 OA
ATOM      5  C13 ZIN A   1       2.807  -0.519  -0.080  0.00  0.00     0.199 C 
ATOM      6  C14 ZIN A   1       2.110  -0.025   1.190  0.00  0.00     0.298 C 
ATOM      7  N15 ZIN A   1       0.715  -0.492   1.192  0.00  0.00     0.093 N 
ATOM      8  C16 ZIN A   1       0.025  -0.086   2.424  0.00  0.00     0.310 C 
ENDROOT
BRANCH   3   9
ATOM      9  C6  ZIN A   1       0.039   0.062  -2.478  0.00  0.00    -0.027 A 
ATOM     10  C11 ZIN A   1      -0.923  -0.681  -3.135  0.00  0.00     0.010 A 
ATOM     11  C10 ZIN A   1      -1.551  -0.165  -4.253  0.00  0.00     0.001 A 
ATOM     12  C9  ZIN A   1      -1.210   1.091  -4.719  0.00  0.00     0.000 A 
ATOM     13  C8  ZIN A   1      -0.244   1.832  -4.065  0.00  0.00     0.001 A 
ATOM     14  C7  ZIN A   1       0.381   1.318  -2.944  0.00  0.00     0.010 A 
ENDBRANCH   3   9
TORSDOF 1
