REMARK  10 active torsions:
REMARK  status: ('A' for Active; 'I' for Inactive)
REMARK    1  A    between atoms: C2_2  and  C4_3 
REMARK    2  A    between atoms: C2_2  and  N12_11 
REMARK    3  A    between atoms: C4_3  and  C5_4 
REMARK    4  A    between atoms: C5_4  and  C6_5 
REMARK    5  A    between atoms: N12_11  and  C15_14 
REMARK    6  A    between atoms: C15_14  and  C16_15 
REMARK    7  A    between atoms: C16_15  and  O18_16 
REMARK    8  A    between atoms: C16_15  and  C19_17 
REMARK    9  A    between atoms: C22_20  and  O23_21 
REMARK   10  A    between atoms: C24_22  and  C25_23 
REMARK       I    between atoms: C25_23  and  N26_24 
ROOT
ATOM      1  C16 ZIN A   1       0.630  -0.587  -3.652  0.00  0.00     0.176 C 
ENDROOT
BRANCH   1   2
ATOM      2  C15 ZIN A   1      -0.086  -0.093  -2.394  0.00  0.00     0.269 C 
BRANCH   2   3
ATOM      3  N12 ZIN A   1       0.690  -0.478  -1.207  0.00  0.00    -0.069 N 
ATOM      4  H13 ZIN A   1       1.608  -0.063  -1.256  0.00  0.00     0.277 HD
ATOM      5  H14 ZIN A   1       0.776  -1.482  -1.172  0.00  0.00     0.277 HD
BRANCH   3   6
ATOM      6  C2  ZIN A   1       0.002  -0.004   0.002  0.00  0.00     0.182 C 
ATOM      7  C1  ZIN A   1      -0.019   1.526   0.010  0.00  0.00     0.040 C 
BRANCH   6   8
ATOM      8  C4  ZIN A   1       0.742  -0.511   1.242  0.00  0.00     0.037 C 
BRANCH   8   9
ATOM      9  C5  ZIN A   1       0.655  -2.037   1.299  0.00  0.00     0.040 C 
BRANCH   9  10
ATOM     10  C6  ZIN A   1       1.384  -2.537   2.519  0.00  0.00    -0.058 A 
ATOM     11  C11 ZIN A   1       0.708  -2.684   3.716  0.00  0.00     0.007 A 
ATOM     12  C10 ZIN A   1       1.375  -3.146   4.835  0.00  0.00     0.001 A 
ATOM     13  C9  ZIN A   1       2.722  -3.452   4.759  0.00  0.00     0.000 A 
ATOM     14  C8  ZIN A   1       3.399  -3.299   3.564  0.00  0.00     0.001 A 
ATOM     15  C7  ZIN A   1       2.731  -2.841   2.444  0.00  0.00     0.007 A 
ENDBRANCH   9  10
ENDBRANCH   8   9
ENDBRANCH   6   8
ENDBRANCH   3   6
ENDBRANCH   2   3
ENDBRANCH   1   2
BRANCH   1  16
ATOM     16  O18 ZIN A   1       0.650  -2.015  -3.660  0.00  0.00    -0.389 OA
ATOM     17  H43 ZIN A   1      -0.228  -2.421  -3.654  0.00  0.00     0.210 HD
ENDBRANCH   1  16
BRANCH   1  18
ATOM     18  C19 ZIN A   1      -0.098  -0.087  -4.873  0.00  0.00    -0.027 A 
ATOM     19  C28 ZIN A   1       0.375   1.015  -5.552  0.00  0.00     0.029 A 
ATOM     20  C24 ZIN A   1      -0.296   1.475  -6.687  0.00  0.00     0.065 A 
ATOM     21  C22 ZIN A   1      -1.455   0.817  -7.121  0.00  0.00     0.081 A 
ATOM     22  C21 ZIN A   1      -1.920  -0.287  -6.423  0.00  0.00     0.038 A 
ATOM     23  C20 ZIN A   1      -1.244  -0.735  -5.305  0.00  0.00     0.012 A 
BRANCH  20  24
ATOM     24  C25 ZIN A   1       0.208   2.651  -7.422  0.00  0.00     0.252 C 
ATOM     25  N26 ZIN A   1       1.323   3.281  -7.001  0.00  0.00    -0.366 N 
ATOM     26  H47 ZIN A   1       1.793   2.962  -6.215  0.00  0.00     0.159 HD
ATOM     27  H48 ZIN A   1       1.655   4.054  -7.484  0.00  0.00     0.159 HD
ATOM     28  O27 ZIN A   1      -0.382   3.051  -8.406  0.00  0.00    -0.268 OA
ENDBRANCH  20  24
BRANCH  21  29
ATOM     29  O23 ZIN A   1      -2.119   1.258  -8.219  0.00  0.00    -0.360 OA
ATOM     30  H46 ZIN A   1      -2.802   1.915  -8.027  0.00  0.00     0.217 HD
ENDBRANCH  21  29
ENDBRANCH   1  18
TORSDOF 10
