REMARK  6 active torsions:
REMARK  status: ('A' for Active; 'I' for Inactive)
REMARK    1  A    between atoms: C5_5  and  C6_6 
REMARK    2  A    between atoms: C6_6  and  C15_15 
REMARK    3  A    between atoms: C7_7  and  C8_8 
REMARK    4  A    between atoms: C8_8  and  N9_9 
REMARK    5  A    between atoms: C19_19  and  C20_20 
REMARK    6  A    between atoms: C21_21  and  C22_22 
ROOT
ATOM      1  C6  ZIN A   1       0.113  -4.264  -0.129  0.00  0.00     0.001 C 
ATOM      2  C7  ZIN A   1       1.055  -4.986   0.489  0.00  0.00     0.015 C 
ENDROOT
BRANCH   1   3
ATOM      3  C5  ZIN A   1       0.179  -2.782  -0.104  0.00  0.00    -0.024 A 
ATOM      4  C4  ZIN A   1       0.375  -2.072  -1.287  0.00  0.00     0.013 A 
ATOM      5  C3  ZIN A   1       0.437  -0.693  -1.259  0.00  0.00     0.007 A 
ATOM      6  C2  ZIN A   1       0.304  -0.017  -0.059  0.00  0.00    -0.062 A 
ATOM      7  C1  ZIN A   1       0.372   1.488  -0.035  0.00  0.00     0.048 C 
ATOM      8  C27 ZIN A   1       0.114  -0.718   1.118  0.00  0.00     0.007 A 
ATOM      9  C26 ZIN A   1       0.046  -2.096   1.101  0.00  0.00     0.013 A 
ENDBRANCH   1   3
BRANCH   1  10
ATOM     10  C15 ZIN A   1      -0.998  -4.944  -0.837  0.00  0.00     0.068 A 
ATOM     11  N25 ZIN A   1      -0.727  -5.801  -1.809  0.00  0.00    -0.248 NA
ATOM     12  C19 ZIN A   1      -1.694  -6.436  -2.463  0.00  0.00     0.057 A 
ATOM     13  C18 ZIN A   1      -3.036  -6.206  -2.149  0.00  0.00     0.031 A 
ATOM     14  C17 ZIN A   1      -3.351  -5.310  -1.140  0.00  0.00     0.005 A 
ATOM     15  C16 ZIN A   1      -2.319  -4.671  -0.474  0.00  0.00     0.032 A 
BRANCH  12  16
ATOM     16  C20 ZIN A   1      -1.347  -7.385  -3.535  0.00  0.00     0.038 C 
ATOM     17  C21 ZIN A   1      -0.053  -7.612  -3.844  0.00  0.00     0.086 C 
BRANCH  17  18
ATOM     18  C22 ZIN A   1       0.290  -8.554  -4.907  0.00  0.00     0.198 C 
ATOM     19  O23 ZIN A   1      -0.596  -9.138  -5.518  0.00  0.00    -0.645 OA
ATOM     20  O24 ZIN A   1       1.465  -8.759  -5.187  0.00  0.00    -0.645 OA
ENDBRANCH  17  18
ENDBRANCH  12  16
ENDBRANCH   1  10
BRANCH   2  21
ATOM     21  C8  ZIN A   1       0.910  -6.483   0.593  0.00  0.00     0.263 C 
BRANCH  21  22
ATOM     22  N9  ZIN A   1       2.093  -7.131   0.011  0.00  0.00    -0.068 N 
ATOM     23  H10 ZIN A   1       2.243  -6.801  -0.931  0.00  0.00     0.280 HD
ATOM     24  C14 ZIN A   1       1.925  -8.600   0.017  0.00  0.00     0.235 C 
ATOM     25  C13 ZIN A   1       3.312  -9.212   0.289  0.00  0.00     0.029 C 
ATOM     26  C12 ZIN A   1       4.260  -8.003   0.464  0.00  0.00     0.029 C 
ATOM     27  C11 ZIN A   1       3.291  -6.856   0.845  0.00  0.00     0.235 C 
ENDBRANCH  21  22
ENDBRANCH   2  21
TORSDOF 6
