REMARK  4 active torsions:
REMARK  status: ('A' for Active; 'I' for Inactive)
REMARK       I    between atoms: N8_8  and  C9_9 
REMARK    1  A    between atoms: C9_9  and  C11_11 
REMARK    2  A    between atoms: C14_14  and  N15_15 
REMARK       I    between atoms: N15_15  and  C16_16 
REMARK    3  A    between atoms: C16_16  and  C18_18 
REMARK    4  A    between atoms: C23_23  and  C24_24 
ROOT
ATOM      1  C11 ZIN A   1      -2.777  -4.878  -1.931  0.00  0.00     0.032 A 
ATOM      2  C12 ZIN A   1      -2.146  -5.230  -3.127  0.00  0.00     0.019 A 
ATOM      3  C13 ZIN A   1      -2.814  -5.088  -4.323  0.00  0.00     0.030 A 
ATOM      4  C14 ZIN A   1      -4.114  -4.593  -4.341  0.00  0.00     0.035 A 
ATOM      5  C30 ZIN A   1      -4.745  -4.242  -3.151  0.00  0.00     0.030 A 
ATOM      6  C31 ZIN A   1      -4.085  -4.387  -1.952  0.00  0.00     0.019 A 
ENDROOT
BRANCH   1   7
ATOM      7  C9  ZIN A   1      -2.065  -5.029  -0.647  0.00  0.00     0.258 C 
ATOM      8  N8  ZIN A   1      -2.143  -4.059   0.285  0.00  0.00    -0.313 N 
ATOM      9  C7  ZIN A   1      -1.520  -4.287   1.593  0.00  0.00     0.138 C 
ATOM     10  C32 ZIN A   1      -2.813  -2.879  -0.030  0.00  0.00     0.050 A 
ATOM     11  C6  ZIN A   1      -2.465  -3.824   2.709  0.00  0.00     0.080 C 
ATOM     12  C5  ZIN A   1      -3.872  -4.259   2.406  0.00  0.00     0.042 A 
ATOM     13  C4  ZIN A   1      -4.632  -3.729   1.402  0.00  0.00     0.093 A 
ATOM     14  N38 ZIN A   1      -4.639  -5.193   3.025  0.00  0.00    -0.346 N 
ATOM     15  N3  ZIN A   1      -5.829  -4.326   1.432  0.00  0.00    -0.233 NA
ATOM     16  C37 ZIN A   1      -4.106  -2.688   0.488  0.00  0.00     0.022 A 
ATOM     17  C2  ZIN A   1      -5.840  -5.207   2.398  0.00  0.00     0.101 A 
ATOM     18  C1  ZIN A   1      -7.005  -6.092   2.760  0.00  0.00     0.091 C 
ATOM     19  C36 ZIN A   1      -4.827  -1.552   0.163  0.00  0.00     0.016 A 
ATOM     20  C35 ZIN A   1      -4.259  -0.597  -0.662  0.00  0.00     0.001 A 
ATOM     21  C34 ZIN A   1      -2.977  -0.772  -1.152  0.00  0.00     0.002 A 
ATOM     22  C33 ZIN A   1      -2.252  -1.908  -0.838  0.00  0.00     0.031 A 
ATOM     23  H64 ZIN A   1      -4.375  -5.751   3.773  0.00  0.00     0.167 HD
ATOM     24  O10 ZIN A   1      -1.407  -6.029  -0.431  0.00  0.00    -0.267 OA
ENDBRANCH   1   7
BRANCH   4  25
ATOM     25  N15 ZIN A   1      -4.787  -4.451  -5.553  0.00  0.00    -0.323 N 
ATOM     26  C16 ZIN A   1      -4.102  -4.145  -6.672  0.00  0.00     0.257 C 
ATOM     27  O17 ZIN A   1      -2.912  -3.900  -6.609  0.00  0.00    -0.267 OA
ATOM     28  H48 ZIN A   1      -5.749  -4.572  -5.591  0.00  0.00     0.169 HD
BRANCH  26  29
ATOM     29  C18 ZIN A   1      -4.794  -4.107  -7.975  0.00  0.00     0.043 A 
ATOM     30  C23 ZIN A   1      -4.331  -3.262  -8.999  0.00  0.00    -0.010 A 
ATOM     31  C22 ZIN A   1      -4.990  -3.242 -10.225  0.00  0.00     0.013 A 
ATOM     32  C21 ZIN A   1      -6.099  -4.039 -10.426  0.00  0.00     0.001 A 
ATOM     33  C20 ZIN A   1      -6.560  -4.867  -9.416  0.00  0.00     0.001 A 
ATOM     34  C19 ZIN A   1      -5.917  -4.906  -8.196  0.00  0.00     0.018 A 
BRANCH  30  35
ATOM     35  C24 ZIN A   1      -3.140  -2.408  -8.779  0.00  0.00    -0.025 A 
ATOM     36  C29 ZIN A   1      -2.042  -2.505  -9.633  0.00  0.00     0.012 A 
ATOM     37  C28 ZIN A   1      -0.938  -1.703  -9.426  0.00  0.00     0.001 A 
ATOM     38  C27 ZIN A   1      -0.915  -0.813  -8.367  0.00  0.00     0.000 A 
ATOM     39  C26 ZIN A   1      -1.999  -0.716  -7.513  0.00  0.00     0.001 A 
ATOM     40  C25 ZIN A   1      -3.111  -1.509  -7.714  0.00  0.00     0.012 A 
ENDBRANCH  30  35
ENDBRANCH  26  29
ENDBRANCH   4  25
TORSDOF 4
