REMARK  3 active torsions:
REMARK  status: ('A' for Active; 'I' for Inactive)
REMARK    1  A    between atoms: N4_4  and  N5_5 
REMARK    2  A    between atoms: C6_6  and  C7_7 
REMARK    3  A    between atoms: C10_10  and  N11_11 
ROOT
ATOM      1  N5  ZIN A   1      -1.319   4.576   0.048  0.00  0.00    -0.178 NA
ATOM      2  C6  ZIN A   1      -0.663   5.739   0.146  0.00  0.00     0.176 C 
ENDROOT
BRANCH   1   3
ATOM      3  N4  ZIN A   1      -0.664   3.465   0.032  0.00  0.00    -0.211 N 
ATOM      4  C3  ZIN A   1       0.800   3.307   0.007  0.00  0.00     0.259 A 
ATOM      5  C2  ZIN A   1       0.996   1.804  -0.004  0.00  0.00     0.245 A 
ATOM      6  O1  ZIN A   1       2.049   1.203  -0.025  0.00  0.00    -0.271 OA
ATOM      7  N17 ZIN A   1      -0.243   1.275   0.009  0.00  0.00    -0.276 N 
ATOM      8  C15 ZIN A   1      -1.185   2.225   0.034  0.00  0.00     0.345 A 
ATOM      9  H23 ZIN A   1      -0.430   0.323   0.006  0.00  0.00     0.173 HD
ATOM     10  O16 ZIN A   1      -2.377   1.994   0.053  0.00  0.00    -0.245 OA
ENDBRANCH   1   3
BRANCH   2  11
ATOM     11  C7  ZIN A   1      -1.366   6.921   0.268  0.00  0.00     0.097 A 
ATOM     12  O14 ZIN A   1      -2.712   7.059   0.302  0.00  0.00    -0.287 OA
ATOM     13  C10 ZIN A   1      -3.023   8.352   0.431  0.00  0.00     0.215 A 
ATOM     14  C9  ZIN A   1      -1.859   9.124   0.478  0.00  0.00     0.065 A 
ATOM     15  C8  ZIN A   1      -0.795   8.278   0.380  0.00  0.00     0.043 A 
BRANCH  13  16
ATOM     16  N11 ZIN A   1      -4.407   8.891   0.508  0.00  0.00    -0.090 N 
ATOM     17  O12 ZIN A   1      -4.602  10.188   0.630  0.00  0.00    -0.530 OA
ATOM     18  O13 ZIN A   1      -5.437   8.072   0.455  0.00  0.00    -0.530 OA
ENDBRANCH  13  16
ENDBRANCH   2  11
TORSDOF 3
