REMARK  3 active torsions:
REMARK  status: ('A' for Active; 'I' for Inactive)
REMARK    1  A    between atoms: O2_2  and  C3_3 
REMARK    2  A    between atoms: C6_6  and  C7_7 
REMARK    3  A    between atoms: C7_7  and  C9_9 
ROOT
ATOM      1  C3  ZIN A   1       0.607  -0.630  -1.040  0.00  0.00     0.070 A 
ATOM      2  C4  ZIN A   1       1.063   0.145  -2.102  0.00  0.00     0.038 A 
ATOM      3  C5  ZIN A   1       1.671  -0.441  -3.174  0.00  0.00     0.021 A 
ATOM      4  C6  ZIN A   1       1.840  -1.830  -3.212  0.00  0.00     0.051 A 
ATOM      5  C15 ZIN A   1       1.381  -2.616  -2.141  0.00  0.00     0.124 A 
ATOM      6  O16 ZIN A   1       1.539  -3.963  -2.168  0.00  0.00    -0.191 OA
ATOM      7  C17 ZIN A   1       0.771  -2.008  -1.058  0.00  0.00     0.077 A 
ENDROOT
BRANCH   4   8
ATOM      8  C7  ZIN A   1       2.495  -2.464  -4.367  0.00  0.00     0.195 C 
ATOM      9  O8  ZIN A   1       3.702  -2.394  -4.495  0.00  0.00    -0.287 OA
BRANCH   8  10
ATOM     10  C9  ZIN A   1       1.686  -3.186  -5.371  0.00  0.00     0.015 A 
ATOM     11  C14 ZIN A   1       0.292  -3.173  -5.289  0.00  0.00     0.015 A 
ATOM     12  C13 ZIN A   1      -0.457  -3.845  -6.233  0.00  0.00     0.001 A 
ATOM     13  C12 ZIN A   1       0.170  -4.539  -7.253  0.00  0.00     0.000 A 
ATOM     14  C11 ZIN A   1       1.551  -4.561  -7.336  0.00  0.00     0.001 A 
ATOM     15  C10 ZIN A   1       2.312  -3.889  -6.402  0.00  0.00     0.015 A 
ENDBRANCH   8  10
ENDBRANCH   4   8
BRANCH   1  16
ATOM     16  O2  ZIN A   1       0.004  -0.036   0.021  0.00  0.00    -0.356 OA
ATOM     17  C1  ZIN A   1      -0.133   1.386  -0.024  0.00  0.00     0.210 C 
ENDBRANCH   1  16
TORSDOF 3
