REMARK  0 active torsions:
REMARK  status: ('A' for Active; 'I' for Inactive)
ROOT
ATOM      1  C1  ZIN A   1       1.523   1.387  -5.116  0.00  0.00     0.309 C 
ATOM      2  N2  ZIN A   1       2.107   0.660  -3.981  0.00  0.00     0.085 N 
ATOM      3  C3  ZIN A   1       2.782   1.590  -3.046  0.00  0.00     0.282 C 
ATOM      4  C4  ZIN A   1       2.537   1.032  -1.624  0.00  0.00     0.060 C 
ATOM      5  C6  ZIN A   1       2.097   2.151  -0.753  0.00  0.00    -0.016 A 
ATOM      6  C7  ZIN A   1       2.994   3.225  -0.693  0.00  0.00     0.034 A 
ATOM      7  C8  ZIN A   1       2.759   4.327   0.095  0.00  0.00     0.034 A 
ATOM      8 Cl9  ZIN A   1       3.901   5.634   0.131  0.00  0.00    -0.084 Cl
ATOM      9  C10 ZIN A   1       1.608   4.386   0.861  0.00  0.00     0.026 A 
ATOM     10  C11 ZIN A   1       0.711   3.347   0.801  0.00  0.00     0.039 A 
ATOM     11  C12 ZIN A   1       0.962   2.223   0.005  0.00  0.00     0.083 A 
ATOM     12  O13 ZIN A   1      -0.016   1.323   0.009  0.00  0.00    -0.310 OA
ATOM     13  C14 ZIN A   1       0.002  -0.004   0.002  0.00  0.00     0.082 A 
ATOM     14  C15 ZIN A   1      -0.880  -0.642   0.884  0.00  0.00     0.038 A 
ATOM     15  C16 ZIN A   1      -0.915  -2.014   0.984  0.00  0.00     0.003 A 
ATOM     16  C17 ZIN A   1      -0.064  -2.774   0.202  0.00  0.00     0.001 A 
ATOM     17  C18 ZIN A   1       0.793  -2.152  -0.676  0.00  0.00     0.010 A 
ATOM     18  C19 ZIN A   1       0.823  -0.760  -0.798  0.00  0.00    -0.018 A 
ATOM     19  C20 ZIN A   1       1.736  -0.203  -1.810  0.00  0.00     0.060 C 
ATOM     20  C22 ZIN A   1       1.050  -0.024  -3.185  0.00  0.00     0.282 C 
ENDROOT
TORSDOF 0
