REMARK  1 active torsions:
REMARK  status: ('A' for Active; 'I' for Inactive)
REMARK    1  A    between atoms: C19_17  and  O20_18 
ROOT
ATOM      1  C1  ZIN A   1      -0.018   1.465   0.010  0.00  0.00     0.270 C 
ATOM      2  N2  ZIN A   1       0.002  -0.004   0.002  0.00  0.00    -0.070 N 
ATOM      3  H3  ZIN A   1       0.476  -0.320  -0.831  0.00  0.00     0.279 HD
ATOM      4  C4  ZIN A   1      -1.377  -0.498  -0.018  0.00  0.00     0.236 C 
ATOM      5  C5  ZIN A   1      -2.110  -0.037   1.247  0.00  0.00     0.042 C 
ATOM      6  C6  ZIN A   1      -1.368  -0.627   2.454  0.00  0.00    -0.005 C 
ATOM      7  C7  ZIN A   1      -2.093  -0.274   3.747  0.00  0.00     0.015 C 
ATOM      8  C8  ZIN A   1      -1.322  -0.846   4.940  0.00  0.00     0.001 C 
ATOM      9  C9  ZIN A   1       0.092  -0.262   4.959  0.00  0.00     0.001 C 
ATOM     10  C10 ZIN A   1       0.817  -0.631   3.663  0.00  0.00     0.008 C 
ATOM     11  C11 ZIN A   1       0.051  -0.054   2.470  0.00  0.00     0.030 C 
ATOM     12  C13 ZIN A   1       0.734  -0.473   1.169  0.00  0.00     0.197 C 
ATOM     13  C15 ZIN A   1       0.957  -1.975   1.159  0.00  0.00     0.072 C 
ATOM     14  C16 ZIN A   1      -0.241  -2.735   1.661  0.00  0.00    -0.049 A 
ATOM     15  C17 ZIN A   1      -0.251  -4.114   1.486  0.00  0.00     0.010 A 
ATOM     16  C18 ZIN A   1      -1.310  -4.871   1.938  0.00  0.00     0.037 A 
ATOM     17  C19 ZIN A   1      -2.379  -4.255   2.573  0.00  0.00     0.066 A 
ATOM     18  C21 ZIN A   1      -2.373  -2.880   2.743  0.00  0.00     0.045 A 
ATOM     19  C22 ZIN A   1      -1.306  -2.123   2.278  0.00  0.00    -0.040 A 
ENDROOT
BRANCH  17  20
ATOM     20  O20 ZIN A   1      -3.424  -4.995   3.027  0.00  0.00    -0.361 OA
ATOM     21  H42 ZIN A   1      -3.319  -5.307   3.937  0.00  0.00     0.217 HD
ENDBRANCH  17  20
TORSDOF 1
