REMARK  3 active torsions:
REMARK  status: ('A' for Active; 'I' for Inactive)
REMARK    1  A    between atoms: N1_1  and  C2_2 
REMARK    2  A    between atoms: C5_5  and  O6_6 
REMARK    3  A    between atoms: C7_7  and  C8_8 
ROOT
ATOM      1  C2  <0> d   1       0.002  -0.004   0.002  0.00  0.00     0.026 A 
ATOM      2  C3  <0> d   1      -1.194  -0.714   0.004  0.00  0.00     0.032 A 
ATOM      3  C4  <0> d   1      -1.186  -2.095  -0.004  0.00  0.00     0.040 A 
ATOM      4  C5  <0> d   1       0.016  -2.784  -0.013  0.00  0.00     0.082 A 
ATOM      5  C7  <0> d   1       1.227  -2.076  -0.015  0.00  0.00     0.075 A 
ATOM      6  C11 <0> d   1       1.211  -0.678  -0.013  0.00  0.00     0.050 A 
ENDROOT
BRANCH   1   7
ATOM      7  N1  <0> d   1      -0.017   1.395   0.010  0.00  0.00    -0.399 N 
ATOM      8  H12 <0> d   1       0.816   1.892   0.004  0.00  0.00     0.156 HD
ATOM      9  H13 <0> d   1      -0.863   1.869   0.016  0.00  0.00     0.156 HD
ENDBRANCH   1   7
BRANCH   5  10
ATOM     10  C8  <0> d   1       2.508  -2.801  -0.025  0.00  0.00     0.212 C 
ATOM     11  O9  <0> d   1       3.562  -2.180  -0.027  0.00  0.00    -0.644 OA
ATOM     12  O10 <0> d   1       2.519  -4.024  -0.032  0.00  0.00    -0.644 OA
ENDBRANCH   5  10
BRANCH   4  13
ATOM     13  O6  <0> d   1       0.022  -4.141  -0.021  0.00  0.00    -0.360 OA
ATOM     14  H16 <0> d   1       0.020  -4.530  -0.907  0.00  0.00     0.217 HD
ENDBRANCH   4  13
TORSDOF 3
