REMARK  6 active torsions:
REMARK  status: ('A' for Active; 'I' for Inactive)
REMARK    1  A    between atoms: C2_2  and  C3_3 
REMARK       I    between atoms: C2_2  and  N21_21 
REMARK    2  A    between atoms: C4_4  and  C5_5 
REMARK    3  A    between atoms: C9_9  and  S10_10 
REMARK    4  A    between atoms: S10_10  and  N13_13 
REMARK    5  A    between atoms: N13_13  and  C14_14 
REMARK    6  A    between atoms: N21_21  and  O22_22 
ROOT
ATOM      1  C5  <0> d   1       3.604   0.274   2.535  0.00  0.00    -0.035 A 
ATOM      2  C6  <0> d   1       3.024   1.538   2.672  0.00  0.00     0.011 A 
ATOM      3  C7  <0> d   1       3.637   2.639   2.112  0.00  0.00     0.002 A 
ATOM      4  C8  <0> d   1       4.823   2.494   1.414  0.00  0.00     0.025 A 
ATOM      5  C9  <0> d   1       5.404   1.246   1.273  0.00  0.00     0.080 A 
ATOM      6  C20 <0> d   1       4.806   0.137   1.833  0.00  0.00     0.036 A 
ENDROOT
BRANCH   5   7
ATOM      7  S10 <0> d   1       6.914   1.074   0.382  0.00  0.00     0.263 S 
ATOM      8  O11 <0> d   1       6.907  -0.234  -0.172  0.00  0.00    -0.200 OA
ATOM      9  O12 <0> d   1       7.052   2.250  -0.404  0.00  0.00    -0.200 OA
BRANCH   7  10
ATOM     10  N13 <0> d   1       8.143   1.106   1.491  0.00  0.00    -0.281 N 
ATOM     11  H28 <0> d   1       8.707   0.326   1.613  0.00  0.00     0.179 HD
BRANCH  10  12
ATOM     12  C14 <0> d   1       8.369   2.256   2.251  0.00  0.00     0.042 A 
ATOM     13  C19 <0> d   1       7.992   2.293   3.587  0.00  0.00     0.030 A 
ATOM     14  C18 <0> d   1       8.221   3.430   4.337  0.00  0.00     0.002 A 
ATOM     15  C17 <0> d   1       8.816   4.535   3.756  0.00  0.00     0.000 A 
ATOM     16  C16 <0> d   1       9.187   4.504   2.425  0.00  0.00     0.002 A 
ATOM     17  C15 <0> d   1       8.966   3.368   1.671  0.00  0.00     0.030 A 
ENDBRANCH  10  12
ENDBRANCH   7  10
ENDBRANCH   5   7
BRANCH   1  18
ATOM     18  C4  <0> d   1       2.956  -0.906   3.130  0.00  0.00     0.017 C 
ATOM     19  C3  <0> d   1       1.798  -0.770   3.806  0.00  0.00     0.077 C 
BRANCH  19  20
ATOM     20  C2  <0> d   1       1.153  -1.944   4.398  0.00  0.00     0.264 C 
ATOM     21  O1  <0> d   1       1.663  -3.042   4.281  0.00  0.00    -0.266 OA
ATOM     22  N21 <0> d   1      -0.008  -1.809   5.069  0.00  0.00    -0.234 N 
ATOM     23  H35 <0> d   1      -0.415  -0.933   5.163  0.00  0.00     0.197 HD
BRANCH  22  24
ATOM     24  O22 <0> d   1      -0.634  -2.945   5.637  0.00  0.00    -0.287 OA
ATOM     25  H36 <0> d   1      -1.461  -2.749   6.098  0.00  0.00     0.244 HD
ENDBRANCH  22  24
ENDBRANCH  19  20
ENDBRANCH   1  18
TORSDOF 6
