REMARK  5 active torsions:
REMARK  status: ('A' for Active; 'I' for Inactive)
REMARK    1  A    between atoms: N1_1  and  C5_5 
REMARK    2  A    between atoms: C5_5  and  C6_6 
REMARK    3  A    between atoms: C6_6  and  C8_8 
REMARK    4  A    between atoms: C8_8  and  C9_9 
REMARK    5  A    between atoms: C9_9  and  C10_10 
ROOT
ATOM      1  C6  <0> d   1       0.030   0.979   2.437  0.00  0.00     0.152 C 
ATOM      2  O7  <0> d   1       1.020   0.299   2.313  0.00  0.00    -0.296 OA
ENDROOT
BRANCH   1   3
ATOM      3  C5  <0> d   1      -0.699   1.479   1.216  0.00  0.00     0.307 C 
BRANCH   3   4
ATOM      4  N1  <0> d   1      -0.012   1.005   0.008  0.00  0.00    -0.073 N 
ATOM      5  H2  <0> d   1       0.002  -0.004   0.002  0.00  0.00     0.274 HD
ATOM      6  H3  <0> d   1       0.935   1.354   0.000  0.00  0.00     0.274 HD
ATOM      7  H4  <0> d   1      -0.500   1.339  -0.810  0.00  0.00     0.274 HD
ENDBRANCH   3   4
ENDBRANCH   1   3
BRANCH   1   8
ATOM      8  C8  <0> d   1      -0.477   1.329   3.813  0.00  0.00     0.090 C 
BRANCH   8   9
ATOM      9  C9  <0> d   1       0.437   0.702   4.867  0.00  0.00     0.120 C 
BRANCH   9  10
ATOM     10  C10 <0> d   1      -0.070   1.052   6.243  0.00  0.00     0.172 C 
ATOM     11  O11 <0> d   1      -1.069   1.739   6.368  0.00  0.00    -0.648 OA
ATOM     12  O12 <0> d   1       0.520   0.648   7.231  0.00  0.00    -0.648 OA
ENDBRANCH   9  10
ENDBRANCH   8   9
ENDBRANCH   1   8
TORSDOF 5
