REMARK  4 active torsions:
REMARK  status: ('A' for Active; 'I' for Inactive)
REMARK    1  A    between atoms: C7_7  and  C8_8 
REMARK    2  A    between atoms: C8_8  and  C9_9 
REMARK    3  A    between atoms: C8_8  and  C15_15 
REMARK    4  A    between atoms: C8_8  and  N21_21 
ROOT
ATOM      1  C8  <0> d   1       2.482   1.705  -0.018  0.00  0.00     0.121 C 
ENDROOT
BRANCH   1   2
ATOM      2  C7  <0> d   1       1.285   2.561  -0.340  0.00  0.00     0.002 A 
ATOM      3  C2  <0> d   1       0.007   2.068  -0.138  0.00  0.00     0.043 A 
ATOM      4 Cl1  <0> d   1      -0.215   0.466   0.493  0.00  0.00    -0.084 Cl
ATOM      5  C3  <0> d   1      -1.092   2.854  -0.433  0.00  0.00     0.024 A 
ATOM      6  C4  <0> d   1      -0.914   4.130  -0.935  0.00  0.00     0.002 A 
ATOM      7  C5  <0> d   1       0.362   4.620  -1.142  0.00  0.00     0.001 A 
ATOM      8  C6  <0> d   1       1.461   3.834  -0.847  0.00  0.00     0.012 A 
ENDBRANCH   1   2
BRANCH   1   9
ATOM      9  C9  <0> d   1       2.384   1.218   1.404  0.00  0.00    -0.020 A 
ATOM     10  C14 <0> d   1       2.386  -0.139   1.672  0.00  0.00     0.010 A 
ATOM     11  C13 <0> d   1       2.300  -0.586   2.977  0.00  0.00     0.001 A 
ATOM     12  C12 <0> d   1       2.203   0.324   4.014  0.00  0.00     0.000 A 
ATOM     13  C11 <0> d   1       2.196   1.679   3.746  0.00  0.00     0.001 A 
ATOM     14  C10 <0> d   1       2.287   2.127   2.441  0.00  0.00     0.010 A 
ENDBRANCH   1   9
BRANCH   1  15
ATOM     15  C15 <0> d   1       2.521   0.523  -0.953  0.00  0.00    -0.020 A 
ATOM     16  C20 <0> d   1       3.561  -0.385  -0.876  0.00  0.00     0.010 A 
ATOM     17  C19 <0> d   1       3.594  -1.471  -1.730  0.00  0.00     0.001 A 
ATOM     18  C18 <0> d   1       2.592  -1.645  -2.667  0.00  0.00     0.000 A 
ATOM     19  C17 <0> d   1       1.555  -0.734  -2.747  0.00  0.00     0.001 A 
ATOM     20  C16 <0> d   1       1.520   0.350  -1.890  0.00  0.00     0.010 A 
ENDBRANCH   1  15
BRANCH   1  21
ATOM     21  N21 <0> d   1       3.705   2.496  -0.180  0.00  0.00    -0.327 N 
ATOM     22  C25 <0> d   1       4.039   3.606   0.512  0.00  0.00     0.210 A 
ATOM     23  N24 <0> d   1       5.200   4.028   0.092  0.00  0.00    -0.255 NA
ATOM     24  C23 <0> d   1       5.640   3.216  -0.881  0.00  0.00     0.135 A 
ATOM     25  C22 <0> d   1       4.720   2.251  -1.066  0.00  0.00     0.113 A 
ENDBRANCH   1  21
TORSDOF 4
