REMARK  8 active torsions:
REMARK  status: ('A' for Active; 'I' for Inactive)
REMARK    1  A    between atoms: C2_2  and  C3_3 
REMARK    2  A    between atoms: C3_3  and  N4_4 
REMARK    3  A    between atoms: C7_7  and  C9_8 
REMARK       I    between atoms: C9_8  and  N11_10 
REMARK    4  A    between atoms: N11_10  and  C12_11 
REMARK       I    between atoms: N11_10  and  C19_18 
REMARK    5  A    between atoms: C12_11  and  C13_12 
REMARK    6  A    between atoms: C13_12  and  C14_13 
REMARK    7  A    between atoms: C14_13  and  N15_14 
REMARK       I    between atoms: C19_18  and  N21_20 
REMARK    8  A    between atoms: N21_20  and  C22_21 
ROOT
ATOM      1  N4  <0> d   1      -2.683  -1.580  -1.281  0.00  0.00    -0.062 N 
ATOM      2  H5  <0> d   1      -1.899  -2.163  -1.031  0.00  0.00     0.280 HD
ATOM      3  C6  <0> d   1      -2.372  -0.846  -2.512  0.00  0.00     0.249 C 
ATOM      4  C7  <0> d   1      -2.014  -1.838  -3.621  0.00  0.00     0.105 C 
ATOM      5  C24 <0> d   1      -3.207  -2.765  -3.869  0.00  0.00     0.027 C 
ATOM      6  C25 <0> d   1      -3.579  -3.470  -2.561  0.00  0.00     0.051 C 
ATOM      7  C27 <0> d   1      -4.784  -4.332  -2.784  0.00  0.00    -0.039 A 
ATOM      8  C28 <0> d   1      -5.633  -4.512  -1.689  0.00  0.00     0.005 A 
ATOM      9  C29 <0> d   1      -5.453  -3.920  -0.364  0.00  0.00    -0.028 A 
ATOM     10  C30 <0> d   1      -6.475  -4.352   0.359  0.00  0.00     0.096 A 
ATOM     11  N31 <0> d   1      -7.293  -5.169  -0.406  0.00  0.00    -0.365 N 
ATOM     12  C32 <0> d   1      -6.803  -5.280  -1.672  0.00  0.00     0.043 A 
ATOM     13  C33 <0> d   1      -7.163  -5.922  -2.856  0.00  0.00     0.030 A 
ATOM     14  C34 <0> d   1      -6.323  -5.742  -3.946  0.00  0.00     0.003 A 
ATOM     15  C35 <0> d   1      -5.162  -4.971  -3.923  0.00  0.00     0.008 A 
ATOM     16  C36 <0> d   1      -4.262  -3.027  -0.128  0.00  0.00     0.075 C 
ATOM     17  C37 <0> d   1      -3.869  -2.421  -1.486  0.00  0.00     0.201 C 
ATOM     18  H67 <0> d   1      -8.100  -5.601  -0.085  0.00  0.00     0.165 HD
ENDROOT
BRANCH   4  19
ATOM     19  C9  <0> d   1      -1.688  -1.085  -4.885  0.00  0.00     0.233 C 
ATOM     20  O10 <0> d   1      -1.627   0.126  -4.871  0.00  0.00    -0.272 OA
ATOM     21  N11 <0> d   1      -1.465  -1.757  -6.032  0.00  0.00    -0.270 N 
ATOM     22  C19 <0> d   1      -1.581  -3.099  -6.059  0.00  0.00     0.325 C 
ATOM     23  O20 <0> d   1      -1.767  -3.671  -7.115  0.00  0.00    -0.247 OA
ATOM     24  N21 <0> d   1      -1.492  -3.807  -4.916  0.00  0.00    -0.343 N 
ATOM     25  H58 <0> d   1      -1.425  -3.347  -4.065  0.00  0.00     0.164 HD
BRANCH  21  26
ATOM     26  C12 <0> d   1      -1.096  -1.028  -7.248  0.00  0.00     0.138 C 
BRANCH  26  27
ATOM     27  C13 <0> d   1       0.427  -0.903  -7.325  0.00  0.00     0.048 C 
BRANCH  27  28
ATOM     28  C14 <0> d   1       0.813  -0.142  -8.595  0.00  0.00     0.235 C 
BRANCH  28  29
ATOM     29  N15 <0> d   1       2.275  -0.022  -8.668  0.00  0.00    -0.079 N 
ATOM     30  H16 <0> d   1       2.692  -0.939  -8.607  0.00  0.00     0.278 HD
ATOM     31  C17 <0> d   1       2.651   0.602  -9.944  0.00  0.00     0.269 C 
ATOM     32  C18 <0> d   1       2.755   0.810  -7.557  0.00  0.00     0.269 C 
ENDBRANCH  28  29
ENDBRANCH  27  28
ENDBRANCH  26  27
ENDBRANCH  21  26
BRANCH  24  33
ATOM     33  C22 <0> d   1      -1.495  -5.272  -4.959  0.00  0.00     0.120 C 
ATOM     34  C23 <0> d   1      -1.493  -5.824  -3.532  0.00  0.00     0.026 C 
ENDBRANCH  24  33
ENDBRANCH   4  19
BRANCH   1  35
ATOM     35  C3  <0> d   1      -2.946  -0.624  -0.196  0.00  0.00     0.262 C 
BRANCH  35  36
ATOM     36  C2  <0> d   1      -1.786   0.330  -0.077  0.00  0.00    -0.010 C 
ATOM     37  C1  <0> d   1      -1.991   1.623  -0.138  0.00  0.00     0.008 C 
ENDBRANCH  35  36
ENDBRANCH   1  35
TORSDOF 8
