REMARK  9 active torsions:
REMARK  status: ('A' for Active; 'I' for Inactive)
REMARK    1  A    between atoms: O1_1  and  C2_2 
REMARK    2  A    between atoms: C2_2  and  C3_3 
REMARK    3  A    between atoms: C3_3  and  N4_4 
REMARK    4  A    between atoms: N4_4  and  C6_6 
REMARK    5  A    between atoms: N4_4  and  C9_9 
REMARK    6  A    between atoms: C6_6  and  C7_7 
REMARK    7  A    between atoms: C7_7  and  O8_8 
REMARK    8  A    between atoms: C9_9  and  C10_10 
REMARK    9  A    between atoms: C10_10  and  O11_11 
ROOT
ATOM      1  N4  ZIN A   1      -2.210  -0.104  -1.179  0.00  0.00    -0.065 N 
ATOM      2  H5  ZIN A   1      -2.075   0.895  -1.203  0.00  0.00     0.280 HD
ENDROOT
BRANCH   1   3
ATOM      3  C3  ZIN A   1      -1.573  -0.655   0.025  0.00  0.00     0.260 C 
BRANCH   3   4
ATOM      4  C2  ZIN A   1      -0.107  -0.217   0.071  0.00  0.00     0.192 C 
BRANCH   4   5
ATOM      5  O1  ZIN A   1      -0.038   1.205   0.190  0.00  0.00    -0.399 OA
ATOM      6  H12 ZIN A   1       0.863   1.553   0.225  0.00  0.00     0.209 HD
ENDBRANCH   4   5
ENDBRANCH   3   4
ENDBRANCH   1   3
BRANCH   1   7
ATOM      7  C6  ZIN A   1      -1.606  -0.709  -2.373  0.00  0.00     0.260 C 
BRANCH   7   8
ATOM      8  C7  ZIN A   1      -2.164  -0.030  -3.626  0.00  0.00     0.192 C 
BRANCH   8   9
ATOM      9  O8  ZIN A   1      -1.781   1.347  -3.632  0.00  0.00    -0.399 OA
ATOM     10  H21 ZIN A   1      -2.163   1.858  -4.358  0.00  0.00     0.209 HD
ENDBRANCH   8   9
ENDBRANCH   7   8
ENDBRANCH   1   7
BRANCH   1  11
ATOM     11  C9  ZIN A   1      -3.648  -0.404  -1.152  0.00  0.00     0.260 C 
BRANCH  11  12
ATOM     12  C10 ZIN A   1      -4.300   0.329   0.023  0.00  0.00     0.192 C 
BRANCH  12  13
ATOM     13  O11 ZIN A   1      -4.211   1.740  -0.187  0.00  0.00    -0.399 OA
ATOM     14  H26 ZIN A   1      -4.605   2.268   0.520  0.00  0.00     0.209 HD
ENDBRANCH  12  13
ENDBRANCH  11  12
ENDBRANCH   1  11
TORSDOF 9
