REMARK  8 active torsions:
REMARK  status: ('A' for Active; 'I' for Inactive)
REMARK    1  A    between atoms: O2_2  and  C3_3 
REMARK    2  A    between atoms: C5_5  and  C6_6 
REMARK    3  A    between atoms: C11_11  and  O12_12 
REMARK    4  A    between atoms: O12_12  and  C13_13 
REMARK    5  A    between atoms: C13_13  and  C14_14 
REMARK    6  A    between atoms: C14_14  and  C15_15 
REMARK    7  A    between atoms: C15_15  and  N16_16 
REMARK    8  A    between atoms: C20_20  and  C21_21 
ROOT
ATOM      1  N16 ZIN A   1      -1.014  -6.982  -2.008  0.00  0.00    -0.071 N 
ATOM      2  H17 ZIN A   1      -1.967  -6.657  -2.064  0.00  0.00     0.279 HD
ATOM      3  C18 ZIN A   1      -1.006  -8.440  -1.834  0.00  0.00     0.235 C 
ATOM      4  C19 ZIN A   1      -1.768  -9.099  -2.986  0.00  0.00     0.038 C 
ATOM      5  C20 ZIN A   1      -1.092  -8.737  -4.312  0.00  0.00     0.044 C 
ATOM      6  C31 ZIN A   1      -1.040  -7.213  -4.447  0.00  0.00     0.038 C 
ATOM      7  C32 ZIN A   1      -0.303  -6.625  -3.241  0.00  0.00     0.235 C 
ENDROOT
BRANCH   1   8
ATOM      8  C15 ZIN A   1      -0.349  -6.351  -0.861  0.00  0.00     0.237 C 
BRANCH   8   9
ATOM      9  C14 ZIN A   1      -0.469  -4.830  -0.976  0.00  0.00     0.054 C 
BRANCH   9  10
ATOM     10  C13 ZIN A   1       0.224  -4.171   0.220  0.00  0.00     0.177 C 
BRANCH  10  11
ATOM     11  O12 ZIN A   1       0.111  -2.751   0.112  0.00  0.00    -0.348 OA
BRANCH  11  12
ATOM     12  C11 ZIN A   1       0.677  -2.012   1.100  0.00  0.00     0.102 A 
ATOM     13  C3  ZIN A   1       0.614  -0.619   1.050  0.00  0.00     0.102 A 
ATOM     14  C4  ZIN A   1       1.188   0.135   2.052  0.00  0.00     0.054 A 
ATOM     15  C5  ZIN A   1       1.839  -0.501   3.116  0.00  0.00     0.012 A 
ATOM     16  C9  ZIN A   1       1.904  -1.899   3.157  0.00  0.00     0.018 A 
ATOM     17  C10 ZIN A   1       1.328  -2.644   2.152  0.00  0.00     0.040 A 
BRANCH  13  18
ATOM     18  O2  ZIN A   1      -0.020  -0.004   0.015  0.00  0.00    -0.353 OA
ATOM     19  C1  ZIN A   1      -0.047   1.425   0.027  0.00  0.00     0.210 C 
ENDBRANCH  13  18
BRANCH  15  20
ATOM     20  C6  ZIN A   1       2.453   0.295   4.187  0.00  0.00     0.155 C 
ATOM     21  C7  ZIN A   1       3.043  -0.390   5.392  0.00  0.00     0.096 C 
ATOM     22  O8  ZIN A   1       2.484   1.505   4.101  0.00  0.00    -0.293 OA
ENDBRANCH  15  20
ENDBRANCH  11  12
ENDBRANCH  10  11
ENDBRANCH   9  10
ENDBRANCH   8   9
ENDBRANCH   1   8
BRANCH   5  23
ATOM     23  C21 ZIN A   1      -1.883  -9.318  -5.456  0.00  0.00     0.079 A 
ATOM     24  C30 ZIN A   1      -1.394 -10.280  -6.447  0.00  0.00     0.027 A 
ATOM     25  C24 ZIN A   1      -2.470 -10.537  -7.314  0.00  0.00     0.116 A 
ATOM     26  C29 ZIN A   1      -0.172 -10.928  -6.643  0.00  0.00     0.019 A 
ATOM     27  O23 ZIN A   1      -3.509  -9.791  -6.888  0.00  0.00    -0.212 OA
ATOM     28  C25 ZIN A   1      -2.302 -11.428  -8.366  0.00  0.00     0.082 A 
ATOM     29  N22 ZIN A   1      -3.119  -9.053  -5.747  0.00  0.00    -0.131 NA
ATOM     30  C26 ZIN A   1      -1.084 -12.054  -8.547  0.00  0.00     0.119 A 
ATOM     31  F27 ZIN A   1      -0.922 -12.919  -9.571  0.00  0.00    -0.206 F 
ATOM     32  C28 ZIN A   1      -0.025 -11.800  -7.684  0.00  0.00     0.043 A 
ENDBRANCH   5  23
TORSDOF 8
