REMARK  8 active torsions:
REMARK  status: ('A' for Active; 'I' for Inactive)
REMARK    1  A    between atoms: C2_2  and  C3_3 
REMARK    2  A    between atoms: C3_3  and  N4_4 
REMARK    3  A    between atoms: C7_7  and  C9_8 
REMARK       I    between atoms: C9_8  and  N11_10 
REMARK    4  A    between atoms: N11_10  and  C12_11 
REMARK       I    between atoms: N11_10  and  C19_18 
REMARK    5  A    between atoms: C12_11  and  C13_12 
REMARK    6  A    between atoms: C13_12  and  C14_13 
REMARK    7  A    between atoms: C14_13  and  N15_14 
REMARK       I    between atoms: C19_18  and  N21_20 
REMARK    8  A    between atoms: N21_20  and  C22_21 
ROOT
ATOM      1  N4  <0> d   1       0.373  -0.242   1.077  0.00  0.00    -0.062 N 
ATOM      2  H5  <0> d   1       0.991   0.549   0.979  0.00  0.00     0.280 HD
ATOM      3  C6  <0> d   1       1.135  -1.482   0.885  0.00  0.00     0.249 C 
ATOM      4  C7  <0> d   1       0.218  -2.685   1.117  0.00  0.00     0.105 C 
ATOM      5  C24 <0> d   1      -0.936  -2.637   0.111  0.00  0.00     0.027 C 
ATOM      6  C25 <0> d   1      -1.680  -1.306   0.261  0.00  0.00     0.051 C 
ATOM      7  C27 <0> d   1      -2.773  -1.228  -0.762  0.00  0.00    -0.039 A 
ATOM      8  C28 <0> d   1      -3.103   0.048  -1.225  0.00  0.00     0.005 A 
ATOM      9  C29 <0> d   1      -2.465   1.298  -0.810  0.00  0.00    -0.028 A 
ATOM     10  C30 <0> d   1      -3.084   2.253  -1.487  0.00  0.00     0.096 A 
ATOM     11  N31 <0> d   1      -4.062   1.707  -2.304  0.00  0.00    -0.365 N 
ATOM     12  C32 <0> d   1      -4.092   0.352  -2.168  0.00  0.00     0.043 A 
ATOM     13  C33 <0> d   1      -4.814  -0.715  -2.702  0.00  0.00     0.030 A 
ATOM     14  C34 <0> d   1      -4.485  -1.984  -2.247  0.00  0.00     0.003 A 
ATOM     15  C35 <0> d   1      -3.493  -2.246  -1.302  0.00  0.00     0.008 A 
ATOM     16  C36 <0> d   1      -1.345   1.237   0.197  0.00  0.00     0.075 C 
ATOM     17  C37 <0> d   1      -0.697  -0.153   0.074  0.00  0.00     0.201 C 
ATOM     18  H67 <0> d   1      -4.644   2.217  -2.889  0.00  0.00     0.165 HD
ENDROOT
BRANCH   4  19
ATOM     19  C9  <0> d   1       1.000  -3.959   0.926  0.00  0.00     0.233 C 
ATOM     20  O10 <0> d   1       1.789  -4.055   0.010  0.00  0.00    -0.272 OA
ATOM     21  N11 <0> d   1       0.824  -4.991   1.775  0.00  0.00    -0.270 N 
ATOM     22  C19 <0> d   1      -0.184  -4.964   2.668  0.00  0.00     0.325 C 
ATOM     23  O20 <0> d   1      -0.113  -5.626   3.685  0.00  0.00    -0.247 OA
ATOM     24  N21 <0> d   1      -1.272  -4.204   2.434  0.00  0.00    -0.343 N 
ATOM     25  H58 <0> d   1      -1.337  -3.689   1.615  0.00  0.00     0.164 HD
BRANCH  21  26
ATOM     26  C12 <0> d   1       1.729  -6.142   1.726  0.00  0.00     0.138 C 
BRANCH  26  27
ATOM     27  C13 <0> d   1       2.911  -5.903   2.668  0.00  0.00     0.048 C 
BRANCH  27  28
ATOM     28  C14 <0> d   1       3.856  -7.105   2.617  0.00  0.00     0.235 C 
BRANCH  28  29
ATOM     29  N15 <0> d   1       4.990  -6.875   3.521  0.00  0.00    -0.079 N 
ATOM     30  H16 <0> d   1       4.646  -6.673   4.448  0.00  0.00     0.278 HD
ATOM     31  C17 <0> d   1       5.834  -8.076   3.563  0.00  0.00     0.269 C 
ATOM     32  C18 <0> d   1       5.782  -5.737   3.034  0.00  0.00     0.269 C 
ENDBRANCH  28  29
ENDBRANCH  27  28
ENDBRANCH  26  27
ENDBRANCH  21  26
BRANCH  24  33
ATOM     33  C22 <0> d   1      -2.357  -4.154   3.418  0.00  0.00     0.120 C 
ATOM     34  C23 <0> d   1      -3.515  -3.325   2.858  0.00  0.00     0.026 C 
ENDBRANCH  24  33
ENDBRANCH   4  19
BRANCH   1  35
ATOM     35  C3  <0> d   1      -0.218  -0.236   2.422  0.00  0.00     0.262 C 
BRANCH  35  36
ATOM     36  C2  <0> d   1       0.881  -0.199   3.453  0.00  0.00    -0.010 C 
ATOM     37  C1  <0> d   1       0.894   0.744   4.362  0.00  0.00     0.008 C 
ENDBRANCH  35  36
ENDBRANCH   1  35
TORSDOF 8
