REMARK  3 active torsions:
REMARK  status: ('A' for Active; 'I' for Inactive)
REMARK    1  A    between atoms: N2_2  and  C4_4 
REMARK    2  A    between atoms: C6_6  and  N7_7 
REMARK    3  A    between atoms: C11_11  and  N12_12 
ROOT
ATOM      1  C4  ZIN A   1      -1.184  -0.710   0.009  0.00  0.00     0.755 A 
ATOM      2  N5  ZIN A   1      -1.165  -2.040   0.008  0.00  0.00     0.131 NA
ATOM      3  C6  ZIN A   1      -2.308  -2.720   0.015  0.00  0.00     0.755 A 
ATOM      4  N10 ZIN A   1      -3.468  -2.071   0.025  0.00  0.00     0.131 NA
ATOM      5  C11 ZIN A   1      -3.486  -0.742   0.026  0.00  0.00     0.755 A 
ATOM      6  N15 ZIN A   1      -2.344  -0.061   0.024  0.00  0.00     0.131 NA
ENDROOT
BRANCH   1   7
ATOM      7  N2  ZIN A   1       0.002  -0.004   0.002  0.00  0.00    -0.222 N 
ATOM      8  C1  ZIN A   1      -0.018   1.461   0.010  0.00  0.00     0.168 C 
ATOM      9  C3  ZIN A   1       1.281  -0.719  -0.014  0.00  0.00     0.168 C 
ENDBRANCH   1   7
BRANCH   5  10
ATOM     10  N12 ZIN A   1      -4.690  -0.068   0.036  0.00  0.00    -0.222 N 
ATOM     11  C13 ZIN A   1      -5.949  -0.818   0.045  0.00  0.00     0.168 C 
ATOM     12  C14 ZIN A   1      -4.710   1.397   0.038  0.00  0.00     0.168 C 
ENDBRANCH   5  10
BRANCH   3  13
ATOM     13  N7  ZIN A   1      -2.289  -4.100   0.013  0.00  0.00    -0.222 N 
ATOM     14  C8  ZIN A   1      -1.010  -4.815   0.003  0.00  0.00     0.168 C 
ATOM     15  C9  ZIN A   1      -3.547  -4.849   0.021  0.00  0.00     0.168 C 
ENDBRANCH   3  13
TORSDOF 3
