REMARK  12 active torsions:
REMARK  status: ('A' for Active; 'I' for Inactive)
REMARK    1  A    between atoms: C2_2  and  C3_3 
REMARK    2  A    between atoms: C15_15  and  O16_16 
REMARK    3  A    between atoms: C18_18  and  C19_19 
REMARK    4  A    between atoms: C19_19  and  C20_20 
REMARK    5  A    between atoms: C20_20  and  O22_22 
REMARK    6  A    between atoms: C31_30  and  O32_31 
REMARK    7  A    between atoms: C31_30  and  C33_32 
REMARK    8  A    between atoms: C52_50  and  O53_51 
REMARK    9  A    between atoms: C52_50  and  C54_52 
REMARK   10  A    between atoms: C54_52  and  O56_54 
REMARK   11  A    between atoms: C58_56  and  O60_57 
REMARK   12  A    between atoms: O60_57  and  C61_58 
ROOT
ATOM      1  C3  ZIN A   1       0.051  -0.921   0.963  0.00  0.00     0.037 C 
ATOM      2  C4  ZIN A   1      -0.622  -0.551   2.259  0.00  0.00    -0.015 C 
ATOM      3  C5  ZIN A   1      -0.799  -1.400   3.229  0.00  0.00    -0.003 C 
ATOM      4  C6  ZIN A   1      -0.344  -2.834   3.162  0.00  0.00     0.262 C 
ATOM      5  N7  ZIN A   1       0.713  -2.953   2.158  0.00  0.00    -0.061 N 
ATOM      6  H8  ZIN A   1       1.540  -2.452   2.445  0.00  0.00     0.280 HD
ATOM      7  C9  ZIN A   1       1.032  -4.365   1.849  0.00  0.00     0.237 C 
ATOM      8  C10 ZIN A   1       1.644  -4.314   0.426  0.00  0.00     0.046 C 
ATOM      9  C11 ZIN A   1       1.104  -2.995  -0.185  0.00  0.00     0.040 C 
ATOM     10  C12 ZIN A   1       0.410  -3.279  -1.482  0.00  0.00    -0.024 A 
ATOM     11  C13 ZIN A   1       1.294  -2.941  -2.518  0.00  0.00     0.020 A 
ATOM     12  C14 ZIN A   1       0.911  -3.095  -3.851  0.00  0.00     0.061 A 
ATOM     13  C15 ZIN A   1      -0.364  -3.594  -4.094  0.00  0.00     0.077 A 
ATOM     14  C18 ZIN A   1      -1.225  -3.927  -3.062  0.00  0.00     0.000 A 
ATOM     15  C47 ZIN A   1      -0.854  -3.775  -1.732  0.00  0.00     0.021 A 
ATOM     16  N48 ZIN A   1       2.503  -2.482  -2.011  0.00  0.00    -0.278 NA
ATOM     17  C49 ZIN A   1       2.992  -1.329  -2.780  0.00  0.00     0.117 C 
ATOM     18  C50 ZIN A   1       2.288  -2.119  -0.586  0.00  0.00     0.125 C 
ATOM     19  C52 ZIN A   1       2.040  -0.629  -0.481  0.00  0.00     0.190 C 
ATOM     20  C58 ZIN A   1       1.434  -0.276   0.891  0.00  0.00     0.192 C 
ATOM     21  C64 ZIN A   1       0.167  -2.423   0.886  0.00  0.00     0.218 C 
ENDROOT
BRANCH  14  22
ATOM     22  C19 ZIN A   1      -2.609  -4.472  -3.393  0.00  0.00     0.121 C 
ATOM     23  C39 ZIN A   1      -3.297  -3.517  -4.347  0.00  0.00     0.040 A 
ATOM     24  C38 ZIN A   1      -4.255  -3.699  -5.279  0.00  0.00    -0.020 A 
ATOM     25  N40 ZIN A   1      -2.956  -2.169  -4.328  0.00  0.00    -0.357 N 
ATOM     26  C37 ZIN A   1      -5.039  -4.932  -5.689  0.00  0.00     0.069 C 
ATOM     27  C46 ZIN A   1      -4.463  -2.412  -5.944  0.00  0.00    -0.001 A 
ATOM     28  C36 ZIN A   1      -6.532  -4.755  -5.221  0.00  0.00     0.239 C 
ATOM     29  N28 ZIN A   1      -6.392  -4.061  -3.937  0.00  0.00    -0.068 N 
ATOM     30  C27 ZIN A   1      -5.547  -5.007  -3.134  0.00  0.00     0.239 C 
ATOM     31  H29 ZIN A   1      -5.914  -3.180  -4.081  0.00  0.00     0.280 HD
ATOM     32  C30 ZIN A   1      -7.521  -3.829  -3.059  0.00  0.00     0.272 C 
ATOM     33  C25 ZIN A   1      -4.750  -3.894  -2.379  0.00  0.00     0.016 C 
ATOM     34  C24 ZIN A   1      -3.422  -4.573  -2.055  0.00  0.00     0.037 C 
ATOM     35  C35 ZIN A   1      -5.691  -3.562  -1.230  0.00  0.00     0.045 C 
ATOM     36  C31 ZIN A   1      -7.060  -3.127  -1.773  0.00  0.00     0.082 C 
ATOM     37  C41 ZIN A   1      -3.612  -1.487  -5.302  0.00  0.00     0.043 A 
ATOM     38  C45 ZIN A   1      -5.295  -2.031  -7.000  0.00  0.00     0.014 A 
ATOM     39  C42 ZIN A   1      -3.568  -0.156  -5.716  0.00  0.00     0.030 A 
ATOM     40  C43 ZIN A   1      -4.397   0.197  -6.767  0.00  0.00     0.002 A 
ATOM     41  C44 ZIN A   1      -5.236  -0.714  -7.387  0.00  0.00     0.001 A 
ATOM     42 4H10 ZIN A   1      -2.352  -1.749  -3.697  0.00  0.00     0.166 HD
BRANCH  36  43
ATOM     43  O32 ZIN A   1      -8.041  -3.388  -0.756  0.00  0.00    -0.388 OA
ATOM     44  H92 ZIN A   1      -8.928  -3.068  -0.973  0.00  0.00     0.210 HD
ENDBRANCH  36  43
BRANCH  36  45
ATOM     45  C33 ZIN A   1      -7.040  -1.614  -2.019  0.00  0.00     0.035 C 
ATOM     46  C34 ZIN A   1      -8.457  -1.129  -2.331  0.00  0.00     0.008 C 
ENDBRANCH  36  45
BRANCH  22  47
ATOM     47  C20 ZIN A   1      -2.407  -5.832  -4.009  0.00  0.00     0.278 C 
ATOM     48  O21 ZIN A   1      -2.890  -6.809  -3.489  0.00  0.00    -0.264 OA
BRANCH  47  49
ATOM     49  O22 ZIN A   1      -1.689  -5.958  -5.137  0.00  0.00    -0.325 OA
ATOM     50  C23 ZIN A   1      -1.536  -7.298  -5.674  0.00  0.00     0.213 C 
ENDBRANCH  47  49
ENDBRANCH  22  47
ENDBRANCH  14  22
BRANCH  13  51
ATOM     51  O16 ZIN A   1      -0.775  -3.759  -5.379  0.00  0.00    -0.355 OA
ATOM     52  C17 ZIN A   1       0.150  -3.401  -6.407  0.00  0.00     0.210 C 
ENDBRANCH  13  51
BRANCH  19  53
ATOM     53  O53 ZIN A   1       3.284   0.061  -0.619  0.00  0.00    -0.376 OA
ATOM     54 3H11 ZIN A   1       3.208   1.024  -0.563  0.00  0.00     0.211 HD
ENDBRANCH  19  53
BRANCH  19  55
ATOM     55  C54 ZIN A   1       1.116  -0.205  -1.593  0.00  0.00     0.297 C 
ATOM     56  O55 ZIN A   1       0.556  -1.038  -2.265  0.00  0.00    -0.262 OA
BRANCH  55  57
ATOM     57  O56 ZIN A   1       0.915   1.100  -1.837  0.00  0.00    -0.324 OA
ATOM     58  C57 ZIN A   1       0.011   1.436  -2.923  0.00  0.00     0.213 C 
ENDBRANCH  55  57
ENDBRANCH  19  55
BRANCH   1  59
ATOM     59  C2  ZIN A   1      -0.800  -0.421  -0.206  0.00  0.00     0.014 C 
ATOM     60  C1  ZIN A   1      -2.282  -0.604   0.126  0.00  0.00     0.006 C 
ENDBRANCH   1  59
BRANCH  20  61
ATOM     61  O60 ZIN A   1       2.308  -0.752   1.948  0.00  0.00    -0.311 OA
BRANCH  61  62
ATOM     62  C61 ZIN A   1       3.257   0.092   2.381  0.00  0.00     0.255 C 
ATOM     63  C62 ZIN A   1       4.201  -0.333   3.477  0.00  0.00     0.126 C 
ATOM     64  O63 ZIN A   1       3.355   1.193   1.892  0.00  0.00    -0.266 OA
ENDBRANCH  61  62
ENDBRANCH  20  61
TORSDOF 12
