REMARK  8 active torsions:
REMARK  status: ('A' for Active; 'I' for Inactive)
REMARK    1  A    between atoms: C2_2  and  C3_3 
REMARK    2  A    between atoms: C3_3  and  C24_24 
REMARK    3  A    between atoms: C4_4  and  C5_5 
REMARK    4  A    between atoms: C4_4  and  C11_11 
REMARK    5  A    between atoms: C14_14  and  O15_15 
REMARK    6  A    between atoms: O15_15  and  C16_16 
REMARK    7  A    between atoms: C16_16  and  C17_17 
REMARK    8  A    between atoms: C17_17  and  N18_18 
ROOT
ATOM      1  C3  <0> d   1       0.439   0.567  -1.400  0.00  0.00    -0.036 C 
ATOM      2  C4  <0> d   1       1.613  -0.012  -1.043  0.00  0.00    -0.009 C 
ENDROOT
BRANCH   2   3
ATOM      3  C5  <0> d   1       2.007  -0.067   0.383  0.00  0.00    -0.025 A 
ATOM      4  C10 <0> d   1       2.072  -1.293   1.045  0.00  0.00     0.012 A 
ATOM      5  C9  <0> d   1       2.446  -1.338   2.372  0.00  0.00     0.001 A 
ATOM      6  C8  <0> d   1       2.744  -0.169   3.050  0.00  0.00     0.000 A 
ATOM      7  C7  <0> d   1       2.676   1.050   2.400  0.00  0.00     0.001 A 
ATOM      8  C6  <0> d   1       2.310   1.108   1.071  0.00  0.00     0.012 A 
ENDBRANCH   2   3
BRANCH   2   9
ATOM      9  C11 <0> d   1       2.498  -0.588  -2.078  0.00  0.00    -0.024 A 
ATOM     10  C23 <0> d   1       3.758  -0.032  -2.310  0.00  0.00     0.015 A 
ATOM     11  C22 <0> d   1       4.582  -0.575  -3.272  0.00  0.00     0.037 A 
ATOM     12  C14 <0> d   1       4.157  -1.666  -4.018  0.00  0.00     0.068 A 
ATOM     13  C13 <0> d   1       2.903  -2.218  -3.794  0.00  0.00     0.037 A 
ATOM     14  C12 <0> d   1       2.075  -1.685  -2.830  0.00  0.00     0.015 A 
BRANCH  12  15
ATOM     15  O15 <0> d   1       4.970  -2.194  -4.970  0.00  0.00    -0.350 OA
BRANCH  15  16
ATOM     16  C16 <0> d   1       6.247  -1.577  -5.147  0.00  0.00     0.203 C 
BRANCH  16  17
ATOM     17  C17 <0> d   1       7.015  -2.304  -6.253  0.00  0.00     0.260 C 
BRANCH  17  18
ATOM     18  N18 <0> d   1       6.273  -2.196  -7.517  0.00  0.00    -0.077 N 
ATOM     19  H19 <0> d   1       5.327  -2.518  -7.379  0.00  0.00     0.279 HD
ATOM     20  C20 <0> d   1       6.256  -0.795  -7.956  0.00  0.00     0.269 C 
ATOM     21  C21 <0> d   1       6.927  -3.022  -8.540  0.00  0.00     0.269 C 
ENDBRANCH  17  18
ENDBRANCH  16  17
ENDBRANCH  15  16
ENDBRANCH  12  15
ENDBRANCH   2   9
BRANCH   1  22
ATOM     22  C2  <0> d   1      -0.529   1.024  -0.339  0.00  0.00     0.036 C 
ATOM     23  C1  <0> d   1      -1.557  -0.079  -0.078  0.00  0.00     0.010 C 
ENDBRANCH   1  22
BRANCH   1  24
ATOM     24  C24 <0> d   1       0.111   0.747  -2.822  0.00  0.00    -0.029 A 
ATOM     25  C29 <0> d   1      -0.971   0.065  -3.386  0.00  0.00     0.012 A 
ATOM     26  C28 <0> d   1      -1.276   0.244  -4.719  0.00  0.00     0.001 A 
ATOM     27  C27 <0> d   1      -0.506   1.088  -5.501  0.00  0.00     0.000 A 
ATOM     28  C26 <0> d   1       0.570   1.762  -4.951  0.00  0.00     0.001 A 
ATOM     29  C25 <0> d   1       0.884   1.599  -3.619  0.00  0.00     0.012 A 
ENDBRANCH   1  24
TORSDOF 8
