REMARK  9 active torsions:
REMARK  status: ('A' for Active; 'I' for Inactive)
REMARK    1  A    between atoms: C2_2  and  C3_3 
REMARK    2  A    between atoms: C3_3  and  C4_4 
REMARK    3  A    between atoms: C4_4  and  O5_5 
REMARK    4  A    between atoms: O5_5  and  C6_6 
REMARK    5  A    between atoms: C9_9  and  O10_10 
REMARK    6  A    between atoms: O10_10  and  C11_11 
REMARK    7  A    between atoms: C11_11  and  C12_12 
REMARK    8  A    between atoms: C12_12  and  C13_13 
REMARK    9  A    between atoms: C13_13  and  N14_14 
ROOT
ATOM      1  C6  ZIN A   1       1.514  -3.834  -2.603  0.00  0.00     0.068 A 
ATOM      2  C7  ZIN A   1       0.979  -4.691  -1.653  0.00  0.00     0.039 A 
ATOM      3  C8  ZIN A   1       1.087  -6.059  -1.818  0.00  0.00     0.039 A 
ATOM      4  C9  ZIN A   1       1.729  -6.574  -2.935  0.00  0.00     0.068 A 
ATOM      5  C20 ZIN A   1       2.262  -5.717  -3.885  0.00  0.00     0.039 A 
ATOM      6  C21 ZIN A   1       2.151  -4.349  -3.722  0.00  0.00     0.039 A 
ENDROOT
BRANCH   4   7
ATOM      7  O10 ZIN A   1       1.835  -7.920  -3.097  0.00  0.00    -0.351 OA
BRANCH   7   8
ATOM      8  C11 ZIN A   1       2.509  -8.381  -4.270  0.00  0.00     0.177 C 
BRANCH   8   9
ATOM      9  C12 ZIN A   1       2.529  -9.911  -4.278  0.00  0.00     0.057 C 
BRANCH   9  10
ATOM     10  C13 ZIN A   1       3.251 -10.404  -5.534  0.00  0.00     0.274 C 
BRANCH  10  11
ATOM     11  N14 ZIN A   1       3.270 -11.873  -5.543  0.00  0.00     0.092 N 
ATOM     12  C19 ZIN A   1       4.154 -12.382  -6.601  0.00  0.00     0.298 C 
ATOM     13  C18 ZIN A   1       4.098 -13.912  -6.613  0.00  0.00     0.198 C 
ATOM     14  O17 ZIN A   1       4.461 -14.407  -5.321  0.00  0.00    -0.388 OA
ATOM     15  C16 ZIN A   1       3.620 -13.931  -4.266  0.00  0.00     0.198 C 
ATOM     16  C15 ZIN A   1       3.671 -12.402  -4.231  0.00  0.00     0.298 C 
ENDBRANCH  10  11
ENDBRANCH   9  10
ENDBRANCH   8   9
ENDBRANCH   7   8
ENDBRANCH   4   7
BRANCH   1  17
ATOM     17  O5  ZIN A   1       1.408  -2.488  -2.441  0.00  0.00    -0.351 OA
BRANCH  17  18
ATOM     18  C4  ZIN A   1       0.739  -2.027  -1.265  0.00  0.00     0.175 C 
BRANCH  18  19
ATOM     19  C3  ZIN A   1       0.718  -0.497  -1.257  0.00  0.00     0.026 C 
BRANCH  19  20
ATOM     20  C2  ZIN A   1       0.002  -0.004   0.002  0.00  0.00    -0.002 C 
ATOM     21  C1  ZIN A   1      -0.019   1.526   0.010  0.00  0.00     0.005 C 
ENDBRANCH  19  20
ENDBRANCH  18  19
ENDBRANCH  17  18
ENDBRANCH   1  17
TORSDOF 9
