REMARK  8 active torsions:
REMARK  status: ('A' for Active; 'I' for Inactive)
REMARK    1  A    between atoms: C2_2  and  C4_4 
REMARK    2  A    between atoms: C4_4  and  O5_5 
REMARK    3  A    between atoms: C8_8  and  O9_9 
REMARK    4  A    between atoms: C22_22  and  O23_23 
REMARK    5  A    between atoms: C25_25  and  O27_26 
REMARK    6  A    between atoms: O27_26  and  C28_27 
REMARK    7  A    between atoms: C31_29  and  N33_30 
REMARK    8  A    between atoms: C37_34  and  O39_35 
ROOT
ATOM      1  C4  RES d   1      -1.465  -0.667   0.173  0.00  0.00     0.124 C 
ATOM      2  C6  RES d   1      -1.858  -1.099   1.584  0.00  0.00     0.088 C 
ATOM      3  C7  RES d   1      -0.929  -2.173   2.090  0.00  0.00    -0.009 A 
ATOM      4  C8  RES d   1      -0.907  -2.406   3.473  0.00  0.00     0.088 A 
ATOM      5  C10 RES d   1      -0.078  -3.387   4.010  0.00  0.00     0.066 A 
ATOM      6  C11 RES d   1       0.741  -4.149   3.151  0.00  0.00     0.066 A 
ATOM      7  C12 RES d   1       1.617  -5.193   3.713  0.00  0.00     0.197 C 
ATOM      8  O13 RES d   1       2.501  -5.684   3.038  0.00  0.00    -0.286 OA
ATOM      9  C14 RES d   1       1.405  -5.638   5.108  0.00  0.00     0.029 A 
ATOM     10  C15 RES d   1       2.005  -6.801   5.579  0.00  0.00     0.016 A 
ATOM     11  C16 RES d   1       1.796  -7.201   6.888  0.00  0.00     0.001 A 
ATOM     12  C17 RES d   1       0.995  -6.453   7.730  0.00  0.00     0.001 A 
ATOM     13  C18 RES d   1       0.390  -5.293   7.277  0.00  0.00     0.016 A 
ATOM     14  C19 RES d   1       0.590  -4.876   5.965  0.00  0.00     0.029 A 
ATOM     15  C20 RES d   1      -0.049  -3.640   5.462  0.00  0.00     0.197 C 
ATOM     16  O21 RES d   1      -0.544  -2.844   6.236  0.00  0.00    -0.286 OA
ATOM     17  C22 RES d   1       0.711  -3.903   1.780  0.00  0.00     0.090 A 
ATOM     18  C24 RES d   1      -0.128  -2.910   1.255  0.00  0.00     0.014 A 
ATOM     19  C25 RES d   1      -0.096  -2.695  -0.236  0.00  0.00     0.164 C 
ATOM     20  C44 RES d   1      -1.330  -1.923  -0.696  0.00  0.00     0.083 C 
ENDROOT
BRANCH  19  21
ATOM     21  O27 RES d   1      -0.062  -3.963  -0.894  0.00  0.00    -0.351 OA
BRANCH  21  22
ATOM     22  C28 RES d   1       0.715  -3.975  -2.094  0.00  0.00     0.263 C 
ATOM     23  O43 RES d   1       0.010  -3.281  -3.124  0.00  0.00    -0.354 OA
ATOM     24  C40 RES d   1      -1.275  -3.829  -3.424  0.00  0.00     0.151 C 
ATOM     25  C37 RES d   1      -1.112  -5.271  -3.914  0.00  0.00     0.177 C 
ATOM     26  C42 RES d   1      -1.946  -2.993  -4.516  0.00  0.00     0.042 C 
ATOM     27  C31 RES d   1      -0.387  -6.087  -2.840  0.00  0.00     0.219 C 
ATOM     28  C30 RES d   1       0.958  -5.423  -2.530  0.00  0.00     0.096 C 
BRANCH  25  29
ATOM     29  O39 RES d   1      -0.347  -5.282  -5.120  0.00  0.00    -0.391 OA
ATOM     30  H59 RES d   1      -0.748  -4.783  -5.845  0.00  0.00     0.210 HD
ENDBRANCH  25  29
BRANCH  27  31
ATOM     31  N33 RES d   1      -0.158  -7.453  -3.329  0.00  0.00    -0.072 N 
ATOM     32  H34 RES d   1       0.325  -7.987  -2.623  0.00  0.00     0.274 HD
ATOM     33  H35 RES d   1      -1.045  -7.890  -3.533  0.00  0.00     0.274 HD
ATOM     34  H36 RES d   1       0.401  -7.421  -4.168  0.00  0.00     0.274 HD
ENDBRANCH  27  31
ENDBRANCH  21  22
ENDBRANCH  19  21
BRANCH  17  35
ATOM     35  O23 RES d   1       1.497  -4.630   0.948  0.00  0.00    -0.359 OA
ATOM     36  H56 RES d   1       1.057  -5.402   0.567  0.00  0.00     0.217 HD
ENDBRANCH  17  35
BRANCH   1  37
ATOM     37  C2  RES d   1      -0.149   0.065   0.214  0.00  0.00     0.157 C 
ATOM     38  C1  RES d   1       0.213   1.026  -0.889  0.00  0.00     0.094 C 
ATOM     39  O3  RES d   1       0.615  -0.117   1.131  0.00  0.00    -0.295 OA
ENDBRANCH   1  37
BRANCH   1  40
ATOM     40  O5  RES d   1      -2.475   0.186  -0.368  0.00  0.00    -0.382 OA
ATOM     41  H48 RES d   1      -2.618   0.997   0.139  0.00  0.00     0.211 HD
ENDBRANCH   1  40
BRANCH   4  42
ATOM     42  O9  RES d   1      -1.699  -1.670   4.292  0.00  0.00    -0.359 OA
ATOM     43  H51 RES d   1      -2.575  -2.052   4.440  0.00  0.00     0.217 HD
ENDBRANCH   4  42
TORSDOF 8
