REMARK  2 active torsions:
REMARK  status: ('A' for Active; 'I' for Inactive)
REMARK    1  A    between atoms: C8_8  and  N9_9 
REMARK       I    between atoms: N9_9  and  C10_10 
REMARK    2  A    between atoms: C10_10  and  C12_12 
ROOT
ATOM      1  N9  <0> d   1       0.017  -1.206   2.693  0.00  0.00    -0.324 N 
ATOM      2  C10 <0> d   1       0.106   0.138   2.642  0.00  0.00     0.255 C 
ATOM      3  O11 <0> d   1       0.291   0.694   1.580  0.00  0.00    -0.271 OA
ATOM      4  H29 <0> d   1      -0.050  -1.655   3.550  0.00  0.00     0.169 HD
ENDROOT
BRANCH   1   5
ATOM      5  C8  <0> d   1       0.022  -1.953   1.510  0.00  0.00     0.046 A 
ATOM      6  C2  <0> d   1      -0.998  -2.861   1.256  0.00  0.00    -0.035 A 
ATOM      7  C1  <0> d   1      -2.114  -3.040   2.253  0.00  0.00     0.050 C 
ATOM      8  C3  <0> d   1      -0.990  -3.596   0.087  0.00  0.00     0.009 A 
ATOM      9  C4  <0> d   1       0.034  -3.433  -0.828  0.00  0.00     0.001 A 
ATOM     10  C5  <0> d   1       1.054  -2.534  -0.575  0.00  0.00     0.009 A 
ATOM     11  C6  <0> d   1       1.052  -1.795   0.592  0.00  0.00    -0.035 A 
ATOM     12  C7  <0> d   1       2.163  -0.815   0.866  0.00  0.00     0.050 C 
ENDBRANCH   1   5
BRANCH   2  13
ATOM     13  C12 <0> d   1      -0.023   0.950   3.905  0.00  0.00     0.314 C 
ATOM     14  N18 <0> d   1      -0.603   2.261   3.586  0.00  0.00     0.098 N 
ATOM     15  C17 <0> d   1      -0.785   3.070   4.798  0.00  0.00     0.273 C 
ATOM     16  C19 <0> d   1      -1.870   2.112   2.857  0.00  0.00     0.310 C 
ATOM     17  C16 <0> d   1       0.575   3.325   5.451  0.00  0.00     0.030 C 
ATOM     18  C15 <0> d   1       1.226   1.985   5.803  0.00  0.00     0.004 C 
ATOM     19  C14 <0> d   1       1.360   1.142   4.532  0.00  0.00     0.046 C 
ENDBRANCH   2  13
TORSDOF 2
