REMARK  2 active torsions:
REMARK  status: ('A' for Active; 'I' for Inactive)
REMARK    1  A    between atoms: C6_6  and  C7_7 
REMARK    2  A    between atoms: C6_6  and  C13_13 
ROOT
ATOM      1  O1  ZIN A   1      -0.466   0.131   0.286  0.00  0.00    -0.247 OA
ATOM      2  C2  ZIN A   1      -0.310   1.334   0.212  0.00  0.00     0.324 A 
ATOM      3  N3  ZIN A   1      -1.311   2.219   0.280  0.00  0.00    -0.277 N 
ATOM      4  C4  ZIN A   1      -0.863   3.485   0.170  0.00  0.00     0.263 A 
ATOM      5  O5  ZIN A   1      -1.525   4.500   0.195  0.00  0.00    -0.269 OA
ATOM      6  C6  ZIN A   1       0.640   3.376   0.011  0.00  0.00     0.171 A 
ATOM      7  N19 ZIN A   1       0.889   1.925   0.058  0.00  0.00    -0.317 N 
ATOM      8  H20 ZIN A   1      -2.244   1.978   0.393  0.00  0.00     0.173 HD
ATOM      9  H31 ZIN A   1       1.748   1.481  -0.013  0.00  0.00     0.166 HD
ENDROOT
BRANCH   6  10
ATOM     10  C7  ZIN A   1       1.076   3.950  -1.313  0.00  0.00    -0.016 A 
ATOM     11  C12 ZIN A   1       1.911   3.224  -2.140  0.00  0.00     0.010 A 
ATOM     12  C11 ZIN A   1       2.307   3.749  -3.356  0.00  0.00     0.001 A 
ATOM     13  C10 ZIN A   1       1.875   5.005  -3.740  0.00  0.00     0.000 A 
ATOM     14  C9  ZIN A   1       1.044   5.733  -2.910  0.00  0.00     0.001 A 
ATOM     15  C8  ZIN A   1       0.645   5.206  -1.696  0.00  0.00     0.010 A 
ENDBRANCH   6  10
BRANCH   6  16
ATOM     16  C13 ZIN A   1       1.346   4.070   1.147  0.00  0.00    -0.016 A 
ATOM     17  C18 ZIN A   1       2.341   3.414   1.846  0.00  0.00     0.010 A 
ATOM     18  C17 ZIN A   1       2.992   4.053   2.885  0.00  0.00     0.001 A 
ATOM     19  C16 ZIN A   1       2.640   5.344   3.231  0.00  0.00     0.000 A 
ATOM     20  C15 ZIN A   1       1.641   5.999   2.535  0.00  0.00     0.001 A 
ATOM     21  C14 ZIN A   1       0.994   5.362   1.493  0.00  0.00     0.010 A 
ENDBRANCH   6  16
TORSDOF 2
