REMARK  11 active torsions:
REMARK  status: ('A' for Active; 'I' for Inactive)
REMARK    1  A    between atoms: C2_2  and  C3_3 
REMARK    2  A    between atoms: C3_3  and  C5_4 
REMARK    3  A    between atoms: C3_3  and  N7_6 
REMARK    4  A    between atoms: C5_4  and  O6_5 
REMARK    5  A    between atoms: N7_6  and  C8_7 
REMARK    6  A    between atoms: C8_7  and  C9_8 
REMARK    7  A    between atoms: C9_8  and  N10_9 
REMARK    8  A    between atoms: N10_9  and  C13_12 
REMARK    9  A    between atoms: C13_12  and  C15_13 
REMARK   10  A    between atoms: C13_12  and  C17_15 
REMARK   11  A    between atoms: C17_15  and  O18_16 
ROOT
ATOM      1  C9  ZIN A   1      -0.551   0.880  -4.988  0.00  0.00     0.262 C 
ENDROOT
BRANCH   1   2
ATOM      2  C8  ZIN A   1       0.120   0.752  -3.619  0.00  0.00     0.297 C 
BRANCH   2   3
ATOM      3  N7  ZIN A   1      -0.881   0.951  -2.563  0.00  0.00     0.091 N 
ATOM      4  H27 ZIN A   1      -1.649   0.304  -2.666  0.00  0.00     0.316 HD
BRANCH   3   5
ATOM      5  C3  ZIN A   1      -0.271   0.835  -1.232  0.00  0.00     0.243 C 
BRANCH   5   6
ATOM      6  C2  ZIN A   1      -1.104   1.622  -0.218  0.00  0.00     0.033 C 
ATOM      7  C1  ZIN A   1      -1.049   3.112  -0.560  0.00  0.00     0.007 C 
ENDBRANCH   5   6
BRANCH   5   8
ATOM      8  C5  ZIN A   1      -0.223  -0.638  -0.819  0.00  0.00     0.199 C 
BRANCH   8   9
ATOM      9  O6  ZIN A   1      -1.555  -1.134  -0.669  0.00  0.00    -0.399 OA
ATOM     10  H26 ZIN A   1      -1.601  -2.063  -0.407  0.00  0.00     0.209 HD
ENDBRANCH   8   9
ENDBRANCH   5   8
ENDBRANCH   3   5
ENDBRANCH   2   3
ENDBRANCH   1   2
BRANCH   1  11
ATOM     11  N10 ZIN A   1       0.450   0.681  -6.045  0.00  0.00    -0.067 N 
ATOM     12  H11 ZIN A   1       1.216   1.323  -5.908  0.00  0.00     0.277 HD
ATOM     13  H12 ZIN A   1       0.795  -0.267  -6.008  0.00  0.00     0.277 HD
BRANCH  11  14
ATOM     14  C13 ZIN A   1      -0.166   0.927  -7.356  0.00  0.00     0.209 C 
BRANCH  14  15
ATOM     15  C15 ZIN A   1       0.905   0.852  -8.445  0.00  0.00     0.030 C 
ATOM     16  C16 ZIN A   1       1.908   1.991  -8.253  0.00  0.00     0.007 C 
ENDBRANCH  14  15
BRANCH  14  17
ATOM     17  C17 ZIN A   1      -1.238  -0.132  -7.622  0.00  0.00     0.197 C 
BRANCH  17  18
ATOM     18  O18 ZIN A   1      -0.623  -1.417  -7.728  0.00  0.00    -0.399 OA
ATOM     19  H39 ZIN A   1      -1.244  -2.138  -7.897  0.00  0.00     0.209 HD
ENDBRANCH  17  18
ENDBRANCH  14  17
ENDBRANCH  11  14
ENDBRANCH   1  11
TORSDOF 11
