REMARK  0 active torsions:
REMARK  status: ('A' for Active; 'I' for Inactive)
ROOT
ATOM      1  C1  ZIN A   1      -0.018   1.465   0.010  0.00  0.00     0.309 C 
ATOM      2  N2  ZIN A   1       0.002  -0.004   0.002  0.00  0.00     0.084 N 
ATOM      3  C3  ZIN A   1      -1.358  -0.548  -0.100  0.00  0.00     0.276 C 
ATOM      4  C4  ZIN A   1      -1.284  -2.059  -0.350  0.00  0.00     0.065 C 
ATOM      5  C5  ZIN A   1      -0.423  -2.677   0.731  0.00  0.00    -0.065 C 
ATOM      6  C6  ZIN A   1      -0.835  -3.756   1.413  0.00  0.00    -0.011 C 
ATOM      7  C7  ZIN A   1      -2.156  -4.406   1.139  0.00  0.00    -0.004 A 
ATOM      8  C8  ZIN A   1      -3.086  -4.678   2.144  0.00  0.00     0.062 A 
ATOM      9  S9  ZIN A   1      -4.500  -5.430   1.412  0.00  0.00    -0.098 SA
ATOM     10  C10 ZIN A   1      -3.809  -5.357  -0.143  0.00  0.00     0.051 A 
ATOM     11  C11 ZIN A   1      -2.599  -4.803  -0.113  0.00  0.00     0.021 A 
ATOM     12  C12 ZIN A   1      -2.940  -4.414   3.521  0.00  0.00     0.171 C 
ATOM     13  O13 ZIN A   1      -3.776  -4.838   4.293  0.00  0.00    -0.291 OA
ATOM     14  C14 ZIN A   1      -1.783  -3.624   4.065  0.00  0.00     0.123 C 
ATOM     15  C15 ZIN A   1      -0.486  -4.344   3.793  0.00  0.00    -0.040 A 
ATOM     16  C16 ZIN A   1       0.220  -4.963   4.798  0.00  0.00     0.008 A 
ATOM     17  C17 ZIN A   1       1.418  -5.594   4.508  0.00  0.00     0.001 A 
ATOM     18  C18 ZIN A   1       1.911  -5.604   3.216  0.00  0.00     0.001 A 
ATOM     19  C19 ZIN A   1       1.204  -4.993   2.197  0.00  0.00     0.013 A 
ATOM     20  C20 ZIN A   1      -0.001  -4.376   2.478  0.00  0.00    -0.018 A 
ATOM     21  C21 ZIN A   1       0.919  -2.037   1.016  0.00  0.00     0.065 C 
ATOM     22  C22 ZIN A   1       0.706  -0.527   1.180  0.00  0.00     0.276 C 
ENDROOT
TORSDOF 0
