REMARK  11 active torsions:
REMARK  status: ('A' for Active; 'I' for Inactive)
REMARK    1  A    between atoms: O2_2  and  C3_3 
REMARK    2  A    between atoms: C6_6  and  C7_7 
REMARK    3  A    between atoms: C7_7  and  C8_8 
REMARK    4  A    between atoms: C8_8  and  N11_10 
REMARK    5  A    between atoms: N11_10  and  C14_13 
REMARK    6  A    between atoms: C14_13  and  C15_14 
REMARK    7  A    between atoms: C15_14  and  O17_15 
REMARK    8  A    between atoms: C15_14  and  C18_16 
REMARK    9  A    between atoms: C21_19  and  O22_20 
REMARK   10  A    between atoms: C23_21  and  N24_22 
REMARK   11  A    between atoms: N24_22  and  C25_23 
ROOT
ATOM      1  C14 ZIN A   1       6.038  -1.599  -3.518  0.00  0.00     0.269 C 
ENDROOT
BRANCH   1   2
ATOM      2  N11 ZIN A   1       4.648  -1.389  -3.943  0.00  0.00    -0.068 N 
ATOM      3  H12 ZIN A   1       4.637  -0.911  -4.832  0.00  0.00     0.277 HD
ATOM      4  H13 ZIN A   1       4.166  -0.829  -3.256  0.00  0.00     0.277 HD
BRANCH   2   5
ATOM      5  C8  ZIN A   1       3.974  -2.687  -4.077  0.00  0.00     0.186 C 
ATOM      6  C10 ZIN A   1       4.627  -3.487  -5.206  0.00  0.00     0.040 C 
BRANCH   5   7
ATOM      7  C7  ZIN A   1       2.495  -2.464  -4.398  0.00  0.00     0.071 C 
BRANCH   7   8
ATOM      8  C6  ZIN A   1       1.824  -1.784  -3.232  0.00  0.00    -0.056 A 
ATOM      9  C5  ZIN A   1       1.781  -0.404  -3.170  0.00  0.00     0.010 A 
ATOM     10  C4  ZIN A   1       1.167   0.221  -2.102  0.00  0.00     0.037 A 
ATOM     11  C3  ZIN A   1       0.593  -0.537  -1.092  0.00  0.00     0.068 A 
ATOM     12  C29 ZIN A   1       0.642  -1.922  -1.155  0.00  0.00     0.037 A 
ATOM     13  C28 ZIN A   1       1.254  -2.543  -2.227  0.00  0.00     0.010 A 
BRANCH  11  14
ATOM     14  O2  ZIN A   1      -0.012   0.076  -0.041  0.00  0.00    -0.356 OA
ATOM     15  C1  ZIN A   1      -0.026   1.504  -0.043  0.00  0.00     0.210 C 
ENDBRANCH  11  14
ENDBRANCH   7   8
ENDBRANCH   5   7
ENDBRANCH   2   5
ENDBRANCH   1   2
BRANCH   1  16
ATOM     16  C15 ZIN A   1       6.739  -0.247  -3.379  0.00  0.00     0.176 C 
BRANCH  16  17
ATOM     17  O17 ZIN A   1       6.130   0.500  -2.324  0.00  0.00    -0.389 OA
ATOM     18  H42 ZIN A   1       6.172   0.067  -1.460  0.00  0.00     0.210 HD
ENDBRANCH  16  17
BRANCH  16  19
ATOM     19  C18 ZIN A   1       8.196  -0.467  -3.062  0.00  0.00    -0.026 A 
ATOM     20  C27 ZIN A   1       9.142  -0.373  -4.066  0.00  0.00     0.042 A 
ATOM     21  C23 ZIN A   1      10.483  -0.569  -3.775  0.00  0.00     0.068 A 
ATOM     22  C21 ZIN A   1      10.873  -0.873  -2.472  0.00  0.00     0.092 A 
ATOM     23  C20 ZIN A   1       9.918  -0.971  -1.473  0.00  0.00     0.039 A 
ATOM     24  C19 ZIN A   1       8.583  -0.768  -1.770  0.00  0.00     0.012 A 
BRANCH  21  25
ATOM     25  N24 ZIN A   1      11.445  -0.469  -4.790  0.00  0.00    -0.332 N 
ATOM     26  H46 ZIN A   1      12.324  -0.111  -4.591  0.00  0.00     0.168 HD
BRANCH  25  27
ATOM     27  C25 ZIN A   1      11.147  -0.871  -6.041  0.00  0.00     0.353 C 
ATOM     28  O26 ZIN A   1      10.024  -1.244  -6.308  0.00  0.00    -0.283 OA
ENDBRANCH  25  27
ENDBRANCH  21  25
BRANCH  22  29
ATOM     29  O22 ZIN A   1      12.186  -1.072  -2.181  0.00  0.00    -0.358 OA
ATOM     30  H45 ZIN A   1      12.473  -1.991  -2.271  0.00  0.00     0.217 HD
ENDBRANCH  22  29
ENDBRANCH  16  19
ENDBRANCH   1  16
TORSDOF 11
