REMARK  7 active torsions:
REMARK  status: ('A' for Active; 'I' for Inactive)
REMARK    1  A    between atoms: C2_2  and  C4_3 
REMARK    2  A    between atoms: C2_2  and  O15_14 
REMARK    3  A    between atoms: C4_3  and  N5_4 
REMARK    4  A    between atoms: C9_8  and  N10_9 
REMARK    5  A    between atoms: O15_14  and  C16_15 
REMARK    6  A    between atoms: C16_15  and  P17_16 
REMARK    7  A    between atoms: P17_16  and  O20_19 
ROOT
ATOM      1  N5  ZIN A   1       0.379  -2.291  -1.369  0.00  0.00    -0.322 N 
ATOM      2  C6  ZIN A   1       1.539  -2.938  -1.061  0.00  0.00     0.212 A 
ATOM      3  N7  ZIN A   1       1.316  -4.214  -0.938  0.00  0.00    -0.236 NA
ATOM      4  C8  ZIN A   1       0.004  -4.467  -1.159  0.00  0.00     0.149 A 
ATOM      5  C9  ZIN A   1      -0.793  -5.624  -1.163  0.00  0.00     0.155 A 
ATOM      6  N11 ZIN A   1      -2.089  -5.500  -1.431  0.00  0.00    -0.222 NA
ATOM      7  C12 ZIN A   1      -2.624  -4.321  -1.688  0.00  0.00     0.237 A 
ATOM      8  N13 ZIN A   1      -1.917  -3.210  -1.695  0.00  0.00    -0.222 NA
ATOM      9  C14 ZIN A   1      -0.614  -3.235  -1.433  0.00  0.00     0.165 A 
ENDROOT
BRANCH   1  10
ATOM     10  C4  ZIN A   1       0.222  -0.851  -1.587  0.00  0.00     0.163 C 
BRANCH  10  11
ATOM     11  C2  ZIN A   1      -0.219  -0.183  -0.283  0.00  0.00     0.136 C 
ATOM     12  C1  ZIN A   1      -0.263   1.334  -0.477  0.00  0.00     0.041 C 
BRANCH  11  13
ATOM     13  O15 ZIN A   1      -1.519  -0.655   0.078  0.00  0.00    -0.372 OA
BRANCH  13  14
ATOM     14  C16 ZIN A   1      -1.788  -0.599   1.480  0.00  0.00     0.303 C 
BRANCH  14  15
ATOM     15  P17 ZIN A   1      -0.897  -1.947   2.324  0.00  0.00     0.271 P 
ATOM     16  O18 ZIN A   1       0.625  -1.712   2.204  0.00  0.00    -0.645 OA
ATOM     17  O19 ZIN A   1      -1.264  -3.297   1.668  0.00  0.00    -0.645 OA
BRANCH  15  18
ATOM     18  O20 ZIN A   1      -1.315  -1.975   3.879  0.00  0.00    -0.321 OA
ATOM     19  H32 ZIN A   1      -0.878  -2.670   4.391  0.00  0.00     0.221 HD
ENDBRANCH  15  18
ENDBRANCH  14  15
ENDBRANCH  13  14
ENDBRANCH  11  13
ENDBRANCH  10  11
ENDBRANCH   1  10
BRANCH   5  20
ATOM     20  N10 ZIN A   1      -0.241  -6.865  -0.895  0.00  0.00    -0.382 N 
ATOM     21  H27 ZIN A   1       0.706  -6.942  -0.701  0.00  0.00     0.157 HD
ATOM     22  H28 ZIN A   1      -0.801  -7.656  -0.900  0.00  0.00     0.157 HD
ENDBRANCH   5  20
TORSDOF 7
