REMARK  20 active torsions:
REMARK  status: ('A' for Active; 'I' for Inactive)
REMARK    1  A    between atoms: C2_2  and  C4_4 
REMARK    2  A    between atoms: C4_4  and  N5_5 
REMARK    3  A    between atoms: N5_5  and  C6_6 
REMARK    4  A    between atoms: N5_5  and  C18_18 
REMARK    5  A    between atoms: C6_6  and  C7_7 
REMARK    6  A    between atoms: C7_7  and  N8_8 
REMARK    7  A    between atoms: N8_8  and  C10_10 
REMARK    8  A    between atoms: N8_8  and  C14_14 
REMARK    9  A    between atoms: C10_10  and  C11_11 
REMARK   10  A    between atoms: C14_14  and  C15_15 
REMARK   11  A    between atoms: C18_18  and  C19_19 
REMARK   12  A    between atoms: C19_19  and  N20_20 
REMARK   13  A    between atoms: N20_20  and  C22_22 
REMARK   14  A    between atoms: N20_20  and  C26_26 
REMARK   15  A    between atoms: C22_22  and  C23_23 
REMARK   16  A    between atoms: C26_26  and  C28_27 
REMARK   17  A    between atoms: C26_26  and  C37_36 
REMARK   18  A    between atoms: C28_27  and  O29_28 
REMARK   19  A    between atoms: O29_28  and  C30_29 
REMARK   20  A    between atoms: C30_29  and  C31_30 
ROOT
ATOM      1  C19 ZIN A   1       0.070  -0.724   0.687  0.00  0.00     0.267 C 
ENDROOT
BRANCH   1   2
ATOM      2  C18 ZIN A   1      -0.944   0.421   0.721  0.00  0.00     0.300 C 
BRANCH   2   3
ATOM      3  N5  ZIN A   1      -0.748   1.212   1.944  0.00  0.00     0.101 N 
BRANCH   3   4
ATOM      4  C4  ZIN A   1       0.451   2.053   1.841  0.00  0.00     0.385 C 
BRANCH   4   5
ATOM      5  C2  ZIN A   1       0.262   3.066   0.741  0.00  0.00     0.202 C 
ATOM      6  O1  ZIN A   1      -0.733   3.023   0.037  0.00  0.00    -0.647 OA
ATOM      7  O3  ZIN A   1       1.101   3.931   0.558  0.00  0.00    -0.647 OA
ENDBRANCH   4   5
ENDBRANCH   3   4
BRANCH   3   8
ATOM      8  C6  ZIN A   1      -1.936   2.023   2.241  0.00  0.00     0.300 C 
BRANCH   8   9
ATOM      9  C7  ZIN A   1      -1.800   2.635   3.637  0.00  0.00     0.266 C 
BRANCH   9  10
ATOM     10  N8  ZIN A   1      -2.988   3.446   3.934  0.00  0.00    -0.050 N 
ATOM     11  H9  ZIN A   1      -3.129   4.120   3.196  0.00  0.00     0.281 HD
BRANCH  10  12
ATOM     12  C10 ZIN A   1      -4.165   2.573   4.032  0.00  0.00     0.348 C 
BRANCH  12  13
ATOM     13  C11 ZIN A   1      -3.939   1.544   5.109  0.00  0.00     0.199 C 
ATOM     14  O12 ZIN A   1      -2.925   1.582   5.785  0.00  0.00    -0.647 OA
ATOM     15  O13 ZIN A   1      -4.770   0.673   5.304  0.00  0.00    -0.647 OA
ENDBRANCH  12  13
ENDBRANCH  10  12
BRANCH  10  16
ATOM     16  C14 ZIN A   1      -2.793   4.151   5.208  0.00  0.00     0.348 C 
BRANCH  16  17
ATOM     17  C15 ZIN A   1      -3.942   5.098   5.439  0.00  0.00     0.199 C 
ATOM     18  O16 ZIN A   1      -4.830   5.193   4.609  0.00  0.00    -0.647 OA
ATOM     19  O17 ZIN A   1      -3.983   5.771   6.456  0.00  0.00    -0.647 OA
ENDBRANCH  16  17
ENDBRANCH  10  16
ENDBRANCH   9  10
ENDBRANCH   8   9
ENDBRANCH   3   8
ENDBRANCH   2   3
ENDBRANCH   1   2
BRANCH   1  20
ATOM     20  N20 ZIN A   1      -0.054  -1.451  -0.583  0.00  0.00    -0.044 N 
ATOM     21  H21 ZIN A   1       0.550  -2.259  -0.569  0.00  0.00     0.281 HD
BRANCH  20  22
ATOM     22  C22 ZIN A   1       0.336  -0.569  -1.692  0.00  0.00     0.348 C 
BRANCH  22  23
ATOM     23  C23 ZIN A   1       1.804  -0.248  -1.586  0.00  0.00     0.199 C 
ATOM     24  O24 ZIN A   1       2.488  -0.793  -0.737  0.00  0.00    -0.647 OA
ATOM     25  O25 ZIN A   1       2.309   0.557  -2.350  0.00  0.00    -0.647 OA
ENDBRANCH  22  23
ENDBRANCH  20  22
BRANCH  20  26
ATOM     26  C26 ZIN A   1      -1.446  -1.882  -0.767  0.00  0.00     0.312 C 
BRANCH  26  27
ATOM     27  C28 ZIN A   1      -1.901  -2.673   0.461  0.00  0.00     0.212 C 
BRANCH  27  28
ATOM     28  O29 ZIN A   1      -1.131  -3.872   0.568  0.00  0.00    -0.384 OA
BRANCH  28  29
ATOM     29  C30 ZIN A   1      -1.478  -4.688   1.688  0.00  0.00     0.206 C 
BRANCH  29  30
ATOM     30  C31 ZIN A   1      -0.609  -5.919   1.701  0.00  0.00    -0.035 A 
ATOM     31  C36 ZIN A   1       0.597  -5.907   2.378  0.00  0.00     0.009 A 
ATOM     32  C35 ZIN A   1       1.392  -7.037   2.394  0.00  0.00     0.001 A 
ATOM     33  C34 ZIN A   1       0.987  -8.177   1.725  0.00  0.00     0.000 A 
ATOM     34  C33 ZIN A   1      -0.216  -8.188   1.044  0.00  0.00     0.001 A 
ATOM     35  C32 ZIN A   1      -1.014  -7.059   1.032  0.00  0.00     0.009 A 
ENDBRANCH  29  30
ENDBRANCH  28  29
ENDBRANCH  27  28
ENDBRANCH  26  27
BRANCH  26  36
ATOM     36  C37 ZIN A   1      -1.544  -2.755  -1.991  0.00  0.00     0.207 C 
ATOM     37  O38 ZIN A   1      -0.531  -3.145  -2.545  0.00  0.00    -0.646 OA
ATOM     38  O39 ZIN A   1      -2.638  -3.070  -2.429  0.00  0.00    -0.646 OA
ENDBRANCH  26  36
ENDBRANCH  20  26
ENDBRANCH   1  20
TORSDOF 20
