REMARK  9 active torsions:
REMARK  status: ('A' for Active; 'I' for Inactive)
REMARK       I    between atoms: C4_4  and  N5_5 
REMARK       I    between atoms: C4_4  and  N30_30 
REMARK    1  A    between atoms: N5_5  and  C6_6 
REMARK    2  A    between atoms: C6_6  and  C7_7 
REMARK    3  A    between atoms: C7_7  and  C8_8 
REMARK    4  A    between atoms: C8_8  and  C9_9 
REMARK    5  A    between atoms: C9_9  and  C10_10 
REMARK    6  A    between atoms: C10_10  and  C11_11 
REMARK    7  A    between atoms: C11_11  and  N12_12 
REMARK       I    between atoms: N12_12  and  C13_13 
REMARK       I    between atoms: C13_13  and  N17_17 
REMARK       I    between atoms: N17_17  and  C18_18 
REMARK       I    between atoms: C18_18  and  N22_22 
REMARK    8  A    between atoms: N22_22  and  C23_23 
REMARK       I    between atoms: N30_30  and  C31_31 
REMARK       I    between atoms: C31_31  and  N35_35 
REMARK    9  A    between atoms: N35_35  and  C36_36 
ROOT
ATOM      1  C8  ZIN A   1       0.141   6.087   6.664  0.00  0.00     0.002 C 
ENDROOT
BRANCH   1   2
ATOM      2  C7  ZIN A   1      -0.331   4.661   6.956  0.00  0.00     0.020 C 
BRANCH   2   3
ATOM      3  C6  ZIN A   1       0.825   3.684   6.728  0.00  0.00     0.138 C 
BRANCH   3   4
ATOM      4  N5  ZIN A   1       0.373   2.319   7.008  0.00  0.00    -0.226 N 
ATOM      5  C4  ZIN A   1       1.244   1.265   6.871  0.00  0.00     0.686 C 
ATOM      6  N1  ZIN A   1       2.471   1.480   6.492  0.00  0.00    -0.234 N 
ATOM      7  N30 ZIN A   1       0.818  -0.020   7.135  0.00  0.00    -0.023 N 
ATOM      8  H2  ZIN A   1       3.059   0.731   6.304  0.00  0.00     0.174 HD
ATOM      9  H3  ZIN A   1       2.796   2.388   6.392  0.00  0.00     0.174 HD
ATOM     10  C31 ZIN A   1       1.723  -1.062   7.126  0.00  0.00     0.690 C 
ATOM     11  H63 ZIN A   1      -0.117  -0.192   7.326  0.00  0.00     0.203 HD
ATOM     12  N32 ZIN A   1       2.931  -0.879   7.577  0.00  0.00    -0.234 N 
ATOM     13  N35 ZIN A   1       1.349  -2.294   6.640  0.00  0.00    -0.192 N 
ATOM     14  H33 ZIN A   1       3.589  -1.588   7.503  0.00  0.00     0.174 HD
ATOM     15  H34 ZIN A   1       3.172  -0.034   7.988  0.00  0.00     0.174 HD
ATOM     16  H64 ZIN A   1       1.728  -3.101   7.022  0.00  0.00     0.184 HD
ATOM     17  H43 ZIN A   1      -0.541   2.160   7.291  0.00  0.00     0.177 HD
BRANCH  13  18
ATOM     18  C36 ZIN A   1       0.422  -2.382   5.596  0.00  0.00     0.049 A 
ATOM     19  C42 ZIN A   1      -0.313  -3.547   5.415  0.00  0.00     0.032 A 
ATOM     20  C41 ZIN A   1      -1.231  -3.630   4.386  0.00  0.00     0.026 A 
ATOM     21  C39 ZIN A   1      -1.411  -2.558   3.530  0.00  0.00     0.034 A 
ATOM     22  C38 ZIN A   1      -0.676  -1.398   3.705  0.00  0.00     0.026 A 
ATOM     23 Cl40 ZIN A   1      -2.561  -2.668   2.234  0.00  0.00    -0.084 Cl
ATOM     24  C37 ZIN A   1       0.239  -1.308   4.735  0.00  0.00     0.032 A 
ENDBRANCH  13  18
ENDBRANCH   3   4
ENDBRANCH   2   3
ENDBRANCH   1   2
BRANCH   1  25
ATOM     25  C9  ZIN A   1      -1.014   7.064   6.892  0.00  0.00     0.002 C 
BRANCH  25  26
ATOM     26  C10 ZIN A   1      -0.542   8.489   6.599  0.00  0.00     0.020 C 
BRANCH  26  27
ATOM     27  C11 ZIN A   1      -1.697   9.466   6.828  0.00  0.00     0.138 C 
BRANCH  27  28
ATOM     28  N12 ZIN A   1      -1.245  10.831   6.548  0.00  0.00    -0.226 N 
ATOM     29  C13 ZIN A   1      -2.116  11.886   6.685  0.00  0.00     0.686 C 
ATOM     30  N14 ZIN A   1      -3.344  11.671   7.064  0.00  0.00    -0.234 N 
ATOM     31  N17 ZIN A   1      -1.690  13.171   6.421  0.00  0.00    -0.023 N 
ATOM     32  H15 ZIN A   1      -3.972  12.408   7.114  0.00  0.00     0.174 HD
ATOM     33  H16 ZIN A   1      -3.630  10.774   7.297  0.00  0.00     0.174 HD
ATOM     34  C18 ZIN A   1      -2.532  14.238   6.657  0.00  0.00     0.690 C 
ATOM     35  H57 ZIN A   1      -0.799  13.324   6.071  0.00  0.00     0.203 HD
ATOM     36  N19 ZIN A   1      -3.316  14.233   7.697  0.00  0.00    -0.234 N 
ATOM     37  N22 ZIN A   1      -2.544  15.309   5.792  0.00  0.00    -0.192 N 
ATOM     38  H20 ZIN A   1      -3.906  14.984   7.864  0.00  0.00     0.174 HD
ATOM     39  H21 ZIN A   1      -3.309  13.477   8.305  0.00  0.00     0.174 HD
ATOM     40  H58 ZIN A   1      -3.076  16.093   5.998  0.00  0.00     0.184 HD
ATOM     41  H56 ZIN A   1      -0.331  10.991   6.265  0.00  0.00     0.177 HD
BRANCH  37  42
ATOM     42  C23 ZIN A   1      -1.789  15.265   4.615  0.00  0.00     0.049 A 
ATOM     43  C29 ZIN A   1      -1.121  16.401   4.175  0.00  0.00     0.032 A 
ATOM     44  C28 ZIN A   1      -0.372  16.354   3.015  0.00  0.00     0.026 A 
ATOM     45  C26 ZIN A   1      -0.296  15.181   2.286  0.00  0.00     0.034 A 
ATOM     46  C25 ZIN A   1      -0.965  14.049   2.719  0.00  0.00     0.026 A 
ATOM     47 Cl27 ZIN A   1       0.640  15.127   0.825  0.00  0.00    -0.084 Cl
ATOM     48  C24 ZIN A   1      -1.711  14.089   3.881  0.00  0.00     0.032 A 
ENDBRANCH  37  42
ENDBRANCH  27  28
ENDBRANCH  26  27
ENDBRANCH  25  26
ENDBRANCH   1  25
TORSDOF 9
