REMARK  2 active torsions:
REMARK  status: ('A' for Active; 'I' for Inactive)
REMARK    1  A    between atoms: N2_2  and  C3_3 
REMARK    2  A    between atoms: C3_3  and  C4_4 
ROOT
ATOM      1  C3  ZIN A   1      -1.356  -0.550   0.132  0.00  0.00     0.244 C 
ATOM      2  C11 ZIN A   1      -1.279  -2.074   0.264  0.00  0.00     0.055 C 
ATOM      3  C12 ZIN A   1      -0.574  -2.436   1.572  0.00  0.00     0.004 C 
ATOM      4  C13 ZIN A   1      -1.401  -1.942   2.760  0.00  0.00     0.007 C 
ATOM      5  C14 ZIN A   1      -1.483  -0.412   2.722  0.00  0.00     0.081 C 
ATOM      6  C15 ZIN A   1      -2.019   0.007   1.371  0.00  0.00     0.170 C 
ATOM      7  O16 ZIN A   1      -2.953   0.768   1.285  0.00  0.00    -0.295 OA
ENDROOT
BRANCH   1   8
ATOM      8  N2  ZIN A   1      -0.001   0.004   0.006  0.00  0.00     0.101 N 
ATOM      9  C1  ZIN A   1      -0.025   1.472   0.060  0.00  0.00     0.308 C 
ATOM     10  H20 ZIN A   1       0.445  -0.320  -0.839  0.00  0.00     0.317 HD
ENDBRANCH   1   8
BRANCH   1  11
ATOM     11  C4  ZIN A   1      -2.167  -0.183  -1.085  0.00  0.00     0.009 A 
ATOM     12  C9  ZIN A   1      -3.512  -0.501  -1.141  0.00  0.00     0.043 A 
ATOM     13  C8  ZIN A   1      -4.257  -0.159  -2.255  0.00  0.00     0.024 A 
ATOM     14 Cl10 ZIN A   1      -4.268  -1.316   0.193  0.00  0.00    -0.084 Cl
ATOM     15  C7  ZIN A   1      -3.655   0.490  -3.316  0.00  0.00     0.002 A 
ATOM     16  C6  ZIN A   1      -2.309   0.802  -3.262  0.00  0.00     0.001 A 
ATOM     17  C5  ZIN A   1      -1.565   0.465  -2.147  0.00  0.00     0.012 A 
ENDBRANCH   1  11
TORSDOF 2
