REMARK  6 active torsions:
REMARK  status: ('A' for Active; 'I' for Inactive)
REMARK    1  A    between atoms: N12_12  and  C13_13 
REMARK    2  A    between atoms: C13_13  and  C14_14 
REMARK    3  A    between atoms: C14_14  and  C15_15 
REMARK    4  A    between atoms: C15_15  and  C16_16 
REMARK    5  A    between atoms: C16_16  and  N17_17 
REMARK    6  A    between atoms: N21_21  and  C22_22 
ROOT
ATOM      1  C15 <0> d   1       4.174   0.041   1.345  0.00  0.00     0.029 C 
ENDROOT
BRANCH   1   2
ATOM      2  C14 <0> d   1       2.867   0.835   1.388  0.00  0.00     0.022 C 
BRANCH   2   3
ATOM      3  C13 <0> d   1       2.397   1.121  -0.040  0.00  0.00     0.135 C 
BRANCH   3   4
ATOM      4  N12 <0> d   1       1.145   1.881   0.001  0.00  0.00    -0.288 N 
ATOM      5  C2  <0> d   1      -0.014   1.208   0.009  0.00  0.00     0.227 C 
ATOM      6  O1  <0> d   1       0.002  -0.004   0.002  0.00  0.00    -0.273 OA
ATOM      7  C3  <0> d   1      -1.337   1.929   0.031  0.00  0.00     0.113 C 
ATOM      8  C4  <0> d   1      -1.162   3.280   0.723  0.00  0.00    -0.024 C 
ATOM      9  C8  <0> d   1      -0.825   3.068   2.210  0.00  0.00     0.010 C 
ATOM     10  C5  <0> d   1      -2.472   4.077   0.669  0.00  0.00     0.010 C 
ATOM     11  C9  <0> d   1      -0.040   4.063   0.042  0.00  0.00     0.113 C 
ATOM     12  C7  <0> d   1      -1.572   4.217   2.933  0.00  0.00     0.001 C 
ATOM     13  C6  <0> d   1      -2.894   4.324   2.133  0.00  0.00     0.001 C 
ATOM     14  C10 <0> d   1       1.209   3.221   0.019  0.00  0.00     0.227 C 
ATOM     15  O11 <0> d   1       2.292   3.765   0.022  0.00  0.00    -0.273 OA
ENDBRANCH   3   4
ENDBRANCH   2   3
ENDBRANCH   1   2
BRANCH   1  16
ATOM     16  C16 <0> d   1       4.644  -0.245   2.773  0.00  0.00     0.235 C 
BRANCH  16  17
ATOM     17  N17 <0> d   1       5.899  -1.007   2.731  0.00  0.00    -0.068 N 
ATOM     18  H18 <0> d   1       5.768  -1.839   2.176  0.00  0.00     0.280 HD
ATOM     19  C29 <0> d   1       6.953  -0.181   2.129  0.00  0.00     0.255 C 
ATOM     20  C28 <0> d   1       8.230  -1.013   1.978  0.00  0.00     0.169 C 
ATOM     21  N21 <0> d   1       8.578  -1.573   3.294  0.00  0.00    -0.211 N 
ATOM     22  C20 <0> d   1       7.529  -2.279   4.046  0.00  0.00     0.169 C 
ATOM     23  C19 <0> d   1       6.284  -1.387   4.097  0.00  0.00     0.255 C 
BRANCH  21  24
ATOM     24  C22 <0> d   1       9.855  -1.439   3.809  0.00  0.00     0.724 A 
ATOM     25  N27 <0> d   1      10.774  -0.797   3.102  0.00  0.00    -0.075 NA
ATOM     26  C26 <0> d   1      12.003  -0.647   3.568  0.00  0.00     0.138 A 
ATOM     27  C25 <0> d   1      12.327  -1.181   4.805  0.00  0.00     0.040 A 
ATOM     28  C24 <0> d   1      11.344  -1.852   5.515  0.00  0.00     0.138 A 
ATOM     29  N23 <0> d   1      10.133  -1.962   4.995  0.00  0.00    -0.075 NA
ENDBRANCH  21  24
ENDBRANCH  16  17
ENDBRANCH   1  16
TORSDOF 6
