REMARK  5 active torsions:
REMARK  status: ('A' for Active; 'I' for Inactive)
REMARK    1  A    between atoms: C2_2  and  C3_3 
REMARK    2  A    between atoms: C3_3  and  O4_4 
REMARK    3  A    between atoms: C21_21  and  O22_22 
REMARK    4  A    between atoms: C23_23  and  C24_24 
REMARK    5  A    between atoms: C24_24  and  N25_25 
ROOT
ATOM      1  C3  ZIN A   1       0.718  -0.497  -1.257  0.00  0.00     0.173 C 
ATOM      2  C5  ZIN A   1       2.140   0.016  -1.264  0.00  0.00     0.298 C 
ATOM      3  O6  ZIN A   1       2.467   0.965  -1.935  0.00  0.00    -0.261 OA
ATOM      4  O7  ZIN A   1       3.026  -0.640  -0.481  0.00  0.00    -0.314 OA
ATOM      5  C8  ZIN A   1       3.211  -2.041  -0.813  0.00  0.00     0.224 C 
ATOM      6  C9  ZIN A   1       1.883  -2.709  -1.051  0.00  0.00     0.044 A 
ATOM      7  C10 ZIN A   1       0.740  -2.005  -1.267  0.00  0.00     0.002 A 
ATOM      8  C11 ZIN A   1      -0.459  -2.692  -1.501  0.00  0.00     0.043 A 
ATOM      9  C12 ZIN A   1      -0.479  -4.071  -1.505  0.00  0.00     0.068 A 
ATOM     10  C13 ZIN A   1      -1.601  -5.013  -1.726  0.00  0.00     0.092 A 
ATOM     11  C14 ZIN A   1      -1.101  -6.322  -1.624  0.00  0.00    -0.008 A 
ATOM     12  C15 ZIN A   1      -1.927  -7.390  -1.786  0.00  0.00     0.025 A 
ATOM     13  C16 ZIN A   1      -3.289  -7.143  -2.057  0.00  0.00     0.004 A 
ATOM     14  C17 ZIN A   1      -3.740  -5.800  -2.148  0.00  0.00     0.068 A 
ATOM     15  N18 ZIN A   1      -2.882  -4.794  -1.980  0.00  0.00    -0.245 NA
ATOM     16  C19 ZIN A   1      -5.100  -5.551  -2.417  0.00  0.00     0.035 A 
ATOM     17  C20 ZIN A   1      -5.957  -6.593  -2.586  0.00  0.00     0.039 A 
ATOM     18  C21 ZIN A   1      -5.511  -7.916  -2.496  0.00  0.00     0.074 A 
ATOM     19  C23 ZIN A   1      -4.198  -8.194  -2.236  0.00  0.00     0.013 A 
ATOM     20  C29 ZIN A   1       0.372  -6.205  -1.332  0.00  0.00     0.173 A 
ATOM     21  N30 ZIN A   1       0.673  -4.768  -1.276  0.00  0.00    -0.307 N 
ATOM     22  C31 ZIN A   1       1.832  -4.119  -1.051  0.00  0.00     0.257 A 
ATOM     23  O32 ZIN A   1       2.850  -4.758  -0.844  0.00  0.00    -0.267 OA
ENDROOT
BRANCH  19  24
ATOM     24  C24 ZIN A   1      -3.732  -9.624  -2.141  0.00  0.00     0.276 C 
BRANCH  24  25
ATOM     25  N25 ZIN A   1      -3.311 -10.091  -3.469  0.00  0.00    -0.075 N 
ATOM     26  H26 ZIN A   1      -4.064  -9.956  -4.127  0.00  0.00     0.279 HD
ATOM     27  C27 ZIN A   1      -2.135  -9.327  -3.907  0.00  0.00     0.269 C 
ATOM     28  C28 ZIN A   1      -2.970 -11.518  -3.401  0.00  0.00     0.269 C 
ENDBRANCH  24  25
ENDBRANCH  19  24
BRANCH  18  29
ATOM     29  O22 ZIN A   1      -6.392  -8.935  -2.671  0.00  0.00    -0.360 OA
ATOM     30  H45 ZIN A   1      -6.475  -9.230  -3.588  0.00  0.00     0.217 HD
ENDBRANCH  18  29
BRANCH   1  31
ATOM     31  C2  ZIN A   1       0.002  -0.004   0.002  0.00  0.00     0.049 C 
ATOM     32  C1  ZIN A   1      -0.019   1.526   0.010  0.00  0.00     0.009 C 
ENDBRANCH   1  31
BRANCH   1  33
ATOM     33  O4  ZIN A   1       0.030  -0.022  -2.416  0.00  0.00    -0.375 OA
ATOM     34  H38 ZIN A   1      -0.019   0.942  -2.475  0.00  0.00     0.211 HD
ENDBRANCH   1  33
TORSDOF 5
