REMARK  7 active torsions:
REMARK  status: ('A' for Active; 'I' for Inactive)
REMARK    1  A    between atoms: C2_2  and  C3_3 
REMARK       I    between atoms: N7_7  and  C8_8 
REMARK       I    between atoms: C8_8  and  N10_10 
REMARK    2  A    between atoms: N10_10  and  C11_11 
REMARK    3  A    between atoms: C11_11  and  C12_12 
REMARK    4  A    between atoms: C12_12  and  C13_13 
REMARK    5  A    between atoms: C16_16  and  S17_17 
REMARK    6  A    between atoms: S17_17  and  N20_20 
REMARK       I    between atoms: N20_20  and  C21_21 
REMARK       I    between atoms: C21_21  and  N23_23 
REMARK    7  A    between atoms: N23_23  and  C24_24 
ROOT
ATOM      1  C13 ZIN A   1       8.572  -1.458   2.095  0.00  0.00    -0.057 A 
ATOM      2  C14 ZIN A   1       9.299  -0.472   2.735  0.00  0.00     0.009 A 
ATOM      3  C15 ZIN A   1      10.574  -0.743   3.197  0.00  0.00     0.026 A 
ATOM      4  C16 ZIN A   1      11.121  -2.000   3.019  0.00  0.00     0.081 A 
ATOM      5  C31 ZIN A   1      10.394  -2.986   2.380  0.00  0.00     0.026 A 
ATOM      6  C32 ZIN A   1       9.118  -2.717   1.921  0.00  0.00     0.009 A 
ENDROOT
BRANCH   1   7
ATOM      7  C12 ZIN A   1       7.183  -1.163   1.591  0.00  0.00     0.058 C 
BRANCH   7   8
ATOM      8  C11 ZIN A   1       6.165  -1.476   2.690  0.00  0.00     0.129 C 
BRANCH   8   9
ATOM      9  N10 ZIN A   1       4.814  -1.189   2.200  0.00  0.00    -0.342 N 
ATOM     10  C8  ZIN A   1       3.750  -1.391   3.002  0.00  0.00     0.325 C 
ATOM     11  N7  ZIN A   1       2.507  -1.127   2.552  0.00  0.00    -0.262 N 
ATOM     12  O9  ZIN A   1       3.911  -1.811   4.132  0.00  0.00    -0.247 OA
ATOM     13  C6  ZIN A   1       1.256  -1.295   3.302  0.00  0.00     0.171 A 
ATOM     14  C33 ZIN A   1       2.183  -0.667   1.329  0.00  0.00     0.258 A 
ATOM     15  C4  ZIN A   1       0.152  -0.867   2.364  0.00  0.00    -0.054 A 
ATOM     16  C3  ZIN A   1       0.731  -0.503   1.223  0.00  0.00     0.013 A 
ATOM     17  C5  ZIN A   1      -1.325  -0.855   2.663  0.00  0.00     0.046 C 
ATOM     18  O34 ZIN A   1       2.979  -0.416   0.445  0.00  0.00    -0.267 OA
ATOM     19  H45 ZIN A   1       4.686  -0.854   1.299  0.00  0.00     0.164 HD
BRANCH  16  20
ATOM     20  C2  ZIN A   1       0.002  -0.004   0.002  0.00  0.00     0.040 C 
ATOM     21  C1  ZIN A   1      -0.019   1.526   0.010  0.00  0.00     0.010 C 
ENDBRANCH  16  20
ENDBRANCH   8   9
ENDBRANCH   7   8
ENDBRANCH   1   7
BRANCH   4  22
ATOM     22  S17 ZIN A   1      12.746  -2.344   3.607  0.00  0.00     0.287 S 
ATOM     23  O18 ZIN A   1      13.229  -3.436   2.836  0.00  0.00    -0.198 OA
ATOM     24  O19 ZIN A   1      13.416  -1.094   3.689  0.00  0.00    -0.198 OA
BRANCH  22  25
ATOM     25  N20 ZIN A   1      12.597  -2.899   5.161  0.00  0.00    -0.102 NA
ATOM     26  C21 ZIN A   1      13.696  -3.242   5.861  0.00  0.00     0.353 C 
ATOM     27  O22 ZIN A   1      14.796  -3.145   5.353  0.00  0.00    -0.244 OA
ATOM     28  N23 ZIN A   1      13.575  -3.693   7.126  0.00  0.00    -0.336 N 
ATOM     29  H52 ZIN A   1      12.698  -3.771   7.531  0.00  0.00     0.164 HD
BRANCH  28  30
ATOM     30  C24 ZIN A   1      14.770  -4.067   7.887  0.00  0.00     0.086 C 
ATOM     31  C30 ZIN A   1      14.389  -5.081   8.968  0.00  0.00     0.026 C 
ATOM     32  C29 ZIN A   1      13.357  -4.458   9.911  0.00  0.00     0.006 C 
ATOM     33  C27 ZIN A   1      13.953  -3.212  10.568  0.00  0.00    -0.019 C 
ATOM     34  C26 ZIN A   1      14.334  -2.198   9.487  0.00  0.00     0.006 C 
ATOM     35  C28 ZIN A   1      12.921  -2.590  11.511  0.00  0.00     0.010 C 
ATOM     36  C25 ZIN A   1      15.366  -2.820   8.545  0.00  0.00     0.026 C 
ENDBRANCH  28  30
ENDBRANCH  22  25
ENDBRANCH   4  22
TORSDOF 7
