REMARK  5 active torsions:
REMARK  status: ('A' for Active; 'I' for Inactive)
REMARK    1  A    between atoms: N2_2  and  S4_4 
REMARK    2  A    between atoms: S4_4  and  C7_7 
REMARK    3  A    between atoms: C19_19  and  C20_20 
REMARK    4  A    between atoms: C20_20  and  C21_21 
REMARK    5  A    between atoms: C21_21  and  N22_22 
ROOT
ATOM      1  C7  ZIN A   1      -1.373  -1.977  -0.335  0.00  0.00     0.080 A 
ATOM      2  C8  ZIN A   1      -2.344  -1.029  -0.611  0.00  0.00     0.027 A 
ATOM      3  C9  ZIN A   1      -3.054  -1.084  -1.791  0.00  0.00     0.021 A 
ATOM      4  C10 ZIN A   1      -2.801  -2.094  -2.720  0.00  0.00     0.017 A 
ATOM      5  S11 ZIN A   1      -3.723  -2.122  -4.215  0.00  0.00    -0.089 SA
ATOM      6  C12 ZIN A   1      -3.533  -3.756  -4.831  0.00  0.00     0.016 A 
ATOM      7  C13 ZIN A   1      -4.439  -4.228  -5.780  0.00  0.00     0.020 A 
ATOM      8  C14 ZIN A   1      -4.317  -5.505  -6.286  0.00  0.00     0.001 A 
ATOM      9  C15 ZIN A   1      -3.293  -6.331  -5.856  0.00  0.00     0.001 A 
ATOM     10  C16 ZIN A   1      -2.389  -5.881  -4.918  0.00  0.00     0.013 A 
ATOM     11  C17 ZIN A   1      -2.502  -4.590  -4.396  0.00  0.00    -0.008 A 
ATOM     12  C18 ZIN A   1      -1.523  -4.140  -3.388  0.00  0.00    -0.017 C 
ATOM     13  C19 ZIN A   1      -0.324  -4.739  -3.333  0.00  0.00    -0.012 C 
ATOM     14  C30 ZIN A   1      -1.825  -3.050  -2.441  0.00  0.00    -0.007 A 
ATOM     15  C31 ZIN A   1      -1.108  -2.979  -1.243  0.00  0.00     0.038 A 
ENDROOT
BRANCH  13  16
ATOM     16  C20 ZIN A   1       0.855  -4.012  -2.739  0.00  0.00     0.058 C 
BRANCH  16  17
ATOM     17  C21 ZIN A   1       2.042  -4.093  -3.701  0.00  0.00     0.276 C 
BRANCH  17  18
ATOM     18  N22 ZIN A   1       3.224  -3.487  -3.074  0.00  0.00     0.092 N 
ATOM     19  C29 ZIN A   1       4.368  -3.488  -3.995  0.00  0.00     0.300 C 
ATOM     20  C28 ZIN A   1       5.592  -2.905  -3.285  0.00  0.00     0.264 C 
ATOM     21  N25 ZIN A   1       5.296  -1.535  -2.846  0.00  0.00    -0.072 N 
ATOM     22  C24 ZIN A   1       4.167  -1.553  -1.907  0.00  0.00     0.264 C 
ATOM     23  H26 ZIN A   1       5.059  -0.969  -3.647  0.00  0.00     0.279 HD
ATOM     24  C27 ZIN A   1       6.477  -0.969  -2.180  0.00  0.00     0.269 C 
ATOM     25  C23 ZIN A   1       2.931  -2.125  -2.606  0.00  0.00     0.300 C 
ENDBRANCH  17  18
ENDBRANCH  16  17
ENDBRANCH  13  16
BRANCH   1  26
ATOM     26  S4  ZIN A   1      -0.470  -1.897   1.176  0.00  0.00     0.260 S 
ATOM     27  O5  ZIN A   1       0.163  -3.160   1.332  0.00  0.00    -0.200 OA
ATOM     28  O6  ZIN A   1      -1.354  -1.346   2.143  0.00  0.00    -0.200 OA
BRANCH  26  29
ATOM     29  N2  ZIN A   1       0.742  -0.789   0.965  0.00  0.00    -0.315 N 
ATOM     30  C1  ZIN A   1       0.459   0.642   1.105  0.00  0.00     0.162 C 
ATOM     31  C3  ZIN A   1       2.097  -1.239   0.638  0.00  0.00     0.162 C 
ENDBRANCH  26  29
ENDBRANCH   1  26
TORSDOF 5
