REMARK  2 active torsions:
REMARK  status: ('A' for Active; 'I' for Inactive)
REMARK    1  A    between atoms: C18_17  and  O19_18 
REMARK    2  A    between atoms: C20_19  and  O21_20 
ROOT
ATOM      1  C1  ZIN A   1      -0.018   1.465   0.010  0.00  0.00     0.270 C 
ATOM      2  N2  ZIN A   1       0.002  -0.004   0.002  0.00  0.00    -0.066 N 
ATOM      3  H3  ZIN A   1      -0.940  -0.353   0.092  0.00  0.00     0.280 HD
ATOM      4  C4  ZIN A   1       0.578  -0.476  -1.257  0.00  0.00     0.240 C 
ATOM      5  C5  ZIN A   1       1.922   0.183  -1.519  0.00  0.00     0.067 C 
ATOM      6  C6  ZIN A   1       2.736   0.324  -0.263  0.00  0.00    -0.047 A 
ATOM      7  C7  ZIN A   1       4.045   0.775  -0.374  0.00  0.00     0.008 A 
ATOM      8  C8  ZIN A   1       4.847   0.900   0.743  0.00  0.00     0.001 A 
ATOM      9  C9  ZIN A   1       4.346   0.579   1.988  0.00  0.00     0.013 A 
ATOM     10  C10 ZIN A   1       3.030   0.146   2.111  0.00  0.00    -0.014 A 
ATOM     11  C11 ZIN A   1       2.224   0.013   0.978  0.00  0.00    -0.010 A 
ATOM     12  C12 ZIN A   1       0.813  -0.489   1.129  0.00  0.00     0.226 C 
ATOM     13  C14 ZIN A   1       0.190   0.021   2.427  0.00  0.00     0.077 C 
ATOM     14  C15 ZIN A   1       1.089  -0.263   3.599  0.00  0.00    -0.042 A 
ATOM     15  C16 ZIN A   1       0.553  -0.591   4.827  0.00  0.00     0.011 A 
ATOM     16  C17 ZIN A   1       1.383  -0.831   5.908  0.00  0.00     0.040 A 
ATOM     17  C18 ZIN A   1       2.759  -0.743   5.767  0.00  0.00     0.099 A 
ATOM     18  C20 ZIN A   1       3.310  -0.422   4.531  0.00  0.00     0.110 A 
ATOM     19  C22 ZIN A   1       2.476  -0.200   3.441  0.00  0.00     0.017 A 
ENDROOT
BRANCH  18  20
ATOM     20  O21 ZIN A   1       4.659  -0.334   4.387  0.00  0.00    -0.357 OA
ATOM     21  H38 ZIN A   1       5.083  -1.166   4.137  0.00  0.00     0.217 HD
ENDBRANCH  18  20
BRANCH  17  22
ATOM     22  O19 ZIN A   1       3.568  -0.972   6.836  0.00  0.00    -0.358 OA
ATOM     23  H37 ZIN A   1       3.836  -1.895   6.936  0.00  0.00     0.217 HD
ENDBRANCH  17  22
TORSDOF 2
