REMARK  7 active torsions:
REMARK  status: ('A' for Active; 'I' for Inactive)
REMARK    1  A    between atoms: C2_2  and  O4_3 
REMARK    2  A    between atoms: C2_2  and  C25_24 
REMARK    3  A    between atoms: O4_3  and  C5_4 
REMARK    4  A    between atoms: C5_4  and  C6_5 
REMARK    5  A    between atoms: C6_5  and  C7_6 
REMARK    6  A    between atoms: C27_26  and  C28_27 
REMARK    7  A    between atoms: C33_32  and  C34_33 
ROOT
ATOM      1  C6  ZIN A   1       0.625  -1.155  -3.489  0.00  0.00     0.174 C 
ATOM      2  C13 ZIN A   1       1.314  -2.473  -3.128  0.00  0.00     0.049 C 
ATOM      3  C14 ZIN A   1       0.249  -3.514  -2.765  0.00  0.00     0.035 C 
ATOM      4  C15 ZIN A   1      -0.728  -3.656  -3.930  0.00  0.00     0.057 C 
ATOM      5  C16 ZIN A   1       0.004  -4.234  -5.157  0.00  0.00     0.042 C 
ATOM      6  C17 ZIN A   1      -1.093  -5.125  -5.786  0.00  0.00     0.105 C 
ATOM      7  C18 ZIN A   1      -2.010  -5.457  -4.628  0.00  0.00     0.218 C 
ATOM      8  O19 ZIN A   1      -2.831  -6.350  -4.627  0.00  0.00    -0.274 OA
ATOM      9  N20 ZIN A   1      -1.781  -4.619  -3.602  0.00  0.00    -0.350 N 
ATOM     10  C21 ZIN A   1      -1.333  -2.299  -4.280  0.00  0.00     0.264 C 
ATOM     11  N22 ZIN A   1      -0.263  -1.359  -4.639  0.00  0.00    -0.058 N 
ATOM     12  H23 ZIN A   1      -0.670  -0.476  -4.910  0.00  0.00     0.278 HD
ATOM     13  H24 ZIN A   1       0.268  -1.735  -5.410  0.00  0.00     0.278 HD
ATOM     14  H57 ZIN A   1      -2.252  -4.649  -2.754  0.00  0.00     0.163 HD
ENDROOT
BRANCH   1  15
ATOM     15  C5  ZIN A   1      -0.194  -0.664  -2.294  0.00  0.00     0.212 C 
BRANCH  15  16
ATOM     16  O4  ZIN A   1       0.671  -0.465  -1.174  0.00  0.00    -0.379 OA
BRANCH  16  17
ATOM     17  C2  ZIN A   1       0.002  -0.004   0.002  0.00  0.00     0.150 C 
ATOM     18  C1  ZIN A   1      -0.019   1.526   0.010  0.00  0.00     0.045 C 
BRANCH  17  19
ATOM     19  C25 ZIN A   1       0.731  -0.503   1.223  0.00  0.00    -0.028 A 
ATOM     20  C38 ZIN A   1       0.017  -0.945   2.321  0.00  0.00     0.025 A 
ATOM     21  C33 ZIN A   1       0.686  -1.407   3.439  0.00  0.00     0.049 A 
ATOM     22  C32 ZIN A   1       2.068  -1.418   3.463  0.00  0.00     0.032 A 
ATOM     23  C27 ZIN A   1       2.782  -0.972   2.366  0.00  0.00     0.049 A 
ATOM     24  C26 ZIN A   1       2.113  -0.514   1.247  0.00  0.00     0.025 A 
BRANCH  21  25
ATOM     25  C34 ZIN A   1      -0.092  -1.895   4.635  0.00  0.00     0.417 C 
ATOM     26  F35 ZIN A   1       0.797  -2.304   5.635  0.00  0.00    -0.166 F 
ATOM     27  F36 ZIN A   1      -0.896  -0.859   5.121  0.00  0.00    -0.166 F 
ATOM     28  F37 ZIN A   1      -0.898  -2.974   4.258  0.00  0.00    -0.166 F 
ENDBRANCH  21  25
BRANCH  23  29
ATOM     29  C28 ZIN A   1       4.288  -0.984   2.392  0.00  0.00     0.417 C 
ATOM     30  F29 ZIN A   1       4.756   0.234   2.899  0.00  0.00    -0.166 F 
ATOM     31  F30 ZIN A   1       4.733  -2.030   3.208  0.00  0.00    -0.166 F 
ATOM     32  F31 ZIN A   1       4.776  -1.166   1.093  0.00  0.00    -0.166 F 
ENDBRANCH  23  29
ENDBRANCH  17  19
ENDBRANCH  16  17
ENDBRANCH  15  16
ENDBRANCH   1  15
BRANCH   1  33
ATOM     33  C7  ZIN A   1       1.669  -0.125  -3.839  0.00  0.00    -0.020 A 
ATOM     34  C12 ZIN A   1       2.622   0.237  -2.906  0.00  0.00     0.010 A 
ATOM     35  C11 ZIN A   1       3.582   1.178  -3.228  0.00  0.00     0.001 A 
ATOM     36  C10 ZIN A   1       3.583   1.764  -4.480  0.00  0.00     0.000 A 
ATOM     37  C9  ZIN A   1       2.626   1.406  -5.411  0.00  0.00     0.001 A 
ATOM     38  C8  ZIN A   1       1.669   0.461  -5.091  0.00  0.00     0.010 A 
ENDBRANCH   1  33
TORSDOF 7
