REMARK  4 active torsions:
REMARK  status: ('A' for Active; 'I' for Inactive)
REMARK    1  A    between atoms: S2_2  and  C3_3 
REMARK    2  A    between atoms: N14_14  and  C15_15 
REMARK    3  A    between atoms: C15_15  and  C16_16 
REMARK    4  A    between atoms: C16_16  and  C17_17 
ROOT
ATOM      1  C3  <0> d   1       2.754  -6.385  -6.198  0.00  0.00     0.002 A 
ATOM      2  C4  <0> d   1       2.112  -5.854  -7.309  0.00  0.00     0.020 A 
ATOM      3  C5  <0> d   1       1.248  -4.786  -7.159  0.00  0.00     0.022 A 
ATOM      4  C6  <0> d   1       1.017  -4.242  -5.903  0.00  0.00     0.032 A 
ATOM      5  S7  <0> d   1      -0.082  -2.875  -5.745  0.00  0.00    -0.086 SA
ATOM      6  C8  <0> d   1       0.318  -2.208  -4.166  0.00  0.00     0.032 A 
ATOM      7  C9  <0> d   1      -0.083  -0.916  -3.853  0.00  0.00     0.021 A 
ATOM      8  C10 <0> d   1       0.223  -0.373  -2.618  0.00  0.00     0.002 A 
ATOM      9  C11 <0> d   1       0.930  -1.117  -1.693  0.00  0.00     0.002 A 
ATOM     10  C12 <0> d   1       1.333  -2.404  -1.998  0.00  0.00     0.031 A 
ATOM     11  C13 <0> d   1       1.029  -2.960  -3.236  0.00  0.00     0.052 A 
ATOM     12  N14 <0> d   1       1.444  -4.262  -3.506  0.00  0.00    -0.345 N 
ATOM     13  C26 <0> d   1       1.654  -4.773  -4.785  0.00  0.00     0.053 A 
ATOM     14  C27 <0> d   1       2.520  -5.850  -4.939  0.00  0.00     0.049 A 
ENDROOT
BRANCH  12  15
ATOM     15  C15 <0> d   1       1.676  -5.154  -2.368  0.00  0.00     0.131 C 
BRANCH  15  16
ATOM     16  C16 <0> d   1       3.125  -5.015  -1.898  0.00  0.00     0.053 C 
BRANCH  16  17
ATOM     17  C17 <0> d   1       3.377  -5.973  -0.731  0.00  0.00     0.189 C 
ATOM     18  N23 <0> d   1       4.798  -5.935  -0.366  0.00  0.00    -0.071 N 
ATOM     19  C22 <0> d   1       5.064  -6.907   0.701  0.00  0.00     0.235 C 
ATOM     20  H24 <0> d   1       5.038  -5.009  -0.044  0.00  0.00     0.279 HD
ATOM     21  C25 <0> d   1       5.611  -6.268  -1.544  0.00  0.00     0.270 C 
ATOM     22  C21 <0> d   1       4.280  -6.518   1.956  0.00  0.00     0.028 C 
ATOM     23  C20 <0> d   1       2.783  -6.509   1.633  0.00  0.00     0.004 C 
ATOM     24  C19 <0> d   1       2.528  -5.548   0.468  0.00  0.00     0.033 C 
ENDBRANCH  16  17
ENDBRANCH  15  16
ENDBRANCH  12  15
BRANCH   1  25
ATOM     25  S2  <0> d   1       3.860  -7.744  -6.386  0.00  0.00    -0.134 SA
ATOM     26  C1  <0> d   1       3.820  -8.059  -8.172  0.00  0.00     0.095 C 
ENDBRANCH   1  25
TORSDOF 4
