REMARK  12 active torsions:
REMARK  status: ('A' for Active; 'I' for Inactive)
REMARK    1  A    between atoms: C3_3  and  O4_4 
REMARK    2  A    between atoms: C8_8  and  C9_9 
REMARK       I    between atoms: C9_9  and  N11_11 
REMARK    3  A    between atoms: N11_11  and  C12_12 
REMARK    4  A    between atoms: C12_12  and  C14_13 
REMARK    5  A    between atoms: C12_12  and  C22_21 
REMARK    6  A    between atoms: C14_13  and  S15_14 
REMARK    7  A    between atoms: S15_14  and  C16_15 
REMARK    8  A    between atoms: C22_21  and  O24_22 
REMARK    9  A    between atoms: C22_21  and  C25_23 
REMARK   10  A    between atoms: C25_23  and  N26_24 
REMARK   11  A    between atoms: C38_34  and  C40_35 
REMARK       I    between atoms: C40_35  and  N42_37 
REMARK   12  A    between atoms: N42_37  and  C43_38 
ROOT
ATOM      1  C22 ZIN A   1       0.070   0.157   6.751  0.00  0.00     0.167 C 
ENDROOT
BRANCH   1   2
ATOM      2  C12 ZIN A   1      -0.879   1.277   6.317  0.00  0.00     0.124 C 
BRANCH   2   3
ATOM      3  N11 ZIN A   1      -1.630   0.849   5.135  0.00  0.00    -0.349 N 
ATOM      4  C9  ZIN A   1      -2.127   1.768   4.284  0.00  0.00     0.252 C 
ATOM      5  O10 ZIN A   1      -1.952   2.952   4.497  0.00  0.00    -0.268 OA
ATOM      6  H54 ZIN A   1      -1.770  -0.096   4.965  0.00  0.00     0.163 HD
BRANCH   4   7
ATOM      7  C8  ZIN A   1      -2.886   1.336   3.090  0.00  0.00     0.040 A 
ATOM      8  C2  ZIN A   1      -3.392   2.285   2.201  0.00  0.00    -0.013 A 
ATOM      9  C1  ZIN A   1      -3.162   3.753   2.451  0.00  0.00     0.052 C 
ATOM     10  C3  ZIN A   1      -4.102   1.874   1.086  0.00  0.00     0.072 A 
ATOM     11  C5  ZIN A   1      -4.313   0.520   0.857  0.00  0.00     0.037 A 
ATOM     12  C6  ZIN A   1      -3.816  -0.421   1.740  0.00  0.00     0.004 A 
ATOM     13  C7  ZIN A   1      -3.108  -0.021   2.855  0.00  0.00     0.018 A 
BRANCH  10  14
ATOM     14  O4  ZIN A   1      -4.592   2.794   0.215  0.00  0.00    -0.360 OA
ATOM     15  H50 ZIN A   1      -3.983   3.022  -0.501  0.00  0.00     0.217 HD
ENDBRANCH  10  14
ENDBRANCH   4   7
ENDBRANCH   2   3
BRANCH   2  16
ATOM     16  C14 ZIN A   1      -1.852   1.590   7.455  0.00  0.00     0.107 C 
BRANCH  16  17
ATOM     17  S15 ZIN A   1      -2.977   2.917   6.941  0.00  0.00    -0.128 SA
BRANCH  17  18
ATOM     18  C16 ZIN A   1      -4.005   3.135   8.355  0.00  0.00     0.000 A 
ATOM     19  C21 ZIN A   1      -5.015   4.090   8.341  0.00  0.00     0.018 A 
ATOM     20  C20 ZIN A   1      -5.823   4.254   9.449  0.00  0.00     0.001 A 
ATOM     21  C19 ZIN A   1      -5.620   3.478  10.575  0.00  0.00     0.000 A 
ATOM     22  C18 ZIN A   1      -4.613   2.531  10.595  0.00  0.00     0.001 A 
ATOM     23  C17 ZIN A   1      -3.805   2.357   9.489  0.00  0.00     0.018 A 
ENDBRANCH  17  18
ENDBRANCH  16  17
ENDBRANCH   2  16
ENDBRANCH   1   2
BRANCH   1  24
ATOM     24  O24 ZIN A   1      -0.692  -0.974   7.177  0.00  0.00    -0.392 OA
ATOM     25  H62 ZIN A   1      -1.281  -0.794   7.922  0.00  0.00     0.210 HD
ENDBRANCH   1  24
BRANCH   1  26
ATOM     26  C25 ZIN A   1       0.943   0.648   7.908  0.00  0.00     0.269 C 
BRANCH  26  27
ATOM     27  N26 ZIN A   1       2.003  -0.334   8.172  0.00  0.00    -0.055 N 
ATOM     28  H27 ZIN A   1       2.475  -0.557   7.309  0.00  0.00     0.281 HD
ATOM     29  C38 ZIN A   1       2.967   0.234   9.122  0.00  0.00     0.279 C 
ATOM     30  C37 ZIN A   1       4.102  -0.754   9.330  0.00  0.00     0.048 C 
ATOM     31  C35 ZIN A   1       3.550  -2.062   9.901  0.00  0.00    -0.006 C 
ATOM     32  C29 ZIN A   1       2.502  -2.609   8.929  0.00  0.00     0.016 C 
ATOM     33  C34 ZIN A   1       4.683  -3.074  10.067  0.00  0.00     0.005 C 
ATOM     34  C28 ZIN A   1       1.409  -1.554   8.732  0.00  0.00     0.241 C 
ATOM     35  C31 ZIN A   1       3.150  -2.914   7.576  0.00  0.00     0.007 C 
ATOM     36  C32 ZIN A   1       4.268  -3.941   7.763  0.00  0.00     0.000 C 
ATOM     37  C33 ZIN A   1       5.326  -3.373   8.711  0.00  0.00     0.000 C 
BRANCH  29  38
ATOM     38  C40 ZIN A   1       3.516   1.516   8.553  0.00  0.00     0.249 C 
ATOM     39  O41 ZIN A   1       3.477   1.714   7.357  0.00  0.00    -0.271 OA
ATOM     40  N42 ZIN A   1       4.051   2.443   9.372  0.00  0.00    -0.351 N 
ATOM     41  H77 ZIN A   1       4.083   2.284  10.328  0.00  0.00     0.163 HD
BRANCH  40  42
ATOM     42  C43 ZIN A   1       4.585   3.689   8.818  0.00  0.00     0.022 C 
ATOM     43  C44 ZIN A   1       3.471   4.441   8.088  0.00  0.00     0.037 C 
ATOM     44  C45 ZIN A   1       5.129   4.560   9.953  0.00  0.00     0.037 C 
ATOM     45  C46 ZIN A   1       5.714   3.369   7.836  0.00  0.00     0.037 C 
ENDBRANCH  40  42
ENDBRANCH  29  38
ENDBRANCH  26  27
ENDBRANCH   1  26
TORSDOF 12
