REMARK  4 active torsions:
REMARK  status: ('A' for Active; 'I' for Inactive)
REMARK    1  A    between atoms: C12_10  and  C13_11 
REMARK       I    between atoms: C13_11  and  N15_13 
REMARK    2  A    between atoms: N15_13  and  C16_14 
REMARK    3  A    between atoms: C16_14  and  C17_15 
REMARK    4  A    between atoms: C27_25  and  O28_26 
ROOT
ATOM      1  C1  ZIN A   1       0.003   1.532  -0.006  0.00  0.00     0.032 C 
ATOM      2  C2  ZIN A   1       0.004   0.002   0.003  0.00  0.00     0.088 C 
ATOM      3  C4  ZIN A   1      -1.433  -0.506   0.147  0.00  0.00     0.051 C 
ATOM      4  C5  ZIN A   1      -1.358  -2.011   0.449  0.00  0.00     0.172 C 
ATOM      5  O6  ZIN A   1      -0.812  -2.165   1.758  0.00  0.00    -0.365 OA
ATOM      6  C7  ZIN A   1       0.413  -1.535   2.022  0.00  0.00     0.244 C 
ATOM      7  C9  ZIN A   1       1.562  -2.526   2.206  0.00  0.00     0.182 C 
ATOM      8  N10 ZIN A   1       2.697  -1.784   2.790  0.00  0.00    -0.345 N 
ATOM      9  C11 ZIN A   1       3.459  -2.375   3.716  0.00  0.00     0.113 A 
ATOM     10  C12 ZIN A   1       4.525  -1.721   4.304  0.00  0.00     0.100 A 
ATOM     11  C25 ZIN A   1       4.814  -0.342   3.889  0.00  0.00     0.224 A 
ATOM     12  O26 ZIN A   1       5.738   0.286   4.378  0.00  0.00    -0.284 OA
ATOM     13  C27 ZIN A   1       3.946   0.251   2.859  0.00  0.00     0.150 A 
ATOM     14  C29 ZIN A   1       2.924  -0.498   2.351  0.00  0.00     0.141 A 
ATOM     15  C30 ZIN A   1       2.050   0.079   1.304  0.00  0.00     0.276 C 
ATOM     16  O31 ZIN A   1       2.420   1.020   0.630  0.00  0.00    -0.266 OA
ATOM     17  N32 ZIN A   1       0.817  -0.475   1.119  0.00  0.00    -0.314 N 
ENDROOT
BRANCH  10  18
ATOM     18  C13 ZIN A   1       5.351  -2.390   5.323  0.00  0.00     0.257 C 
ATOM     19  O14 ZIN A   1       5.167  -3.565   5.579  0.00  0.00    -0.267 OA
ATOM     20  N15 ZIN A   1       6.310  -1.701   5.972  0.00  0.00    -0.352 N 
ATOM     21  H43 ZIN A   1       6.407  -0.748   5.824  0.00  0.00     0.163 HD
BRANCH  20  22
ATOM     22  C16 ZIN A   1       7.207  -2.393   6.902  0.00  0.00     0.164 C 
BRANCH  22  23
ATOM     23  C17 ZIN A   1       8.180  -1.404   7.490  0.00  0.00    -0.002 A 
ATOM     24  C23 ZIN A   1       7.787  -0.583   8.534  0.00  0.00     0.127 A 
ATOM     25  C22 ZIN A   1       8.682   0.322   9.077  0.00  0.00     0.085 A 
ATOM     26  F24 ZIN A   1       6.533  -0.672   9.028  0.00  0.00    -0.205 F 
ATOM     27  C20 ZIN A   1       9.967   0.412   8.569  0.00  0.00     0.119 A 
ATOM     28  C19 ZIN A   1      10.356  -0.406   7.522  0.00  0.00     0.043 A 
ATOM     29  F21 ZIN A   1      10.841   1.299   9.095  0.00  0.00    -0.206 F 
ATOM     30  C18 ZIN A   1       9.463  -1.312   6.984  0.00  0.00     0.015 A 
ENDBRANCH  22  23
ENDBRANCH  20  22
ENDBRANCH  10  18
BRANCH  13  31
ATOM     31  O28 ZIN A   1       4.156   1.518   2.423  0.00  0.00    -0.355 OA
ATOM     32  H49 ZIN A   1       4.904   1.960   2.848  0.00  0.00     0.218 HD
ENDBRANCH  13  31
TORSDOF 4
