REMARK  7 active torsions:
REMARK  status: ('A' for Active; 'I' for Inactive)
REMARK    1  A    between atoms: C2_2  and  C3_3 
REMARK    2  A    between atoms: C6_6  and  C7_7 
REMARK    3  A    between atoms: C7_7  and  C8_8 
REMARK    4  A    between atoms: C8_8  and  O9_9 
REMARK    5  A    between atoms: O9_9  and  C10_10 
REMARK    6  A    between atoms: C13_13  and  C14_14 
REMARK    7  A    between atoms: C14_14  and  C15_15 
ROOT
ATOM      1  C10 ZIN A   1       5.732  -0.586  -6.499  0.00  0.00     0.068 A 
ATOM      2  C11 ZIN A   1       6.070   0.569  -5.808  0.00  0.00     0.037 A 
ATOM      3  C12 ZIN A   1       7.143   1.333  -6.223  0.00  0.00     0.010 A 
ATOM      4  C13 ZIN A   1       7.880   0.948  -7.328  0.00  0.00    -0.056 A 
ATOM      5  C23 ZIN A   1       7.546  -0.202  -8.018  0.00  0.00     0.010 A 
ATOM      6  C24 ZIN A   1       6.478  -0.973  -7.603  0.00  0.00     0.037 A 
ENDROOT
BRANCH   1   7
ATOM      7  O9  ZIN A   1       4.678  -1.339  -6.091  0.00  0.00    -0.351 OA
BRANCH   7   8
ATOM      8  C8  ZIN A   1       3.956  -0.880  -4.947  0.00  0.00     0.181 C 
BRANCH   8   9
ATOM      9  C7  ZIN A   1       2.813  -1.850  -4.641  0.00  0.00     0.086 C 
BRANCH   9  10
ATOM     10  C6  ZIN A   1       2.052  -1.365  -3.434  0.00  0.00     0.036 A 
ATOM     11  C5  ZIN A   1       0.687  -1.168  -3.521  0.00  0.00     0.028 A 
ATOM     12  C4  ZIN A   1      -0.004  -0.722  -2.405  0.00  0.00     0.010 A 
ATOM     13  C3  ZIN A   1       0.707  -0.490  -1.238  0.00  0.00    -0.041 A 
ATOM     14  C26 ZIN A   1       2.073  -0.705  -1.228  0.00  0.00     0.124 A 
ATOM     15  N25 ZIN A   1       2.696  -1.135  -2.307  0.00  0.00    -0.265 NA
BRANCH  13  16
ATOM     16  C2  ZIN A   1       0.002  -0.004   0.002  0.00  0.00     0.035 C 
ATOM     17  C1  ZIN A   1      -0.019   1.526   0.010  0.00  0.00     0.010 C 
ENDBRANCH  13  16
ENDBRANCH   9  10
ENDBRANCH   8   9
ENDBRANCH   7   8
ENDBRANCH   1   7
BRANCH   4  18
ATOM     18  C14 ZIN A   1       9.050   1.784  -7.780  0.00  0.00     0.064 C 
BRANCH  18  19
ATOM     19  C15 ZIN A   1      10.323   1.300  -7.080  0.00  0.00     0.155 A 
ATOM     20  C21 ZIN A   1      11.505   2.162  -7.466  0.00  0.00     0.261 A 
ATOM     21  N20 ZIN A   1      12.467   1.494  -8.088  0.00  0.00    -0.167 NA
ATOM     22  O22 ZIN A   1      11.568   3.350  -7.233  0.00  0.00    -0.270 OA
ATOM     23  C18 ZIN A   1      12.361   0.185  -8.327  0.00  0.00     0.309 A 
ATOM     24  S17 ZIN A   1      10.800  -0.355  -7.682  0.00  0.00    -0.052 SA
ATOM     25  O19 ZIN A   1      13.186  -0.512  -8.886  0.00  0.00    -0.258 OA
ENDBRANCH  18  19
ENDBRANCH   4  18
TORSDOF 7
