REMARK  5 active torsions:
REMARK  status: ('A' for Active; 'I' for Inactive)
REMARK    1  A    between atoms: C6_6  and  C7_7 
REMARK    2  A    between atoms: C7_7  and  N8_8 
REMARK    3  A    between atoms: N12_12  and  C13_13 
REMARK    4  A    between atoms: C13_13  and  C15_14 
REMARK    5  A    between atoms: C13_13  and  C21_20 
ROOT
ATOM      1  N8  <0> d   1       1.568  -3.791   2.828  0.00  0.00    -0.064 N 
ATOM      2  H9  <0> d   1       2.148  -4.288   2.169  0.00  0.00     0.280 HD
ATOM      3  C10 <0> d   1       1.628  -4.460   4.135  0.00  0.00     0.265 C 
ATOM      4  C11 <0> d   1       3.076  -4.487   4.628  0.00  0.00     0.301 C 
ATOM      5  N12 <0> d   1       3.579  -3.111   4.739  0.00  0.00     0.105 N 
ATOM      6  C28 <0> d   1       3.502  -2.421   3.444  0.00  0.00     0.301 C 
ATOM      7  C29 <0> d   1       2.050  -2.410   2.961  0.00  0.00     0.265 C 
ENDROOT
BRANCH   5   8
ATOM      8  C13 <0> d   1       4.951  -3.092   5.265  0.00  0.00     0.289 C 
BRANCH   8   9
ATOM      9  C15 <0> d   1       4.981  -3.761   6.615  0.00  0.00    -0.021 A 
ATOM     10  C20 <0> d   1       5.979  -4.670   6.914  0.00  0.00     0.010 A 
ATOM     11  C19 <0> d   1       6.008  -5.280   8.154  0.00  0.00     0.001 A 
ATOM     12  C18 <0> d   1       5.035  -4.988   9.092  0.00  0.00     0.000 A 
ATOM     13  C17 <0> d   1       4.034  -4.084   8.790  0.00  0.00     0.001 A 
ATOM     14  C16 <0> d   1       4.007  -3.470   7.552  0.00  0.00     0.010 A 
ENDBRANCH   8   9
BRANCH   8  15
ATOM     15  C21 <0> d   1       5.418  -1.666   5.400  0.00  0.00    -0.021 A 
ATOM     16  C27 <0> d   1       6.692  -1.315   4.995  0.00  0.00     0.011 A 
ATOM     17  C26 <0> d   1       7.118  -0.005   5.114  0.00  0.00     0.024 A 
ATOM     18  C24 <0> d   1       6.274   0.951   5.649  0.00  0.00     0.034 A 
ATOM     19  C23 <0> d   1       5.001   0.598   6.059  0.00  0.00     0.024 A 
ATOM     20 Cl25 <0> d   1       6.812   2.594   5.806  0.00  0.00    -0.084 Cl
ATOM     21  C22 <0> d   1       4.574  -0.711   5.935  0.00  0.00     0.011 A 
ENDBRANCH   8  15
ENDBRANCH   5   8
BRANCH   1  22
ATOM     22  C7  <0> d   1       0.180  -3.781   2.347  0.00  0.00     0.273 C 
BRANCH  22  23
ATOM     23  C6  <0> d   1       0.135  -3.207   0.954  0.00  0.00    -0.032 A 
ATOM     24  C5  <0> d   1       0.265  -4.040  -0.141  0.00  0.00     0.009 A 
ATOM     25  C4  <0> d   1       0.224  -3.514  -1.419  0.00  0.00     0.001 A 
ATOM     26  C3  <0> d   1       0.052  -2.154  -1.601  0.00  0.00     0.007 A 
ATOM     27  C2  <0> d   1      -0.079  -1.321  -0.505  0.00  0.00    -0.061 A 
ATOM     28  C1  <0> d   1      -0.266   0.161  -0.704  0.00  0.00     0.048 C 
ATOM     29  C30 <0> d   1      -0.032  -1.847   0.772  0.00  0.00     0.015 A 
ENDBRANCH  22  23
ENDBRANCH   1  22
TORSDOF 5
