REMARK  4 active torsions:
REMARK  status: ('A' for Active; 'I' for Inactive)
REMARK    1  A    between atoms: O2_2  and  C3_3 
REMARK    2  A    between atoms: C8_8  and  O9_9 
REMARK    3  A    between atoms: C16_15  and  C18_16 
REMARK    4  A    between atoms: C18_16  and  C19_17 
ROOT
ATOM      1  C3  ZIN A   1       0.513   0.137  -1.536  0.00  0.00     0.102 A 
ATOM      2  C4  ZIN A   1       1.188   0.757  -2.572  0.00  0.00     0.047 A 
ATOM      3  C5  ZIN A   1       1.818   0.002  -3.550  0.00  0.00    -0.045 A 
ATOM      4  C6  ZIN A   1       1.776  -1.375  -3.493  0.00  0.00    -0.018 A 
ATOM      5  C7  ZIN A   1       1.098  -2.002  -2.456  0.00  0.00     0.049 A 
ATOM      6  C8  ZIN A   1       0.472  -1.253  -1.476  0.00  0.00     0.102 A 
ATOM      7  C11 ZIN A   1       2.450  -2.234  -4.529  0.00  0.00     0.228 C 
ATOM      8  C13 ZIN A   1       1.530  -3.408  -4.889  0.00  0.00     0.116 C 
ATOM      9  C14 ZIN A   1       2.191  -4.203  -5.995  0.00  0.00     0.135 C 
ATOM     10  O15 ZIN A   1       2.284  -5.406  -5.931  0.00  0.00    -0.297 OA
ATOM     11  C16 ZIN A   1       2.732  -3.437  -7.185  0.00  0.00     0.081 C 
ATOM     12  C22 ZIN A   1       3.566  -2.264  -6.660  0.00  0.00     0.247 C 
ATOM     13  N23 ZIN A   1       2.736  -1.467  -5.742  0.00  0.00    -0.061 N 
ATOM     14  H24 ZIN A   1       1.875  -1.213  -6.205  0.00  0.00     0.280 HD
ATOM     15  C25 ZIN A   1       3.464  -0.248  -5.362  0.00  0.00     0.240 C 
ATOM     16  C26 ZIN A   1       2.539   0.718  -4.663  0.00  0.00     0.067 C 
ENDROOT
BRANCH  11  17
ATOM     17  C18 ZIN A   1       1.571  -2.909  -8.030  0.00  0.00     0.017 C 
BRANCH  17  18
ATOM     18  C19 ZIN A   1       0.805  -4.087  -8.638  0.00  0.00    -0.022 C 
ATOM     19  C20 ZIN A   1      -0.439  -3.568  -9.361  0.00  0.00     0.009 C 
ATOM     20  C21 ZIN A   1       1.706  -4.821  -9.634  0.00  0.00     0.009 C 
ENDBRANCH  17  18
ENDBRANCH  11  17
BRANCH   6  21
ATOM     21  O9  ZIN A   1      -0.189  -1.873  -0.462  0.00  0.00    -0.353 OA
ATOM     22  C10 ZIN A   1      -0.198  -3.302  -0.471  0.00  0.00     0.210 C 
ENDBRANCH   6  21
BRANCH   1  23
ATOM     23  O2  ZIN A   1      -0.102   0.881  -0.579  0.00  0.00    -0.353 OA
ATOM     24  C1  ZIN A   1      -0.018   2.302  -0.708  0.00  0.00     0.210 C 
ENDBRANCH   1  23
TORSDOF 4
