REMARK  3 active torsions:
REMARK  status: ('A' for Active; 'I' for Inactive)
REMARK    1  A    between atoms: C2_2  and  C4_3 
REMARK    2  A    between atoms: C2_2  and  N13_12 
REMARK    3  A    between atoms: N13_12  and  O14_13 
REMARK       I    between atoms: N13_12  and  C15_14 
REMARK       I    between atoms: C15_14  and  N16_15 
ROOT
ATOM      1  C1  <0> d   1      -0.030   1.467   0.097  0.00  0.00     0.041 C 
ATOM      2  C2  <0> d   1       0.034  -0.058  -0.001  0.00  0.00     0.155 C 
ENDROOT
BRANCH   2   3
ATOM      3  C4  <0> d   1      -1.363  -0.616  -0.085  0.00  0.00     0.009 A 
ATOM      4  S12 <0> d   1      -2.370  -0.546  -1.518  0.00  0.00    -0.092 SA
ATOM      5  C11 <0> d   1      -3.692  -1.380  -0.712  0.00  0.00     0.015 A 
ATOM      6  C6  <0> d   1      -3.330  -1.673   0.606  0.00  0.00    -0.018 A 
ATOM      7  C10 <0> d   1      -4.955  -1.751  -1.184  0.00  0.00     0.019 A 
ATOM      8  C5  <0> d   1      -1.986  -1.213   0.912  0.00  0.00     0.029 A 
ATOM      9  C7  <0> d   1      -4.258  -2.341   1.434  0.00  0.00     0.013 A 
ATOM     10  C8  <0> d   1      -5.482  -2.693   0.955  0.00  0.00     0.001 A 
ATOM     11  C9  <0> d   1      -5.839  -2.401  -0.355  0.00  0.00     0.001 A 
ENDBRANCH   2   3
BRANCH   2  12
ATOM     12  N13 <0> d   1       0.785  -0.439  -1.201  0.00  0.00    -0.201 N 
ATOM     13  C15 <0> d   1       0.439   0.066  -2.401  0.00  0.00     0.340 C 
ATOM     14  N16 <0> d   1       1.176  -0.222  -3.492  0.00  0.00    -0.350 N 
ATOM     15  O17 <0> d   1      -0.539   0.782  -2.500  0.00  0.00    -0.245 OA
ATOM     16  H27 <0> d   1       1.912  -0.851  -3.427  0.00  0.00     0.160 HD
ATOM     17  H28 <0> d   1       0.971   0.199  -4.341  0.00  0.00     0.160 HD
BRANCH  12  18
ATOM     18  O14 <0> d   1       1.874  -1.338  -1.098  0.00  0.00    -0.283 OA
ATOM     19  H26 <0> d   1       2.355  -1.469  -1.927  0.00  0.00     0.245 HD
ENDBRANCH  12  18
ENDBRANCH   2  12
TORSDOF 3
