REMARK  8 active torsions:
REMARK  status: ('A' for Active; 'I' for Inactive)
REMARK    1  A    between atoms: C2_2  and  C4_4 
REMARK    2  A    between atoms: C4_4  and  O5_5 
REMARK    3  A    between atoms: O5_5  and  C6_6 
REMARK    4  A    between atoms: C6_6  and  C7_7 
REMARK    5  A    between atoms: C7_7  and  N8_8 
REMARK    6  A    between atoms: N11_11  and  C12_12 
REMARK    7  A    between atoms: C12_12  and  C14_13 
REMARK    8  A    between atoms: C12_12  and  C20_19 
ROOT
ATOM      1  C12 <0> d   1      -4.324  -3.468   4.016  0.00  0.00     0.289 C 
ENDROOT
BRANCH   1   2
ATOM      2  N11 <0> d   1      -4.289  -2.633   2.808  0.00  0.00     0.105 N 
ATOM      3  C10 <0> d   1      -3.518  -1.403   3.040  0.00  0.00     0.304 C 
ATOM      4  C9  <0> d   1      -3.439  -0.601   1.739  0.00  0.00     0.302 C 
ATOM      5  N8  <0> d   1      -4.798  -0.288   1.276  0.00  0.00     0.093 N 
ATOM      6  C28 <0> d   1      -5.568  -1.518   1.043  0.00  0.00     0.302 C 
ATOM      7  C27 <0> d   1      -5.647  -2.320   2.344  0.00  0.00     0.304 C 
BRANCH   5   8
ATOM      8  C7  <0> d   1      -4.762   0.547   0.068  0.00  0.00     0.298 C 
BRANCH   8   9
ATOM      9  C6  <0> d   1      -3.776  -0.050  -0.937  0.00  0.00     0.198 C 
BRANCH   9  10
ATOM     10  O5  <0> d   1      -4.254  -1.323  -1.375  0.00  0.00    -0.379 OA
BRANCH  10  11
ATOM     11  C4  <0> d   1      -3.401  -1.971  -2.321  0.00  0.00     0.280 C 
BRANCH  11  12
ATOM     12  C2  <0> d   1      -4.000  -3.298  -2.712  0.00  0.00     0.197 C 
ATOM     13  O1  <0> d   1      -5.059  -3.655  -2.225  0.00  0.00    -0.646 OA
ATOM     14  O3  <0> d   1      -3.428  -4.011  -3.518  0.00  0.00    -0.646 OA
ENDBRANCH  11  12
ENDBRANCH  10  11
ENDBRANCH   9  10
ENDBRANCH   8   9
ENDBRANCH   5   8
ENDBRANCH   1   2
BRANCH   1  15
ATOM     15  C14 <0> d   1      -2.916  -3.809   4.432  0.00  0.00    -0.021 A 
ATOM     16  C19 <0> d   1      -2.541  -3.699   5.758  0.00  0.00     0.010 A 
ATOM     17  C18 <0> d   1      -1.251  -4.016   6.141  0.00  0.00     0.001 A 
ATOM     18  C17 <0> d   1      -0.333  -4.434   5.195  0.00  0.00     0.000 A 
ATOM     19  C16 <0> d   1      -0.707  -4.539   3.869  0.00  0.00     0.001 A 
ATOM     20  C15 <0> d   1      -1.998  -4.226   3.487  0.00  0.00     0.010 A 
ENDBRANCH   1  15
BRANCH   1  21
ATOM     21  C20 <0> d   1      -5.083  -4.737   3.727  0.00  0.00    -0.021 A 
ATOM     22  C26 <0> d   1      -6.019  -5.203   4.632  0.00  0.00     0.011 A 
ATOM     23  C25 <0> d   1      -6.721  -6.364   4.365  0.00  0.00     0.024 A 
ATOM     24  C23 <0> d   1      -6.478  -7.065   3.198  0.00  0.00     0.034 A 
ATOM     25  C22 <0> d   1      -5.537  -6.602   2.296  0.00  0.00     0.024 A 
ATOM     26 Cl24 <0> d   1      -7.352  -8.527   2.865  0.00  0.00    -0.084 Cl
ATOM     27  C21 <0> d   1      -4.840  -5.438   2.561  0.00  0.00     0.011 A 
ENDBRANCH   1  21
TORSDOF 8
