REMARK  8 active torsions:
REMARK  status: ('A' for Active; 'I' for Inactive)
REMARK    1  A    between atoms: O2_2  and  C3_3 
REMARK    2  A    between atoms: C8_8  and  C9_9 
REMARK    3  A    between atoms: C9_9  and  C10_10 
REMARK    4  A    between atoms: C20_20  and  C21_21 
REMARK    5  A    between atoms: N25_25  and  C26_26 
REMARK    6  A    between atoms: C26_26  and  C28_27 
REMARK    7  A    between atoms: C26_26  and  C30_29 
REMARK    8  A    between atoms: C28_27  and  O29_28 
ROOT
ATOM      1  C3  ZIN A   1       0.814   0.254   0.379  0.00  0.00     0.077 A 
ATOM      2  C4  ZIN A   1       1.290   0.793   1.561  0.00  0.00     0.067 A 
ATOM      3  C5  ZIN A   1       1.894  -0.032   2.504  0.00  0.00     0.051 A 
ATOM      4  C6  ZIN A   1       2.009  -1.408   2.236  0.00  0.00     0.043 A 
ATOM      5  C7  ZIN A   1       1.523  -1.935   1.039  0.00  0.00     0.028 A 
ATOM      6  C8  ZIN A   1       0.928  -1.112   0.126  0.00  0.00    -0.019 A 
ATOM      7  C18 ZIN A   1       2.651  -2.271   3.243  0.00  0.00     0.202 A 
ATOM      8  O19 ZIN A   1       2.777  -3.469   3.064  0.00  0.00    -0.286 OA
ATOM      9  C20 ZIN A   1       3.133  -1.624   4.476  0.00  0.00     0.107 A 
ATOM     10  C24 ZIN A   1       2.962  -0.261   4.625  0.00  0.00     0.114 A 
ATOM     11  N25 ZIN A   1       2.374   0.491   3.686  0.00  0.00    -0.348 N 
ENDROOT
BRANCH   6  12
ATOM     12  C9  ZIN A   1       0.404  -1.681  -1.167  0.00  0.00     0.083 C 
BRANCH  12  13
ATOM     13  C10 ZIN A   1       1.447  -1.528  -2.243  0.00  0.00    -0.013 A 
ATOM     14  C16 ZIN A   1       2.443  -2.479  -2.383  0.00  0.00     0.144 A 
ATOM     15  C14 ZIN A   1       3.398  -2.339  -3.377  0.00  0.00     0.073 A 
ATOM     16  F17 ZIN A   1       2.477  -3.549  -1.558  0.00  0.00    -0.204 F 
ATOM     17  C13 ZIN A   1       3.362  -1.244  -4.220  0.00  0.00     0.027 A 
ATOM     18 Cl15 ZIN A   1       4.644  -3.535  -3.558  0.00  0.00    -0.081 Cl
ATOM     19  C12 ZIN A   1       2.370  -0.292  -4.075  0.00  0.00     0.002 A 
ATOM     20  C11 ZIN A   1       1.413  -0.434  -3.088  0.00  0.00     0.011 A 
ENDBRANCH  12  13
ENDBRANCH   6  12
BRANCH   1  21
ATOM     21  O2  ZIN A   1       0.225   1.061  -0.540  0.00  0.00    -0.355 OA
ATOM     22  C1  ZIN A   1       0.138   2.451  -0.221  0.00  0.00     0.210 C 
ENDBRANCH   1  21
BRANCH  11  23
ATOM     23  C26 ZIN A   1       2.234   1.929   3.925  0.00  0.00     0.116 C 
BRANCH  23  24
ATOM     24  C28 ZIN A   1       3.620   2.577   3.965  0.00  0.00     0.190 C 
BRANCH  24  25
ATOM     25  O29 ZIN A   1       4.349   2.071   5.085  0.00  0.00    -0.399 OA
ATOM     26  H46 ZIN A   1       5.239   2.439   5.173  0.00  0.00     0.209 HD
ENDBRANCH  24  25
ENDBRANCH  23  24
BRANCH  23  27
ATOM     27  C30 ZIN A   1       1.526   2.158   5.261  0.00  0.00     0.003 C 
ATOM     28  C31 ZIN A   1       1.338   3.659   5.489  0.00  0.00     0.011 C 
ATOM     29  C32 ZIN A   1       0.159   1.470   5.238  0.00  0.00     0.011 C 
ENDBRANCH  23  27
ENDBRANCH  11  23
BRANCH   9  30
ATOM     30  C21 ZIN A   1       3.783  -2.413   5.527  0.00  0.00     0.214 C 
ATOM     31  O22 ZIN A   1       4.180  -1.865   6.547  0.00  0.00    -0.644 OA
ATOM     32  O23 ZIN A   1       3.929  -3.620   5.384  0.00  0.00    -0.644 OA
ENDBRANCH   9  30
TORSDOF 8
