REMARK  14 active torsions:
REMARK  status: ('A' for Active; 'I' for Inactive)
REMARK    1  A    between atoms: C2_2  and  N5_5 
REMARK       I    between atoms: N5_5  and  C6_6 
REMARK    2  A    between atoms: C6_6  and  C8_8 
REMARK    3  A    between atoms: N11_10  and  C12_11 
REMARK    4  A    between atoms: C12_11  and  C13_12 
REMARK    5  A    between atoms: N21_20  and  C22_21 
REMARK    6  A    between atoms: C22_21  and  C23_22 
REMARK    7  A    between atoms: C23_22  and  O25_23 
REMARK    8  A    between atoms: C23_22  and  C26_24 
REMARK    9  A    between atoms: C26_24  and  C27_25 
REMARK   10  A    between atoms: C27_25  and  C29_26 
REMARK   11  A    between atoms: C27_25  and  C36_33 
REMARK   12  A    between atoms: C29_26  and  C30_27 
REMARK       I    between atoms: C36_33  and  N38_35 
REMARK   13  A    between atoms: N38_35  and  C39_36 
REMARK   14  A    between atoms: C48_44  and  O50_45 
ROOT
ATOM      1  C23 ZIN A   1       5.204   1.748  -2.489  0.00  0.00     0.147 C 
ENDROOT
BRANCH   1   2
ATOM      2  C22 ZIN A   1       3.895   1.010  -2.201  0.00  0.00     0.305 C 
BRANCH   2   3
ATOM      3  N21 ZIN A   1       3.868  -0.251  -2.953  0.00  0.00     0.108 N 
ATOM      4  C8  ZIN A   1       2.930  -1.207  -2.347  0.00  0.00     0.342 C 
ATOM      5  C10 ZIN A   1       2.990  -2.531  -3.111  0.00  0.00     0.318 C 
ATOM      6  N11 ZIN A   1       2.657  -2.295  -4.523  0.00  0.00     0.097 N 
ATOM      7  C19 ZIN A   1       3.595  -1.340  -5.129  0.00  0.00     0.303 C 
ATOM      8  C20 ZIN A   1       3.535  -0.015  -4.365  0.00  0.00     0.303 C 
BRANCH   4   9
ATOM      9  C6  ZIN A   1       3.310  -1.439  -0.907  0.00  0.00     0.253 C 
ATOM     10  N5  ZIN A   1       2.403  -1.933  -0.042  0.00  0.00    -0.351 N 
ATOM     11  H60 ZIN A   1       1.505  -2.139  -0.346  0.00  0.00     0.163 HD
ATOM     12  O7  ZIN A   1       4.433  -1.182  -0.527  0.00  0.00    -0.271 OA
BRANCH  10  13
ATOM     13  C2  ZIN A   1       2.772  -2.159   1.357  0.00  0.00     0.022 C 
ATOM     14  C1  ZIN A   1       3.204  -0.836   1.991  0.00  0.00     0.037 C 
ATOM     15  C3  ZIN A   1       3.929  -3.159   1.424  0.00  0.00     0.037 C 
ATOM     16  C4  ZIN A   1       1.569  -2.720   2.118  0.00  0.00     0.037 C 
ENDBRANCH  10  13
ENDBRANCH   4   9
BRANCH   6  17
ATOM     17  C12 ZIN A   1       2.629  -3.556  -5.276  0.00  0.00     0.312 C 
BRANCH  17  18
ATOM     18  C13 ZIN A   1       2.530  -3.259  -6.750  0.00  0.00    -0.013 A 
ATOM     19  C18 ZIN A   1       3.673  -3.101  -7.511  0.00  0.00     0.125 A 
ATOM     20  N17 ZIN A   1       3.594  -2.846  -8.802  0.00  0.00    -0.273 NA
ATOM     21  C16 ZIN A   1       2.433  -2.721  -9.414  0.00  0.00     0.116 A 
ATOM     22  C15 ZIN A   1       1.248  -2.860  -8.718  0.00  0.00     0.020 A 
ATOM     23  C14 ZIN A   1       1.291  -3.135  -7.359  0.00  0.00     0.012 A 
ENDBRANCH  17  18
ENDBRANCH   6  17
ENDBRANCH   2   3
ENDBRANCH   1   2
BRANCH   1  24
ATOM     24  O25 ZIN A   1       5.243   2.129  -3.866  0.00  0.00    -0.394 OA
ATOM     25  H75 ZIN A   1       4.521   2.715  -4.132  0.00  0.00     0.210 HD
ENDBRANCH   1  24
BRANCH   1  26
ATOM     26  C26 ZIN A   1       5.289   2.998  -1.611  0.00  0.00     0.047 C 
BRANCH  26  27
ATOM     27  C27 ZIN A   1       6.619   3.710  -1.866  0.00  0.00     0.084 C 
BRANCH  27  28
ATOM     28  C29 ZIN A   1       6.647   4.240  -3.301  0.00  0.00     0.052 C 
BRANCH  28  29
ATOM     29  C30 ZIN A   1       7.942   4.972  -3.541  0.00  0.00    -0.057 A 
ATOM     30  C35 ZIN A   1       9.078   4.269  -3.900  0.00  0.00     0.007 A 
ATOM     31  C34 ZIN A   1      10.264   4.942  -4.124  0.00  0.00     0.001 A 
ATOM     32  C33 ZIN A   1      10.318   6.316  -3.981  0.00  0.00     0.000 A 
ATOM     33  C32 ZIN A   1       9.184   7.018  -3.617  0.00  0.00     0.001 A 
ATOM     34  C31 ZIN A   1       7.996   6.346  -3.397  0.00  0.00     0.007 A 
ENDBRANCH  28  29
ENDBRANCH  27  28
BRANCH  27  35
ATOM     35  C36 ZIN A   1       6.765   4.861  -0.903  0.00  0.00     0.222 C 
ATOM     36  O37 ZIN A   1       5.781   5.355  -0.395  0.00  0.00    -0.273 OA
ATOM     37  N38 ZIN A   1       7.989   5.340  -0.607  0.00  0.00    -0.350 N 
ATOM     38  H85 ZIN A   1       8.768   5.008  -1.080  0.00  0.00     0.163 HD
BRANCH  37  39
ATOM     39  C39 ZIN A   1       8.144   6.363   0.430  0.00  0.00     0.147 C 
ATOM     40  C48 ZIN A   1       9.421   7.193   0.178  0.00  0.00     0.149 C 
ATOM     41  C47 ZIN A   1       9.908   7.493   1.613  0.00  0.00     0.073 C 
ATOM     42  C46 ZIN A   1       9.365   6.364   2.462  0.00  0.00    -0.047 A 
ATOM     43  C41 ZIN A   1       8.351   5.714   1.782  0.00  0.00    -0.027 A 
ATOM     44  C45 ZIN A   1       9.728   5.938   3.728  0.00  0.00     0.008 A 
ATOM     45  C42 ZIN A   1       7.704   4.641   2.370  0.00  0.00     0.010 A 
ATOM     46  C43 ZIN A   1       8.067   4.218   3.634  0.00  0.00     0.001 A 
ATOM     47  C44 ZIN A   1       9.081   4.867   4.314  0.00  0.00     0.001 A 
BRANCH  40  48
ATOM     48  O50 ZIN A   1      10.392   6.428  -0.539  0.00  0.00    -0.393 OA
ATOM     49  H92 ZIN A   1      11.243   6.874  -0.647  0.00  0.00     0.210 HD
ENDBRANCH  40  48
ENDBRANCH  37  39
ENDBRANCH  27  35
ENDBRANCH  26  27
ENDBRANCH   1  26
TORSDOF 14
