REMARK  3 active torsions:
REMARK  status: ('A' for Active; 'I' for Inactive)
REMARK    1  A    between atoms: N1_1  and  C5_5 
REMARK    2  A    between atoms: C5_5  and  C6_6 
REMARK    3  A    between atoms: C6_6  and  C7_7 
ROOT
ATOM      1  C7  <0> d   1      -1.425   3.494   2.465  0.00  0.00     0.027 A 
ATOM      2  C8  <0> d   1      -2.754   3.649   2.624  0.00  0.00     0.114 A 
ATOM      3  N9  <0> d   1      -2.972   4.100   3.868  0.00  0.00    -0.360 N 
ATOM      4  H10 <0> d   1      -3.842   4.298   4.249  0.00  0.00     0.166 HD
ATOM      5  C11 <0> d   1      -1.830   4.231   4.485  0.00  0.00     0.180 A 
ATOM      6  N12 <0> d   1      -0.840   3.858   3.647  0.00  0.00    -0.355 N 
ATOM      7  H19 <0> d   1       0.110   3.855   3.844  0.00  0.00     0.166 HD
ENDROOT
BRANCH   1   8
ATOM      8  C6  <0> d   1      -0.720   3.008   1.225  0.00  0.00     0.085 C 
BRANCH   8   9
ATOM      9  C5  <0> d   1      -0.699   1.479   1.216  0.00  0.00     0.235 C 
BRANCH   9  10
ATOM     10  N1  <0> d   1      -0.012   1.005   0.008  0.00  0.00    -0.079 N 
ATOM     11  H2  <0> d   1       0.002  -0.004   0.002  0.00  0.00     0.274 HD
ATOM     12  H3  <0> d   1       0.935   1.354   0.000  0.00  0.00     0.274 HD
ATOM     13  H4  <0> d   1      -0.500   1.339  -0.810  0.00  0.00     0.274 HD
ENDBRANCH   9  10
ENDBRANCH   8   9
ENDBRANCH   1   8
TORSDOF 3
