REMARK  5 active torsions:
REMARK  status: ('A' for Active; 'I' for Inactive)
REMARK    1  A    between atoms: C2_2  and  C3_3 
REMARK    2  A    between atoms: C3_3  and  N4_4 
REMARK    3  A    between atoms: N4_4  and  C7_7 
REMARK    4  A    between atoms: C7_7  and  C10_9 
REMARK       I    between atoms: C10_9  and  N12_11 
REMARK    5  A    between atoms: N12_11  and  C13_12 
ROOT
ATOM      1  C10 <0> d   1      -2.772  -4.013   0.137  0.00  0.00     0.252 C 
ATOM      2  O11 <0> d   1      -1.714  -4.603   0.200  0.00  0.00    -0.271 OA
ATOM      3  N12 <0> d   1      -3.930  -4.702   0.160  0.00  0.00    -0.325 N 
ATOM      4  H30 <0> d   1      -4.776  -4.228   0.175  0.00  0.00     0.169 HD
ENDROOT
BRANCH   1   5
ATOM      5  C7  <0> d   1      -2.791  -2.510   0.033  0.00  0.00     0.273 C 
ATOM      6  C9  <0> d   1      -3.492  -2.098  -1.263  0.00  0.00     0.050 C 
BRANCH   5   7
ATOM      7  N4  <0> d   1      -1.413  -2.002   0.027  0.00  0.00    -0.063 N 
ATOM      8  H5  <0> d   1      -0.940  -2.321  -0.805  0.00  0.00     0.278 HD
ATOM      9  H6  <0> d   1      -0.925  -2.342   0.842  0.00  0.00     0.278 HD
BRANCH   7  10
ATOM     10  C3  <0> d   1      -1.433  -0.533   0.046  0.00  0.00     0.233 C 
BRANCH  10  11
ATOM     11  C2  <0> d   1       0.003  -0.004   0.040  0.00  0.00     0.023 C 
ATOM     12  C1  <0> d   1      -0.018   1.526   0.060  0.00  0.00     0.007 C 
ENDBRANCH  10  11
ENDBRANCH   7  10
ENDBRANCH   5   7
ENDBRANCH   1   5
BRANCH   3  13
ATOM     13  C13 <0> d   1      -3.912  -6.101   0.161  0.00  0.00     0.040 A 
ATOM     14  C18 <0> d   1      -4.907  -6.811  -0.499  0.00  0.00    -0.035 A 
ATOM     15  C17 <0> d   1      -4.882  -8.192  -0.501  0.00  0.00     0.009 A 
ATOM     16  C19 <0> d   1      -6.004  -6.075  -1.223  0.00  0.00     0.050 C 
ATOM     17  C16 <0> d   1      -3.875  -8.868   0.164  0.00  0.00     0.001 A 
ATOM     18  C15 <0> d   1      -2.887  -8.165   0.827  0.00  0.00     0.002 A 
ATOM     19  C14 <0> d   1      -2.902  -6.783   0.828  0.00  0.00     0.030 A 
ENDBRANCH   3  13
TORSDOF 5
