REMARK  6 active torsions:
REMARK  status: ('A' for Active; 'I' for Inactive)
REMARK    1  A    between atoms: C7_7  and  C8_8 
REMARK    2  A    between atoms: C8_8  and  O10_9 
REMARK    3  A    between atoms: C8_8  and  C17_16 
REMARK    4  A    between atoms: O10_9  and  C11_10 
REMARK    5  A    between atoms: C11_10  and  C12_11 
REMARK    6  A    between atoms: C12_11  and  N13_12 
ROOT
ATOM      1  C8  ZIN A   1      -0.013   0.225   2.524  0.00  0.00     0.188 C 
ENDROOT
BRANCH   1   2
ATOM      2  C7  ZIN A   1       0.032  -0.475   1.191  0.00  0.00    -0.019 A 
ATOM      3  C2  ZIN A   1      -0.041   0.258   0.021  0.00  0.00    -0.053 A 
ATOM      4  C1  ZIN A   1      -0.161   1.759   0.080  0.00  0.00     0.049 C 
ATOM      5  C3  ZIN A   1       0.001  -0.384  -1.202  0.00  0.00     0.007 A 
ATOM      6  C4  ZIN A   1       0.111  -1.762  -1.255  0.00  0.00     0.001 A 
ATOM      7  C5  ZIN A   1       0.179  -2.495  -0.086  0.00  0.00     0.001 A 
ATOM      8  C6  ZIN A   1       0.138  -1.853   1.137  0.00  0.00     0.011 A 
ENDBRANCH   1   2
BRANCH   1   9
ATOM      9  O10 ZIN A   1      -0.508  -0.674   3.518  0.00  0.00    -0.375 OA
BRANCH   9  10
ATOM     10  C11 ZIN A   1      -1.929  -0.643   3.673  0.00  0.00     0.196 C 
BRANCH  10  11
ATOM     11  C12 ZIN A   1      -2.344  -1.640   4.758  0.00  0.00     0.260 C 
BRANCH  11  12
ATOM     12  N13 ZIN A   1      -1.779  -1.223   6.048  0.00  0.00    -0.077 N 
ATOM     13  H14 ZIN A   1      -0.782  -1.102   5.955  0.00  0.00     0.279 HD
ATOM     14  C15 ZIN A   1      -2.390   0.046   6.463  0.00  0.00     0.269 C 
ATOM     15  C16 ZIN A   1      -2.055  -2.253   7.058  0.00  0.00     0.269 C 
ENDBRANCH  11  12
ENDBRANCH  10  11
ENDBRANCH   9  10
ENDBRANCH   1   9
BRANCH   1  16
ATOM     16  C17 ZIN A   1       1.374   0.677   2.901  0.00  0.00    -0.025 A 
ATOM     17  C22 ZIN A   1       1.751   1.992   2.704  0.00  0.00     0.010 A 
ATOM     18  C21 ZIN A   1       3.022   2.407   3.054  0.00  0.00     0.001 A 
ATOM     19  C20 ZIN A   1       3.920   1.505   3.593  0.00  0.00     0.000 A 
ATOM     20  C19 ZIN A   1       3.545   0.188   3.785  0.00  0.00     0.001 A 
ATOM     21  C18 ZIN A   1       2.273  -0.226   3.439  0.00  0.00     0.010 A 
ENDBRANCH   1  16
TORSDOF 6
