REMARK  5 active torsions:
REMARK  status: ('A' for Active; 'I' for Inactive)
REMARK    1  A    between atoms: C6_6  and  N7_7 
REMARK    2  A    between atoms: N7_7  and  C8_8 
REMARK    3  A    between atoms: C13_13  and  S14_14 
REMARK    4  A    between atoms: S14_14  and  N17_17 
REMARK       I    between atoms: C18_18  and  N20_20 
REMARK    5  A    between atoms: N20_20  and  C21_21 
ROOT
ATOM      1  C8  ZIN A   1      -0.035  -4.186   2.383  0.00  0.00     0.059 A 
ATOM      2  C9  ZIN A   1      -0.028  -4.897   1.183  0.00  0.00     0.050 A 
ATOM      3  C10 ZIN A   1      -0.115  -6.273   1.218  0.00  0.00     0.118 A 
ATOM      4  N11 ZIN A   1      -0.205  -6.916   2.367  0.00  0.00    -0.271 NA
ATOM      5  C12 ZIN A   1      -0.215  -6.280   3.524  0.00  0.00     0.144 A 
ATOM      6  C13 ZIN A   1      -0.126  -4.905   3.575  0.00  0.00     0.125 A 
ENDROOT
BRANCH   6   7
ATOM      7  S14 ZIN A   1      -0.141  -4.066   5.125  0.00  0.00     0.290 S 
ATOM      8  O15 ZIN A   1      -1.090  -3.016   5.004  0.00  0.00    -0.198 OA
ATOM      9  O16 ZIN A   1      -0.218  -5.072   6.125  0.00  0.00    -0.198 OA
BRANCH   7  10
ATOM     10  N17 ZIN A   1       1.338  -3.341   5.304  0.00  0.00    -0.115 NA
ATOM     11  C18 ZIN A   1       1.597  -2.648   6.374  0.00  0.00     0.284 C 
ATOM     12  O19 ZIN A   1       0.660  -2.519   7.339  0.00  0.00    -0.149 OA
ATOM     13  N20 ZIN A   1       2.823  -2.047   6.522  0.00  0.00    -0.348 N 
ATOM     14  H35 ZIN A   1       3.495  -2.139   5.829  0.00  0.00     0.163 HD
BRANCH  13  15
ATOM     15  C21 ZIN A   1       3.115  -1.266   7.727  0.00  0.00     0.077 C 
ATOM     16  C22 ZIN A   1       4.626  -1.237   7.962  0.00  0.00     0.032 C 
ATOM     17  C23 ZIN A   1       2.600   0.163   7.545  0.00  0.00     0.032 C 
ENDBRANCH  13  15
ENDBRANCH   7  10
ENDBRANCH   6   7
BRANCH   1  18
ATOM     18  N7  ZIN A   1       0.051  -2.797   2.391  0.00  0.00    -0.355 N 
ATOM     19  H31 ZIN A   1      -0.063  -2.308   3.221  0.00  0.00     0.166 HD
BRANCH  18  20
ATOM     20  C6  ZIN A   1       0.302  -2.105   1.203  0.00  0.00     0.033 A 
ATOM     21  C5  ZIN A   1       1.241  -2.590   0.300  0.00  0.00     0.029 A 
ATOM     22  C4  ZIN A   1       1.487  -1.905  -0.873  0.00  0.00     0.003 A 
ATOM     23  C3  ZIN A   1       0.800  -0.737  -1.150  0.00  0.00     0.007 A 
ATOM     24  C2  ZIN A   1      -0.135  -0.252  -0.254  0.00  0.00    -0.060 A 
ATOM     25  C1  ZIN A   1      -0.881   1.021  -0.560  0.00  0.00     0.048 C 
ATOM     26  C24 ZIN A   1      -0.382  -0.929   0.924  0.00  0.00     0.036 A 
ENDBRANCH  18  20
ENDBRANCH   1  18
TORSDOF 5
