REMARK  7 active torsions:
REMARK  status: ('A' for Active; 'I' for Inactive)
REMARK    1  A    between atoms: O2_2  and  C3_3 
REMARK    2  A    between atoms: C7_7  and  C8_8 
REMARK    3  A    between atoms: C8_8  and  S9_9 
REMARK    4  A    between atoms: S9_9  and  C11_11 
REMARK    5  A    between atoms: C15_15  and  O16_16 
REMARK    6  A    between atoms: O16_16  and  C17_17 
REMARK    7  A    between atoms: C24_24  and  O25_25 
ROOT
ATOM      1  C11 ZIN A   1       2.946  -6.378  -2.068  0.00  0.00     0.198 A 
ATOM      2  N12 ZIN A   1       2.475  -7.296  -1.275  0.00  0.00    -0.220 NA
ATOM      3  C13 ZIN A   1       2.608  -8.515  -1.856  0.00  0.00     0.089 A 
ATOM      4  C14 ZIN A   1       2.277  -9.813  -1.457  0.00  0.00     0.071 A 
ATOM      5  C15 ZIN A   1       2.546 -10.877  -2.295  0.00  0.00     0.077 A 
ATOM      6  C20 ZIN A   1       3.144 -10.664  -3.534  0.00  0.00     0.039 A 
ATOM      7  C21 ZIN A   1       3.475  -9.389  -3.939  0.00  0.00     0.035 A 
ATOM      8  C22 ZIN A   1       3.211  -8.309  -3.108  0.00  0.00     0.063 A 
ATOM      9  N23 ZIN A   1       3.407  -6.944  -3.216  0.00  0.00    -0.331 N 
ATOM     10  H38 ZIN A   1       3.802  -6.477  -3.969  0.00  0.00     0.168 HD
ENDROOT
BRANCH   1  11
ATOM     11  S9  ZIN A   1       2.974  -4.653  -1.712  0.00  0.00     0.092 S 
ATOM     12  O10 ZIN A   1       2.947  -4.620  -0.291  0.00  0.00    -0.249 OA
BRANCH  11  13
ATOM     13  C8  ZIN A   1       1.381  -4.076  -2.360  0.00  0.00     0.179 C 
BRANCH  13  14
ATOM     14  C7  ZIN A   1       1.304  -2.576  -2.242  0.00  0.00     0.082 A 
ATOM     15  N6  ZIN A   1       0.719  -2.033  -1.191  0.00  0.00    -0.262 NA
ATOM     16  C5  ZIN A   1       0.626  -0.726  -1.043  0.00  0.00     0.120 A 
ATOM     17  C4  ZIN A   1       1.144   0.135  -1.991  0.00  0.00     0.059 A 
ATOM     18  C3  ZIN A   1       1.769  -0.393  -3.115  0.00  0.00     0.104 A 
ATOM     19  C24 ZIN A   1       1.842  -1.783  -3.240  0.00  0.00     0.127 A 
BRANCH  18  20
ATOM     20  O2  ZIN A   1       2.290   0.421  -4.070  0.00  0.00    -0.353 OA
ATOM     21  C1  ZIN A   1       2.169   1.829  -3.858  0.00  0.00     0.210 C 
ENDBRANCH  18  20
BRANCH  19  22
ATOM     22  O25 ZIN A   1       2.443  -2.348  -4.322  0.00  0.00    -0.351 OA
ATOM     23  C26 ZIN A   1       1.642  -2.524  -5.492  0.00  0.00     0.210 C 
ENDBRANCH  19  22
ENDBRANCH  13  14
ENDBRANCH  11  13
ENDBRANCH   1  11
BRANCH   5  24
ATOM     24  O16 ZIN A   1       2.225 -12.140  -1.908  0.00  0.00    -0.290 OA
BRANCH  24  25
ATOM     25  C17 ZIN A   1       2.530 -13.196  -2.822  0.00  0.00     0.505 C 
ATOM     26  F18 ZIN A   1       1.845 -12.985  -4.023  0.00  0.00    -0.184 F 
ATOM     27  F19 ZIN A   1       3.907 -13.216  -3.067  0.00  0.00    -0.184 F 
ENDBRANCH  24  25
ENDBRANCH   5  24
TORSDOF 7
