REMARK  4 active torsions:
REMARK  status: ('A' for Active; 'I' for Inactive)
REMARK    1  A    between atoms: C2_2  and  N4_3 
REMARK    2  A    between atoms: C2_2  and  C11_10 
REMARK    3  A    between atoms: N4_3  and  C7_6 
REMARK    4  A    between atoms: C11_10  and  C13_12 
ROOT
ATOM      1  C1  ZIN A   1      -1.226   1.684   0.229  0.00  0.00     0.049 C 
ATOM      2  C2  ZIN A   1      -0.668   0.261   0.152  0.00  0.00     0.257 C 
ENDROOT
BRANCH   2   3
ATOM      3  N4  ZIN A   1      -1.776  -0.693   0.013  0.00  0.00    -0.056 N 
ATOM      4  H5  ZIN A   1      -2.513  -0.449   0.657  0.00  0.00     0.279 HD
ATOM      5  H6  ZIN A   1      -2.131  -0.661  -0.931  0.00  0.00     0.279 HD
BRANCH   3   6
ATOM      6  C7  ZIN A   1      -1.295  -2.049   0.311  0.00  0.00     0.116 C 
ATOM      7  C8  ZIN A   1      -0.649  -2.068   1.697  0.00  0.00     0.045 C 
ATOM      8  C9  ZIN A   1      -2.473  -3.025   0.284  0.00  0.00     0.045 C 
ATOM      9  C10 ZIN A   1      -0.263  -2.466  -0.739  0.00  0.00     0.045 C 
ENDBRANCH   3   6
ENDBRANCH   2   3
BRANCH   2  10
ATOM     10  C11 ZIN A   1       0.248   0.145  -1.039  0.00  0.00     0.189 C 
ATOM     11  O12 ZIN A   1      -0.185  -0.255  -2.099  0.00  0.00    -0.290 OA
BRANCH  10  12
ATOM     12  C13 ZIN A   1       1.667   0.515  -0.916  0.00  0.00     0.013 A 
ATOM     13  C19 ZIN A   1       2.519   0.408  -2.019  0.00  0.00     0.039 A 
ATOM     14  C17 ZIN A   1       3.847   0.764  -1.897  0.00  0.00     0.035 A 
ATOM     15  C16 ZIN A   1       4.338   1.214  -0.682  0.00  0.00     0.024 A 
ATOM     16 Cl18 ZIN A   1       4.907   0.640  -3.267  0.00  0.00    -0.084 Cl
ATOM     17  C15 ZIN A   1       3.501   1.316   0.415  0.00  0.00     0.003 A 
ATOM     18  C14 ZIN A   1       2.170   0.970   0.307  0.00  0.00     0.015 A 
ENDBRANCH  10  12
ENDBRANCH   2  10
TORSDOF 4
