REMARK  6 active torsions:
REMARK  status: ('A' for Active; 'I' for Inactive)
REMARK       I    between atoms: N2_2  and  C4_4 
REMARK    1  A    between atoms: C4_4  and  C6_6 
REMARK    2  A    between atoms: C10_9  and  N12_10 
REMARK       I    between atoms: N12_10  and  C13_11 
REMARK    3  A    between atoms: C13_11  and  C15_13 
REMARK       I    between atoms: C15_13  and  N17_15 
REMARK    4  A    between atoms: N17_15  and  C18_16 
REMARK    5  A    between atoms: C25_23  and  N27_24 
REMARK       I    between atoms: N27_24  and  C28_25 
REMARK    6  A    between atoms: C28_25  and  C30_27 
ROOT
ATOM      1  C6  ZIN A   1      -1.146  -2.199   0.002  0.00  0.00     0.080 C 
ATOM      2  C8  ZIN A   1      -0.405  -2.705   1.241  0.00  0.00     0.016 C 
ATOM      3  C9  ZIN A   1      -0.382  -4.235   1.233  0.00  0.00     0.028 C 
ATOM      4  C10 ZIN A   1      -1.817  -4.767   1.244  0.00  0.00     0.107 C 
ATOM      5  C25 ZIN A   1      -2.558  -4.261   0.005  0.00  0.00     0.108 C 
ATOM      6  C40 ZIN A   1      -2.580  -2.731   0.014  0.00  0.00     0.041 C 
ENDROOT
BRANCH   4   7
ATOM      7  N12 ZIN A   1      -1.795  -6.232   1.236  0.00  0.00    -0.346 N 
ATOM      8  C13 ZIN A   1      -1.671  -6.910   2.393  0.00  0.00     0.310 C 
ATOM      9  O14 ZIN A   1      -1.578  -6.308   3.443  0.00  0.00    -0.262 OA
ATOM     10  H51 ZIN A   1      -1.869  -6.713   0.397  0.00  0.00     0.163 HD
BRANCH   8  11
ATOM     11  C15 ZIN A   1      -1.649  -8.404   2.385  0.00  0.00     0.315 C 
ATOM     12  O16 ZIN A   1      -1.742  -9.006   1.335  0.00  0.00    -0.262 OA
ATOM     13  N17 ZIN A   1      -1.526  -9.082   3.543  0.00  0.00    -0.303 N 
ATOM     14  H52 ZIN A   1      -1.378  -8.603   4.373  0.00  0.00     0.171 HD
BRANCH  13  15
ATOM     15  C18 ZIN A   1      -1.612 -10.473   3.548  0.00  0.00     0.130 A 
ATOM     16  N24 ZIN A   1      -1.719 -11.127   2.402  0.00  0.00    -0.242 NA
ATOM     17  C23 ZIN A   1      -1.797 -12.443   2.361  0.00  0.00     0.142 A 
ATOM     18  C21 ZIN A   1      -1.782 -13.190   3.524  0.00  0.00     0.051 A 
ATOM     19  C20 ZIN A   1      -1.676 -12.541   4.747  0.00  0.00     0.029 A 
ATOM     20 Cl22 ZIN A   1      -1.893 -14.921   3.456  0.00  0.00    -0.083 Cl
ATOM     21  C19 ZIN A   1      -1.589 -11.160   4.756  0.00  0.00     0.052 A 
ENDBRANCH  13  15
ENDBRANCH   8  11
ENDBRANCH   4   7
BRANCH   5  22
ATOM     22  N27 ZIN A   1      -1.872  -4.732  -1.201  0.00  0.00    -0.349 N 
ATOM     23  C28 ZIN A   1      -2.554  -4.864  -2.356  0.00  0.00     0.277 C 
ATOM     24  O29 ZIN A   1      -3.739  -4.592  -2.397  0.00  0.00    -0.265 OA
ATOM     25  H56 ZIN A   1      -0.927  -4.949  -1.168  0.00  0.00     0.163 HD
BRANCH  23  26
ATOM     26  C30 ZIN A   1      -1.865  -5.338  -3.568  0.00  0.00     0.166 A 
ATOM     27  S39 ZIN A   1      -0.162  -5.770  -3.673  0.00  0.00    -0.066 SA
ATOM     28  C33 ZIN A   1      -0.350  -6.152  -5.327  0.00  0.00     0.038 A 
ATOM     29  C32 ZIN A   1      -1.635  -5.933  -5.702  0.00  0.00     0.052 A 
ATOM     30  C34 ZIN A   1       0.734  -6.652  -6.255  0.00  0.00     0.320 C 
ATOM     31  N31 ZIN A   1      -2.414  -5.500  -4.736  0.00  0.00    -0.239 NA
ATOM     32  C38 ZIN A   1      -2.103  -6.178  -7.131  0.00  0.00     0.090 C 
ATOM     33  C37 ZIN A   1      -0.867  -6.260  -8.031  0.00  0.00     0.278 C 
ATOM     34  N35 ZIN A   1       0.097  -7.211  -7.458  0.00  0.00     0.089 N 
ATOM     35  C36 ZIN A   1       1.104  -7.603  -8.453  0.00  0.00     0.310 C 
ENDBRANCH  23  26
ENDBRANCH   5  22
BRANCH   1  36
ATOM     36  C4  ZIN A   1      -1.168  -0.693   0.011  0.00  0.00     0.223 C 
ATOM     37  N2  ZIN A   1      -0.011  -0.001   0.003  0.00  0.00    -0.360 N 
ATOM     38  C1  ZIN A   1      -0.033   1.463   0.012  0.00  0.00     0.152 C 
ATOM     39  C3  ZIN A   1       1.268  -0.715  -0.014  0.00  0.00     0.152 C 
ATOM     40  O5  ZIN A   1      -2.227  -0.102   0.025  0.00  0.00    -0.273 OA
ENDBRANCH   1  36
TORSDOF 6
