REMARK  1 active torsions:
REMARK  status: ('A' for Active; 'I' for Inactive)
REMARK    1  A    between atoms: N15_14  and  C16_15 
ROOT
ATOM      1  O1  ZIN A   1       0.011  -0.007  -0.095  0.00  0.00    -0.267 OA
ATOM      2  C2  ZIN A   1      -0.011   1.207  -0.042  0.00  0.00     0.254 C 
ATOM      3  C3  ZIN A   1      -1.302   1.929  -0.020  0.00  0.00     0.039 A 
ATOM      4  C4  ZIN A   1      -2.481   1.270  -0.357  0.00  0.00     0.017 A 
ATOM      5  C5  ZIN A   1      -3.673   1.966  -0.345  0.00  0.00     0.002 A 
ATOM      6  C6  ZIN A   1      -3.690   3.301   0.002  0.00  0.00     0.007 A 
ATOM      7  C7  ZIN A   1      -2.517   3.968   0.347  0.00  0.00    -0.050 A 
ATOM      8  C8  ZIN A   1      -1.326   3.282   0.336  0.00  0.00    -0.030 A 
ATOM      9  C9  ZIN A   1      -0.028   3.946   0.717  0.00  0.00     0.038 C 
ATOM     10  C11 ZIN A   1      -0.136   5.448   0.439  0.00  0.00     0.011 C 
ATOM     11  C12 ZIN A   1      -1.320   6.008   1.222  0.00  0.00     0.005 C 
ATOM     12  C13 ZIN A   1      -2.626   5.416   0.727  0.00  0.00     0.039 C 
ATOM     13  C14 ZIN A   1       1.125   3.367  -0.099  0.00  0.00     0.136 C 
ATOM     14  N15 ZIN A   1       1.139   1.905   0.001  0.00  0.00    -0.341 N 
ENDROOT
BRANCH  14  15
ATOM     15  C16 ZIN A   1       2.415   1.198   0.137  0.00  0.00     0.120 C 
ATOM     16  C22 ZIN A   1       3.223   1.343  -1.159  0.00  0.00     0.014 C 
ATOM     17  C21 ZIN A   1       4.567   0.625  -0.980  0.00  0.00     0.037 C 
ATOM     18  C23 ZIN A   1       3.493   2.833  -1.399  0.00  0.00     0.037 C 
ATOM     19  C20 ZIN A   1       5.309   1.247   0.206  0.00  0.00     0.273 C 
ATOM     20  N19 ZIN A   1       4.492   2.325   0.781  0.00  0.00     0.090 N 
ATOM     21  C18 ZIN A   1       3.217   1.804   1.293  0.00  0.00     0.298 C 
ATOM     22  C24 ZIN A   1       4.269   3.396  -0.200  0.00  0.00     0.273 C 
ENDBRANCH  14  15
TORSDOF 1
