REMARK  1 active torsions:
REMARK  status: ('A' for Active; 'I' for Inactive)
REMARK    1  A    between atoms: C7_7  and  C9_8 
ROOT
ATOM      1  C1  ZIN A   1       0.235   1.516  -0.055  0.00  0.00     0.270 C 
ATOM      2  N2  ZIN A   1       0.136   0.051  -0.059  0.00  0.00    -0.067 N 
ATOM      3  H3  ZIN A   1      -0.835  -0.224  -0.055  0.00  0.00     0.280 HD
ATOM      4  C4  ZIN A   1       0.800  -0.489  -1.259  0.00  0.00     0.235 C 
ATOM      5  C5  ZIN A   1       1.953  -1.393  -0.776  0.00  0.00     0.030 C 
ATOM      6  C6  ZIN A   1       2.234  -0.867   0.656  0.00  0.00     0.040 C 
ATOM      7  C7  ZIN A   1       0.812  -0.497   1.136  0.00  0.00     0.222 C 
ENDROOT
BRANCH   7   8
ATOM      8  C9  ZIN A   1       0.880   0.543   2.225  0.00  0.00    -0.010 A 
ATOM      9  C14 ZIN A   1       0.056   0.454   3.331  0.00  0.00     0.125 A 
ATOM     10  N13 ZIN A   1       0.113   1.357   4.289  0.00  0.00    -0.273 NA
ATOM     11  C12 ZIN A   1       0.943   2.380   4.229  0.00  0.00     0.116 A 
ATOM     12  C11 ZIN A   1       1.794   2.538   3.152  0.00  0.00     0.020 A 
ATOM     13  C10 ZIN A   1       1.766   1.605   2.127  0.00  0.00     0.012 A 
ENDBRANCH   7   8
TORSDOF 1
