REMARK  12 active torsions:
REMARK  status: ('A' for Active; 'I' for Inactive)
REMARK    1  A    between atoms: C2_2  and  C3_3 
REMARK    2  A    between atoms: C15_15  and  O16_16 
REMARK    3  A    between atoms: C18_18  and  C19_19 
REMARK    4  A    between atoms: C19_19  and  C20_20 
REMARK    5  A    between atoms: C20_20  and  O22_22 
REMARK    6  A    between atoms: C31_30  and  O32_31 
REMARK    7  A    between atoms: C31_30  and  C33_32 
REMARK    8  A    between atoms: C52_50  and  O53_51 
REMARK    9  A    between atoms: C52_50  and  C54_52 
REMARK   10  A    between atoms: C54_52  and  O56_54 
REMARK   11  A    between atoms: C58_56  and  O60_57 
REMARK   12  A    between atoms: O60_57  and  C61_58 
ROOT
ATOM      1  C3  ZIN A   1       0.903  -0.210   0.947  0.00  0.00     0.037 C 
ATOM      2  C4  ZIN A   1       0.265   0.447   2.133  0.00  0.00    -0.015 C 
ATOM      3  C5  ZIN A   1      -0.263  -0.232   3.107  0.00  0.00    -0.003 C 
ATOM      4  C6  ZIN A   1      -0.249  -1.731   3.116  0.00  0.00     0.262 C 
ATOM      5  N7  ZIN A   1      -0.297  -2.264   1.751  0.00  0.00    -0.061 N 
ATOM      6  H8  ZIN A   1      -1.211  -2.120   1.349  0.00  0.00     0.280 HD
ATOM      7  C9  ZIN A   1       0.012  -3.720   1.832  0.00  0.00     0.237 C 
ATOM      8  C10 ZIN A   1       1.558  -3.780   1.791  0.00  0.00     0.046 C 
ATOM      9  C11 ZIN A   1       1.926  -2.603   0.844  0.00  0.00     0.040 C 
ATOM     10  C12 ZIN A   1       2.155  -3.166  -0.532  0.00  0.00    -0.024 A 
ATOM     11  C13 ZIN A   1       3.424  -2.764  -0.961  0.00  0.00     0.020 A 
ATOM     12  C14 ZIN A   1       3.908  -3.165  -2.208  0.00  0.00     0.061 A 
ATOM     13  C15 ZIN A   1       3.074  -3.958  -2.989  0.00  0.00     0.077 A 
ATOM     14  C18 ZIN A   1       1.815  -4.339  -2.556  0.00  0.00     0.000 A 
ATOM     15  C47 ZIN A   1       1.329  -3.950  -1.314  0.00  0.00     0.021 A 
ATOM     16  N48 ZIN A   1       4.038  -1.951  -0.021  0.00  0.00    -0.278 NA
ATOM     17  C49 ZIN A   1       5.443  -2.335   0.169  0.00  0.00     0.117 C 
ATOM     18  C50 ZIN A   1       3.283  -2.043   1.256  0.00  0.00     0.125 C 
ATOM     19  C52 ZIN A   1       3.188  -0.634   1.833  0.00  0.00     0.190 C 
ATOM     20  C58 ZIN A   1       2.366   0.226   0.853  0.00  0.00     0.192 C 
ATOM     21  C64 ZIN A   1       0.745  -1.685   0.918  0.00  0.00     0.218 C 
ENDROOT
BRANCH  14  22
ATOM     22  C19 ZIN A   1       0.954  -5.193  -3.450  0.00  0.00     0.121 C 
ATOM     23  C39 ZIN A   1       1.729  -6.411  -3.900  0.00  0.00     0.040 A 
ATOM     24  C38 ZIN A   1       1.637  -7.276  -4.924  0.00  0.00    -0.020 A 
ATOM     25  N40 ZIN A   1       2.806  -6.823  -3.106  0.00  0.00    -0.357 N 
ATOM     26  C37 ZIN A   1       0.622  -7.325  -6.039  0.00  0.00     0.069 C 
ATOM     27  C46 ZIN A   1       2.735  -8.234  -4.820  0.00  0.00    -0.001 A 
ATOM     28  C36 ZIN A   1       1.167  -6.619  -7.284  0.00  0.00     0.239 C 
ATOM     29  N28 ZIN A   1       1.165  -5.222  -7.104  0.00  0.00    -0.068 N 
ATOM     30  C27 ZIN A   1       2.202  -4.616  -6.253  0.00  0.00     0.239 C 
ATOM     31  H29 ZIN A   1       0.323  -5.093  -6.564  0.00  0.00     0.280 HD
ATOM     32  C30 ZIN A   1       0.915  -4.322  -8.229  0.00  0.00     0.272 C 
ATOM     33  C25 ZIN A   1       1.368  -3.636  -5.444  0.00  0.00     0.016 C 
ATOM     34  C24 ZIN A   1       0.391  -4.319  -4.532  0.00  0.00     0.037 C 
ATOM     35  C35 ZIN A   1       0.726  -2.608  -6.369  0.00  0.00     0.045 C 
ATOM     36  C31 ZIN A   1       0.083  -3.172  -7.628  0.00  0.00     0.082 C 
ATOM     37  C41 ZIN A   1       3.442  -7.893  -3.647  0.00  0.00     0.043 A 
ATOM     38  C45 ZIN A   1       3.130  -9.306  -5.624  0.00  0.00     0.014 A 
ATOM     39  C42 ZIN A   1       4.564  -8.618  -3.253  0.00  0.00     0.030 A 
ATOM     40  C43 ZIN A   1       4.939  -9.676  -4.066  0.00  0.00     0.002 A 
ATOM     41  C44 ZIN A   1       4.240 -10.006  -5.215  0.00  0.00     0.001 A 
ATOM     42 4H10 ZIN A   1       3.087  -6.444  -2.259  0.00  0.00     0.166 HD
BRANCH  36  43
ATOM     43  O32 ZIN A   1      -1.233  -3.645  -7.325  0.00  0.00    -0.388 OA
ATOM     44  H92 ZIN A   1      -1.717  -3.977  -8.093  0.00  0.00     0.210 HD
ENDBRANCH  36  43
BRANCH  36  45
ATOM     45  C33 ZIN A   1      -0.031  -2.052  -8.672  0.00  0.00     0.035 C 
ATOM     46  C34 ZIN A   1      -0.720  -2.593  -9.926  0.00  0.00     0.008 C 
ENDBRANCH  36  45
BRANCH  22  47
ATOM     47  C20 ZIN A   1      -0.211  -5.683  -2.615  0.00  0.00     0.278 C 
ATOM     48  O21 ZIN A   1      -1.343  -5.405  -2.935  0.00  0.00    -0.264 OA
BRANCH  47  49
ATOM     49  O22 ZIN A   1       0.013  -6.426  -1.520  0.00  0.00    -0.325 OA
ATOM     50  C23 ZIN A   1      -1.150  -6.861  -0.768  0.00  0.00     0.213 C 
ENDBRANCH  47  49
ENDBRANCH  22  47
ENDBRANCH  14  22
BRANCH  13  51
ATOM     51  O16 ZIN A   1       3.506  -4.370  -4.209  0.00  0.00    -0.355 OA
ATOM     52  C17 ZIN A   1       4.813  -3.952  -4.611  0.00  0.00     0.210 C 
ENDBRANCH  13  51
BRANCH  19  53
ATOM     53  O53 ZIN A   1       2.529  -0.678   3.100  0.00  0.00    -0.376 OA
ATOM     54 3H11 ZIN A   1       2.435   0.186   3.525  0.00  0.00     0.211 HD
ENDBRANCH  19  53
BRANCH  19  55
ATOM     55  C54 ZIN A   1       4.572  -0.063   2.002  0.00  0.00     0.297 C 
ATOM     56  O55 ZIN A   1       4.967   0.249   3.101  0.00  0.00    -0.262 OA
BRANCH  55  57
ATOM     57  O56 ZIN A   1       5.367   0.100   0.933  0.00  0.00    -0.324 OA
ATOM     58  C57 ZIN A   1       6.687   0.655   1.170  0.00  0.00     0.213 C 
ENDBRANCH  55  57
ENDBRANCH  19  55
BRANCH   1  59
ATOM     59  C2  ZIN A   1       0.198   0.338  -0.296  0.00  0.00     0.014 C 
ATOM     60  C1  ZIN A   1       0.310   1.864  -0.314  0.00  0.00     0.006 C 
ENDBRANCH   1  59
BRANCH  20  61
ATOM     61  O60 ZIN A   1       2.488   1.628   1.210  0.00  0.00    -0.311 OA
BRANCH  61  62
ATOM     62  C61 ZIN A   1       3.493   2.315   0.645  0.00  0.00     0.255 C 
ATOM     63  C62 ZIN A   1       3.682   3.775   0.967  0.00  0.00     0.126 C 
ATOM     64  O63 ZIN A   1       4.246   1.763  -0.122  0.00  0.00    -0.266 OA
ENDBRANCH  61  62
ENDBRANCH  20  61
TORSDOF 12
