REMARK  10 active torsions:
REMARK  status: ('A' for Active; 'I' for Inactive)
REMARK    1  A    between atoms: C2_2  and  N3_3 
REMARK    2  A    between atoms: N3_3  and  C5_5 
REMARK    3  A    between atoms: N3_3  and  C8_8 
REMARK    4  A    between atoms: C5_5  and  C6_6 
REMARK    5  A    between atoms: C6_6  and  O7_7 
REMARK    6  A    between atoms: C8_8  and  C9_9 
REMARK    7  A    between atoms: C9_9  and  C10_10 
REMARK    8  A    between atoms: C10_10  and  C11_11 
REMARK    9  A    between atoms: C11_11  and  N14_13 
REMARK   10  A    between atoms: N14_13  and  C15_14 
ROOT
ATOM      1  C11 ZIN A   1      -0.106  -4.303   3.132  0.00  0.00     0.077 C 
ATOM      2  C13 ZIN A   1      -0.054  -5.826   3.273  0.00  0.00     0.032 C 
ENDROOT
BRANCH   1   3
ATOM      3  C10 ZIN A   1      -0.789  -3.936   1.814  0.00  0.00     0.026 C 
BRANCH   3   4
ATOM      4  C9  ZIN A   1      -0.730  -2.420   1.613  0.00  0.00     0.030 C 
BRANCH   4   5
ATOM      5  C8  ZIN A   1      -1.414  -2.053   0.295  0.00  0.00     0.235 C 
BRANCH   5   6
ATOM      6  N3  ZIN A   1      -1.357  -0.598   0.103  0.00  0.00    -0.069 N 
ATOM      7  H4  ZIN A   1      -1.758  -0.137   0.906  0.00  0.00     0.279 HD
BRANCH   6   8
ATOM      8  C2  ZIN A   1       0.042  -0.179  -0.055  0.00  0.00     0.230 C 
ATOM      9  C1  ZIN A   1       0.114   1.349  -0.109  0.00  0.00     0.034 C 
ENDBRANCH   6   8
BRANCH   6  10
ATOM     10  C5  ZIN A   1      -2.116  -0.233  -1.101  0.00  0.00     0.260 C 
BRANCH  10  11
ATOM     11  C6  ZIN A   1      -3.600  -0.533  -0.879  0.00  0.00     0.192 C 
BRANCH  11  12
ATOM     12  O7  ZIN A   1      -4.099   0.290   0.177  0.00  0.00    -0.399 OA
ATOM     13  H35 ZIN A   1      -5.015   0.099   0.425  0.00  0.00     0.209 HD
ENDBRANCH  11  12
ENDBRANCH  10  11
ENDBRANCH   6  10
ENDBRANCH   5   6
ENDBRANCH   4   5
ENDBRANCH   3   4
ENDBRANCH   1   3
BRANCH   1  14
ATOM     14  N14 ZIN A   1      -0.863  -3.735   4.250  0.00  0.00    -0.385 N 
ATOM     15  H45 ZIN A   1      -1.809  -3.545   4.148  0.00  0.00     0.160 HD
BRANCH  14  16
ATOM     16  C15 ZIN A   1      -0.229  -3.469   5.454  0.00  0.00     0.042 A 
ATOM     17  C25 ZIN A   1       1.122  -3.732   5.624  0.00  0.00     0.049 A 
ATOM     18  C24 ZIN A   1       1.729  -3.451   6.839  0.00  0.00     0.119 A 
ATOM     19  N23 ZIN A   1       1.059  -2.946   7.849  0.00  0.00    -0.260 NA
ATOM     20  C22 ZIN A   1      -0.248  -2.672   7.758  0.00  0.00     0.070 A 
ATOM     21  C16 ZIN A   1      -0.940  -2.926   6.550  0.00  0.00     0.019 A 
ATOM     22  C21 ZIN A   1      -0.951  -2.133   8.848  0.00  0.00     0.056 A 
ATOM     23  C17 ZIN A   1      -2.309  -2.637   6.459  0.00  0.00     0.018 A 
ATOM     24  C18 ZIN A   1      -2.960  -2.115   7.536  0.00  0.00     0.025 A 
ATOM     25  C19 ZIN A   1      -2.281  -1.863   8.727  0.00  0.00     0.036 A 
ATOM     26 Cl20 ZIN A   1      -3.144  -1.198  10.079  0.00  0.00    -0.084 Cl
ENDBRANCH  14  16
ENDBRANCH   1  14
TORSDOF 10
