REMARK  9 active torsions:
REMARK  status: ('A' for Active; 'I' for Inactive)
REMARK    1  A    between atoms: N5_4  and  C7_6 
REMARK    2  A    between atoms: C7_6  and  C8_7 
REMARK    3  A    between atoms: C8_7  and  C10_8 
REMARK    4  A    between atoms: C8_7  and  C17_15 
REMARK    5  A    between atoms: C10_8  and  C11_9 
REMARK       I    between atoms: C17_15  and  N19_17 
REMARK    6  A    between atoms: N19_17  and  C20_18 
REMARK    7  A    between atoms: C20_18  and  C21_19 
REMARK    8  A    between atoms: C26_24  and  C28_26 
REMARK    9  A    between atoms: C32_30  and  O33_31 
ROOT
ATOM      1  C1  ZIN A   1      -0.359   1.308  -0.180  0.00  0.00     0.012 C 
ATOM      2  C2  ZIN A   1      -0.394  -0.207  -0.391  0.00  0.00     0.020 C 
ATOM      3  C4  ZIN A   1       0.360  -0.561  -1.674  0.00  0.00     0.240 C 
ATOM      4  N5  ZIN A   1       1.755  -0.116  -1.566  0.00  0.00    -0.070 N 
ATOM      5  H6  ZIN A   1       1.777   0.875  -1.379  0.00  0.00     0.279 HD
ATOM      6  C24 ZIN A   1       2.423  -0.834  -0.474  0.00  0.00     0.236 C 
ATOM      7  C25 ZIN A   1       1.749  -0.489   0.856  0.00  0.00     0.042 C 
ATOM      8  C26 ZIN A   1       0.275  -0.904   0.797  0.00  0.00    -0.010 C 
ATOM      9  C27 ZIN A   1       0.176  -2.421   0.622  0.00  0.00     0.021 C 
ENDROOT
BRANCH   4  10
ATOM     10  C7  ZIN A   1       2.454  -0.390  -2.828  0.00  0.00     0.249 C 
BRANCH  10  11
ATOM     11  C8  ZIN A   1       3.862   0.206  -2.771  0.00  0.00     0.108 C 
BRANCH  11  12
ATOM     12  C10 ZIN A   1       3.768   1.731  -2.685  0.00  0.00     0.054 C 
BRANCH  12  13
ATOM     13  C11 ZIN A   1       5.148   2.311  -2.516  0.00  0.00    -0.057 A 
ATOM     14  C16 ZIN A   1       5.848   2.764  -3.619  0.00  0.00     0.007 A 
ATOM     15  C15 ZIN A   1       7.112   3.300  -3.463  0.00  0.00     0.001 A 
ATOM     16  C14 ZIN A   1       7.681   3.376  -2.206  0.00  0.00     0.000 A 
ATOM     17  C13 ZIN A   1       6.983   2.918  -1.103  0.00  0.00     0.001 A 
ATOM     18  C12 ZIN A   1       5.717   2.386  -1.258  0.00  0.00     0.007 A 
ENDBRANCH  12  13
ENDBRANCH  11  12
BRANCH  11  19
ATOM     19  C17 ZIN A   1       4.623  -0.181  -4.013  0.00  0.00     0.224 C 
ATOM     20  O18 ZIN A   1       4.046  -0.264  -5.076  0.00  0.00    -0.273 OA
ATOM     21  N19 ZIN A   1       5.944  -0.435  -3.942  0.00  0.00    -0.351 N 
ATOM     22  H49 ZIN A   1       6.391  -0.445  -3.081  0.00  0.00     0.163 HD
BRANCH  21  23
ATOM     23  C20 ZIN A   1       6.707  -0.698  -5.165  0.00  0.00     0.235 C 
BRANCH  23  24
ATOM     24  C21 ZIN A   1       8.150  -0.951  -4.814  0.00  0.00     0.191 C 
ATOM     25  O22 ZIN A   1       8.509  -0.915  -3.649  0.00  0.00    -0.647 OA
ATOM     26  O23 ZIN A   1       8.959  -1.192  -5.694  0.00  0.00    -0.647 OA
ENDBRANCH  23  24
ENDBRANCH  21  23
ENDBRANCH  11  19
ENDBRANCH  10  11
ENDBRANCH   4  10
BRANCH   8  27
ATOM     27  C28 ZIN A   1      -0.414  -0.497   2.075  0.00  0.00    -0.047 A 
ATOM     28  C34 ZIN A   1       0.276   0.222   3.032  0.00  0.00     0.044 A 
ATOM     29  C32 ZIN A   1      -0.361   0.601   4.205  0.00  0.00     0.066 A 
ATOM     30  C31 ZIN A   1      -1.686   0.247   4.418  0.00  0.00     0.036 A 
ATOM     31  C30 ZIN A   1      -2.369  -0.476   3.460  0.00  0.00     0.003 A 
ATOM     32  C29 ZIN A   1      -1.734  -0.848   2.289  0.00  0.00     0.008 A 
BRANCH  29  33
ATOM     33  O33 ZIN A   1       0.314   1.312   5.146  0.00  0.00    -0.361 OA
ATOM     34  H62 ZIN A   1       0.771   0.765   5.799  0.00  0.00     0.217 HD
ENDBRANCH  29  33
ENDBRANCH   8  27
TORSDOF 9
