REMARK  3 active torsions:
REMARK  status: ('A' for Active; 'I' for Inactive)
REMARK    1  A    between atoms: C7_7  and  N9_8 
REMARK    2  A    between atoms: C11_10  and  C12_11 
REMARK    3  A    between atoms: C12_11  and  C13_12 
ROOT
ATOM      1  N9  <0> d   1      -0.108  -3.811   2.376  0.00  0.00    -0.229 N 
ATOM      2  N10 <0> d   1       0.523  -4.875   1.731  0.00  0.00    -0.173 NA
ATOM      3  C11 <0> d   1       0.832  -5.981   2.339  0.00  0.00     0.070 A 
ATOM      4  C20 <0> d   1       0.517  -6.149   3.758  0.00  0.00     0.006 A 
ATOM      5  C21 <0> d   1       0.831  -7.321   4.448  0.00  0.00     0.014 A 
ATOM      6  C22 <0> d   1       0.513  -7.428   5.784  0.00  0.00     0.001 A 
ATOM      7  C23 <0> d   1      -0.116  -6.385   6.451  0.00  0.00     0.001 A 
ATOM      8  C24 <0> d   1      -0.435  -5.219   5.790  0.00  0.00     0.018 A 
ATOM      9  C25 <0> d   1      -0.123  -5.087   4.438  0.00  0.00     0.046 A 
ATOM     10  C26 <0> d   1      -0.434  -3.866   3.684  0.00  0.00     0.275 A 
ATOM     11  O27 <0> d   1      -0.981  -2.924   4.228  0.00  0.00    -0.266 OA
ENDROOT
BRANCH   1  12
ATOM     12  C7  <0> d   1      -0.419  -2.599   1.614  0.00  0.00     0.115 C 
ATOM     13  C6  <0> d   1      -1.366  -2.968   0.454  0.00  0.00     0.029 C 
ATOM     14  C5  <0> d   1      -1.387  -1.879  -0.635  0.00  0.00     0.030 C 
ATOM     15  C4  <0> d   1      -1.389  -0.496  -0.033  0.00  0.00     0.234 C 
ATOM     16  N2  <0> d   1       0.002  -0.004   0.002  0.00  0.00    -0.075 N 
ATOM     17  C1  <0> d   1      -0.018   1.465   0.010  0.00  0.00     0.269 C 
ATOM     18  H3  <0> d   1       0.476  -0.316  -0.832  0.00  0.00     0.279 HD
ATOM     19  C29 <0> d   1       0.717  -0.448   1.116  0.00  0.00     0.236 C 
ATOM     20  C28 <0> d   1       0.869  -1.984   1.130  0.00  0.00     0.055 C 
ENDBRANCH   1  12
BRANCH   3  21
ATOM     21  C12 <0> d   1       1.514  -7.092   1.583  0.00  0.00     0.100 C 
BRANCH  21  22
ATOM     22  C13 <0> d   1       1.724  -6.670   0.151  0.00  0.00    -0.052 A 
ATOM     23  C19 <0> d   1       2.887  -6.019  -0.214  0.00  0.00     0.009 A 
ATOM     24  C18 <0> d   1       3.082  -5.636  -1.528  0.00  0.00     0.024 A 
ATOM     25  C16 <0> d   1       2.108  -5.895  -2.475  0.00  0.00     0.034 A 
ATOM     26  C15 <0> d   1       0.941  -6.542  -2.108  0.00  0.00     0.024 A 
ATOM     27 Cl17 <0> d   1       2.349  -5.409  -4.124  0.00  0.00    -0.084 Cl
ATOM     28  C14 <0> d   1       0.750  -6.929  -0.795  0.00  0.00     0.009 A 
ENDBRANCH  21  22
ENDBRANCH   3  21
TORSDOF 3
