REMARK  7 active torsions:
REMARK  status: ('A' for Active; 'I' for Inactive)
REMARK    1  A    between atoms: O2_2  and  C3_3 
REMARK    2  A    between atoms: C8_8  and  O9_9 
REMARK    3  A    between atoms: C19_18  and  O20_19 
REMARK    4  A    between atoms: O20_19  and  C21_20 
REMARK    5  A    between atoms: C44_40  and  O45_41 
REMARK    6  A    between atoms: C46_42  and  O47_43 
REMARK    7  A    between atoms: C56_51  and  O58_52 
ROOT
ATOM      1  C3  ZIN A   1      -7.771   6.939   8.475  0.00  0.00     0.101 A 
ATOM      2  C4  ZIN A   1      -6.761   6.554   7.614  0.00  0.00     0.050 A 
ATOM      3  C5  ZIN A   1      -6.359   7.384   6.579  0.00  0.00    -0.011 A 
ATOM      4  C6  ZIN A   1      -6.951   8.611   6.413  0.00  0.00    -0.044 A 
ATOM      5  C7  ZIN A   1      -7.957   9.014   7.282  0.00  0.00     0.047 A 
ATOM      6  C8  ZIN A   1      -8.373   8.184   8.304  0.00  0.00     0.099 A 
ATOM      7  C10 ZIN A   1      -6.549   9.556   5.309  0.00  0.00     0.058 C 
ATOM      8  C11 ZIN A   1      -5.188   9.149   4.742  0.00  0.00     0.120 C 
ATOM      9  N12 ZIN A   1      -5.180   7.717   4.481  0.00  0.00    -0.400 N 
ATOM     10  C13 ZIN A   1      -5.252   6.888   5.673  0.00  0.00     0.151 C 
ATOM     11  C14 ZIN A   1      -5.604   5.447   5.277  0.00  0.00     0.121 C 
ATOM     12  S15 ZIN A   1      -5.062   5.039   3.584  0.00  0.00    -0.154 SA
ATOM     13  C16 ZIN A   1      -3.306   5.231   3.712  0.00  0.00     0.119 C 
ATOM     14  C18 ZIN A   1      -2.524   6.334   3.068  0.00  0.00     0.004 A 
ATOM     15  C19 ZIN A   1      -2.861   6.782   1.801  0.00  0.00     0.096 A 
ATOM     16  C24 ZIN A   1      -2.196   7.831   1.178  0.00  0.00     0.009 A 
ATOM     17  C25 ZIN A   1      -2.582   8.279  -0.209  0.00  0.00     0.054 C 
ATOM     18  C26 ZIN A   1      -1.162   8.449   1.867  0.00  0.00     0.114 A 
ATOM     19  O27 ZIN A   1      -0.383   9.491   1.512  0.00  0.00    -0.322 OA
ATOM     20  C28 ZIN A   1       0.305   9.900   2.709  0.00  0.00     0.352 C 
ATOM     21  O29 ZIN A   1       0.245   8.758   3.584  0.00  0.00    -0.322 OA
ATOM     22  C30 ZIN A   1      -0.791   8.005   3.149  0.00  0.00     0.114 A 
ATOM     23  C31 ZIN A   1      -1.445   6.955   3.745  0.00  0.00     0.024 A 
ATOM     24  C32 ZIN A   1      -1.023   6.439   5.137  0.00  0.00     0.287 C 
ATOM     25  C34 ZIN A   1      -1.495   7.251   6.313  0.00  0.00     0.220 C 
ATOM     26  O35 ZIN A   1      -2.880   7.617   6.028  0.00  0.00    -0.317 OA
ATOM     27  C36 ZIN A   1      -3.953   6.970   6.436  0.00  0.00     0.292 C 
ATOM     28  O37 ZIN A   1      -3.909   6.408   7.508  0.00  0.00    -0.262 OA
ATOM     29  N38 ZIN A   1      -1.111   4.937   5.016  0.00  0.00     0.139 NA
ATOM     30  C39 ZIN A   1      -2.553   4.537   4.838  0.00  0.00     0.283 C 
ATOM     31  C41 ZIN A   1      -2.670   3.024   4.742  0.00  0.00     0.294 C 
ATOM     32  C43 ZIN A   1      -1.990   2.479   3.526  0.00  0.00     0.020 A 
ATOM     33  C44 ZIN A   1      -2.726   2.232   2.378  0.00  0.00     0.108 A 
ATOM     34  C46 ZIN A   1      -2.087   1.774   1.228  0.00  0.00     0.107 A 
ATOM     35  C49 ZIN A   1      -0.718   1.571   1.247  0.00  0.00    -0.025 A 
ATOM     36  C50 ZIN A   1      -0.013   1.086   0.008  0.00  0.00     0.051 C 
ATOM     37  C51 ZIN A   1       0.005   1.804   2.402  0.00  0.00     0.017 A 
ATOM     38  C52 ZIN A   1      -0.626   2.248   3.551  0.00  0.00    -0.044 A 
ATOM     39  C53 ZIN A   1       0.156   2.445   4.813  0.00  0.00     0.079 C 
ATOM     40  C54 ZIN A   1      -0.653   2.806   6.029  0.00  0.00     0.286 C 
ATOM     41  C56 ZIN A   1      -0.638   4.320   6.282  0.00  0.00     0.392 C 
ATOM     42  N59 ZIN A   1      -2.087   2.392   5.974  0.00  0.00     0.104 N 
ATOM     43  C60 ZIN A   1      -2.072   0.912   5.700  0.00  0.00     0.311 C 
ATOM     44  H71 ZIN A   1      -4.719   7.391   3.692  0.00  0.00     0.154 HD
ENDROOT
BRANCH   1  45
ATOM     45  O2  ZIN A   1      -8.174   6.111   9.476  0.00  0.00    -0.353 OA
ATOM     46  C1  ZIN A   1      -7.506   4.852   9.584  0.00  0.00     0.210 C 
ENDBRANCH   1  45
BRANCH   6  47
ATOM     47  O9  ZIN A   1      -9.365   8.580   9.146  0.00  0.00    -0.358 OA
ATOM     48  H66 ZIN A   1     -10.253   8.334   8.851  0.00  0.00     0.217 HD
ENDBRANCH   6  47
BRANCH  15  49
ATOM     49  O20 ZIN A   1      -3.872   6.166   1.129  0.00  0.00    -0.278 OA
BRANCH  49  50
ATOM     50  C21 ZIN A   1      -3.542   5.117   0.360  0.00  0.00     0.260 C 
ATOM     51  C22 ZIN A   1      -4.608   4.385  -0.414  0.00  0.00     0.126 C 
ATOM     52  O23 ZIN A   1      -2.390   4.759   0.288  0.00  0.00    -0.265 OA
ENDBRANCH  49  50
ENDBRANCH  15  49
BRANCH  41  53
ATOM     53  O58 ZIN A   1      -1.521   4.613   7.359  0.00  0.00    -0.366 OA
ATOM     54  H94 ZIN A   1      -1.286   4.176   8.189  0.00  0.00     0.212 HD
ENDBRANCH  41  53
BRANCH  33  55
ATOM     55  O45 ZIN A   1      -4.069   2.441   2.365  0.00  0.00    -0.357 OA
ATOM     56  H84 ZIN A   1      -4.326   3.333   2.096  0.00  0.00     0.217 HD
ENDBRANCH  33  55
BRANCH  34  57
ATOM     57  O47 ZIN A   1      -2.802   1.528   0.097  0.00  0.00    -0.353 OA
ATOM     58  C48 ZIN A   1      -3.327   0.208  -0.064  0.00  0.00     0.210 C 
ENDBRANCH  34  57
TORSDOF 7
