REMARK  11 active torsions:
REMARK  status: ('A' for Active; 'I' for Inactive)
REMARK    1  A    between atoms: C2_2  and  C4_4 
REMARK    2  A    between atoms: C4_4  and  N5_5 
REMARK    3  A    between atoms: N5_5  and  C6_6 
REMARK    4  A    between atoms: N5_5  and  C18_18 
REMARK    5  A    between atoms: C6_6  and  C7_7 
REMARK    6  A    between atoms: C7_7  and  N8_8 
REMARK    7  A    between atoms: N8_8  and  C10_10 
REMARK    8  A    between atoms: N8_8  and  C14_14 
REMARK    9  A    between atoms: C10_10  and  C11_11 
REMARK   10  A    between atoms: C14_14  and  C15_15 
REMARK   11  A    between atoms: C18_18  and  C19_19 
ROOT
ATOM      1  C7  ZIN A   1      -3.429   2.381   1.376  0.00  0.00     0.266 C 
ENDROOT
BRANCH   1   2
ATOM      2  C6  ZIN A   1      -3.304   1.611   0.059  0.00  0.00     0.301 C 
BRANCH   2   3
ATOM      3  N5  ZIN A   1      -1.958   1.034  -0.044  0.00  0.00     0.110 N 
BRANCH   3   4
ATOM      4  C4  ZIN A   1      -0.940   2.087  -0.157  0.00  0.00     0.385 C 
BRANCH   4   5
ATOM      5  C2  ZIN A   1      -1.214   2.920  -1.383  0.00  0.00     0.202 C 
ATOM      6  O1  ZIN A   1      -2.111   2.605  -2.146  0.00  0.00    -0.647 OA
ATOM      7  O3  ZIN A   1      -0.540   3.911  -1.610  0.00  0.00    -0.647 OA
ENDBRANCH   4   5
ENDBRANCH   3   4
BRANCH   3   8
ATOM      8  C18 ZIN A   1      -1.873   0.096  -1.171  0.00  0.00     0.385 C 
BRANCH   8   9
ATOM      9  C19 ZIN A   1      -0.663  -0.787  -1.000  0.00  0.00     0.202 C 
ATOM     10  O20 ZIN A   1       0.000  -0.721   0.021  0.00  0.00    -0.647 OA
ATOM     11  O21 ZIN A   1      -0.349  -1.568  -1.882  0.00  0.00    -0.647 OA
ENDBRANCH   8   9
ENDBRANCH   3   8
ENDBRANCH   2   3
ENDBRANCH   1   2
BRANCH   1  12
ATOM     12  N8  ZIN A   1      -4.732   3.059   1.425  0.00  0.00    -0.050 N 
ATOM     13  H9  ZIN A   1      -4.843   3.634   0.604  0.00  0.00     0.281 HD
BRANCH  12  14
ATOM     14  C10 ZIN A   1      -5.804   2.055   1.469  0.00  0.00     0.348 C 
BRANCH  14  15
ATOM     15  C11 ZIN A   1      -7.142   2.746   1.396  0.00  0.00     0.199 C 
ATOM     16  O12 ZIN A   1      -7.197   3.961   1.315  0.00  0.00    -0.647 OA
ATOM     17  O13 ZIN A   1      -8.169   2.090   1.418  0.00  0.00    -0.647 OA
ENDBRANCH  14  15
ENDBRANCH  12  14
BRANCH  12  18
ATOM     18  C14 ZIN A   1      -4.800   3.902   2.626  0.00  0.00     0.348 C 
BRANCH  18  19
ATOM     19  C15 ZIN A   1      -3.813   5.033   2.502  0.00  0.00     0.199 C 
ATOM     20  O16 ZIN A   1      -3.203   5.199   1.460  0.00  0.00    -0.647 OA
ATOM     21  O17 ZIN A   1      -3.624   5.784   3.445  0.00  0.00    -0.647 OA
ENDBRANCH  18  19
ENDBRANCH  12  18
ENDBRANCH   1  12
TORSDOF 11
