REMARK  10 active torsions:
REMARK  status: ('A' for Active; 'I' for Inactive)
REMARK    1  A    between atoms: C2_2  and  C3_3 
REMARK    2  A    between atoms: C3_3  and  C4_4 
REMARK    3  A    between atoms: C4_4  and  C5_5 
REMARK    4  A    between atoms: C5_5  and  N6_6 
REMARK    5  A    between atoms: N6_6  and  C9_9 
REMARK    6  A    between atoms: C9_9  and  C10_10 
REMARK    7  A    between atoms: C10_10  and  C11_11 
REMARK    8  A    between atoms: C11_11  and  O12_12 
REMARK    9  A    between atoms: C11_11  and  P13_13 
REMARK   10  A    between atoms: C11_11  and  P17_17 
ROOT
ATOM      1  C11 ZIN A   1       2.566  -6.485  -5.173  0.00  0.00     0.286 C 
ENDROOT
BRANCH   1   2
ATOM      2  C10 ZIN A   1       1.962  -5.990  -3.858  0.00  0.00     0.096 C 
BRANCH   2   3
ATOM      3  C9  ZIN A   1       2.055  -4.465  -3.796  0.00  0.00     0.238 C 
BRANCH   3   4
ATOM      4  N6  ZIN A   1       1.475  -3.990  -2.532  0.00  0.00    -0.075 N 
ATOM      5  H7  ZIN A   1       0.533  -4.339  -2.442  0.00  0.00     0.279 HD
ATOM      6  C8  ZIN A   1       2.287  -4.474  -1.408  0.00  0.00     0.269 C 
BRANCH   4   7
ATOM      7  C5  ZIN A   1       1.455  -2.521  -2.524  0.00  0.00     0.234 C 
BRANCH   7   8
ATOM      8  C4  ZIN A   1       0.739  -2.027  -1.265  0.00  0.00     0.028 C 
BRANCH   8   9
ATOM      9  C3  ZIN A   1       0.718  -0.497  -1.257  0.00  0.00     0.001 C 
BRANCH   9  10
ATOM     10  C2  ZIN A   1       0.002  -0.004   0.002  0.00  0.00    -0.005 C 
ATOM     11  C1  ZIN A   1      -0.019   1.526   0.010  0.00  0.00     0.005 C 
ENDBRANCH   9  10
ENDBRANCH   8   9
ENDBRANCH   7   8
ENDBRANCH   4   7
ENDBRANCH   3   4
ENDBRANCH   2   3
ENDBRANCH   1   2
BRANCH   1  12
ATOM     12  O12 ZIN A   1       1.846  -5.919  -6.270  0.00  0.00    -0.365 OA
ATOM     13  H39 ZIN A   1       0.907  -6.147  -6.284  0.00  0.00     0.212 HD
ENDBRANCH   1  12
BRANCH   1  14
ATOM     14  P13 ZIN A   1       4.315  -5.979  -5.268  0.00  0.00     0.310 P 
ATOM     15  O14 ZIN A   1       4.403  -4.416  -5.333  0.00  0.00    -0.637 OA
ATOM     16  O15 ZIN A   1       5.076  -6.492  -3.999  0.00  0.00    -0.637 OA
ATOM     17  O16 ZIN A   1       4.968  -6.592  -6.553  0.00  0.00    -0.637 OA
ENDBRANCH   1  14
BRANCH   1  18
ATOM     18  P17 ZIN A   1       2.455  -8.303  -5.247  0.00  0.00     0.310 P 
ATOM     19  O18 ZIN A   1       3.244  -8.924  -4.045  0.00  0.00    -0.637 OA
ATOM     20  O19 ZIN A   1       0.952  -8.739  -5.166  0.00  0.00    -0.637 OA
ATOM     21  O20 ZIN A   1       3.074  -8.810  -6.595  0.00  0.00    -0.637 OA
ENDBRANCH   1  18
TORSDOF 10
