REMARK  3 active torsions:
REMARK  status: ('A' for Active; 'I' for Inactive)
REMARK    1  A    between atoms: C2_2  and  C4_4 
REMARK    2  A    between atoms: N6_6  and  C7_7 
REMARK    3  A    between atoms: C12_12  and  N13_13 
ROOT
ATOM      1  C4  ZIN A   1      -1.294   1.936   0.026  0.00  0.00     0.107 A 
ATOM      2  C5  ZIN A   1      -2.488   1.240   0.033  0.00  0.00     0.114 A 
ATOM      3  N6  ZIN A   1      -3.674   1.860   0.036  0.00  0.00    -0.350 N 
ATOM      4  C10 ZIN A   1      -3.799   3.234   0.032  0.00  0.00     0.050 A 
ATOM      5  C11 ZIN A   1      -5.055   3.828   0.035  0.00  0.00     0.057 A 
ATOM      6  C12 ZIN A   1      -5.165   5.209   0.032  0.00  0.00     0.051 A 
ATOM      7  C21 ZIN A   1      -4.021   6.012   0.025  0.00  0.00     0.138 A 
ATOM      8  F22 ZIN A   1      -4.144   7.357   0.023  0.00  0.00    -0.204 F 
ATOM      9  C23 ZIN A   1      -2.779   5.442   0.022  0.00  0.00     0.062 A 
ATOM     10  C24 ZIN A   1      -2.653   4.051   0.025  0.00  0.00     0.045 A 
ATOM     11  C25 ZIN A   1      -1.328   3.409   0.027  0.00  0.00     0.202 A 
ATOM     12  O26 ZIN A   1      -0.303   4.067   0.026  0.00  0.00    -0.286 OA
ENDROOT
BRANCH   6  13
ATOM     13  N13 ZIN A   1      -6.425   5.802   0.035  0.00  0.00    -0.278 NA
ATOM     14  C20 ZIN A   1      -7.189   5.409   1.228  0.00  0.00     0.123 C 
ATOM     15  C19 ZIN A   1      -8.585   6.032   1.164  0.00  0.00     0.247 C 
ATOM     16  N16 ZIN A   1      -8.466   7.495   1.098  0.00  0.00    -0.073 N 
ATOM     17  C15 ZIN A   1      -7.722   7.873  -0.111  0.00  0.00     0.247 C 
ATOM     18  H17 ZIN A   1      -7.975   7.829   1.913  0.00  0.00     0.277 HD
ATOM     19  H18 ZIN A   1      -9.387   7.905   1.068  0.00  0.00     0.277 HD
ATOM     20  C14 ZIN A   1      -6.319   7.265  -0.058  0.00  0.00     0.123 C 
ENDBRANCH   6  13
BRANCH   3  21
ATOM     21  C7  ZIN A   1      -4.891   1.046   0.043  0.00  0.00     0.090 A 
ATOM     22  C9  ZIN A   1      -5.038   0.004   1.154  0.00  0.00     0.028 A 
ATOM     23  C8  ZIN A   1      -4.747  -0.443  -0.280  0.00  0.00     0.028 A 
ENDBRANCH   3  21
BRANCH   1  24
ATOM     24  C2  ZIN A   1      -0.014   1.220   0.024  0.00  0.00     0.214 C 
ATOM     25  O1  ZIN A   1       0.002  -0.004   0.023  0.00  0.00    -0.644 OA
ATOM     26  O3  ZIN A   1       1.037   1.846   0.018  0.00  0.00    -0.644 OA
ENDBRANCH   1  24
TORSDOF 3
