REMARK  5 active torsions:
REMARK  status: ('A' for Active; 'I' for Inactive)
REMARK    1  A    between atoms: O2_2  and  C3_3 
REMARK    2  A    between atoms: C4_4  and  O5_5 
REMARK    3  A    between atoms: C12_12  and  N13_13 
REMARK       I    between atoms: N16_16  and  C17_17 
REMARK    4  A    between atoms: C17_17  and  C19_19 
REMARK    5  A    between atoms: C28_27  and  N29_28 
ROOT
ATOM      1  C3  ZIN A   1       0.596  -0.640   1.073  0.00  0.00     0.103 A 
ATOM      2  C4  ZIN A   1       0.641  -2.039   1.132  0.00  0.00     0.102 A 
ATOM      3  C7  ZIN A   1       1.259  -2.674   2.172  0.00  0.00     0.057 A 
ATOM      4  C8  ZIN A   1       1.854  -1.920   3.190  0.00  0.00     0.041 A 
ATOM      5  C9  ZIN A   1       1.812  -0.505   3.137  0.00  0.00     0.077 A 
ATOM      6  C10 ZIN A   1       1.178   0.125   2.060  0.00  0.00     0.072 A 
ATOM      7  N11 ZIN A   1       2.391   0.196   4.125  0.00  0.00    -0.217 NA
ATOM      8  C12 ZIN A   1       2.987  -0.425   5.125  0.00  0.00     0.206 A 
ATOM      9  N27 ZIN A   1       3.049  -1.751   5.213  0.00  0.00    -0.200 NA
ATOM     10  C28 ZIN A   1       2.508  -2.531   4.288  0.00  0.00     0.137 A 
ENDROOT
BRANCH   8  11
ATOM     11  N13 ZIN A   1       3.571   0.334   6.124  0.00  0.00    -0.248 NA
ATOM     12  C26 ZIN A   1       4.183  -0.524   7.147  0.00  0.00     0.118 C 
ATOM     13  C25 ZIN A   1       4.656   0.342   8.319  0.00  0.00     0.140 C 
ATOM     14  N16 ZIN A   1       5.529   1.403   7.793  0.00  0.00    -0.348 N 
ATOM     15  C15 ZIN A   1       5.037   2.217   6.672  0.00  0.00     0.140 C 
ATOM     16  C17 ZIN A   1       6.748   1.622   8.325  0.00  0.00     0.248 C 
ATOM     17  C14 ZIN A   1       4.549   1.277   5.565  0.00  0.00     0.118 C 
ATOM     18  O18 ZIN A   1       7.487   2.446   7.828  0.00  0.00    -0.270 OA
BRANCH  16  19
ATOM     19  C19 ZIN A   1       7.192   0.845   9.537  0.00  0.00     0.213 C 
ATOM     20  O24 ZIN A   1       8.404   1.402  10.070  0.00  0.00    -0.376 OA
ATOM     21  C23 ZIN A   1       9.251   0.353  10.557  0.00  0.00     0.168 C 
ATOM     22  C22 ZIN A   1       8.539  -0.989  10.279  0.00  0.00     0.029 C 
ATOM     23  C21 ZIN A   1       7.553  -0.609   9.141  0.00  0.00     0.043 C 
ENDBRANCH  16  19
ENDBRANCH   8  11
BRANCH  10  24
ATOM     24  N29 ZIN A   1       2.581  -3.905   4.392  0.00  0.00    -0.383 N 
ATOM     25  H52 ZIN A   1       3.031  -4.311   5.148  0.00  0.00     0.157 HD
ATOM     26  H53 ZIN A   1       2.181  -4.464   3.708  0.00  0.00     0.157 HD
ENDBRANCH  10  24
BRANCH   1  27
ATOM     27  O2  ZIN A   1      -0.025  -0.031   0.029  0.00  0.00    -0.353 OA
ATOM     28  C1  ZIN A   1      -0.032   1.398   0.022  0.00  0.00     0.210 C 
ENDBRANCH   1  27
BRANCH   2  29
ATOM     29  O5  ZIN A   1       0.063  -2.773   0.144  0.00  0.00    -0.353 OA
ATOM     30  C6  ZIN A   1       0.142  -4.195   0.260  0.00  0.00     0.210 C 
ENDBRANCH   2  29
TORSDOF 5
