REMARK  6 active torsions:
REMARK  status: ('A' for Active; 'I' for Inactive)
REMARK    1  A    between atoms: N2_2  and  C5_5 
REMARK    2  A    between atoms: C5_5  and  C6_6 
REMARK    3  A    between atoms: C6_6  and  C7_7 
REMARK    4  A    between atoms: C7_7  and  O8_8 
REMARK    5  A    between atoms: C7_7  and  C9_9 
REMARK    6  A    between atoms: C7_7  and  C15_15 
ROOT
ATOM      1  C7  ZIN A   1       0.669  -0.610   3.687  0.00  0.00     0.115 C 
ENDROOT
BRANCH   1   2
ATOM      2  C6  ZIN A   1      -0.112  -0.588   2.372  0.00  0.00     0.076 C 
BRANCH   2   3
ATOM      3  C5  ZIN A   1       0.852  -0.802   1.203  0.00  0.00     0.237 C 
BRANCH   3   4
ATOM      4  N2  ZIN A   1       0.102  -0.781  -0.060  0.00  0.00    -0.079 N 
ATOM      5  C1  ZIN A   1      -0.470   0.556  -0.268  0.00  0.00     0.269 C 
ATOM      6  H3  ZIN A   1      -0.640  -1.463  -0.022  0.00  0.00     0.278 HD
ATOM      7  C4  ZIN A   1       1.007  -1.105  -1.172  0.00  0.00     0.269 C 
ENDBRANCH   3   4
ENDBRANCH   2   3
ENDBRANCH   1   2
BRANCH   1   8
ATOM      8  O8  ZIN A   1       1.565   0.502   3.728  0.00  0.00    -0.380 OA
ATOM      9  H32 ZIN A   1       1.127   1.362   3.671  0.00  0.00     0.211 HD
ENDBRANCH   1   8
BRANCH   1  10
ATOM     10  C9  ZIN A   1      -0.293  -0.523   4.844  0.00  0.00    -0.019 A 
ATOM     11  C14 ZIN A   1       0.184  -0.515   6.141  0.00  0.00     0.010 A 
ATOM     12  C13 ZIN A   1      -0.698  -0.430   7.202  0.00  0.00     0.001 A 
ATOM     13  C12 ZIN A   1      -2.058  -0.364   6.966  0.00  0.00     0.000 A 
ATOM     14  C11 ZIN A   1      -2.536  -0.377   5.669  0.00  0.00     0.001 A 
ATOM     15  C10 ZIN A   1      -1.654  -0.457   4.608  0.00  0.00     0.010 A 
ENDBRANCH   1  10
BRANCH   1  16
ATOM     16  C15 ZIN A   1       1.455  -1.892   3.784  0.00  0.00     0.002 A 
ATOM     17  C20 ZIN A   1       0.794  -3.106   3.852  0.00  0.00     0.043 A 
ATOM     18  C19 ZIN A   1       1.517  -4.283   3.934  0.00  0.00     0.024 A 
ATOM     19 Cl21 ZIN A   1      -0.941  -3.153   3.821  0.00  0.00    -0.084 Cl
ATOM     20  C18 ZIN A   1       2.898  -4.245   3.960  0.00  0.00     0.002 A 
ATOM     21  C17 ZIN A   1       3.558  -3.032   3.897  0.00  0.00     0.001 A 
ATOM     22  C16 ZIN A   1       2.836  -1.855   3.809  0.00  0.00     0.012 A 
ENDBRANCH   1  16
TORSDOF 6
