REMARK  8 active torsions:
REMARK  status: ('A' for Active; 'I' for Inactive)
REMARK    1  A    between atoms: O2_2  and  C3_3 
REMARK    2  A    between atoms: C4_4  and  O5_5 
REMARK    3  A    between atoms: O5_5  and  C6_6 
REMARK    4  A    between atoms: C6_6  and  C7_7 
REMARK    5  A    between atoms: C7_7  and  C8_8 
REMARK    6  A    between atoms: C8_8  and  N9_9 
REMARK    7  A    between atoms: C23_23  and  N24_24 
REMARK    8  A    between atoms: N24_24  and  C25_25 
ROOT
ATOM      1  C3  ZIN A   1       1.213  -0.598  -0.782  0.00  0.00     0.103 A 
ATOM      2  C4  ZIN A   1       1.266  -1.997  -0.845  0.00  0.00     0.103 A 
ATOM      3  C16 ZIN A   1       1.672  -2.629  -1.986  0.00  0.00     0.057 A 
ATOM      4  C17 ZIN A   1       2.039  -1.872  -3.105  0.00  0.00     0.042 A 
ATOM      5  C18 ZIN A   1       1.988  -0.457  -3.049  0.00  0.00     0.075 A 
ATOM      6  C19 ZIN A   1       1.563   0.170  -1.871  0.00  0.00     0.072 A 
ATOM      7  N20 ZIN A   1       2.345   0.245  -4.135  0.00  0.00    -0.241 NA
ATOM      8  C21 ZIN A   1       2.733  -0.371  -5.227  0.00  0.00     0.236 A 
ATOM      9  N22 ZIN A   1       2.797  -1.689  -5.326  0.00  0.00    -0.224 NA
ATOM     10  C23 ZIN A   1       2.466  -2.477  -4.311  0.00  0.00     0.142 A 
ENDROOT
BRANCH   2  11
ATOM     11  O5  ZIN A   1       0.909  -2.733   0.241  0.00  0.00    -0.348 OA
BRANCH  11  12
ATOM     12  C6  ZIN A   1       0.984  -4.155   0.114  0.00  0.00     0.177 C 
BRANCH  12  13
ATOM     13  C7  ZIN A   1       0.547  -4.807   1.427  0.00  0.00     0.054 C 
BRANCH  13  14
ATOM     14  C8  ZIN A   1       0.628  -6.329   1.292  0.00  0.00     0.237 C 
BRANCH  14  15
ATOM     15  N9  ZIN A   1       0.209  -6.956   2.553  0.00  0.00    -0.067 N 
ATOM     16  H10 ZIN A   1       0.764  -6.590   3.311  0.00  0.00     0.280 HD
ATOM     17  C15 ZIN A   1      -1.210  -6.663   2.797  0.00  0.00     0.261 C 
ATOM     18  C14 ZIN A   1      -1.645  -7.317   4.111  0.00  0.00     0.195 C 
ATOM     19  O13 ZIN A   1      -1.404  -8.725   4.040  0.00  0.00    -0.388 OA
ATOM     20  C12 ZIN A   1      -0.038  -9.061   3.779  0.00  0.00     0.195 C 
ATOM     21  C11 ZIN A   1       0.399  -8.410   2.464  0.00  0.00     0.261 C 
ENDBRANCH  14  15
ENDBRANCH  13  14
ENDBRANCH  12  13
ENDBRANCH  11  12
ENDBRANCH   2  11
BRANCH   1  22
ATOM     22  O2  ZIN A   1       0.805   0.008   0.364  0.00  0.00    -0.353 OA
ATOM     23  C1  ZIN A   1       0.767   1.437   0.364  0.00  0.00     0.210 C 
ENDBRANCH   1  22
BRANCH  10  24
ATOM     24  N24 ZIN A   1       2.538  -3.851  -4.428  0.00  0.00    -0.340 N 
ATOM     25  H53 ZIN A   1       2.216  -4.416  -3.709  0.00  0.00     0.167 HD
BRANCH  24  26
ATOM     26  C25 ZIN A   1       3.077  -4.427  -5.583  0.00  0.00     0.035 A 
ATOM     27  C32 ZIN A   1       4.129  -3.807  -6.245  0.00  0.00     0.056 A 
ATOM     28  C30 ZIN A   1       4.662  -4.381  -7.383  0.00  0.00     0.074 A 
ATOM     29  C28 ZIN A   1       4.141  -5.569  -7.870  0.00  0.00     0.138 A 
ATOM     30 Cl31 ZIN A   1       5.982  -3.610  -8.207  0.00  0.00    -0.081 Cl
ATOM     31  C27 ZIN A   1       3.089  -6.185  -7.215  0.00  0.00     0.046 A 
ATOM     32  F29 ZIN A   1       4.661  -6.127  -8.985  0.00  0.00    -0.204 F 
ATOM     33  C26 ZIN A   1       2.556  -5.617  -6.074  0.00  0.00     0.032 A 
ENDBRANCH  24  26
ENDBRANCH  10  24
TORSDOF 8
