REMARK  3 active torsions:
REMARK  status: ('A' for Active; 'I' for Inactive)
REMARK    1  A    between atoms: N1_1  and  C5_5 
REMARK    2  A    between atoms: C5_5  and  C6_6 
REMARK    3  A    between atoms: C6_6  and  C7_7 
ROOT
ATOM      1  C7  <0> d   1      -1.425   3.494   2.465  0.00  0.00     0.052 A 
ATOM      2  C8  <0> d   1      -0.926   4.354   3.373  0.00  0.00     0.116 A 
ATOM      3  N9  <0> d   1      -1.890   4.522   4.330  0.00  0.00    -0.359 N 
ATOM      4  C10 <0> d   1      -2.946   3.759   3.973  0.00  0.00     0.207 A 
ATOM      5  N11 <0> d   1      -2.663   3.152   2.853  0.00  0.00    -0.247 NA
ATOM      6  H17 <0> d   1      -1.827   5.084   5.118  0.00  0.00     0.166 HD
ENDROOT
BRANCH   1   7
ATOM      7  C6  <0> d   1      -0.720   3.008   1.225  0.00  0.00     0.088 C 
BRANCH   7   8
ATOM      8  C5  <0> d   1      -0.699   1.479   1.216  0.00  0.00     0.235 C 
BRANCH   8   9
ATOM      9  N1  <0> d   1      -0.012   1.005   0.008  0.00  0.00    -0.079 N 
ATOM     10  H2  <0> d   1       0.002  -0.004   0.002  0.00  0.00     0.274 HD
ATOM     11  H3  <0> d   1       0.935   1.354   0.000  0.00  0.00     0.274 HD
ATOM     12  H4  <0> d   1      -0.500   1.339  -0.810  0.00  0.00     0.274 HD
ENDBRANCH   8   9
ENDBRANCH   7   8
ENDBRANCH   1   7
TORSDOF 3
