REMARK  3 active torsions:
REMARK  status: ('A' for Active; 'I' for Inactive)
REMARK    1  A    between atoms: N1_1  and  C2_2 
REMARK    2  A    between atoms: C5_5  and  C6_6 
REMARK    3  A    between atoms: C14_14  and  N15_15 
ROOT
ATOM      1  C2  ZIN A   1      -0.023  -0.004  -0.029  0.00  0.00     0.740 A 
ATOM      2  N3  ZIN A   1      -1.133  -0.691   0.208  0.00  0.00     0.044 NA
ATOM      3  N4  ZIN A   1      -1.138  -1.978   0.235  0.00  0.00    -0.129 NA
ATOM      4  C5  ZIN A   1      -0.019  -2.659   0.024  0.00  0.00     0.137 A 
ATOM      5  C14 ZIN A   1       1.173  -1.951  -0.231  0.00  0.00     0.172 A 
ATOM      6  N16 ZIN A   1       1.129  -0.623  -0.254  0.00  0.00    -0.042 NA
ENDROOT
BRANCH   4   7
ATOM      7  C6  ZIN A   1      -0.023  -4.141   0.054  0.00  0.00     0.022 A 
ATOM      8  C12 ZIN A   1      -0.966  -4.854  -0.686  0.00  0.00     0.068 A 
ATOM      9  C10 ZIN A   1      -0.960  -6.236  -0.658  0.00  0.00     0.056 A 
ATOM     10 Cl13 ZIN A   1      -2.135  -4.008  -1.652  0.00  0.00    -0.082 Cl
ATOM     11  C9  ZIN A   1      -0.028  -6.910   0.112  0.00  0.00     0.026 A 
ATOM     12 Cl11 ZIN A   1      -2.128  -7.126  -1.584  0.00  0.00    -0.083 Cl
ATOM     13  C8  ZIN A   1       0.905  -6.207   0.851  0.00  0.00     0.003 A 
ATOM     14  C7  ZIN A   1       0.912  -4.827   0.827  0.00  0.00     0.016 A 
ENDBRANCH   4   7
BRANCH   5  15
ATOM     15  N15 ZIN A   1       2.360  -2.624  -0.457  0.00  0.00    -0.381 N 
ATOM     16  H22 ZIN A   1       2.361  -3.590  -0.543  0.00  0.00     0.157 HD
ATOM     17  H23 ZIN A   1       3.191  -2.130  -0.529  0.00  0.00     0.157 HD
ENDBRANCH   5  15
BRANCH   1  18
ATOM     18  N1  ZIN A   1      -0.069   1.379  -0.048  0.00  0.00    -0.230 N 
ATOM     19  H17 ZIN A   1       0.738   1.888  -0.225  0.00  0.00     0.174 HD
ATOM     20  H18 ZIN A   1      -0.907   1.839   0.112  0.00  0.00     0.174 HD
ENDBRANCH   1  18
TORSDOF 3
