REMARK  5 active torsions:
REMARK  status: ('A' for Active; 'I' for Inactive)
REMARK    1  A    between atoms: C2_2  and  C3_3 
REMARK    2  A    between atoms: C3_3  and  C4_4 
REMARK    3  A    between atoms: C4_4  and  N5_5 
REMARK       I    between atoms: N5_5  and  C6_6 
REMARK    4  A    between atoms: N8_8  and  S9_9 
REMARK    5  A    between atoms: S9_9  and  C12_12 
ROOT
ATOM      1  S9  ZIN A   1       2.422  -5.934   3.934  0.00  0.00     0.286 S 
ATOM      2  O10 ZIN A   1       1.118  -6.447   4.169  0.00  0.00    -0.198 OA
ATOM      3  O11 ZIN A   1       3.270  -6.411   2.899  0.00  0.00    -0.198 OA
ENDROOT
BRANCH   1   4
ATOM      4  N8  ZIN A   1       2.246  -4.307   3.683  0.00  0.00    -0.115 NA
ATOM      5  C6  ZIN A   1       1.617  -3.876   2.629  0.00  0.00     0.284 C 
ATOM      6  N5  ZIN A   1       1.471  -2.526   2.420  0.00  0.00    -0.352 N 
ATOM      7  O7  ZIN A   1       1.107  -4.756   1.740  0.00  0.00    -0.149 OA
ATOM      8  H28 ZIN A   1       1.837  -1.894   3.058  0.00  0.00     0.163 HD
BRANCH   6   9
ATOM      9  C4  ZIN A   1       0.763  -2.041   1.233  0.00  0.00     0.123 C 
BRANCH   9  10
ATOM     10  C3  ZIN A   1       0.742  -0.511   1.242  0.00  0.00     0.019 C 
BRANCH  10  11
ATOM     11  C2  ZIN A   1       0.002  -0.004   0.002  0.00  0.00    -0.003 C 
ATOM     12  C1  ZIN A   1      -0.019   1.526   0.010  0.00  0.00     0.005 C 
ENDBRANCH  10  11
ENDBRANCH   9  10
ENDBRANCH   6   9
ENDBRANCH   1   4
BRANCH   1  13
ATOM     13  C12 ZIN A   1       3.314  -6.135   5.440  0.00  0.00     0.081 A 
ATOM     14  C18 ZIN A   1       2.634  -6.232   6.639  0.00  0.00     0.026 A 
ATOM     15  C17 ZIN A   1       3.333  -6.394   7.821  0.00  0.00     0.008 A 
ATOM     16  C15 ZIN A   1       4.714  -6.451   7.803  0.00  0.00    -0.062 A 
ATOM     17  C14 ZIN A   1       5.396  -6.349   6.605  0.00  0.00     0.008 A 
ATOM     18  C16 ZIN A   1       5.477  -6.624   9.091  0.00  0.00     0.048 C 
ATOM     19  C13 ZIN A   1       4.696  -6.191   5.423  0.00  0.00     0.026 A 
ENDBRANCH   1  13
TORSDOF 5
