REMARK  20 active torsions:
REMARK  status: ('A' for Active; 'I' for Inactive)
REMARK    1  A    between atoms: C2_2  and  C3_3 
REMARK    2  A    between atoms: C3_3  and  C4_4 
REMARK    3  A    between atoms: C4_4  and  C5_5 
REMARK    4  A    between atoms: C5_5  and  C6_6 
REMARK    5  A    between atoms: C6_6  and  C7_7 
REMARK    6  A    between atoms: C7_7  and  C8_8 
REMARK    7  A    between atoms: C8_8  and  C9_9 
REMARK    8  A    between atoms: C9_9  and  C10_10 
REMARK    9  A    between atoms: C10_10  and  C11_11 
REMARK   10  A    between atoms: C11_11  and  C12_12 
REMARK   11  A    between atoms: C12_12  and  C13_13 
REMARK   12  A    between atoms: C13_13  and  C14_14 
REMARK   13  A    between atoms: C14_14  and  C15_15 
REMARK   14  A    between atoms: C15_15  and  C16_16 
REMARK   15  A    between atoms: C16_16  and  O17_17 
REMARK   16  A    between atoms: O17_17  and  P18_18 
REMARK   17  A    between atoms: P18_18  and  O21_21 
REMARK   18  A    between atoms: O21_21  and  C22_22 
REMARK   19  A    between atoms: C22_22  and  C23_23 
REMARK   20  A    between atoms: C23_23  and  N24_24 
ROOT
ATOM      1  C14 ZIN A   1       4.524 -13.259   6.726  0.00  0.00     0.002 C 
ENDROOT
BRANCH   1   2
ATOM      2  C13 ZIN A   1       4.423 -11.747   6.518  0.00  0.00     0.000 C 
BRANCH   2   3
ATOM      3  C12 ZIN A   1       3.681 -11.460   5.210  0.00  0.00     0.000 C 
BRANCH   3   4
ATOM      4  C11 ZIN A   1       3.579  -9.948   5.002  0.00  0.00     0.000 C 
BRANCH   4   5
ATOM      5  C10 ZIN A   1       2.838  -9.662   3.695  0.00  0.00     0.000 C 
BRANCH   5   6
ATOM      6  C9  ZIN A   1       2.736  -8.150   3.486  0.00  0.00     0.000 C 
BRANCH   6   7
ATOM      7  C8  ZIN A   1       1.995  -7.864   2.179  0.00  0.00     0.000 C 
BRANCH   7   8
ATOM      8  C7  ZIN A   1       1.893  -6.351   1.971  0.00  0.00     0.000 C 
BRANCH   8   9
ATOM      9  C6  ZIN A   1       1.152  -6.065   0.663  0.00  0.00     0.000 C 
BRANCH   9  10
ATOM     10  C5  ZIN A   1       1.050  -4.553   0.455  0.00  0.00     0.000 C 
BRANCH  10  11
ATOM     11  C4  ZIN A   1       0.309  -4.267  -0.852  0.00  0.00     0.000 C 
BRANCH  11  12
ATOM     12  C3  ZIN A   1       0.207  -2.754  -1.060  0.00  0.00    -0.000 C 
BRANCH  12  13
ATOM     13  C2  ZIN A   1      -0.534  -2.468  -2.368  0.00  0.00    -0.005 C 
ATOM     14  C1  ZIN A   1      -0.636  -0.956  -2.576  0.00  0.00     0.005 C 
ENDBRANCH  12  13
ENDBRANCH  11  12
ENDBRANCH  10  11
ENDBRANCH   9  10
ENDBRANCH   8   9
ENDBRANCH   7   8
ENDBRANCH   6   7
ENDBRANCH   5   6
ENDBRANCH   4   5
ENDBRANCH   3   4
ENDBRANCH   2   3
ENDBRANCH   1   2
BRANCH   1  15
ATOM     15  C15 ZIN A   1       5.266 -13.545   8.033  0.00  0.00     0.027 C 
BRANCH  15  16
ATOM     16  C16 ZIN A   1       5.367 -15.057   8.242  0.00  0.00     0.181 C 
BRANCH  16  17
ATOM     17  O17 ZIN A   1       6.060 -15.325   9.463  0.00  0.00    -0.290 OA
BRANCH  17  18
ATOM     18  P18 ZIN A   1       6.349 -16.815   9.999  0.00  0.00     0.408 P 
ATOM     19  O19 ZIN A   1       5.019 -17.596  10.091  0.00  0.00    -0.624 OA
ATOM     20  O20 ZIN A   1       7.304 -17.537   9.023  0.00  0.00    -0.624 OA
BRANCH  18  21
ATOM     21  O21 ZIN A   1       7.027 -16.739  11.457  0.00  0.00    -0.288 OA
BRANCH  21  22
ATOM     22  C22 ZIN A   1       7.310 -17.896  12.245  0.00  0.00     0.209 C 
BRANCH  22  23
ATOM     23  C23 ZIN A   1       7.951 -17.469  13.567  0.00  0.00     0.262 C 
BRANCH  23  24
ATOM     24  N24 ZIN A   1       6.971 -16.722  14.367  0.00  0.00    -0.077 N 
ATOM     25  C25 ZIN A   1       5.754 -17.528  14.528  0.00  0.00     0.271 C 
ATOM     26  C26 ZIN A   1       7.541 -16.427  15.689  0.00  0.00     0.271 C 
ATOM     27  C27 ZIN A   1       6.639 -15.464  13.686  0.00  0.00     0.271 C 
ENDBRANCH  23  24
ENDBRANCH  22  23
ENDBRANCH  21  22
ENDBRANCH  18  21
ENDBRANCH  17  18
ENDBRANCH  16  17
ENDBRANCH  15  16
ENDBRANCH   1  15
TORSDOF 20
