REMARK  12 active torsions:
REMARK  status: ('A' for Active; 'I' for Inactive)
REMARK    1  A    between atoms: C2_2  and  C4_4 
REMARK    2  A    between atoms: C4_4  and  N6_5 
REMARK    3  A    between atoms: C4_4  and  C10_9 
REMARK    4  A    between atoms: C10_9  and  O12_11 
REMARK    5  A    between atoms: O12_11  and  C13_12 
REMARK    6  A    between atoms: C13_12  and  C14_13 
REMARK    7  A    between atoms: C14_13  and  C16_14 
REMARK    8  A    between atoms: C14_13  and  O18_16 
REMARK    9  A    between atoms: C16_14  and  O17_15 
REMARK   10  A    between atoms: O18_16  and  C19_17 
REMARK   11  A    between atoms: C19_17  and  N20_18 
REMARK   12  A    between atoms: C26_24  and  N27_25 
ROOT
ATOM      1  C14 ZIN A   1      -0.966  -4.727  -2.477  0.00  0.00     0.171 C 
ENDROOT
BRANCH   1   2
ATOM      2  C13 ZIN A   1      -1.206  -4.153  -1.079  0.00  0.00     0.213 C 
BRANCH   2   3
ATOM      3  O12 ZIN A   1      -1.213  -2.703  -1.146  0.00  0.00    -0.317 OA
BRANCH   3   4
ATOM      4  C10 ZIN A   1      -1.413  -2.041   0.005  0.00  0.00     0.290 C 
ATOM      5  O11 ZIN A   1      -1.577  -2.653   1.033  0.00  0.00    -0.263 OA
BRANCH   4   6
ATOM      6  C4  ZIN A   1      -1.433  -0.534   0.013  0.00  0.00     0.285 C 
BRANCH   6   7
ATOM      7  C2  ZIN A   1       0.002  -0.004   0.002  0.00  0.00     0.018 C 
ATOM      8  C1  ZIN A   1      -0.019   1.526   0.010  0.00  0.00     0.012 C 
ATOM      9  C3  ZIN A   1       0.742  -0.511   1.242  0.00  0.00     0.012 C 
ENDBRANCH   6   7
BRANCH   6  10
ATOM     10  N6  ZIN A   1      -2.121  -0.060   1.222  0.00  0.00    -0.066 N 
ATOM     11  H7  ZIN A   1      -1.633  -0.394   2.039  0.00  0.00     0.275 HD
ATOM     12  H8  ZIN A   1      -2.135   0.949   1.227  0.00  0.00     0.275 HD
ATOM     13  H9  ZIN A   1      -3.067  -0.409   1.229  0.00  0.00     0.275 HD
ENDBRANCH   6  10
ENDBRANCH   4   6
ENDBRANCH   3   4
ENDBRANCH   2   3
ENDBRANCH   1   2
BRANCH   1  14
ATOM     14  C16 ZIN A   1       0.322  -4.137  -3.056  0.00  0.00     0.198 C 
BRANCH  14  15
ATOM     15  O17 ZIN A   1       0.244  -2.710  -3.031  0.00  0.00    -0.398 OA
ATOM     16  H42 ZIN A   1       1.028  -2.268  -3.385  0.00  0.00     0.209 HD
ENDBRANCH  14  15
ENDBRANCH   1  14
BRANCH   1  17
ATOM     17  O18 ZIN A   1      -2.067  -4.393  -3.324  0.00  0.00    -0.362 OA
BRANCH  17  18
ATOM     18  C19 ZIN A   1      -2.320  -5.352  -4.353  0.00  0.00     0.301 C 
BRANCH  18  19
ATOM     19  N20 ZIN A   1      -3.462  -4.914  -5.158  0.00  0.00    -0.301 N 
ATOM     20  C24 ZIN A   1      -3.997  -5.574  -6.231  0.00  0.00     0.186 A 
ATOM     21  C23 ZIN A   1      -5.066  -4.789  -6.677  0.00  0.00     0.173 A 
ATOM     22  N25 ZIN A   1      -3.712  -6.723  -6.856  0.00  0.00    -0.044 NA
ATOM     23  N22 ZIN A   1      -5.127  -3.699  -5.874  0.00  0.00    -0.234 NA
ATOM     24  C29 ZIN A   1      -5.817  -5.236  -7.790  0.00  0.00     0.292 A 
ATOM     25  C21 ZIN A   1      -4.185  -3.770  -4.980  0.00  0.00     0.214 A 
ATOM     26  N28 ZIN A   1      -5.472  -6.408  -8.367  0.00  0.00    -0.152 N 
ATOM     27  O30 ZIN A   1      -6.756  -4.584  -8.212  0.00  0.00    -0.265 OA
ATOM     28  C26 ZIN A   1      -4.420  -7.129  -7.886  0.00  0.00     0.703 A 
ATOM     29  H48 ZIN A   1      -5.974  -6.736  -9.130  0.00  0.00     0.187 HD
BRANCH  28  30
ATOM     30  N27 ZIN A   1      -4.090  -8.314  -8.495  0.00  0.00    -0.233 N 
ATOM     31  H46 ZIN A   1      -3.345  -8.838  -8.165  0.00  0.00     0.174 HD
ATOM     32  H47 ZIN A   1      -4.604  -8.627  -9.257  0.00  0.00     0.174 HD
ENDBRANCH  28  30
ENDBRANCH  18  19
ENDBRANCH  17  18
ENDBRANCH   1  17
TORSDOF 12
