REMARK  0 active torsions:
REMARK  status: ('A' for Active; 'I' for Inactive)
ROOT
ATOM      1  C1  ZIN A   1       5.875  -2.530  -2.113  0.00  0.00     0.269 C 
ATOM      2  N2  ZIN A   1       5.545  -1.216  -1.547  0.00  0.00    -0.074 N 
ATOM      3  H3  ZIN A   1       5.988  -0.491  -2.091  0.00  0.00     0.279 HD
ATOM      4  C4  ZIN A   1       6.021  -1.146  -0.152  0.00  0.00     0.244 C 
ATOM      5  C5  ZIN A   1       4.881  -0.468   0.648  0.00  0.00     0.057 C 
ATOM      6  C7  ZIN A   1       5.282   0.907   1.024  0.00  0.00    -0.016 A 
ATOM      7  C8  ZIN A   1       6.484   0.992   1.739  0.00  0.00     0.034 A 
ATOM      8  C9  ZIN A   1       6.985   2.194   2.180  0.00  0.00     0.034 A 
ATOM      9 Cl10 ZIN A   1       8.481   2.245   3.059  0.00  0.00    -0.084 Cl
ATOM     10  C11 ZIN A   1       6.290   3.362   1.919  0.00  0.00     0.026 A 
ATOM     11  C12 ZIN A   1       5.113   3.296   1.212  0.00  0.00     0.039 A 
ATOM     12  C13 ZIN A   1       4.604   2.076   0.749  0.00  0.00     0.083 A 
ATOM     13  O14 ZIN A   1       3.486   2.161   0.035  0.00  0.00    -0.310 OA
ATOM     14  C15 ZIN A   1       2.401   1.398  -0.008  0.00  0.00     0.082 A 
ATOM     15  C16 ZIN A   1       1.171   2.072   0.002  0.00  0.00     0.038 A 
ATOM     16  C17 ZIN A   1      -0.017   1.379   0.010  0.00  0.00     0.003 A 
ATOM     17  C18 ZIN A   1       0.002  -0.004   0.002  0.00  0.00     0.001 A 
ATOM     18  C19 ZIN A   1       1.207  -0.669  -0.026  0.00  0.00     0.010 A 
ATOM     19  C20 ZIN A   1       2.418   0.027  -0.037  0.00  0.00    -0.018 A 
ATOM     20  C21 ZIN A   1       3.648  -0.790  -0.104  0.00  0.00     0.057 C 
ATOM     21  C23 ZIN A   1       4.082  -1.023  -1.564  0.00  0.00     0.244 C 
ENDROOT
TORSDOF 0
