REMARK  3 active torsions:
REMARK  status: ('A' for Active; 'I' for Inactive)
REMARK    1  A    between atoms: C2_2  and  C4_3 
REMARK    2  A    between atoms: C2_2  and  N13_12 
REMARK    3  A    between atoms: N13_12  and  O14_13 
REMARK       I    between atoms: N13_12  and  C15_14 
REMARK       I    between atoms: C15_14  and  N16_15 
ROOT
ATOM      1  C1  <0> d   1       0.108   1.483  -0.269  0.00  0.00     0.041 C 
ATOM      2  C2  <0> d   1       0.040  -0.013   0.040  0.00  0.00     0.155 C 
ENDROOT
BRANCH   2   3
ATOM      3  C4  <0> d   1       0.772  -0.781  -1.030  0.00  0.00     0.009 A 
ATOM      4  S12 <0> d   1       0.056  -1.290  -2.546  0.00  0.00    -0.092 SA
ATOM      5  C11 <0> d   1       1.554  -2.044  -3.079  0.00  0.00     0.015 A 
ATOM      6  C6  <0> d   1       2.533  -1.892  -2.093  0.00  0.00    -0.018 A 
ATOM      7  C10 <0> d   1       1.859  -2.724  -4.262  0.00  0.00     0.019 A 
ATOM      8  C5  <0> d   1       2.031  -1.161  -0.941  0.00  0.00     0.029 A 
ATOM      9  C7  <0> d   1       3.816  -2.433  -2.320  0.00  0.00     0.013 A 
ATOM     10  C8  <0> d   1       4.093  -3.092  -3.479  0.00  0.00     0.001 A 
ATOM     11  C9  <0> d   1       3.118  -3.241  -4.456  0.00  0.00     0.001 A 
ENDBRANCH   2   3
BRANCH   2  12
ATOM     12  N13 <0> d   1      -1.361  -0.442   0.076  0.00  0.00    -0.201 N 
ATOM     13  C15 <0> d   1      -2.168  -0.196  -0.975  0.00  0.00     0.340 C 
ATOM     14  N16 <0> d   1      -3.429  -0.670  -0.982  0.00  0.00    -0.350 N 
ATOM     15  O17 <0> d   1      -1.758   0.454  -1.917  0.00  0.00    -0.245 OA
ATOM     16  H27 <0> d   1      -3.781  -1.124  -0.200  0.00  0.00     0.160 HD
ATOM     17  H28 <0> d   1      -3.986  -0.558  -1.769  0.00  0.00     0.160 HD
BRANCH  12  18
ATOM     18  O14 <0> d   1      -1.867  -1.113   1.215  0.00  0.00    -0.283 OA
ATOM     19  H26 <0> d   1      -2.777  -1.426   1.115  0.00  0.00     0.245 HD
ENDBRANCH  12  18
ENDBRANCH   2  12
TORSDOF 3
