REMARK  3 active torsions:
REMARK  status: ('A' for Active; 'I' for Inactive)
REMARK       I    between atoms: N6_5  and  C7_6 
REMARK    1  A    between atoms: C7_6  and  C9_8 
REMARK    2  A    between atoms: C13_12  and  N15_13 
REMARK    3  A    between atoms: N15_13  and  C17_15 
ROOT
ATOM      1  C9  <0> d   1      -2.348  -4.085   2.026  0.00  0.00     0.226 C 
ATOM      2  C10 <0> d   1      -2.561  -5.024   3.140  0.00  0.00     0.068 C 
ATOM      3  N11 <0> d   1      -2.725  -5.749   3.999  0.00  0.00    -0.197 NA
ENDROOT
BRANCH   1   4
ATOM      4  C7  <0> d   1      -0.956  -3.514   2.110  0.00  0.00     0.232 C 
ATOM      5  N6  <0> d   1      -0.536  -2.625   1.188  0.00  0.00    -0.349 N 
ATOM      6  C5  <0> d   1      -1.423  -2.204   0.096  0.00  0.00     0.126 C 
ATOM      7  C12 <0> d   1       0.819  -2.059   1.257  0.00  0.00     0.151 C 
ATOM      8  C4  <0> d   1      -1.500  -0.674   0.085  0.00  0.00     0.026 C 
ATOM      9  C2  <0> d   1      -0.085  -0.096   0.004  0.00  0.00     0.007 C 
ATOM     10  C1  <0> d   1      -0.160   1.432  -0.041  0.00  0.00     0.012 C 
ATOM     11  C13 <0> d   1       0.716  -0.531   1.234  0.00  0.00     0.107 C 
ATOM     12  O8  <0> d   1      -0.214  -3.853   3.008  0.00  0.00    -0.272 OA
BRANCH  11  13
ATOM     13  N15 <0> d   1       0.040  -0.067   2.448  0.00  0.00    -0.363 N 
ATOM     14  C16 <0> d   1      -1.301  -0.560   2.773  0.00  0.00     0.152 C 
BRANCH  13  15
ATOM     15  C17 <0> d   1       0.667   0.835   3.287  0.00  0.00     0.141 A 
ATOM     16  N25 <0> d   1       1.930   1.197   3.078  0.00  0.00    -0.224 NA
ATOM     17  C24 <0> d   1       2.531   2.062   3.874  0.00  0.00     0.237 A 
ATOM     18  N23 <0> d   1       1.935   2.605   4.914  0.00  0.00    -0.223 NA
ATOM     19  C22 <0> d   1       0.673   2.302   5.209  0.00  0.00     0.142 A 
ATOM     20  C18 <0> d   1      -0.010   1.388   4.385  0.00  0.00     0.057 A 
ATOM     21  N21 <0> d   1      -0.198   2.686   6.192  0.00  0.00    -0.350 N 
ATOM     22  C19 <0> d   1      -1.352   1.254   4.948  0.00  0.00     0.036 A 
ATOM     23  C20 <0> d   1      -1.403   2.055   6.025  0.00  0.00     0.091 A 
ATOM     24  H42 <0> d   1       0.008   3.314   6.902  0.00  0.00     0.166 HD
ENDBRANCH  13  15
ENDBRANCH  11  13
ENDBRANCH   1   4
TORSDOF 3
