REMARK  5 active torsions:
REMARK  status: ('A' for Active; 'I' for Inactive)
REMARK    1  A    between atoms: O2_2  and  C3_3 
REMARK    2  A    between atoms: C4_4  and  O5_5 
REMARK    3  A    between atoms: C9_9  and  N10_10 
REMARK    4  A    between atoms: C12_12  and  N13_13 
REMARK       I    between atoms: N16_16  and  C17_17 
REMARK    5  A    between atoms: C17_17  and  C19_19 
ROOT
ATOM      1  C3  ZIN A   1      -0.741  -0.989  -1.771  0.00  0.00     0.103 A 
ATOM      2  C4  ZIN A   1      -0.925  -2.356  -2.017  0.00  0.00     0.102 A 
ATOM      3  C7  ZIN A   1      -0.322  -2.960  -3.084  0.00  0.00     0.057 A 
ATOM      4  C8  ZIN A   1       0.489  -2.207  -3.941  0.00  0.00     0.041 A 
ATOM      5  C9  ZIN A   1       1.135  -2.786  -5.061  0.00  0.00     0.137 A 
ATOM      6  N11 ZIN A   1       1.886  -2.009  -5.827  0.00  0.00    -0.200 NA
ATOM      7  C12 ZIN A   1       2.038  -0.714  -5.563  0.00  0.00     0.206 A 
ATOM      8  N26 ZIN A   1       1.460  -0.122  -4.535  0.00  0.00    -0.217 NA
ATOM      9  C27 ZIN A   1       0.679  -0.824  -3.699  0.00  0.00     0.077 A 
ATOM     10  C28 ZIN A   1       0.047  -0.224  -2.603  0.00  0.00     0.072 A 
ENDROOT
BRANCH   7  11
ATOM     11  N13 ZIN A   1       2.836   0.045  -6.402  0.00  0.00    -0.248 NA
ATOM     12  C25 ZIN A   1       3.392  -0.778  -7.485  0.00  0.00     0.118 C 
ATOM     13  C24 ZIN A   1       4.406   0.050  -8.281  0.00  0.00     0.141 C 
ATOM     14  N16 ZIN A   1       3.754   1.294  -8.717  0.00  0.00    -0.344 N 
ATOM     15  C15 ZIN A   1       3.056   2.105  -7.707  0.00  0.00     0.141 C 
ATOM     16  C17 ZIN A   1       3.796   1.682 -10.007  0.00  0.00     0.277 C 
ATOM     17  C14 ZIN A   1       2.095   1.196  -6.934  0.00  0.00     0.118 C 
ATOM     18  O18 ZIN A   1       3.149   2.645 -10.374  0.00  0.00    -0.265 OA
BRANCH  16  19
ATOM     19  C19 ZIN A   1       4.620   0.942 -10.969  0.00  0.00     0.142 A 
ATOM     20  O23 ZIN A   1       5.492  -0.043 -10.672  0.00  0.00    -0.317 OA
ATOM     21  C22 ZIN A   1       6.062  -0.486 -11.800  0.00  0.00     0.143 A 
ATOM     22  C21 ZIN A   1       5.567   0.217 -12.843  0.00  0.00     0.027 A 
ATOM     23  C20 ZIN A   1       4.643   1.134 -12.320  0.00  0.00     0.045 A 
ENDBRANCH  16  19
ENDBRANCH   7  11
BRANCH   5  24
ATOM     24  N10 ZIN A   1       0.985  -4.128  -5.346  0.00  0.00    -0.383 N 
ATOM     25  H36 ZIN A   1       0.432  -4.686  -4.778  0.00  0.00     0.157 HD
ATOM     26  H37 ZIN A   1       1.433  -4.512  -6.116  0.00  0.00     0.157 HD
ENDBRANCH   5  24
BRANCH   1  27
ATOM     27  O2  ZIN A   1      -1.352  -0.410  -0.705  0.00  0.00    -0.353 OA
ATOM     28  C1  ZIN A   1      -1.131   0.988  -0.510  0.00  0.00     0.210 C 
ENDBRANCH   1  27
BRANCH   2  29
ATOM     29  O5  ZIN A   1      -1.712  -3.090  -1.185  0.00  0.00    -0.353 OA
ATOM     30  C6  ZIN A   1      -1.859  -4.479  -1.489  0.00  0.00     0.210 C 
ENDBRANCH   2  29
TORSDOF 5
