REMARK  8 active torsions:
REMARK  status: ('A' for Active; 'I' for Inactive)
REMARK    1  A    between atoms: C2_2  and  C4_4 
REMARK    2  A    between atoms: C4_4  and  O5_5 
REMARK    3  A    between atoms: O5_5  and  C6_6 
REMARK    4  A    between atoms: C6_6  and  C7_7 
REMARK    5  A    between atoms: C7_7  and  N8_8 
REMARK    6  A    between atoms: N12_12  and  C13_13 
REMARK    7  A    between atoms: C13_13  and  C15_14 
REMARK    8  A    between atoms: C13_13  and  C21_20 
ROOT
ATOM      1  N8  <0> d   1      -4.428  -0.922   1.099  0.00  0.00    -0.066 N 
ATOM      2  H9  <0> d   1      -3.536  -1.353   1.292  0.00  0.00     0.280 HD
ATOM      3  C10 <0> d   1      -5.488  -1.935   1.173  0.00  0.00     0.265 C 
ATOM      4  C11 <0> d   1      -5.499  -2.561   2.570  0.00  0.00     0.301 C 
ATOM      5  N12 <0> d   1      -5.730  -1.511   3.572  0.00  0.00     0.105 N 
ATOM      6  C28 <0> d   1      -4.689  -0.476   3.493  0.00  0.00     0.301 C 
ATOM      7  C29 <0> d   1      -4.685   0.132   2.089  0.00  0.00     0.265 C 
ENDROOT
BRANCH   5   8
ATOM      8  C13 <0> d   1      -5.803  -2.081   4.924  0.00  0.00     0.289 C 
BRANCH   8   9
ATOM      9  C15 <0> d   1      -6.914  -3.098   4.981  0.00  0.00    -0.021 A 
ATOM     10  C20 <0> d   1      -6.702  -4.319   5.594  0.00  0.00     0.010 A 
ATOM     11  C19 <0> d   1      -7.722  -5.250   5.650  0.00  0.00     0.001 A 
ATOM     12  C18 <0> d   1      -8.951  -4.964   5.084  0.00  0.00     0.000 A 
ATOM     13  C17 <0> d   1      -9.160  -3.746   4.466  0.00  0.00     0.001 A 
ATOM     14  C16 <0> d   1      -8.142  -2.813   4.414  0.00  0.00     0.010 A 
ENDBRANCH   8   9
BRANCH   8  15
ATOM     15  C21 <0> d   1      -6.078  -0.982   5.918  0.00  0.00    -0.021 A 
ATOM     16  C27 <0> d   1      -5.383  -0.942   7.113  0.00  0.00     0.011 A 
ATOM     17  C26 <0> d   1      -5.631   0.069   8.023  0.00  0.00     0.024 A 
ATOM     18  C24 <0> d   1      -6.581   1.035   7.742  0.00  0.00     0.034 A 
ATOM     19  C23 <0> d   1      -7.279   0.991   6.549  0.00  0.00     0.024 A 
ATOM     20 Cl25 <0> d   1      -6.897   2.300   8.887  0.00  0.00    -0.084 Cl
ATOM     21  C22 <0> d   1      -7.027  -0.017   5.637  0.00  0.00     0.011 A 
ENDBRANCH   8  15
ENDBRANCH   5   8
BRANCH   1  22
ATOM     22  C7  <0> d   1      -4.406  -0.334  -0.247  0.00  0.00     0.261 C 
BRANCH  22  23
ATOM     23  C6  <0> d   1      -3.223   0.629  -0.364  0.00  0.00     0.196 C 
BRANCH  23  24
ATOM     24  O5  <0> d   1      -2.001  -0.101  -0.251  0.00  0.00    -0.379 OA
BRANCH  24  25
ATOM     25  C4  <0> d   1      -0.828   0.710  -0.347  0.00  0.00     0.280 C 
BRANCH  25  26
ATOM     26  C2  <0> d   1       0.396  -0.159  -0.214  0.00  0.00     0.197 C 
ATOM     27  O1  <0> d   1       0.276  -1.361  -0.053  0.00  0.00    -0.646 OA
ATOM     28  O3  <0> d   1       1.507   0.340  -0.274  0.00  0.00    -0.646 OA
ENDBRANCH  25  26
ENDBRANCH  24  25
ENDBRANCH  23  24
ENDBRANCH  22  23
ENDBRANCH   1  22
TORSDOF 8
