REMARK  7 active torsions:
REMARK  status: ('A' for Active; 'I' for Inactive)
REMARK    1  A    between atoms: C5_5  and  N6_6 
REMARK       I    between atoms: N6_6  and  C7_7 
REMARK    2  A    between atoms: C7_7  and  C9_9 
REMARK    3  A    between atoms: C12_12  and  C13_13 
REMARK    4  A    between atoms: C13_13  and  N14_14 
REMARK    5  A    between atoms: C25_25  and  N26_26 
REMARK    6  A    between atoms: N26_26  and  C27_27 
REMARK    7  A    between atoms: C31_31  and  C32_32 
ROOT
ATOM      1  C1  ZIN A   1      -0.016   1.961   0.413  0.00  0.00     0.050 C 
ATOM      2  C2  ZIN A   1       0.047   0.535  -0.069  0.00  0.00    -0.035 A 
ATOM      3  C3  ZIN A   1      -0.541   0.186  -1.269  0.00  0.00     0.011 A 
ATOM      4  C4  ZIN A   1      -0.487  -1.121  -1.714  0.00  0.00     0.030 A 
ATOM      5  C5  ZIN A   1       0.161  -2.089  -0.956  0.00  0.00     0.037 A 
ATOM      6  C24 ZIN A   1       0.753  -1.741   0.250  0.00  0.00     0.060 A 
ATOM      7  C25 ZIN A   1       0.701  -0.427   0.692  0.00  0.00     0.057 A 
ENDROOT
BRANCH   5   8
ATOM      8  N6  ZIN A   1       0.216  -3.411  -1.408  0.00  0.00    -0.323 N 
ATOM      9  C7  ZIN A   1       0.177  -3.674  -2.729  0.00  0.00     0.256 C 
ATOM     10  O8  ZIN A   1       0.190  -2.761  -3.531  0.00  0.00    -0.267 OA
ATOM     11  H44 ZIN A   1       0.282  -4.139  -0.770  0.00  0.00     0.169 HD
BRANCH   9  12
ATOM     12  C9  ZIN A   1       0.118  -5.073  -3.203  0.00  0.00     0.032 A 
ATOM     13  C23 ZIN A   1       0.078  -5.349  -4.570  0.00  0.00     0.017 A 
ATOM     14  C22 ZIN A   1       0.028  -6.657  -5.006  0.00  0.00     0.010 A 
ATOM     15  C12 ZIN A   1       0.008  -7.694  -4.090  0.00  0.00    -0.030 A 
ATOM     16  C11 ZIN A   1       0.042  -7.427  -2.733  0.00  0.00     0.010 A 
ATOM     17  C10 ZIN A   1       0.098  -6.124  -2.284  0.00  0.00     0.017 A 
BRANCH  15  18
ATOM     18  C13 ZIN A   1      -0.052  -9.120  -4.573  0.00  0.00     0.311 C 
BRANCH  18  19
ATOM     19  N14 ZIN A   1      -1.456  -9.534  -4.704  0.00  0.00     0.095 N 
ATOM     20  C21 ZIN A   1      -1.558 -10.981  -4.942  0.00  0.00     0.300 C 
ATOM     21  C20 ZIN A   1      -3.029 -11.360  -5.132  0.00  0.00     0.264 C 
ATOM     22  N17 ZIN A   1      -3.789 -10.989  -3.932  0.00  0.00    -0.072 N 
ATOM     23  C16 ZIN A   1      -3.698  -9.538  -3.721  0.00  0.00     0.264 C 
ATOM     24  H18 ZIN A   1      -3.409 -11.470  -3.131  0.00  0.00     0.279 HD
ATOM     25  C19 ZIN A   1      -5.197 -11.370  -4.108  0.00  0.00     0.269 C 
ATOM     26  C15 ZIN A   1      -2.233  -9.143  -3.519  0.00  0.00     0.300 C 
ENDBRANCH  18  19
ENDBRANCH  15  18
ENDBRANCH   9  12
ENDBRANCH   5   8
BRANCH   7  27
ATOM     27  N26 ZIN A   1       1.297  -0.073   1.906  0.00  0.00    -0.188 N 
ATOM     28  H63 ZIN A   1       1.587   0.841   2.056  0.00  0.00     0.184 HD
BRANCH  27  29
ATOM     29  C27 ZIN A   1       1.473  -1.026   2.895  0.00  0.00     0.727 A 
ATOM     30  N38 ZIN A   1       2.155  -0.707   3.984  0.00  0.00    -0.062 NA
ATOM     31  C31 ZIN A   1       2.338  -1.599   4.955  0.00  0.00     0.089 A 
ATOM     32  C30 ZIN A   1       1.808  -2.884   4.803  0.00  0.00     0.053 A 
ATOM     33  C29 ZIN A   1       1.107  -3.175   3.646  0.00  0.00     0.139 A 
ATOM     34  N28 ZIN A   1       0.960  -2.236   2.725  0.00  0.00    -0.075 NA
BRANCH  31  35
ATOM     35  C32 ZIN A   1       3.098  -1.238   6.176  0.00  0.00     0.011 A 
ATOM     36  C37 ZIN A   1       3.384  -2.201   7.143  0.00  0.00     0.130 A 
ATOM     37  N36 ZIN A   1       4.064  -1.882   8.225  0.00  0.00    -0.272 NA
ATOM     38  C35 ZIN A   1       4.489  -0.652   8.444  0.00  0.00     0.116 A 
ATOM     39  C34 ZIN A   1       4.240   0.360   7.535  0.00  0.00     0.020 A 
ATOM     40  C33 ZIN A   1       3.534   0.074   6.379  0.00  0.00     0.017 A 
ENDBRANCH  31  35
ENDBRANCH  27  29
ENDBRANCH   7  27
TORSDOF 7
