REMARK  23 active torsions:
REMARK  status: ('A' for Active; 'I' for Inactive)
REMARK    1  A    between atoms: C2_2  and  C4_4 
REMARK    2  A    between atoms: C4_4  and  N5_5 
REMARK    3  A    between atoms: N5_5  and  C6_6 
REMARK    4  A    between atoms: N5_5  and  C50_49 
REMARK    5  A    between atoms: C6_6  and  C7_7 
REMARK    6  A    between atoms: C7_7  and  N8_8 
REMARK    7  A    between atoms: N8_8  and  C10_10 
REMARK    8  A    between atoms: N8_8  and  C14_14 
REMARK    9  A    between atoms: C10_10  and  C11_11 
REMARK   10  A    between atoms: C14_14  and  C15_15 
REMARK   11  A    between atoms: C15_15  and  C17_16 
REMARK   12  A    between atoms: C15_15  and  N41_40 
REMARK   13  A    between atoms: C17_16  and  O18_17 
REMARK   14  A    between atoms: O18_17  and  P19_18 
REMARK   15  A    between atoms: P19_18  and  O22_21 
REMARK   16  A    between atoms: O22_21  and  C23_22 
REMARK   17  A    between atoms: C26_25  and  C27_26 
REMARK   18  A    between atoms: C26_25  and  C33_32 
REMARK   19  A    between atoms: N41_40  and  C42_41 
REMARK   20  A    between atoms: N41_40  and  C46_45 
REMARK   21  A    between atoms: C42_41  and  C43_42 
REMARK   22  A    between atoms: C46_45  and  C47_46 
REMARK   23  A    between atoms: C50_49  and  C51_50 
ROOT
ATOM      1  C15 ZIN A   1      -7.395   8.147   2.771  0.00  0.00     0.274 C 
ENDROOT
BRANCH   1   2
ATOM      2  C14 ZIN A   1      -6.309   7.329   2.070  0.00  0.00     0.273 C 
BRANCH   2   3
ATOM      3  N8  ZIN A   1      -6.865   6.718   0.855  0.00  0.00    -0.058 N 
ATOM      4  H9  ZIN A   1      -7.639   6.119   1.103  0.00  0.00     0.280 HD
BRANCH   3   5
ATOM      5  C7  ZIN A   1      -7.334   7.772  -0.054  0.00  0.00     0.265 C 
BRANCH   5   6
ATOM      6  C6  ZIN A   1      -7.907   7.136  -1.321  0.00  0.00     0.301 C 
BRANCH   6   7
ATOM      7  N5  ZIN A   1      -8.337   8.191  -2.248  0.00  0.00     0.110 N 
BRANCH   7   8
ATOM      8  C4  ZIN A   1      -9.593   8.806  -1.800  0.00  0.00     0.385 C 
BRANCH   8   9
ATOM      9  C2  ZIN A   1     -10.689   7.771  -1.807  0.00  0.00     0.202 C 
ATOM     10  O1  ZIN A   1     -10.447   6.630  -2.162  0.00  0.00    -0.647 OA
ATOM     11  O3  ZIN A   1     -11.816   8.074  -1.452  0.00  0.00    -0.647 OA
ENDBRANCH   8   9
ENDBRANCH   7   8
BRANCH   7  12
ATOM     12  C50 ZIN A   1      -8.463   7.671  -3.616  0.00  0.00     0.385 C 
BRANCH  12  13
ATOM     13  C51 ZIN A   1      -8.555   8.822  -4.585  0.00  0.00     0.202 C 
ATOM     14  O52 ZIN A   1      -8.407   9.966  -4.189  0.00  0.00    -0.647 OA
ATOM     15  O53 ZIN A   1      -8.778   8.610  -5.764  0.00  0.00    -0.647 OA
ENDBRANCH  12  13
ENDBRANCH   7  12
ENDBRANCH   6   7
ENDBRANCH   5   6
ENDBRANCH   3   5
BRANCH   3  16
ATOM     16  C10 ZIN A   1      -5.826   5.922   0.188  0.00  0.00     0.347 C 
BRANCH  16  17
ATOM     17  C11 ZIN A   1      -5.470   4.737   1.048  0.00  0.00     0.199 C 
ATOM     18  O12 ZIN A   1      -6.119   4.496   2.051  0.00  0.00    -0.647 OA
ATOM     19  O13 ZIN A   1      -4.534   4.020   0.741  0.00  0.00    -0.647 OA
ENDBRANCH  16  17
ENDBRANCH   3  16
ENDBRANCH   2   3
ENDBRANCH   1   2
BRANCH   1  20
ATOM     20  C17 ZIN A   1      -6.809   8.808   4.020  0.00  0.00     0.219 C 
BRANCH  20  21
ATOM     21  O18 ZIN A   1      -7.834   9.534   4.701  0.00  0.00    -0.288 OA
BRANCH  21  22
ATOM     22  P19 ZIN A   1      -7.548  10.455   5.991  0.00  0.00     0.408 P 
ATOM     23  O20 ZIN A   1      -6.453  11.492   5.651  0.00  0.00    -0.624 OA
ATOM     24  O21 ZIN A   1      -7.070   9.567   7.162  0.00  0.00    -0.624 OA
BRANCH  22  25
ATOM     25  O22 ZIN A   1      -8.899  11.221   6.414  0.00  0.00    -0.284 OA
BRANCH  25  26
ATOM     26  C23 ZIN A   1      -8.948  12.194   7.459  0.00  0.00     0.134 C 
ATOM     27  C40 ZIN A   1      -9.922  11.730   8.543  0.00  0.00     0.034 C 
ATOM     28  C39 ZIN A   1      -9.974  12.772   9.662  0.00  0.00     0.022 C 
ATOM     29  C26 ZIN A   1     -10.446  14.111   9.091  0.00  0.00     0.014 C 
ATOM     30  C25 ZIN A   1      -9.471  14.575   8.007  0.00  0.00     0.022 C 
ATOM     31  C24 ZIN A   1      -9.419  13.533   6.888  0.00  0.00     0.034 C 
BRANCH  29  32
ATOM     32  C27 ZIN A   1     -10.497  15.137  10.194  0.00  0.00    -0.045 A 
ATOM     33  C32 ZIN A   1     -11.390  14.986  11.238  0.00  0.00     0.008 A 
ATOM     34  C31 ZIN A   1     -11.434  15.925  12.252  0.00  0.00     0.001 A 
ATOM     35  C30 ZIN A   1     -10.591  17.020  12.216  0.00  0.00     0.000 A 
ATOM     36  C29 ZIN A   1      -9.702  17.174  11.169  0.00  0.00     0.001 A 
ATOM     37  C28 ZIN A   1      -9.655  16.233  10.158  0.00  0.00     0.008 A 
ENDBRANCH  29  32
BRANCH  29  38
ATOM     38  C33 ZIN A   1     -11.820  13.946   8.495  0.00  0.00    -0.045 A 
ATOM     39  C38 ZIN A   1     -12.343  14.933   7.681  0.00  0.00     0.008 A 
ATOM     40  C37 ZIN A   1     -13.602  14.780   7.130  0.00  0.00     0.001 A 
ATOM     41  C36 ZIN A   1     -14.341  13.643   7.400  0.00  0.00     0.000 A 
ATOM     42  C35 ZIN A   1     -13.819  12.658   8.217  0.00  0.00     0.001 A 
ATOM     43  C34 ZIN A   1     -12.559  12.809   8.765  0.00  0.00     0.008 A 
ENDBRANCH  29  38
ENDBRANCH  25  26
ENDBRANCH  22  25
ENDBRANCH  21  22
ENDBRANCH  20  21
ENDBRANCH   1  20
BRANCH   1  44
ATOM     44  N41 ZIN A   1      -8.501   7.262   3.159  0.00  0.00     0.117 N 
BRANCH  44  45
ATOM     45  C42 ZIN A   1      -9.457   7.099   2.056  0.00  0.00     0.386 C 
BRANCH  45  46
ATOM     46  C43 ZIN A   1     -10.345   8.314   1.977  0.00  0.00     0.202 C 
ATOM     47  O44 ZIN A   1     -10.125   9.277   2.692  0.00  0.00    -0.647 OA
ATOM     48  O45 ZIN A   1     -11.283   8.335   1.198  0.00  0.00    -0.647 OA
ENDBRANCH  45  46
ENDBRANCH  44  45
BRANCH  44  49
ATOM     49  C46 ZIN A   1      -7.998   5.960   3.616  0.00  0.00     0.386 C 
BRANCH  49  50
ATOM     50  C47 ZIN A   1      -7.578   6.062   5.060  0.00  0.00     0.202 C 
ATOM     51  O48 ZIN A   1      -7.852   7.059   5.706  0.00  0.00    -0.647 OA
ATOM     52  O49 ZIN A   1      -6.963   5.148   5.583  0.00  0.00    -0.647 OA
ENDBRANCH  49  50
ENDBRANCH  44  49
ENDBRANCH   1  44
TORSDOF 23
