REMARK  8 active torsions:
REMARK  status: ('A' for Active; 'I' for Inactive)
REMARK    1  A    between atoms: O2_2  and  C3_3 
REMARK    2  A    between atoms: C4_4  and  O5_5 
REMARK    3  A    between atoms: C14_14  and  O15_15 
REMARK    4  A    between atoms: O15_15  and  C16_16 
REMARK    5  A    between atoms: C19_19  and  N20_20 
REMARK       I    between atoms: N20_20  and  C21_21 
REMARK    6  A    between atoms: C21_21  and  C23_23 
REMARK    7  A    between atoms: C23_23  and  C24_24 
REMARK       I    between atoms: C24_24  and  N26_26 
REMARK    8  A    between atoms: N26_26  and  C27_27 
ROOT
ATOM      1  C16 ZIN A   1       0.168  -7.926  -7.610  0.00  0.00     0.076 A 
ATOM      2  C17 ZIN A   1       0.254  -7.206  -8.793  0.00  0.00     0.039 A 
ATOM      3  C18 ZIN A   1       1.471  -7.066  -9.429  0.00  0.00     0.032 A 
ATOM      4  C19 ZIN A   1       2.610  -7.646  -8.885  0.00  0.00     0.034 A 
ATOM      5  C36 ZIN A   1       2.523  -8.366  -7.701  0.00  0.00     0.032 A 
ATOM      6  C37 ZIN A   1       1.306  -8.501  -7.063  0.00  0.00     0.039 A 
ENDROOT
BRANCH   4   7
ATOM      7  N20 ZIN A   1       3.845  -7.504  -9.530  0.00  0.00    -0.326 N 
ATOM      8  C21 ZIN A   1       4.752  -8.499  -9.476  0.00  0.00     0.240 C 
ATOM      9  O22 ZIN A   1       4.519  -9.497  -8.827  0.00  0.00    -0.272 OA
ATOM     10  H50 ZIN A   1       4.048  -6.689 -10.016  0.00  0.00     0.169 HD
BRANCH   8  11
ATOM     11  C23 ZIN A   1       6.056  -8.372 -10.221  0.00  0.00     0.122 A 
ATOM     12  C35 ZIN A   1       6.960  -9.605 -10.277  0.00  0.00     0.031 A 
ATOM     13  C34 ZIN A   1       7.346  -8.413  -9.399  0.00  0.00     0.031 A 
BRANCH  11  14
ATOM     14  C24 ZIN A   1       6.028  -7.474 -11.430  0.00  0.00     0.240 C 
ATOM     15  O25 ZIN A   1       6.404  -7.892 -12.505  0.00  0.00    -0.272 OA
ATOM     16  N26 ZIN A   1       5.586  -6.205 -11.318  0.00  0.00    -0.326 N 
ATOM     17  H51 ZIN A   1       5.339  -5.853 -10.448  0.00  0.00     0.169 HD
BRANCH  16  18
ATOM     18  C27 ZIN A   1       5.483  -5.396 -12.456  0.00  0.00     0.034 A 
ATOM     19  C33 ZIN A   1       5.916  -4.078 -12.412  0.00  0.00     0.032 A 
ATOM     20  C32 ZIN A   1       5.819  -3.283 -13.538  0.00  0.00     0.044 A 
ATOM     21  C30 ZIN A   1       5.280  -3.797 -14.705  0.00  0.00     0.116 A 
ATOM     22  C29 ZIN A   1       4.842  -5.110 -14.748  0.00  0.00     0.044 A 
ATOM     23  F31 ZIN A   1       5.180  -3.016 -15.803  0.00  0.00    -0.206 F 
ATOM     24  C28 ZIN A   1       4.942  -5.910 -13.627  0.00  0.00     0.032 A 
ENDBRANCH  16  18
ENDBRANCH  11  14
ENDBRANCH   8  11
ENDBRANCH   4   7
BRANCH   1  25
ATOM     25  O15 ZIN A   1      -1.031  -8.064  -6.984  0.00  0.00    -0.310 OA
BRANCH  25  26
ATOM     26  C14 ZIN A   1      -1.900  -8.985  -7.469  0.00  0.00     0.090 A 
ATOM     27  C8  ZIN A   1      -3.133  -9.233  -6.825  0.00  0.00     0.029 A 
ATOM     28  C7  ZIN A   1      -3.500  -8.537  -5.663  0.00  0.00     0.056 A 
ATOM     29  C9  ZIN A   1      -4.008 -10.204  -7.370  0.00  0.00     0.072 A 
ATOM     30  C4  ZIN A   1      -4.699  -8.803  -5.066  0.00  0.00     0.102 A 
ATOM     31  C3  ZIN A   1      -5.566  -9.764  -5.603  0.00  0.00     0.103 A 
ATOM     32  C10 ZIN A   1      -5.232 -10.459  -6.729  0.00  0.00     0.072 A 
ATOM     33  N11 ZIN A   1      -3.660 -10.869  -8.478  0.00  0.00    -0.260 NA
ATOM     34  C12 ZIN A   1      -2.518 -10.647  -9.084  0.00  0.00     0.120 A 
ATOM     35  C13 ZIN A   1      -1.607  -9.710  -8.611  0.00  0.00     0.057 A 
BRANCH  30  36
ATOM     36  O5  ZIN A   1      -5.054  -8.129  -3.940  0.00  0.00    -0.353 OA
ATOM     37  C6  ZIN A   1      -4.127  -7.162  -3.443  0.00  0.00     0.210 C 
ENDBRANCH  30  36
BRANCH  31  38
ATOM     38  O2  ZIN A   1      -6.754 -10.011  -4.991  0.00  0.00    -0.353 OA
ATOM     39  C1  ZIN A   1      -7.594 -11.006  -5.581  0.00  0.00     0.210 C 
ENDBRANCH  31  38
ENDBRANCH  25  26
ENDBRANCH   1  25
TORSDOF 8
