REMARK  14 active torsions:
REMARK  status: ('A' for Active; 'I' for Inactive)
REMARK    1  A    between atoms: C2_2  and  N5_5 
REMARK       I    between atoms: N5_5  and  C6_6 
REMARK    2  A    between atoms: C6_6  and  C8_8 
REMARK    3  A    between atoms: N20_17  and  C22_19 
REMARK    4  A    between atoms: C22_19  and  C23_20 
REMARK    5  A    between atoms: C23_20  and  O25_21 
REMARK    6  A    between atoms: C23_20  and  C26_22 
REMARK    7  A    between atoms: C26_22  and  C28_23 
REMARK    8  A    between atoms: C26_22  and  N35_30 
REMARK    9  A    between atoms: C28_23  and  C29_24 
REMARK       I    between atoms: N35_30  and  C36_31 
REMARK   10  A    between atoms: C36_31  and  C38_33 
REMARK   11  A    between atoms: C38_33  and  C40_34 
REMARK   12  A    between atoms: C38_33  and  N44_38 
REMARK   13  A    between atoms: C40_34  and  C41_35 
REMARK       I    between atoms: C41_35  and  N42_36 
REMARK       I    between atoms: N44_38  and  C45_39 
REMARK   14  A    between atoms: C45_39  and  C47_41 
ROOT
ATOM      1  C26 ZIN A   1       5.183   3.522  -2.494  0.00  0.00     0.119 C 
ENDROOT
BRANCH   1   2
ATOM      2  C23 ZIN A   1       5.340   2.048  -2.876  0.00  0.00     0.167 C 
BRANCH   2   3
ATOM      3  C22 ZIN A   1       3.985   1.346  -2.768  0.00  0.00     0.269 C 
BRANCH   3   4
ATOM      4  N20 ZIN A   1       4.170  -0.103  -2.924  0.00  0.00    -0.055 N 
ATOM      5  C8  ZIN A   1       2.895  -0.781  -2.665  0.00  0.00     0.279 C 
ATOM      6  C10 ZIN A   1       3.087  -2.297  -2.754  0.00  0.00     0.048 C 
ATOM      7  C11 ZIN A   1       3.589  -2.655  -4.155  0.00  0.00    -0.006 C 
ATOM      8  C17 ZIN A   1       4.888  -1.891  -4.428  0.00  0.00     0.016 C 
ATOM      9  C13 ZIN A   1       3.856  -4.157  -4.251  0.00  0.00     0.005 C 
ATOM     10  C16 ZIN A   1       5.374  -2.215  -5.841  0.00  0.00     0.007 C 
ATOM     11  C19 ZIN A   1       4.627  -0.392  -4.291  0.00  0.00     0.241 C 
ATOM     12  C15 ZIN A   1       5.638  -3.719  -5.952  0.00  0.00     0.000 C 
ATOM     13  C14 ZIN A   1       4.351  -4.491  -5.660  0.00  0.00     0.000 C 
ATOM     14  H21 ZIN A   1       4.863  -0.424  -2.264  0.00  0.00     0.281 HD
BRANCH   5  15
ATOM     15  C6  ZIN A   1       2.405  -0.419  -1.286  0.00  0.00     0.249 C 
ATOM     16  N5  ZIN A   1       1.089  -0.476  -1.002  0.00  0.00    -0.351 N 
ATOM     17  H66 ZIN A   1       0.457  -0.750  -1.685  0.00  0.00     0.163 HD
ATOM     18  O7  ZIN A   1       3.196  -0.076  -0.433  0.00  0.00    -0.271 OA
BRANCH  16  19
ATOM     19  C2  ZIN A   1       0.613  -0.123   0.338  0.00  0.00     0.022 C 
ATOM     20  C1  ZIN A   1       0.997   1.324   0.651  0.00  0.00     0.037 C 
ATOM     21  C3  ZIN A   1       1.254  -1.056   1.368  0.00  0.00     0.037 C 
ATOM     22  C4  ZIN A   1      -0.909  -0.271   0.393  0.00  0.00     0.037 C 
ENDBRANCH  16  19
ENDBRANCH   5  15
ENDBRANCH   3   4
ENDBRANCH   2   3
BRANCH   2  23
ATOM     23  O25 ZIN A   1       5.821   1.952  -4.218  0.00  0.00    -0.392 OA
ATOM     24  H81 ZIN A   1       5.237   2.356  -4.875  0.00  0.00     0.210 HD
ENDBRANCH   2  23
ENDBRANCH   1   2
BRANCH   1  25
ATOM     25  C28 ZIN A   1       4.283   4.220  -3.516  0.00  0.00     0.066 C 
BRANCH  25  26
ATOM     26  C29 ZIN A   1       4.029   5.638  -3.075  0.00  0.00    -0.056 A 
ATOM     27  C34 ZIN A   1       4.880   6.650  -3.478  0.00  0.00     0.007 A 
ATOM     28  C33 ZIN A   1       4.644   7.952  -3.077  0.00  0.00     0.001 A 
ATOM     29  C32 ZIN A   1       3.562   8.240  -2.266  0.00  0.00     0.000 A 
ATOM     30  C31 ZIN A   1       2.714   7.227  -1.859  0.00  0.00     0.001 A 
ATOM     31  C30 ZIN A   1       2.948   5.926  -2.263  0.00  0.00     0.007 A 
ENDBRANCH  25  26
ENDBRANCH   1  25
BRANCH   1  32
ATOM     32  N35 ZIN A   1       6.499   4.166  -2.482  0.00  0.00    -0.352 N 
ATOM     33  C36 ZIN A   1       6.706   5.261  -1.724  0.00  0.00     0.241 C 
ATOM     34  O37 ZIN A   1       5.803   5.713  -1.052  0.00  0.00    -0.271 OA
ATOM     35  H89 ZIN A   1       7.221   3.804  -3.019  0.00  0.00     0.163 HD
BRANCH  33  36
ATOM     36  C38 ZIN A   1       8.060   5.923  -1.711  0.00  0.00     0.185 C 
BRANCH  36  37
ATOM     37  C40 ZIN A   1       9.111   4.927  -1.217  0.00  0.00     0.137 C 
BRANCH  37  38
ATOM     38  C41 ZIN A   1       8.786   4.514   0.196  0.00  0.00     0.217 C 
ATOM     39  N42 ZIN A   1       9.625   3.703   0.870  0.00  0.00    -0.370 N 
ATOM     40  H92 ZIN A   1      10.438   3.385   0.447  0.00  0.00     0.159 HD
ATOM     41  H93 ZIN A   1       9.416   3.437   1.780  0.00  0.00     0.159 HD
ATOM     42  O43 ZIN A   1       7.770   4.911   0.725  0.00  0.00    -0.274 OA
ENDBRANCH  37  38
ENDBRANCH  36  37
BRANCH  36  43
ATOM     43  N44 ZIN A   1       8.027   7.083  -0.816  0.00  0.00    -0.342 N 
ATOM     44  C45 ZIN A   1       8.869   8.115  -1.021  0.00  0.00     0.271 C 
ATOM     45  O46 ZIN A   1       9.590   8.127  -1.999  0.00  0.00    -0.266 OA
ATOM     46  H94 ZIN A   1       7.400   7.107  -0.077  0.00  0.00     0.163 HD
BRANCH  44  47
ATOM     47  C47 ZIN A   1       8.916   9.236  -0.051  0.00  0.00     0.125 A 
ATOM     48  N56 ZIN A   1       8.128   9.208   1.006  0.00  0.00    -0.243 NA
ATOM     49  C55 ZIN A   1       8.140  10.191   1.905  0.00  0.00     0.068 A 
ATOM     50  C50 ZIN A   1       9.006  11.302   1.729  0.00  0.00    -0.007 A 
ATOM     51  C54 ZIN A   1       7.299  10.151   3.034  0.00  0.00     0.032 A 
ATOM     52  C49 ZIN A   1       9.847  11.344   0.602  0.00  0.00     0.016 A 
ATOM     53  C51 ZIN A   1       9.007  12.336   2.679  0.00  0.00     0.014 A 
ATOM     54  C48 ZIN A   1       9.794  10.305  -0.283  0.00  0.00     0.038 A 
ATOM     55  C52 ZIN A   1       8.179  12.262   3.757  0.00  0.00     0.001 A 
ATOM     56  C53 ZIN A   1       7.328  11.171   3.933  0.00  0.00     0.002 A 
ENDBRANCH  44  47
ENDBRANCH  36  43
ENDBRANCH  33  36
ENDBRANCH   1  32
TORSDOF 14
