REMARK  6 active torsions:
REMARK  status: ('A' for Active; 'I' for Inactive)
REMARK    1  A    between atoms: C2_2  and  C3_3 
REMARK       I    between atoms: C3_3  and  N5_5 
REMARK    2  A    between atoms: C9_9  and  N11_10 
REMARK    3  A    between atoms: C13_12  and  C14_13 
REMARK    4  A    between atoms: C17_16  and  O18_17 
REMARK    5  A    between atoms: O18_17  and  C19_18 
REMARK    6  A    between atoms: C28_27  and  N29_28 
ROOT
ATOM      1  N11 ZIN A   1       4.349  -5.007   2.591  0.00  0.00    -0.244 N 
ATOM      2  N12 ZIN A   1       4.767  -6.108   1.836  0.00  0.00    -0.169 NA
ATOM      3  C13 ZIN A   1       6.029  -6.367   2.087  0.00  0.00     0.105 A 
ATOM      4  C27 ZIN A   1       6.490  -5.385   3.068  0.00  0.00     0.088 A 
ATOM      5  C28 ZIN A   1       7.705  -5.133   3.724  0.00  0.00     0.139 A 
ATOM      6  N30 ZIN A   1       7.760  -4.119   4.582  0.00  0.00    -0.224 NA
ATOM      7  C31 ZIN A   1       6.701  -3.364   4.815  0.00  0.00     0.237 A 
ATOM      8  N32 ZIN A   1       5.543  -3.563   4.224  0.00  0.00    -0.222 NA
ATOM      9  C33 ZIN A   1       5.390  -4.551   3.344  0.00  0.00     0.164 A 
ENDROOT
BRANCH   3  10
ATOM     10  C14 ZIN A   1       6.838  -7.455   1.486  0.00  0.00    -0.004 A 
ATOM     11  C26 ZIN A   1       7.655  -8.245   2.294  0.00  0.00     0.016 A 
ATOM     12  C25 ZIN A   1       8.401  -9.260   1.733  0.00  0.00     0.038 A 
ATOM     13  C17 ZIN A   1       8.348  -9.488   0.364  0.00  0.00     0.076 A 
ATOM     14  C16 ZIN A   1       7.540  -8.699  -0.443  0.00  0.00     0.038 A 
ATOM     15  C15 ZIN A   1       6.787  -7.686   0.112  0.00  0.00     0.016 A 
BRANCH  13  16
ATOM     16  O18 ZIN A   1       9.090 -10.485  -0.186  0.00  0.00    -0.311 OA
BRANCH  16  17
ATOM     17  C19 ZIN A   1      10.238 -10.146  -0.828  0.00  0.00     0.076 A 
ATOM     18  C24 ZIN A   1      10.999 -11.123  -1.453  0.00  0.00     0.037 A 
ATOM     19  C23 ZIN A   1      12.164 -10.775  -2.109  0.00  0.00     0.003 A 
ATOM     20  C22 ZIN A   1      12.577  -9.456  -2.134  0.00  0.00     0.000 A 
ATOM     21  C21 ZIN A   1      11.824  -8.481  -1.507  0.00  0.00     0.003 A 
ATOM     22  C20 ZIN A   1      10.655  -8.823  -0.854  0.00  0.00     0.037 A 
ENDBRANCH  16  17
ENDBRANCH  13  16
ENDBRANCH   3  10
BRANCH   1  23
ATOM     23  C9  ZIN A   1       3.003  -4.429   2.571  0.00  0.00     0.130 C 
ATOM     24  C8  ZIN A   1       1.987  -5.485   3.014  0.00  0.00     0.030 C 
ATOM     25  C7  ZIN A   1       0.585  -4.873   3.025  0.00  0.00     0.022 C 
ATOM     26  C6  ZIN A   1       0.220  -4.415   1.609  0.00  0.00     0.126 C 
ATOM     27  N5  ZIN A   1       1.270  -3.510   1.120  0.00  0.00    -0.347 N 
ATOM     28  C3  ZIN A   1       0.957  -2.286   0.652  0.00  0.00     0.242 C 
ATOM     29  C34 ZIN A   1       2.665  -3.969   1.145  0.00  0.00     0.153 C 
ATOM     30  O4  ZIN A   1       1.819  -1.586   0.156  0.00  0.00    -0.268 OA
BRANCH  28  31
ATOM     31  C2  ZIN A   1      -0.427  -1.796   0.741  0.00  0.00     0.064 C 
ATOM     32  C1  ZIN A   1      -0.716  -0.550   0.375  0.00  0.00     0.017 C 
ENDBRANCH  28  31
ENDBRANCH   1  23
BRANCH   5  33
ATOM     33  N29 ZIN A   1       8.816  -5.918   3.485  0.00  0.00    -0.383 N 
ATOM     34  H53 ZIN A   1       8.842  -6.497   2.707  0.00  0.00     0.157 HD
ATOM     35  H54 ZIN A   1       9.570  -5.891   4.094  0.00  0.00     0.157 HD
ENDBRANCH   5  33
TORSDOF 6
