REMARK  8 active torsions:
REMARK  status: ('A' for Active; 'I' for Inactive)
REMARK    1  A    between atoms: C4_4  and  N5_5 
REMARK    2  A    between atoms: N5_5  and  C6_6 
REMARK    3  A    between atoms: C9_9  and  C10_10 
REMARK       I    between atoms: C10_10  and  N12_12 
REMARK    4  A    between atoms: N12_12  and  C13_13 
REMARK    5  A    between atoms: C23_23  and  N24_24 
REMARK    6  A    between atoms: N27_27  and  C29_29 
REMARK    7  A    between atoms: C29_29  and  C30_30 
REMARK    8  A    between atoms: C30_30  and  O31_31 
ROOT
ATOM      1  N5  RES d   1       0.133  -2.989  -2.477  0.00  0.00    -0.320 N 
ATOM      2  H38 RES d   1      -0.285  -3.864  -2.460  0.00  0.00     0.169 HD
ENDROOT
BRANCH   1   3
ATOM      3  C4  RES d   1       0.613  -2.427  -1.301  0.00  0.00     0.135 A 
ATOM      4  N3  RES d   1       1.283  -1.276  -1.327  0.00  0.00    -0.216 NA
ATOM      5  C2  RES d   1       1.743  -0.736  -0.217  0.00  0.00     0.126 A 
ATOM      6  C1  RES d   1       2.495   0.567  -0.295  0.00  0.00     0.093 C 
ATOM      7  N34 RES d   1       1.568  -1.305   0.958  0.00  0.00    -0.216 NA
ATOM      8  C23 RES d   1       0.904  -2.454   1.070  0.00  0.00     0.131 A 
ATOM      9  C22 RES d   1       0.402  -3.058  -0.080  0.00  0.00     0.100 A 
BRANCH   8  10
ATOM     10  N24 RES d   1       0.721  -3.042   2.311  0.00  0.00    -0.362 N 
ATOM     11  C33 RES d   1       0.178  -4.405   2.429  0.00  0.00     0.152 C 
ATOM     12  C32 RES d   1      -0.975  -4.388   3.432  0.00  0.00     0.254 C 
ATOM     13  N27 RES d   1      -0.514  -3.806   4.699  0.00  0.00    -0.066 N 
ATOM     14  C26 RES d   1      -0.143  -2.400   4.498  0.00  0.00     0.254 C 
ATOM     15  H28 RES d   1       0.287  -4.320   5.032  0.00  0.00     0.280 HD
ATOM     16  C25 RES d   1       1.056  -2.320   3.548  0.00  0.00     0.152 C 
BRANCH  13  17
ATOM     17  C29 RES d   1      -1.594  -3.888   5.692  0.00  0.00     0.260 C 
BRANCH  17  18
ATOM     18  C30 RES d   1      -1.897  -5.357   5.996  0.00  0.00     0.192 C 
BRANCH  18  19
ATOM     19  O31 RES d   1      -0.761  -5.958   6.621  0.00  0.00    -0.399 OA
ATOM     20  H56 RES d   1      -0.882  -6.892   6.842  0.00  0.00     0.209 HD
ENDBRANCH  18  19
ENDBRANCH  17  18
ENDBRANCH  13  17
ENDBRANCH   8  10
ENDBRANCH   1   3
BRANCH   1  21
ATOM     21  C6  RES d   1       0.249  -2.302  -3.669  0.00  0.00     0.172 A 
ATOM     22  S21 RES d   1      -0.403  -2.822  -5.161  0.00  0.00    -0.045 SA
ATOM     23  C9  RES d   1       0.239  -1.387  -5.956  0.00  0.00     0.094 A 
ATOM     24  C8  RES d   1       0.897  -0.646  -5.013  0.00  0.00     0.144 A 
ATOM     25  N7  RES d   1       0.877  -1.170  -3.814  0.00  0.00    -0.235 NA
BRANCH  23  26
ATOM     26  C10 RES d   1       0.098  -1.050  -7.372  0.00  0.00     0.264 C 
ATOM     27  O11 RES d   1       0.594  -0.027  -7.807  0.00  0.00    -0.267 OA
ATOM     28  N12 RES d   1      -0.580  -1.874  -8.196  0.00  0.00    -0.320 N 
ATOM     29  H40 RES d   1      -1.042  -2.647  -7.836  0.00  0.00     0.169 HD
BRANCH  28  30
ATOM     30  C13 RES d   1      -0.617  -1.613  -9.570  0.00  0.00     0.062 A 
ATOM     31  C19 RES d   1      -1.000  -0.359 -10.032  0.00  0.00     0.061 A 
ATOM     32  C18 RES d   1      -1.030  -0.104 -11.389  0.00  0.00     0.026 A 
ATOM     33 Cl20 RES d   1      -1.428   0.889  -8.903  0.00  0.00    -0.082 Cl
ATOM     34  C17 RES d   1      -0.690  -1.099 -12.289  0.00  0.00     0.002 A 
ATOM     35  C16 RES d   1      -0.313  -2.349 -11.832  0.00  0.00     0.009 A 
ATOM     36  C14 RES d   1      -0.276  -2.608 -10.476  0.00  0.00    -0.034 A 
ATOM     37  C15 RES d   1       0.135  -3.971  -9.981  0.00  0.00     0.050 C 
ENDBRANCH  28  30
ENDBRANCH  23  26
ENDBRANCH   1  21
TORSDOF 8
