REMARK  13 active torsions:
REMARK  status: ('A' for Active; 'I' for Inactive)
REMARK    1  A    between atoms: N1_1  and  C5_5 
REMARK    2  A    between atoms: C5_5  and  C6_6 
REMARK    3  A    between atoms: C6_6  and  C7_7 
REMARK    4  A    between atoms: C7_7  and  C8_8 
REMARK    5  A    between atoms: C8_8  and  C9_9 
REMARK    6  A    between atoms: C9_9  and  N11_10 
REMARK    7  A    between atoms: C9_9  and  C27_25 
REMARK    8  A    between atoms: N11_10  and  C14_13 
REMARK    9  A    between atoms: C14_13  and  C16_14 
REMARK   10  A    between atoms: C14_13  and  C24_22 
REMARK   11  A    between atoms: C16_14  and  C17_15 
REMARK   12  A    between atoms: C17_15  and  C18_16 
REMARK       I    between atoms: C27_25  and  N29_27 
REMARK   13  A    between atoms: C33_31  and  C35_32 
ROOT
ATOM      1  C9  ZIN A   1      -0.651   1.452   6.213  0.00  0.00     0.278 C 
ENDROOT
BRANCH   1   2
ATOM      2  C8  ZIN A   1       0.065   0.958   4.954  0.00  0.00     0.043 C 
BRANCH   2   3
ATOM      3  C7  ZIN A   1      -0.675   1.465   3.715  0.00  0.00     0.004 C 
BRANCH   3   4
ATOM      4  C6  ZIN A   1       0.041   0.972   2.456  0.00  0.00     0.027 C 
BRANCH   4   5
ATOM      5  C5  ZIN A   1      -0.699   1.479   1.216  0.00  0.00     0.229 C 
BRANCH   5   6
ATOM      6  N1  ZIN A   1      -0.012   1.005   0.008  0.00  0.00    -0.079 N 
ATOM      7  H2  ZIN A   1       0.002  -0.004   0.002  0.00  0.00     0.274 HD
ATOM      8  H3  ZIN A   1       0.935   1.354   0.000  0.00  0.00     0.274 HD
ATOM      9  H4  ZIN A   1      -0.500   1.339  -0.810  0.00  0.00     0.274 HD
ENDBRANCH   5   6
ENDBRANCH   4   5
ENDBRANCH   3   4
ENDBRANCH   2   3
ENDBRANCH   1   2
BRANCH   1  10
ATOM     10  N11 ZIN A   1      -0.567   2.917   6.282  0.00  0.00    -0.048 N 
ATOM     11  H12 ZIN A   1       0.396   3.193   6.397  0.00  0.00     0.279 HD
ATOM     12  H13 ZIN A   1      -0.931   3.315   5.429  0.00  0.00     0.279 HD
BRANCH  10  13
ATOM     13  C14 ZIN A   1      -1.355   3.399   7.424  0.00  0.00     0.287 C 
BRANCH  13  14
ATOM     14  C16 ZIN A   1      -1.167   4.911   7.571  0.00  0.00     0.049 C 
BRANCH  14  15
ATOM     15  C17 ZIN A   1       0.290   5.211   7.928  0.00  0.00     0.041 C 
BRANCH  15  16
ATOM     16  C18 ZIN A   1       0.475   6.700   8.073  0.00  0.00    -0.058 A 
ATOM     17  C23 ZIN A   1       0.290   7.303   9.303  0.00  0.00     0.007 A 
ATOM     18  C22 ZIN A   1       0.464   8.668   9.437  0.00  0.00     0.001 A 
ATOM     19  C21 ZIN A   1       0.814   9.431   8.338  0.00  0.00     0.000 A 
ATOM     20  C20 ZIN A   1       0.993   8.828   7.107  0.00  0.00     0.001 A 
ATOM     21  C19 ZIN A   1       0.823   7.463   6.974  0.00  0.00     0.007 A 
ENDBRANCH  15  16
ENDBRANCH  14  15
ENDBRANCH  13  14
BRANCH  13  22
ATOM     22  C24 ZIN A   1      -2.813   3.094   7.193  0.00  0.00     0.204 C 
ATOM     23  O25 ZIN A   1      -3.550   2.888   8.142  0.00  0.00    -0.646 OA
ATOM     24  O26 ZIN A   1      -3.255   3.054   6.058  0.00  0.00    -0.646 OA
ENDBRANCH  13  22
ENDBRANCH  10  13
ENDBRANCH   1  10
BRANCH   1  25
ATOM     25  C27 ZIN A   1       0.004   0.853   7.431  0.00  0.00     0.251 C 
ATOM     26  O28 ZIN A   1       0.493   1.575   8.273  0.00  0.00    -0.271 OA
ATOM     27  N29 ZIN A   1       0.046  -0.485   7.584  0.00  0.00    -0.336 N 
ATOM     28  C33 ZIN A   1       0.651  -1.200   8.718  0.00  0.00     0.188 C 
ATOM     29  C30 ZIN A   1      -0.501  -1.476   6.639  0.00  0.00     0.127 C 
ATOM     30  C32 ZIN A   1       0.436  -2.708   8.476  0.00  0.00     0.038 C 
ATOM     31  C31 ZIN A   1      -0.767  -2.738   7.497  0.00  0.00     0.022 C 
BRANCH  28  32
ATOM     32  C35 ZIN A   1       2.125  -0.898   8.798  0.00  0.00     0.196 C 
ATOM     33  O36 ZIN A   1       2.751  -0.639   7.784  0.00  0.00    -0.646 OA
ATOM     34  O37 ZIN A   1       2.693  -0.914   9.877  0.00  0.00    -0.646 OA
ENDBRANCH  28  32
ENDBRANCH   1  25
TORSDOF 13
