REMARK  5 active torsions:
REMARK  status: ('A' for Active; 'I' for Inactive)
REMARK    1  A    between atoms: C2_2  and  C3_3 
REMARK    2  A    between atoms: C3_3  and  S4_4 
REMARK    3  A    between atoms: S4_4  and  C5_5 
REMARK    4  A    between atoms: C10_10  and  N11_11 
REMARK       I    between atoms: N11_11  and  C12_12 
REMARK    5  A    between atoms: C12_12  and  O14_14 
ROOT
ATOM      1  C5  ZIN A   1       1.592  -2.688  -2.764  0.00  0.00     0.003 A 
ATOM      2  C6  ZIN A   1       2.049  -1.655  -3.580  0.00  0.00     0.021 A 
ATOM      3  C7  ZIN A   1       2.716  -1.938  -4.754  0.00  0.00     0.034 A 
ATOM      4  C8  ZIN A   1       2.934  -3.256  -5.126  0.00  0.00     0.078 A 
ATOM      5  N9  ZIN A   1       3.552  -3.857  -6.212  0.00  0.00    -0.187 N 
ATOM      6  C10 ZIN A   1       3.459  -5.206  -6.035  0.00  0.00     0.710 A 
ATOM      7  N16 ZIN A   1       2.828  -5.466  -4.918  0.00  0.00    -0.062 NA
ATOM      8  C17 ZIN A   1       2.477  -4.303  -4.310  0.00  0.00     0.104 A 
ATOM      9  C18 ZIN A   1       1.807  -4.008  -3.120  0.00  0.00     0.053 A 
ATOM     10  H28 ZIN A   1       3.973  -3.402  -6.959  0.00  0.00     0.184 HD
ENDROOT
BRANCH   6  11
ATOM     11  N11 ZIN A   1       3.958  -6.159  -6.906  0.00  0.00    -0.133 N 
ATOM     12  C12 ZIN A   1       4.593  -5.776  -8.031  0.00  0.00     0.378 C 
ATOM     13  O13 ZIN A   1       4.728  -4.595  -8.281  0.00  0.00    -0.238 OA
ATOM     14  H29 ZIN A   1       3.850  -7.102  -6.707  0.00  0.00     0.190 HD
BRANCH  12  15
ATOM     15  O14 ZIN A   1       5.078  -6.703  -8.879  0.00  0.00    -0.308 OA
ATOM     16  C15 ZIN A   1       5.751  -6.218 -10.071  0.00  0.00     0.215 C 
ENDBRANCH  12  15
ENDBRANCH   6  11
BRANCH   1  17
ATOM     17  S4  ZIN A   1       0.743  -2.311  -1.267  0.00  0.00    -0.130 SA
BRANCH  17  18
ATOM     18  C3  ZIN A   1       0.718  -0.497  -1.257  0.00  0.00     0.079 C 
BRANCH  18  19
ATOM     19  C2  ZIN A   1       0.002  -0.004   0.002  0.00  0.00     0.006 C 
ATOM     20  C1  ZIN A   1      -0.019   1.526   0.010  0.00  0.00     0.006 C 
ENDBRANCH  18  19
ENDBRANCH  17  18
ENDBRANCH   1  17
TORSDOF 5
