REMARK  14 active torsions:
REMARK  status: ('A' for Active; 'I' for Inactive)
REMARK    1  A    between atoms: C2_2  and  N5_5 
REMARK       I    between atoms: N5_5  and  C6_6 
REMARK    2  A    between atoms: C6_6  and  C8_8 
REMARK    3  A    between atoms: N20_17  and  C22_19 
REMARK    4  A    between atoms: C22_19  and  C23_20 
REMARK    5  A    between atoms: C23_20  and  O25_21 
REMARK    6  A    between atoms: C23_20  and  C26_22 
REMARK    7  A    between atoms: C26_22  and  C28_23 
REMARK    8  A    between atoms: C26_22  and  N35_30 
REMARK    9  A    between atoms: C28_23  and  C29_24 
REMARK       I    between atoms: N35_30  and  C36_31 
REMARK   10  A    between atoms: C36_31  and  C38_33 
REMARK   11  A    between atoms: C38_33  and  C40_34 
REMARK   12  A    between atoms: C38_33  and  N44_38 
REMARK   13  A    between atoms: C40_34  and  C41_35 
REMARK       I    between atoms: C41_35  and  N42_36 
REMARK       I    between atoms: N44_38  and  C45_39 
REMARK   14  A    between atoms: C45_39  and  C47_41 
ROOT
ATOM      1  C26 ZIN A   1       5.116   3.570  -2.593  0.00  0.00     0.119 C 
ENDROOT
BRANCH   1   2
ATOM      2  C23 ZIN A   1       5.264   2.091  -2.954  0.00  0.00     0.167 C 
BRANCH   2   3
ATOM      3  C22 ZIN A   1       3.909   1.394  -2.818  0.00  0.00     0.269 C 
BRANCH   3   4
ATOM      4  N20 ZIN A   1       4.089  -0.058  -2.953  0.00  0.00    -0.055 N 
ATOM      5  C8  ZIN A   1       2.798  -0.712  -2.707  0.00  0.00     0.279 C 
ATOM      6  C10 ZIN A   1       2.966  -2.231  -2.785  0.00  0.00     0.048 C 
ATOM      7  C11 ZIN A   1       3.472  -2.608  -4.183  0.00  0.00    -0.006 C 
ATOM      8  C17 ZIN A   1       4.785  -1.867  -4.448  0.00  0.00     0.016 C 
ATOM      9  C13 ZIN A   1       2.422  -2.201  -5.219  0.00  0.00     0.005 C 
ATOM     10  C16 ZIN A   1       5.279  -2.177  -5.861  0.00  0.00     0.007 C 
ATOM     11  C19 ZIN A   1       4.523  -0.367  -4.306  0.00  0.00     0.241 C 
ATOM     12  C15 ZIN A   1       4.225  -1.768  -6.891  0.00  0.00     0.000 C 
ATOM     13  C14 ZIN A   1       2.929  -2.536  -6.623  0.00  0.00     0.000 C 
ATOM     14  H21 ZIN A   1       4.788  -0.371  -2.297  0.00  0.00     0.281 HD
BRANCH   5  15
ATOM     15  C6  ZIN A   1       2.297  -0.333  -1.337  0.00  0.00     0.249 C 
ATOM     16  N5  ZIN A   1       0.976  -0.356  -1.073  0.00  0.00    -0.351 N 
ATOM     17  H66 ZIN A   1       0.347  -0.617  -1.764  0.00  0.00     0.163 HD
ATOM     18  O7  ZIN A   1       3.083  -0.007  -0.473  0.00  0.00    -0.271 OA
BRANCH  16  19
ATOM     19  C2  ZIN A   1       0.489   0.012   0.259  0.00  0.00     0.022 C 
ATOM     20  C1  ZIN A   1       0.904   1.451   0.574  0.00  0.00     0.037 C 
ATOM     21  C3  ZIN A   1       1.091  -0.932   1.302  0.00  0.00     0.037 C 
ATOM     22  C4  ZIN A   1      -1.037  -0.098   0.293  0.00  0.00     0.037 C 
ENDBRANCH  16  19
ENDBRANCH   5  15
ENDBRANCH   3   4
ENDBRANCH   2   3
BRANCH   2  23
ATOM     23  O25 ZIN A   1       5.727   1.973  -4.301  0.00  0.00    -0.392 OA
ATOM     24  H81 ZIN A   1       5.135   2.369  -4.956  0.00  0.00     0.210 HD
ENDBRANCH   2  23
ENDBRANCH   1   2
BRANCH   1  25
ATOM     25  C28 ZIN A   1       4.204   4.255  -3.613  0.00  0.00     0.066 C 
BRANCH  25  26
ATOM     26  C29 ZIN A   1       3.959   5.680  -3.190  0.00  0.00    -0.056 A 
ATOM     27  C34 ZIN A   1       4.807   6.684  -3.619  0.00  0.00     0.007 A 
ATOM     28  C33 ZIN A   1       4.579   7.992  -3.234  0.00  0.00     0.001 A 
ATOM     29  C32 ZIN A   1       3.509   8.295  -2.413  0.00  0.00     0.000 A 
ATOM     30  C31 ZIN A   1       2.664   7.290  -1.979  0.00  0.00     0.001 A 
ATOM     31  C30 ZIN A   1       2.889   5.983  -2.368  0.00  0.00     0.007 A 
ENDBRANCH  25  26
ENDBRANCH   1  25
BRANCH   1  32
ATOM     32  N35 ZIN A   1       6.433   4.211  -2.608  0.00  0.00    -0.352 N 
ATOM     33  C36 ZIN A   1       6.653   5.316  -1.869  0.00  0.00     0.241 C 
ATOM     34  O37 ZIN A   1       5.761   5.780  -1.191  0.00  0.00    -0.271 OA
ATOM     35  H89 ZIN A   1       7.147   3.839  -3.149  0.00  0.00     0.163 HD
BRANCH  33  36
ATOM     36  C38 ZIN A   1       8.008   5.975  -1.884  0.00  0.00     0.185 C 
BRANCH  36  37
ATOM     37  C40 ZIN A   1       9.063   4.984  -1.389  0.00  0.00     0.137 C 
BRANCH  37  38
ATOM     38  C41 ZIN A   1       8.757   4.593   0.034  0.00  0.00     0.217 C 
ATOM     39  N42 ZIN A   1       9.603   3.790   0.709  0.00  0.00    -0.370 N 
ATOM     40  H92 ZIN A   1      10.409   3.463   0.280  0.00  0.00     0.159 HD
ATOM     41  H93 ZIN A   1       9.406   3.538   1.625  0.00  0.00     0.159 HD
ATOM     42  O43 ZIN A   1       7.749   5.001   0.571  0.00  0.00    -0.274 OA
ENDBRANCH  37  38
ENDBRANCH  36  37
BRANCH  36  43
ATOM     43  N44 ZIN A   1       7.991   7.148  -1.006  0.00  0.00    -0.342 N 
ATOM     44  C45 ZIN A   1       8.832   8.175  -1.237  0.00  0.00     0.271 C 
ATOM     45  O46 ZIN A   1       9.542   8.169  -2.223  0.00  0.00    -0.266 OA
ATOM     46  H94 ZIN A   1       7.373   7.185  -0.259  0.00  0.00     0.163 HD
BRANCH  44  47
ATOM     47  C47 ZIN A   1       8.893   9.312  -0.286  0.00  0.00     0.125 A 
ATOM     48  N56 ZIN A   1       8.116   9.302   0.780  0.00  0.00    -0.243 NA
ATOM     49  C55 ZIN A   1       8.140  10.300   1.662  0.00  0.00     0.068 A 
ATOM     50  C50 ZIN A   1       9.007  11.406   1.459  0.00  0.00    -0.007 A 
ATOM     51  C54 ZIN A   1       7.312  10.281   2.801  0.00  0.00     0.032 A 
ATOM     52  C49 ZIN A   1       9.835  11.428   0.322  0.00  0.00     0.016 A 
ATOM     53  C51 ZIN A   1       9.021  12.456   2.392  0.00  0.00     0.014 A 
ATOM     54  C48 ZIN A   1       9.770  10.375  -0.545  0.00  0.00     0.038 A 
ATOM     55  C52 ZIN A   1       8.205  12.401   3.480  0.00  0.00     0.001 A 
ATOM     56  C53 ZIN A   1       7.354  11.315   3.683  0.00  0.00     0.002 A 
ENDBRANCH  44  47
ENDBRANCH  36  43
ENDBRANCH  33  36
ENDBRANCH   1  32
TORSDOF 14
