REMARK  0 active torsions:
REMARK  status: ('A' for Active; 'I' for Inactive)
ROOT
ATOM      1  C1  ZIN A   1      -0.018   1.465   0.010  0.00  0.00     0.310 C 
ATOM      2  N2  ZIN A   1       0.002  -0.004   0.002  0.00  0.00     0.087 N 
ATOM      3  C3  ZIN A   1      -1.365  -0.550  -0.035  0.00  0.00     0.286 C 
ATOM      4  C4  ZIN A   1      -1.264  -2.065  -0.194  0.00  0.00     0.128 C 
ATOM      5  N5  ZIN A   1      -0.506  -2.659   0.925  0.00  0.00    -0.255 NA
ATOM      6  C6  ZIN A   1      -0.453  -4.027   0.694  0.00  0.00     0.112 A 
ATOM      7  N7  ZIN A   1      -0.710  -4.466  -0.538  0.00  0.00    -0.248 NA
ATOM      8  C8  ZIN A   1      -0.649  -5.746  -0.843  0.00  0.00     0.118 A 
ATOM      9  C9  ZIN A   1      -0.313  -6.691   0.106  0.00  0.00     0.020 A 
ATOM     10  C10 ZIN A   1      -0.051  -6.275   1.406  0.00  0.00     0.012 A 
ATOM     11  C11 ZIN A   1      -0.140  -4.923   1.689  0.00  0.00    -0.013 A 
ATOM     12  C12 ZIN A   1       0.061  -4.429   3.088  0.00  0.00     0.081 C 
ATOM     13  C13 ZIN A   1       1.241  -3.512   3.206  0.00  0.00    -0.046 A 
ATOM     14  C14 ZIN A   1       2.082  -3.779   4.291  0.00  0.00     0.008 A 
ATOM     15  C15 ZIN A   1       3.197  -3.013   4.539  0.00  0.00     0.001 A 
ATOM     16  C16 ZIN A   1       3.490  -1.955   3.699  0.00  0.00     0.001 A 
ATOM     17  C17 ZIN A   1       2.667  -1.694   2.629  0.00  0.00     0.009 A 
ATOM     18  C18 ZIN A   1       1.535  -2.477   2.365  0.00  0.00    -0.032 A 
ATOM     19  C19 ZIN A   1       0.786  -2.059   1.128  0.00  0.00     0.126 C 
ATOM     20  C21 ZIN A   1       0.704  -0.526   1.177  0.00  0.00     0.296 C 
ENDROOT
TORSDOF 0
