REMARK  5 active torsions:
REMARK  status: ('A' for Active; 'I' for Inactive)
REMARK       I    between atoms: N2_2  and  C4_4 
REMARK    1  A    between atoms: C4_4  and  C6_6 
REMARK    2  A    between atoms: C11_11  and  N12_12 
REMARK    3  A    between atoms: N12_12  and  C13_13 
REMARK    4  A    between atoms: C16_16  and  N17_17 
REMARK    5  A    between atoms: N29_29  and  C30_30 
ROOT
ATOM      1  C6  ZIN A   1       0.516  -2.649  -1.174  0.00  0.00     0.106 A 
ATOM      2  C7  ZIN A   1       0.878  -3.278  -2.325  0.00  0.00     0.052 A 
ATOM      3  C8  ZIN A   1       1.532  -4.478  -1.967  0.00  0.00     0.031 A 
ATOM      4  C9  ZIN A   1       2.117  -5.526  -2.687  0.00  0.00     0.151 A 
ATOM      5  N10 ZIN A   1       2.658  -6.528  -2.020  0.00  0.00    -0.074 NA
ATOM      6  C11 ZIN A   1       2.652  -6.553  -0.691  0.00  0.00     0.729 A 
ATOM      7  N27 ZIN A   1       2.112  -5.587   0.033  0.00  0.00    -0.044 NA
ATOM      8  C28 ZIN A   1       1.545  -4.539  -0.555  0.00  0.00     0.162 A 
ATOM      9  N29 ZIN A   1       0.926  -3.412  -0.093  0.00  0.00    -0.321 N 
ENDROOT
BRANCH   6  10
ATOM     10  N12 ZIN A   1       3.233  -7.628  -0.042  0.00  0.00    -0.171 N 
ATOM     11  H43 ZIN A   1       3.308  -7.627   0.925  0.00  0.00     0.186 HD
BRANCH  10  12
ATOM     12  C13 ZIN A   1       3.709  -8.713  -0.778  0.00  0.00     0.142 A 
ATOM     13  N26 ZIN A   1       3.704  -8.659  -2.100  0.00  0.00    -0.241 NA
ATOM     14  C25 ZIN A   1       4.151  -9.659  -2.836  0.00  0.00     0.142 A 
ATOM     15  C16 ZIN A   1       4.634 -10.816  -2.243  0.00  0.00     0.028 A 
ATOM     16  C15 ZIN A   1       4.650 -10.911  -0.853  0.00  0.00     0.029 A 
ATOM     17  C14 ZIN A   1       4.179  -9.840  -0.114  0.00  0.00     0.053 A 
BRANCH  15  18
ATOM     18  N17 ZIN A   1       5.100 -11.874  -3.031  0.00  0.00    -0.279 NA
ATOM     19  C24 ZIN A   1       4.990 -11.555  -4.462  0.00  0.00     0.123 C 
ATOM     20  C23 ZIN A   1       5.452 -12.757  -5.287  0.00  0.00     0.247 C 
ATOM     21  N20 ZIN A   1       6.844 -13.080  -4.946  0.00  0.00    -0.073 N 
ATOM     22  C19 ZIN A   1       6.934 -13.421  -3.520  0.00  0.00     0.247 C 
ATOM     23  H21 ZIN A   1       7.431 -12.281  -5.138  0.00  0.00     0.277 HD
ATOM     24  H22 ZIN A   1       7.153 -13.865  -5.499  0.00  0.00     0.277 HD
ATOM     25  C18 ZIN A   1       6.484 -12.223  -2.680  0.00  0.00     0.123 C 
ENDBRANCH  15  18
ENDBRANCH  10  12
ENDBRANCH   6  10
BRANCH   9  26
ATOM     26  C30 ZIN A   1       0.727  -3.066   1.317  0.00  0.00     0.092 C 
ATOM     27  C34 ZIN A   1       2.070  -3.116   2.066  0.00  0.00     0.026 C 
ATOM     28  C33 ZIN A   1       1.919  -4.184   3.170  0.00  0.00     0.002 C 
ATOM     29  C32 ZIN A   1       0.786  -5.106   2.654  0.00  0.00     0.002 C 
ATOM     30  C31 ZIN A   1      -0.193  -4.105   1.991  0.00  0.00     0.026 C 
ENDBRANCH   9  26
BRANCH   1  31
ATOM     31  C4  ZIN A   1      -0.190  -1.364  -1.092  0.00  0.00     0.269 C 
ATOM     32  N2  ZIN A   1      -0.664  -0.783  -2.211  0.00  0.00    -0.355 N 
ATOM     33  C1  ZIN A   1      -1.254   0.557  -2.148  0.00  0.00     0.152 C 
ATOM     34  C3  ZIN A   1      -0.591  -1.490  -3.492  0.00  0.00     0.152 C 
ATOM     35  O5  ZIN A   1      -0.346  -0.824  -0.013  0.00  0.00    -0.266 OA
ENDBRANCH   1  31
TORSDOF 5
