REMARK  8 active torsions:
REMARK  status: ('A' for Active; 'I' for Inactive)
REMARK    1  A    between atoms: N2_2  and  C5_5 
REMARK    2  A    between atoms: C5_5  and  C6_6 
REMARK    3  A    between atoms: C6_6  and  O7_7 
REMARK    4  A    between atoms: O7_7  and  C8_8 
REMARK    5  A    between atoms: C8_8  and  C10_10 
REMARK    6  A    between atoms: C10_10  and  C12_11 
REMARK    7  A    between atoms: C10_10  and  C18_17 
REMARK    8  A    between atoms: C18_17  and  O19_18 
ROOT
ATOM      1  C10 ZIN A   1      -1.317  -1.168  -4.842  0.00  0.00     0.152 C 
ENDROOT
BRANCH   1   2
ATOM      2  C8  ZIN A   1      -1.940  -0.505  -3.641  0.00  0.00     0.270 C 
ATOM      3  O9  ZIN A   1      -2.875   0.248  -3.783  0.00  0.00    -0.264 OA
BRANCH   2   4
ATOM      4  O7  ZIN A   1      -1.457  -0.750  -2.413  0.00  0.00    -0.319 OA
BRANCH   4   5
ATOM      5  C6  ZIN A   1      -2.107  -0.077  -1.302  0.00  0.00     0.206 C 
BRANCH   5   6
ATOM      6  C5  ZIN A   1      -1.424  -0.478   0.007  0.00  0.00     0.260 C 
BRANCH   6   7
ATOM      7  N2  ZIN A   1      -0.040   0.016   0.009  0.00  0.00    -0.077 N 
ATOM      8  C1  ZIN A   1      -0.045   1.485   0.006  0.00  0.00     0.269 C 
ATOM      9  H3  ZIN A   1       0.438  -0.320  -0.814  0.00  0.00     0.279 HD
ATOM     10  C4  ZIN A   1       0.651  -0.469   1.210  0.00  0.00     0.269 C 
ENDBRANCH   6   7
ENDBRANCH   5   6
ENDBRANCH   4   5
ENDBRANCH   2   4
ENDBRANCH   1   2
BRANCH   1  11
ATOM     11  C12 ZIN A   1      -2.125  -0.843  -6.072  0.00  0.00    -0.042 A 
ATOM     12  C17 ZIN A   1      -2.704  -1.860  -6.807  0.00  0.00     0.008 A 
ATOM     13  C16 ZIN A   1      -3.449  -1.561  -7.933  0.00  0.00     0.001 A 
ATOM     14  C15 ZIN A   1      -3.609  -0.246  -8.327  0.00  0.00     0.000 A 
ATOM     15  C14 ZIN A   1      -3.026   0.771  -7.594  0.00  0.00     0.001 A 
ATOM     16  C13 ZIN A   1      -2.284   0.473  -6.467  0.00  0.00     0.008 A 
ENDBRANCH   1  11
BRANCH   1  17
ATOM     17  C18 ZIN A   1       0.114  -0.655  -5.022  0.00  0.00     0.074 C 
ATOM     18  C23 ZIN A   1       0.725  -1.207  -6.327  0.00  0.00     0.039 C 
ATOM     19  C22 ZIN A   1       2.204  -1.508  -6.027  0.00  0.00     0.003 C 
ATOM     20  C21 ZIN A   1       2.440  -1.128  -4.551  0.00  0.00     0.003 C 
ATOM     21  C20 ZIN A   1       1.033  -1.211  -3.907  0.00  0.00     0.039 C 
BRANCH  17  22
ATOM     22  O19 ZIN A   1       0.135   0.774  -5.026  0.00  0.00    -0.389 OA
ATOM     23  H39 ZIN A   1       1.017   1.154  -5.137  0.00  0.00     0.210 HD
ENDBRANCH  17  22
ENDBRANCH   1  17
TORSDOF 8
