REMARK  1 active torsions:
REMARK  status: ('A' for Active; 'I' for Inactive)
REMARK    1  A    between atoms: N1_1  and  C2_2 
ROOT
ATOM      1  C2  <0> d   1       0.002  -0.004   0.002  0.00  0.00     0.701 A 
ATOM      2  N3  <0> d   1      -1.137  -0.656   0.004  0.00  0.00    -0.043 NA
ATOM      3  C4  <0> d   1      -1.165  -2.004  -0.003  0.00  0.00     0.199 A 
ATOM      4  C5  <0> d   1       0.041  -2.712  -0.013  0.00  0.00     0.121 A 
ATOM      5  N6  <0> d   1      -0.299  -4.051  -0.018  0.00  0.00    -0.345 N 
ATOM      6  C7  <0> d   1      -1.647  -4.117  -0.012  0.00  0.00     0.210 A 
ATOM      7  N8  <0> d   1      -2.153  -2.914  -0.003  0.00  0.00    -0.222 NA
ATOM      8  C9  <0> d   1       1.251  -2.000  -0.015  0.00  0.00     0.147 A 
ATOM      9  S10 <0> d   1       2.752  -2.824  -0.027  0.00  0.00    -0.057 SA
ATOM     10  N11 <0> d   1       1.203  -0.649  -0.013  0.00  0.00    -0.178 N 
ATOM     11  H14 <0> d   1       0.316  -4.801  -0.026  0.00  0.00     0.167 HD
ATOM     12  H16 <0> d   1       2.027  -0.137  -0.014  0.00  0.00     0.185 HD
ENDROOT
BRANCH   1  13
ATOM     13  N1  <0> d   1      -0.017   1.369   0.010  0.00  0.00    -0.233 N 
ATOM     14  H12 <0> d   1       0.817   1.865   0.004  0.00  0.00     0.174 HD
ATOM     15  H13 <0> d   1      -0.863   1.843   0.016  0.00  0.00     0.174 HD
ENDBRANCH   1  13
TORSDOF 1
