REMARK  4 active torsions:
REMARK  status: ('A' for Active; 'I' for Inactive)
REMARK    1  A    between atoms: S2_2  and  C3_3 
REMARK    2  A    between atoms: N14_14  and  C15_15 
REMARK    3  A    between atoms: C15_15  and  C16_16 
REMARK    4  A    between atoms: C16_16  and  C17_17 
ROOT
ATOM      1  C3  <0> d   1       2.802  -5.566  -6.160  0.00  0.00     0.002 A 
ATOM      2  C4  <0> d   1       2.311  -4.853  -7.245  0.00  0.00     0.020 A 
ATOM      3  C5  <0> d   1       1.695  -3.632  -7.045  0.00  0.00     0.022 A 
ATOM      4  C6  <0> d   1       1.565  -3.114  -5.763  0.00  0.00     0.032 A 
ATOM      5  S7  <0> d   1       0.784  -1.551  -5.542  0.00  0.00    -0.086 SA
ATOM      6  C8  <0> d   1       1.291  -1.066  -3.927  0.00  0.00     0.032 A 
ATOM      7  C9  <0> d   1       1.173   0.264  -3.549  0.00  0.00     0.021 A 
ATOM      8  C10 <0> d   1       1.566   0.665  -2.285  0.00  0.00     0.002 A 
ATOM      9  C11 <0> d   1       2.079  -0.259  -1.396  0.00  0.00     0.002 A 
ATOM     10  C12 <0> d   1       2.200  -1.586  -1.766  0.00  0.00     0.031 A 
ATOM     11  C13 <0> d   1       1.805  -2.000  -3.033  0.00  0.00     0.052 A 
ATOM     12  N14 <0> d   1       1.933  -3.346  -3.369  0.00  0.00    -0.345 N 
ATOM     13  C26 <0> d   1       2.051  -3.826  -4.671  0.00  0.00     0.053 A 
ATOM     14  C27 <0> d   1       2.667  -5.056  -4.876  0.00  0.00     0.049 A 
ENDROOT
BRANCH  12  15
ATOM     15  C15 <0> d   1       1.946  -4.323  -2.277  0.00  0.00     0.131 C 
BRANCH  15  16
ATOM     16  C16 <0> d   1       3.389  -4.579  -1.839  0.00  0.00     0.053 C 
BRANCH  16  17
ATOM     17  C17 <0> d   1       3.403  -5.600  -0.699  0.00  0.00     0.189 C 
ATOM     18  N23 <0> d   1       2.734  -5.028   0.476  0.00  0.00    -0.071 N 
ATOM     19  C22 <0> d   1       2.674  -6.028   1.550  0.00  0.00     0.235 C 
ATOM     20  H24 <0> d   1       1.798  -4.749   0.226  0.00  0.00     0.279 HD
ATOM     21  C25 <0> d   1       3.485  -3.855   0.943  0.00  0.00     0.270 C 
ATOM     22  C21 <0> d   1       4.093  -6.395   1.989  0.00  0.00     0.028 C 
ATOM     23  C20 <0> d   1       4.858  -6.972   0.795  0.00  0.00     0.004 C 
ATOM     24  C19 <0> d   1       4.850  -5.950  -0.346  0.00  0.00     0.033 C 
ENDBRANCH  16  17
ENDBRANCH  15  16
ENDBRANCH  12  15
BRANCH   1  25
ATOM     25  S2  <0> d   1       3.591  -7.121  -6.412  0.00  0.00    -0.134 SA
ATOM     26  C1  <0> d   1       3.515  -7.330  -8.212  0.00  0.00     0.095 C 
ENDBRANCH   1  25
TORSDOF 4
