REMARK  5 active torsions:
REMARK  status: ('A' for Active; 'I' for Inactive)
REMARK    1  A    between atoms: C2_2  and  O4_3 
REMARK    2  A    between atoms: C2_2  and  C5_4 
REMARK    3  A    between atoms: C5_4  and  O7_5 
REMARK    4  A    between atoms: C5_4  and  C8_6 
REMARK    5  A    between atoms: C18_15  and  N19_16 
ROOT
ATOM      1  C8  ZIN A   1      -1.413  -2.063   0.004  0.00  0.00     0.131 C 
ATOM      2  C10 ZIN A   1      -2.850  -2.602   0.033  0.00  0.00     0.149 C 
ATOM      3  N11 ZIN A   1      -3.477  -2.183   1.294  0.00  0.00    -0.370 N 
ATOM      4  C12 ZIN A   1      -2.769  -2.325   2.478  0.00  0.00     0.175 A 
ATOM      5  C13 ZIN A   1      -1.394  -2.510   2.442  0.00  0.00     0.144 A 
ATOM      6  N14 ZIN A   1      -0.716  -2.558   1.203  0.00  0.00    -0.373 N 
ATOM      7  C15 ZIN A   1      -0.695  -2.648   3.646  0.00  0.00     0.290 A 
ATOM      8  O16 ZIN A   1       0.516  -2.812   3.650  0.00  0.00    -0.265 OA
ATOM      9  N17 ZIN A   1      -1.389  -2.597   4.804  0.00  0.00    -0.153 N 
ATOM     10  C18 ZIN A   1      -2.738  -2.416   4.786  0.00  0.00     0.703 A 
ATOM     11  N20 ZIN A   1      -3.401  -2.284   3.657  0.00  0.00    -0.045 NA
ATOM     12  H28 ZIN A   1      -4.373  -1.812   1.299  0.00  0.00     0.161 HD
ATOM     13  H29 ZIN A   1       0.186  -2.909   1.144  0.00  0.00     0.160 HD
ATOM     14  H30 ZIN A   1      -0.925  -2.690   5.651  0.00  0.00     0.187 HD
ENDROOT
BRANCH   1  15
ATOM     15  C5  ZIN A   1      -1.433  -0.534   0.013  0.00  0.00     0.170 C 
BRANCH  15  16
ATOM     16  C2  ZIN A   1       0.002  -0.004   0.002  0.00  0.00     0.145 C 
ATOM     17  C1  ZIN A   1      -0.019   1.526   0.010  0.00  0.00     0.042 C 
BRANCH  16  18
ATOM     18  O4  ZIN A   1       0.693  -0.477   1.160  0.00  0.00    -0.393 OA
ATOM     19  H24 ZIN A   1       0.294  -0.202   1.996  0.00  0.00     0.210 HD
ENDBRANCH  16  18
ENDBRANCH  15  16
BRANCH  15  20
ATOM     20  O7  ZIN A   1      -2.124  -0.060  -1.145  0.00  0.00    -0.391 OA
ATOM     21  H25 ZIN A   1      -1.725  -0.336  -1.981  0.00  0.00     0.210 HD
ENDBRANCH  15  20
ENDBRANCH   1  15
BRANCH  10  22
ATOM     22  N19 ZIN A   1      -3.423  -2.368   5.973  0.00  0.00    -0.233 N 
ATOM     23  H31 ZIN A   1      -2.946  -2.463   6.813  0.00  0.00     0.174 HD
ATOM     24  H32 ZIN A   1      -4.384  -2.239   5.974  0.00  0.00     0.174 HD
ENDBRANCH  10  22
TORSDOF 5
