REMARK  7 active torsions:
REMARK  status: ('A' for Active; 'I' for Inactive)
REMARK    1  A    between atoms: C2_2  and  C4_4 
REMARK    2  A    between atoms: C6_6  and  N7_7 
REMARK    3  A    between atoms: N7_7  and  N8_8 
REMARK    4  A    between atoms: N8_8  and  C9_9 
REMARK    5  A    between atoms: C12_12  and  S13_13 
REMARK    6  A    between atoms: S13_13  and  N16_16 
REMARK    7  A    between atoms: N16_16  and  C17_17 
ROOT
ATOM      1  C9  <0> d   1      -7.176   1.202   0.262  0.00  0.00     0.050 A 
ATOM      2  C10 <0> d   1      -7.167  -0.189   0.266  0.00  0.00     0.032 A 
ATOM      3  C11 <0> d   1      -8.354  -0.885   0.378  0.00  0.00     0.027 A 
ATOM      4  C12 <0> d   1      -9.551  -0.201   0.486  0.00  0.00     0.081 A 
ATOM      5  C23 <0> d   1      -9.564   1.183   0.483  0.00  0.00     0.027 A 
ATOM      6  C24 <0> d   1      -8.381   1.886   0.376  0.00  0.00     0.032 A 
ENDROOT
BRANCH   1   7
ATOM      7  N8  <0> d   1      -5.980   1.907   0.149  0.00  0.00    -0.278 N 
ATOM      8  H30 <0> d   1      -5.987   2.877   0.150  0.00  0.00     0.189 HD
BRANCH   7   9
ATOM      9  N7  <0> d   1      -4.863   1.271   0.043  0.00  0.00    -0.175 NA
BRANCH   9  10
ATOM     10  C6  <0> d   1      -3.711   1.942   0.038  0.00  0.00     0.078 A 
ATOM     11  C5  <0> d   1      -2.494   1.237   0.041  0.00  0.00     0.056 A 
ATOM     12  C4  <0> d   1      -1.296   1.936   0.035  0.00  0.00     0.092 A 
ATOM     13  C27 <0> d   1      -1.328   3.403   0.032  0.00  0.00     0.189 A 
ATOM     14  C26 <0> d   1      -2.574   4.067   0.024  0.00  0.00     0.058 A 
ATOM     15  O28 <0> d   1      -0.288   4.043   0.027  0.00  0.00    -0.287 OA
ATOM     16  C25 <0> d   1      -3.726   3.357   0.029  0.00  0.00     0.037 A 
BRANCH  12  17
ATOM     17  C2  <0> d   1      -0.014   1.219   0.038  0.00  0.00     0.213 C 
ATOM     18  O1  <0> d   1       0.002  -0.005   0.041  0.00  0.00    -0.644 OA
ATOM     19  O3  <0> d   1       1.037   1.845   0.033  0.00  0.00    -0.644 OA
ENDBRANCH  12  17
ENDBRANCH   9  10
ENDBRANCH   7   9
ENDBRANCH   1   7
BRANCH   4  20
ATOM     20  S13 <0> d   1     -11.063  -1.093   0.629  0.00  0.00     0.285 S 
ATOM     21  O14 <0> d   1     -12.089  -0.221   0.174  0.00  0.00    -0.198 OA
ATOM     22  O15 <0> d   1     -10.827  -2.376   0.065  0.00  0.00    -0.198 OA
BRANCH  20  23
ATOM     23  N16 <0> d   1     -11.338  -1.336   2.244  0.00  0.00    -0.140 NA
BRANCH  23  24
ATOM     24  C17 <0> d   1     -12.474  -2.022   2.660  0.00  0.00     0.161 A 
ATOM     25  N22 <0> d   1     -13.331  -2.478   1.761  0.00  0.00    -0.241 NA
ATOM     26  C21 <0> d   1     -14.418  -3.138   2.113  0.00  0.00     0.119 A 
ATOM     27  C20 <0> d   1     -14.707  -3.368   3.444  0.00  0.00     0.019 A 
ATOM     28  C19 <0> d   1     -13.836  -2.901   4.419  0.00  0.00     0.005 A 
ATOM     29  C18 <0> d   1     -12.702  -2.217   4.019  0.00  0.00     0.053 A 
ENDBRANCH  23  24
ENDBRANCH  20  23
ENDBRANCH   4  20
TORSDOF 7
