REMARK  11 active torsions:
REMARK  status: ('A' for Active; 'I' for Inactive)
REMARK    1  A    between atoms: C2_2  and  C3_3 
REMARK    2  A    between atoms: C3_3  and  C4_4 
REMARK    3  A    between atoms: C7_6  and  C9_7 
REMARK       I    between atoms: C9_7  and  N11_9 
REMARK    4  A    between atoms: N11_9  and  C12_10 
REMARK    5  A    between atoms: C12_10  and  C14_11 
REMARK    6  A    between atoms: C12_10  and  C18_14 
REMARK    7  A    between atoms: C14_11  and  O17_13 
REMARK    8  A    between atoms: C21_16  and  S23_17 
REMARK    9  A    between atoms: C25_19  and  O27_20 
REMARK   10  A    between atoms: C28_21  and  O30_22 
REMARK   11  A    between atoms: C31_23  and  O33_24 
ROOT
ATOM      1  C12 ZIN A   1       1.556  -6.214  -1.215  0.00  0.00     0.144 C 
ENDROOT
BRANCH   1   2
ATOM      2  N11 ZIN A   1       0.790  -5.069  -1.714  0.00  0.00    -0.350 N 
ATOM      3  C9  ZIN A   1      -0.380  -4.736  -1.134  0.00  0.00     0.249 C 
ATOM      4  O10 ZIN A   1      -0.800  -5.386  -0.199  0.00  0.00    -0.271 OA
ATOM      5  H47 ZIN A   1       1.126  -4.549  -2.461  0.00  0.00     0.163 HD
BRANCH   3   6
ATOM      6  C7  ZIN A   1      -1.167  -3.558  -1.646  0.00  0.00     0.279 C 
ATOM      7  C6  ZIN A   1      -0.337  -2.266  -1.495  0.00  0.00     0.049 C 
ATOM      8  C4  ZIN A   1      -0.868  -1.662  -0.169  0.00  0.00     0.014 C 
ATOM      9  C37 ZIN A   1      -2.369  -2.040  -0.231  0.00  0.00     0.240 C 
ATOM     10  N34 ZIN A   1      -2.394  -3.384  -0.847  0.00  0.00    -0.062 N 
ATOM     11  H35 ZIN A   1      -2.431  -4.088  -0.124  0.00  0.00     0.280 HD
ATOM     12  C36 ZIN A   1      -3.572  -3.505  -1.716  0.00  0.00     0.270 C 
BRANCH   8  13
ATOM     13  C3  ZIN A   1      -0.686  -0.143  -0.147  0.00  0.00     0.006 C 
BRANCH  13  14
ATOM     14  C2  ZIN A   1       0.803   0.191  -0.039  0.00  0.00    -0.004 C 
ATOM     15  C1  ZIN A   1       0.985   1.710  -0.017  0.00  0.00     0.005 C 
ENDBRANCH  13  14
ENDBRANCH   8  13
ENDBRANCH   3   6
ENDBRANCH   1   2
BRANCH   1  16
ATOM     16  C14 ZIN A   1       2.431  -5.771  -0.042  0.00  0.00     0.139 C 
ATOM     17  C16 ZIN A   1       3.297  -4.585  -0.471  0.00  0.00     0.041 C 
BRANCH  16  18
ATOM     18  O17 ZIN A   1       1.599  -5.382   1.053  0.00  0.00    -0.394 OA
ATOM     19  H51 ZIN A   1       1.091  -6.109   1.439  0.00  0.00     0.210 HD
ENDBRANCH  16  18
ENDBRANCH   1  16
BRANCH   1  20
ATOM     20  C18 ZIN A   1       2.443  -6.761  -2.336  0.00  0.00     0.179 C 
ATOM     21  C31 ZIN A   1       1.568  -7.184  -3.519  0.00  0.00     0.180 C 
ATOM     22  C28 ZIN A   1       2.458  -7.785  -4.612  0.00  0.00     0.181 C 
ATOM     23  C25 ZIN A   1       3.247  -8.959  -4.023  0.00  0.00     0.188 C 
ATOM     24  C21 ZIN A   1       4.057  -8.467  -2.821  0.00  0.00     0.214 C 
ATOM     25  O20 ZIN A   1       3.173  -7.892  -1.856  0.00  0.00    -0.363 OA
BRANCH  21  26
ATOM     26  O33 ZIN A   1       0.617  -8.159  -3.087  0.00  0.00    -0.390 OA
ATOM     27  H57 ZIN A   1       0.032  -8.475  -3.788  0.00  0.00     0.210 HD
ENDBRANCH  21  26
BRANCH  22  28
ATOM     28  O30 ZIN A   1       1.644  -8.250  -5.691  0.00  0.00    -0.390 OA
ATOM     29  H56 ZIN A   1       2.143  -8.649  -6.416  0.00  0.00     0.210 HD
ENDBRANCH  22  28
BRANCH  23  30
ATOM     30  O27 ZIN A   1       4.134  -9.483  -5.013  0.00  0.00    -0.389 OA
ATOM     31  H55 ZIN A   1       4.670 -10.228  -4.707  0.00  0.00     0.210 HD
ENDBRANCH  23  30
BRANCH  24  32
ATOM     32  S23 ZIN A   1       5.253  -7.217  -3.366  0.00  0.00    -0.139 SA
ATOM     33  C24 ZIN A   1       6.299  -6.987  -1.902  0.00  0.00     0.092 C 
ENDBRANCH  24  32
ENDBRANCH   1  20
TORSDOF 11
