REMARK  9 active torsions:
REMARK  status: ('A' for Active; 'I' for Inactive)
REMARK    1  A    between atoms: O2_2  and  C3_3 
REMARK    2  A    between atoms: C8_8  and  O9_9 
REMARK    3  A    between atoms: C14_13  and  O16_14 
REMARK    4  A    between atoms: O16_14  and  C17_15 
REMARK    5  A    between atoms: C17_15  and  C19_17 
REMARK    6  A    between atoms: C19_17  and  N21_18 
REMARK    7  A    between atoms: C19_17  and  C25_22 
REMARK    8  A    between atoms: C28_25  and  C30_26 
REMARK    9  A    between atoms: C30_26  and  C31_27 
ROOT
ATOM      1  C3  ZIN A   1      -1.333  -0.690  -0.541  0.00  0.00     0.102 A 
ATOM      2  C4  ZIN A   1      -2.526   0.011  -0.577  0.00  0.00     0.047 A 
ATOM      3  C5  ZIN A   1      -3.735  -0.655  -0.448  0.00  0.00    -0.045 A 
ATOM      4  C6  ZIN A   1      -3.753  -2.025  -0.284  0.00  0.00    -0.018 A 
ATOM      5  C7  ZIN A   1      -2.560  -2.731  -0.245  0.00  0.00     0.049 A 
ATOM      6  C8  ZIN A   1      -1.351  -2.072  -0.379  0.00  0.00     0.102 A 
ATOM      7  C11 ZIN A   1      -5.044  -2.785  -0.149  0.00  0.00     0.224 C 
ATOM      8  C13 ZIN A   1      -4.896  -3.883   0.907  0.00  0.00     0.071 C 
ATOM      9  C14 ZIN A   1      -6.204  -4.677   0.988  0.00  0.00     0.140 C 
ATOM     10  C28 ZIN A   1      -7.358  -3.719   1.296  0.00  0.00     0.041 C 
ATOM     11  C34 ZIN A   1      -7.408  -2.622   0.229  0.00  0.00     0.243 C 
ATOM     12  N35 ZIN A   1      -6.135  -1.889   0.241  0.00  0.00    -0.062 N 
ATOM     13  H36 ZIN A   1      -5.969  -1.522   1.166  0.00  0.00     0.280 HD
ATOM     14  C37 ZIN A   1      -6.186  -0.780  -0.721  0.00  0.00     0.240 C 
ATOM     15  C38 ZIN A   1      -5.009   0.149  -0.487  0.00  0.00     0.067 C 
ENDROOT
BRANCH   9  16
ATOM     16  O16 ZIN A   1      -6.103  -5.671   2.041  0.00  0.00    -0.314 OA
BRANCH  16  17
ATOM     17  C17 ZIN A   1      -5.629  -6.879   1.696  0.00  0.00     0.290 C 
ATOM     18  O18 ZIN A   1      -5.310  -7.098   0.552  0.00  0.00    -0.263 OA
BRANCH  17  19
ATOM     19  C19 ZIN A   1      -5.496  -7.961   2.736  0.00  0.00     0.285 C 
BRANCH  19  20
ATOM     20  N21 ZIN A   1      -5.430  -9.271   2.074  0.00  0.00    -0.066 N 
ATOM     21  H22 ZIN A   1      -4.631  -9.296   1.458  0.00  0.00     0.275 HD
ATOM     22  H23 ZIN A   1      -5.341  -9.996   2.771  0.00  0.00     0.275 HD
ATOM     23  H24 ZIN A   1      -6.272  -9.420   1.539  0.00  0.00     0.275 HD
ENDBRANCH  19  20
BRANCH  19  24
ATOM     24  C25 ZIN A   1      -4.219  -7.734   3.548  0.00  0.00     0.018 C 
ATOM     25  C26 ZIN A   1      -4.288  -6.370   4.237  0.00  0.00     0.012 C 
ATOM     26  C27 ZIN A   1      -4.084  -8.833   4.604  0.00  0.00     0.012 C 
ENDBRANCH  19  24
ENDBRANCH  17  19
ENDBRANCH  16  17
ENDBRANCH   9  16
BRANCH  10  27
ATOM     27  C30 ZIN A   1      -8.678  -4.493   1.295  0.00  0.00     0.012 C 
BRANCH  27  28
ATOM     28  C31 ZIN A   1      -9.812  -3.567   1.739  0.00  0.00    -0.022 C 
ATOM     29  C32 ZIN A   1     -11.150  -4.297   1.600  0.00  0.00     0.009 C 
ATOM     30  C33 ZIN A   1      -9.600  -3.166   3.200  0.00  0.00     0.009 C 
ENDBRANCH  27  28
ENDBRANCH  10  27
BRANCH   6  31
ATOM     31  O9  ZIN A   1      -0.184  -2.770  -0.341  0.00  0.00    -0.353 OA
ATOM     32  C10 ZIN A   1      -0.280  -4.184  -0.160  0.00  0.00     0.210 C 
ENDBRANCH   6  31
BRANCH   1  33
ATOM     33  O2  ZIN A   1      -0.150  -0.032  -0.670  0.00  0.00    -0.353 OA
ATOM     34  C1  ZIN A   1      -0.211   1.387  -0.833  0.00  0.00     0.210 C 
ENDBRANCH   1  33
TORSDOF 9
