REMARK  5 active torsions:
REMARK  status: ('A' for Active; 'I' for Inactive)
REMARK    1  A    between atoms: C2_2  and  C3_3 
REMARK    2  A    between atoms: C3_3  and  C4_4 
REMARK    3  A    between atoms: C4_4  and  C5_5 
REMARK    4  A    between atoms: C5_5  and  C8_7 
REMARK    5  A    between atoms: C8_7  and  C9_8 
ROOT
ATOM      1  C4  ZIN A   1       1.365  -1.724   1.157  0.00  0.00     0.129 A 
ATOM      2  C11 ZIN A   1       1.375  -0.937   2.453  0.00  0.00     0.244 A 
ATOM      3  O12 ZIN A   1       2.246  -0.127   2.690  0.00  0.00    -0.272 OA
ATOM      4  N13 ZIN A   1       0.379  -1.171   3.333  0.00  0.00    -0.278 N 
ATOM      5  C14 ZIN A   1      -0.590  -2.060   3.087  0.00  0.00     0.329 A 
ATOM      6  O15 ZIN A   1      -1.448  -2.208   3.934  0.00  0.00    -0.247 OA
ATOM      7  N16 ZIN A   1      -0.682  -2.800   1.976  0.00  0.00    -0.278 N 
ATOM      8  C17 ZIN A   1       0.223  -2.707   0.978  0.00  0.00     0.244 A 
ATOM      9  O18 ZIN A   1       0.127  -3.383  -0.023  0.00  0.00    -0.272 OA
ATOM     10  H34 ZIN A   1       0.364  -0.679   4.169  0.00  0.00     0.173 HD
ATOM     11  H35 ZIN A   1      -1.421  -3.421   1.884  0.00  0.00     0.173 HD
ENDROOT
BRANCH   1  12
ATOM     12  C3  ZIN A   1       1.323  -0.729  -0.005  0.00  0.00     0.056 C 
BRANCH  12  13
ATOM     13  C2  ZIN A   1       0.005   0.001   0.006  0.00  0.00    -0.035 C 
ATOM     14  C1  ZIN A   1      -0.019   1.310   0.034  0.00  0.00     0.007 C 
ENDBRANCH  12  13
ENDBRANCH   1  12
BRANCH   1  15
ATOM     15  C5  ZIN A   1       2.680  -2.501   1.066  0.00  0.00     0.009 C 
ATOM     16  C7  ZIN A   1       2.826  -3.401   2.295  0.00  0.00     0.011 C 
BRANCH  15  17
ATOM     17  C8  ZIN A   1       3.851  -1.518   1.012  0.00  0.00     0.005 C 
BRANCH  17  18
ATOM     18  C9  ZIN A   1       5.155  -2.289   0.797  0.00  0.00    -0.004 C 
ATOM     19  C10 ZIN A   1       6.326  -1.306   0.743  0.00  0.00     0.005 C 
ENDBRANCH  17  18
ENDBRANCH  15  17
ENDBRANCH   1  15
TORSDOF 5
