REMARK  6 active torsions:
REMARK  status: ('A' for Active; 'I' for Inactive)
REMARK    1  A    between atoms: C5_5  and  C6_6 
REMARK    2  A    between atoms: C6_6  and  O7_7 
REMARK    3  A    between atoms: O7_7  and  N8_8 
REMARK    4  A    between atoms: C9_9  and  C10_10 
REMARK    5  A    between atoms: C9_9  and  C16_16 
REMARK    6  A    between atoms: C10_10  and  N11_11 
ROOT
ATOM      1  N8  ZIN A   1      -1.568   7.871   0.066  0.00  0.00    -0.136 NA
ATOM      2  C9  ZIN A   1      -2.743   8.411   0.085  0.00  0.00     0.091 C 
ENDROOT
BRANCH   2   3
ATOM      3  C10 ZIN A   1      -3.973   7.539   0.099  0.00  0.00     0.191 C 
BRANCH   3   4
ATOM      4  N11 ZIN A   1      -4.351   7.249   1.484  0.00  0.00    -0.344 N 
ATOM      5  C15 ZIN A   1      -5.186   7.977   2.255  0.00  0.00     0.209 A 
ATOM      6  N14 ZIN A   1      -5.280   7.406   3.425  0.00  0.00    -0.255 NA
ATOM      7  C13 ZIN A   1      -4.509   6.309   3.445  0.00  0.00     0.135 A 
ATOM      8  C12 ZIN A   1      -3.919   6.192   2.240  0.00  0.00     0.111 A 
ENDBRANCH   3   4
ENDBRANCH   2   3
BRANCH   2   9
ATOM      9  C16 ZIN A   1      -2.881   9.880   0.095  0.00  0.00     0.014 A 
ATOM     10  C22 ZIN A   1      -1.743  10.691   0.083  0.00  0.00     0.048 A 
ATOM     11  C21 ZIN A   1      -1.879  12.065   0.086  0.00  0.00     0.048 A 
ATOM     12 Cl23 ZIN A   1      -0.163   9.974   0.051  0.00  0.00    -0.083 Cl
ATOM     13  C19 ZIN A   1      -3.139  12.638   0.113  0.00  0.00     0.035 A 
ATOM     14  C18 ZIN A   1      -4.270  11.839   0.131  0.00  0.00     0.025 A 
ATOM     15 Cl20 ZIN A   1      -3.302  14.367   0.124  0.00  0.00    -0.084 Cl
ATOM     16  C17 ZIN A   1      -4.148  10.465   0.122  0.00  0.00     0.017 A 
ENDBRANCH   2   9
BRANCH   1  17
ATOM     17  O7  ZIN A   1      -1.436   6.461   0.056  0.00  0.00    -0.252 OA
BRANCH  17  18
ATOM     18  C6  ZIN A   1      -0.082   6.004   0.035  0.00  0.00     0.244 C 
BRANCH  18  19
ATOM     19  C5  ZIN A   1      -0.061   4.497   0.026  0.00  0.00    -0.010 A 
ATOM     20  C4  ZIN A   1      -1.248   3.789   0.040  0.00  0.00     0.013 A 
ATOM     21  C3  ZIN A   1      -1.229   2.407   0.033  0.00  0.00     0.024 A 
ATOM     22  C2  ZIN A   1      -0.021   1.732   0.012  0.00  0.00     0.035 A 
ATOM     23 Cl1  ZIN A   1       0.002  -0.004   0.002  0.00  0.00    -0.084 Cl
ATOM     24  C26 ZIN A   1       1.167   2.440   0.004  0.00  0.00     0.048 A 
ATOM     25  C24 ZIN A   1       1.147   3.823   0.006  0.00  0.00     0.044 A 
ATOM     26 Cl25 ZIN A   1       2.638   4.712  -0.011  0.00  0.00    -0.084 Cl
ENDBRANCH  18  19
ENDBRANCH  17  18
ENDBRANCH   1  17
TORSDOF 6
