REMARK  2 active torsions:
REMARK  status: ('A' for Active; 'I' for Inactive)
REMARK    1  A    between atoms: O2_2  and  C3_3 
REMARK    2  A    between atoms: C16_16  and  O18_17 
ROOT
ATOM      1  C3  ZIN A   1      -1.201  -0.638   0.010  0.00  0.00     0.102 A 
ATOM      2  C4  ZIN A   1      -2.396   0.070   0.019  0.00  0.00     0.040 A 
ATOM      3  C5  ZIN A   1      -3.614  -0.568   0.003  0.00  0.00     0.012 A 
ATOM      4  C6  ZIN A   1      -3.716  -1.966  -0.047  0.00  0.00    -0.022 A 
ATOM      5  C7  ZIN A   1      -5.100  -2.514  -0.233  0.00  0.00     0.273 C 
ATOM      6  N8  ZIN A   1      -5.144  -3.624  -1.163  0.00  0.00    -0.071 N 
ATOM      7  H9  ZIN A   1      -6.109  -3.812  -1.390  0.00  0.00     0.279 HD
ATOM      8  C10 ZIN A   1      -4.447  -3.228  -2.394  0.00  0.00     0.270 C 
ATOM      9  C11 ZIN A   1      -4.548  -4.835  -0.676  0.00  0.00     0.236 C 
ATOM     10  C12 ZIN A   1      -3.068  -4.941  -0.900  0.00  0.00     0.049 C 
ATOM     11  C13 ZIN A   1      -2.269  -4.150   0.117  0.00  0.00     0.036 C 
ATOM     12  C14 ZIN A   1      -2.572  -4.586   1.512  0.00  0.00    -0.011 C 
ATOM     13  C15 ZIN A   1      -1.719  -5.091   2.338  0.00  0.00     0.002 C 
ATOM     14  C16 ZIN A   1      -0.275  -5.306   2.012  0.00  0.00     0.143 C 
ATOM     15  C19 ZIN A   1      -0.030  -5.307   0.517  0.00  0.00     0.069 C 
ATOM     16  C20 ZIN A   1      -0.778  -4.233  -0.223  0.00  0.00     0.148 C 
ATOM     17  O22 ZIN A   1      -0.276  -2.922   0.063  0.00  0.00    -0.341 OA
ATOM     18  C23 ZIN A   1      -1.294  -2.036   0.004  0.00  0.00     0.110 A 
ATOM     19  C24 ZIN A   1      -2.546  -2.664  -0.012  0.00  0.00     0.001 A 
ENDROOT
BRANCH   1  20
ATOM     20  O2  ZIN A   1       0.002  -0.004   0.002  0.00  0.00    -0.353 OA
ATOM     21  C1  ZIN A   1      -0.017   1.425   0.010  0.00  0.00     0.210 C 
ENDBRANCH   1  20
BRANCH  14  22
ATOM     22  O18 ZIN A   1       0.497  -4.262   2.609  0.00  0.00    -0.392 OA
ATOM     23  H41 ZIN A   1       0.421  -4.218   3.572  0.00  0.00     0.210 HD
ENDBRANCH  14  22
TORSDOF 2
