REMARK  9 active torsions:
REMARK  status: ('A' for Active; 'I' for Inactive)
REMARK    1  A    between atoms: C2_2  and  O4_3 
REMARK    2  A    between atoms: C2_2  and  C5_4 
REMARK    3  A    between atoms: C5_4  and  N6_5 
REMARK    4  A    between atoms: N9_8  and  C11_10 
REMARK    5  A    between atoms: C11_10  and  C12_11 
REMARK    6  A    between atoms: N17_16  and  C18_17 
REMARK    7  A    between atoms: C18_17  and  C19_18 
REMARK    8  A    between atoms: N24_23  and  C26_25 
REMARK    9  A    between atoms: C26_25  and  C27_26 
ROOT
ATOM      1  N6  ZIN A   1       0.882  -1.961  -1.311  0.00  0.00     0.094 N 
ATOM      2  C7  ZIN A   1      -0.446  -2.543  -1.545  0.00  0.00     0.300 C 
ATOM      3  C8  ZIN A   1      -1.483  -1.422  -1.644  0.00  0.00     0.265 C 
ATOM      4  N9  ZIN A   1      -2.215  -1.543  -2.912  0.00  0.00    -0.058 N 
ATOM      5  H10 ZIN A   1      -1.772  -2.242  -3.490  0.00  0.00     0.280 HD
ATOM      6  C15 ZIN A   1      -2.203  -0.251  -3.610  0.00  0.00     0.265 C 
ATOM      7  C16 ZIN A   1      -1.692  -0.447  -5.038  0.00  0.00     0.300 C 
ATOM      8  N17 ZIN A   1      -0.538   0.433  -5.271  0.00  0.00     0.101 N 
ATOM      9  C22 ZIN A   1       0.606  -0.325  -5.793  0.00  0.00     0.300 C 
ATOM     10  C23 ZIN A   1       1.840  -0.043  -4.934  0.00  0.00     0.265 C 
ATOM     11  N24 ZIN A   1       2.382  -1.310  -4.425  0.00  0.00    -0.058 N 
ATOM     12  H25 ZIN A   1       1.752  -2.063  -4.656  0.00  0.00     0.280 HD
ATOM     13  C30 ZIN A   1       2.532  -1.228  -2.966  0.00  0.00     0.265 C 
ATOM     14  C31 ZIN A   1       1.847  -2.431  -2.314  0.00  0.00     0.300 C 
ENDROOT
BRANCH   1  15
ATOM     15  C5  ZIN A   1       0.818  -0.494  -1.289  0.00  0.00     0.303 C 
BRANCH  15  16
ATOM     16  C2  ZIN A   1       0.099  -0.034  -0.019  0.00  0.00     0.142 C 
ATOM     17  C1  ZIN A   1       0.021   1.494  -0.002  0.00  0.00     0.041 C 
BRANCH  16  18
ATOM     18  O4  ZIN A   1       0.822  -0.487   1.128  0.00  0.00    -0.394 OA
ATOM     19  H35 ZIN A   1       1.729  -0.155   1.178  0.00  0.00     0.210 HD
ENDBRANCH  16  18
ENDBRANCH  15  16
ENDBRANCH   1  15
BRANCH  11  20
ATOM     20  C26 ZIN A   1       3.693  -1.563  -5.038  0.00  0.00     0.347 C 
BRANCH  20  21
ATOM     21  C27 ZIN A   1       3.522  -1.770  -6.521  0.00  0.00     0.199 C 
ATOM     22  O28 ZIN A   1       2.412  -1.712  -7.021  0.00  0.00    -0.647 OA
ATOM     23  O29 ZIN A   1       4.495  -1.995  -7.221  0.00  0.00    -0.647 OA
ENDBRANCH  20  21
ENDBRANCH  11  20
BRANCH   4  24
ATOM     24  C11 ZIN A   1      -3.603  -1.940  -2.641  0.00  0.00     0.347 C 
BRANCH  24  25
ATOM     25  C12 ZIN A   1      -4.320  -2.184  -3.944  0.00  0.00     0.199 C 
ATOM     26  O13 ZIN A   1      -3.729  -2.040  -5.000  0.00  0.00    -0.647 OA
ATOM     27  O14 ZIN A   1      -5.490  -2.525  -3.941  0.00  0.00    -0.647 OA
ENDBRANCH  24  25
ENDBRANCH   4  24
BRANCH   8  28
ATOM     28  C18 ZIN A   1      -0.174   1.158  -4.046  0.00  0.00     0.385 C 
BRANCH  28  29
ATOM     29  C19 ZIN A   1       0.786   2.268  -4.386  0.00  0.00     0.202 C 
ATOM     30  O20 ZIN A   1       1.136   2.440  -5.542  0.00  0.00    -0.647 OA
ATOM     31  O21 ZIN A   1       1.215   2.995  -3.506  0.00  0.00    -0.647 OA
ENDBRANCH  28  29
ENDBRANCH   8  28
TORSDOF 9
