REMARK  4 active torsions:
REMARK  status: ('A' for Active; 'I' for Inactive)
REMARK    1  A    between atoms: C3_3  and  N4_4 
REMARK    2  A    between atoms: N4_4  and  C7_7 
REMARK    3  A    between atoms: C7_7  and  C10_9 
REMARK    4  A    between atoms: C10_9  and  C11_10 
ROOT
ATOM      1  C1  <0> d   1       0.147  -1.242   0.025  0.00  0.00     0.013 C 
ATOM      2  C2  <0> d   1       0.085  -0.070   0.055  0.00  0.00    -0.090 C 
ATOM      3  C3  <0> d   1       0.008   1.400   0.092  0.00  0.00     0.327 C 
ENDROOT
BRANCH   3   4
ATOM      4  N4  <0> d   1       1.354   1.965  -0.068  0.00  0.00    -0.061 N 
ATOM      5  H5  <0> d   1       1.772   1.605  -0.913  0.00  0.00     0.281 HD
ATOM      6  C6  <0> d   1       2.183   1.590   1.085  0.00  0.00     0.271 C 
BRANCH   4   7
ATOM      7  C7  <0> d   1       1.264   3.429  -0.151  0.00  0.00     0.189 C 
ATOM      8  C9  <0> d   1       0.368   3.819  -1.329  0.00  0.00     0.040 C 
BRANCH   7   9
ATOM      9  C10 <0> d   1       2.662   4.015  -0.357  0.00  0.00     0.071 C 
BRANCH   9  10
ATOM     10  C11 <0> d   1       2.588   5.520  -0.310  0.00  0.00    -0.056 A 
ATOM     11  C16 <0> d   1       2.601   6.175   0.907  0.00  0.00     0.007 A 
ATOM     12  C15 <0> d   1       2.537   7.555   0.950  0.00  0.00     0.001 A 
ATOM     13  C14 <0> d   1       2.451   8.280  -0.224  0.00  0.00     0.000 A 
ATOM     14  C13 <0> d   1       2.433   7.624  -1.441  0.00  0.00     0.001 A 
ATOM     15  C12 <0> d   1       2.501   6.244  -1.484  0.00  0.00     0.007 A 
ENDBRANCH   9  10
ENDBRANCH   7   9
ENDBRANCH   4   7
ENDBRANCH   3   4
TORSDOF 4
