REMARK  1 active torsions:
REMARK  status: ('A' for Active; 'I' for Inactive)
REMARK    1  A    between atoms: C10_10  and  C11_11 
ROOT
ATOM      1  C1  ZIN A   1      -0.018   1.465   0.010  0.00  0.00     0.309 C 
ATOM      2  N2  ZIN A   1       0.002  -0.004   0.002  0.00  0.00     0.084 N 
ATOM      3  C3  ZIN A   1      -1.358  -0.548  -0.100  0.00  0.00     0.276 C 
ATOM      4  C4  ZIN A   1      -1.284  -2.059  -0.350  0.00  0.00     0.065 C 
ATOM      5  C5  ZIN A   1      -0.423  -2.677   0.731  0.00  0.00    -0.062 C 
ATOM      6  C6  ZIN A   1      -0.835  -3.757   1.414  0.00  0.00     0.023 C 
ATOM      7  C7  ZIN A   1      -2.146  -4.381   1.124  0.00  0.00     0.141 A 
ATOM      8  N8  ZIN A   1      -2.646  -4.527  -0.094  0.00  0.00    -0.240 NA
ATOM      9  C9  ZIN A   1      -3.810  -5.157  -0.029  0.00  0.00     0.151 A 
ATOM     10  C10 ZIN A   1      -4.076  -5.420   1.300  0.00  0.00     0.091 A 
ATOM     11  N13 ZIN A   1      -3.011  -4.892   2.029  0.00  0.00    -0.327 N 
ATOM     12  C14 ZIN A   1      -2.966  -4.911   3.492  0.00  0.00     0.136 C 
ATOM     13  C15 ZIN A   1      -1.900  -4.007   4.065  0.00  0.00     0.060 C 
ATOM     14  C16 ZIN A   1      -0.509  -4.458   3.751  0.00  0.00    -0.045 A 
ATOM     15  C17 ZIN A   1       0.275  -4.995   4.762  0.00  0.00     0.008 A 
ATOM     16  C18 ZIN A   1       1.561  -5.423   4.486  0.00  0.00     0.001 A 
ATOM     17  C19 ZIN A   1       2.078  -5.323   3.208  0.00  0.00     0.001 A 
ATOM     18  C20 ZIN A   1       1.306  -4.787   2.194  0.00  0.00     0.013 A 
ATOM     19  C21 ZIN A   1       0.018  -4.358   2.475  0.00  0.00    -0.016 A 
ATOM     20  C22 ZIN A   1       0.919  -2.037   1.016  0.00  0.00     0.065 C 
ATOM     21  C23 ZIN A   1       0.706  -0.527   1.180  0.00  0.00     0.276 C 
ENDROOT
BRANCH  10  22
ATOM     22  C11 ZIN A   1      -5.204  -6.094   1.820  0.00  0.00     0.289 C 
ATOM     23  O12 ZIN A   1      -6.064  -6.507   1.069  0.00  0.00    -0.300 OA
ENDBRANCH  10  22
TORSDOF 1
