REMARK  0 active torsions:
REMARK  status: ('A' for Active; 'I' for Inactive)
ROOT
ATOM      1  C1  ZIN A   1       5.366   4.606   2.350  0.00  0.00     0.269 C 
ATOM      2  N2  ZIN A   1       4.653   4.639   1.067  0.00  0.00    -0.074 N 
ATOM      3  H3  ZIN A   1       5.249   4.297   0.328  0.00  0.00     0.279 HD
ATOM      4  C4  ZIN A   1       3.412   3.820   1.147  0.00  0.00     0.244 C 
ATOM      5  C5  ZIN A   1       2.528   4.439   0.037  0.00  0.00     0.057 C 
ATOM      6  C7  ZIN A   1       1.185   3.839   0.011  0.00  0.00    -0.016 A 
ATOM      7  C8  ZIN A   1       1.157   2.438   0.004  0.00  0.00     0.034 A 
ATOM      8  C9  ZIN A   1      -0.021   1.732   0.012  0.00  0.00     0.034 A 
ATOM      9 Cl10 ZIN A   1       0.002  -0.004   0.002  0.00  0.00    -0.084 Cl
ATOM     10  C11 ZIN A   1      -1.227   2.411   0.021  0.00  0.00     0.026 A 
ATOM     11  C12 ZIN A   1      -1.220   3.785   0.027  0.00  0.00     0.039 A 
ATOM     12  C13 ZIN A   1      -0.022   4.511   0.012  0.00  0.00     0.083 A 
ATOM     13  O14 ZIN A   1      -0.151   5.833  -0.024  0.00  0.00    -0.310 OA
ATOM     14  C15 ZIN A   1       0.524   6.803   0.579  0.00  0.00     0.082 A 
ATOM     15  C16 ZIN A   1      -0.254   7.823   1.150  0.00  0.00     0.038 A 
ATOM     16  C17 ZIN A   1       0.331   8.864   1.832  0.00  0.00     0.003 A 
ATOM     17  C18 ZIN A   1       1.707   8.907   1.961  0.00  0.00     0.001 A 
ATOM     18  C19 ZIN A   1       2.474   7.917   1.391  0.00  0.00     0.010 A 
ATOM     19  C20 ZIN A   1       1.889   6.865   0.682  0.00  0.00    -0.018 A 
ATOM     20  C21 ZIN A   1       2.829   5.890   0.070  0.00  0.00     0.057 C 
ATOM     21  C23 ZIN A   1       4.208   6.020   0.765  0.00  0.00     0.244 C 
ENDROOT
TORSDOF 0
