REMARK  2 active torsions:
REMARK  status: ('A' for Active; 'I' for Inactive)
REMARK    1  A    between atoms: O2_2  and  C3_3 
REMARK    2  A    between atoms: C25_23  and  O26_24 
ROOT
ATOM      1  C3  ZIN A   1      -1.670  -0.684   1.081  0.00  0.00     0.102 A 
ATOM      2  C4  ZIN A   1      -2.928  -0.089   1.145  0.00  0.00     0.040 A 
ATOM      3  C5  ZIN A   1      -4.110  -0.789   0.968  0.00  0.00     0.011 A 
ATOM      4  C6  ZIN A   1      -4.082  -2.145   0.696  0.00  0.00    -0.046 A 
ATOM      5  C7  ZIN A   1      -5.288  -3.023   0.605  0.00  0.00     0.075 C 
ATOM      6  C8  ZIN A   1      -4.959  -4.470   0.280  0.00  0.00     0.227 C 
ATOM      7  N10 ZIN A   1      -4.956  -4.686  -1.171  0.00  0.00    -0.067 N 
ATOM      8  H11 ZIN A   1      -4.810  -5.667  -1.360  0.00  0.00     0.280 HD
ATOM      9  C12 ZIN A   1      -6.254  -4.276  -1.723  0.00  0.00     0.270 C 
ATOM     10  C13 ZIN A   1      -3.893  -3.909  -1.815  0.00  0.00     0.236 C 
ATOM     11  C14 ZIN A   1      -2.524  -4.344  -1.278  0.00  0.00     0.048 C 
ATOM     12  C15 ZIN A   1      -2.519  -4.144   0.236  0.00  0.00     0.058 C 
ATOM     13  C16 ZIN A   1      -2.831  -2.703   0.555  0.00  0.00    -0.001 A 
ATOM     14  C17 ZIN A   1      -1.629  -2.052   0.784  0.00  0.00     0.111 A 
ATOM     15  O18 ZIN A   1      -0.601  -2.924   0.706  0.00  0.00    -0.334 OA
ATOM     16  C19 ZIN A   1      -1.124  -4.283   0.829  0.00  0.00     0.214 C 
ATOM     17  C21 ZIN A   1      -1.132  -4.625   2.290  0.00  0.00     0.157 C 
ATOM     18  O22 ZIN A   1      -0.170  -4.325   2.955  0.00  0.00    -0.295 OA
ATOM     19  C23 ZIN A   1      -2.276  -5.321   2.963  0.00  0.00     0.084 C 
ATOM     20  C24 ZIN A   1      -3.603  -4.776   2.431  0.00  0.00     0.048 C 
ATOM     21  C25 ZIN A   1      -3.623  -4.956   0.849  0.00  0.00     0.102 C 
ENDROOT
BRANCH   1  22
ATOM     22  O2  ZIN A   1      -0.533   0.032   1.290  0.00  0.00    -0.353 OA
ATOM     23  C1  ZIN A   1      -0.688   1.422   1.586  0.00  0.00     0.210 C 
ENDBRANCH   1  22
BRANCH  21  24
ATOM     24  O26 ZIN A   1      -3.446  -6.335   0.523  0.00  0.00    -0.386 OA
ATOM     25  H45 ZIN A   1      -4.129  -6.916   0.884  0.00  0.00     0.210 HD
ENDBRANCH  21  24
TORSDOF 2
