REMARK  11 active torsions:
REMARK  status: ('A' for Active; 'I' for Inactive)
REMARK    1  A    between atoms: N1_1  and  C2_2 
REMARK    2  A    between atoms: C10_10  and  C12_11 
REMARK    3  A    between atoms: C12_11  and  N13_12 
REMARK    4  A    between atoms: N13_12  and  C14_13 
REMARK    5  A    between atoms: C17_16  and  C18_17 
REMARK       I    between atoms: C18_17  and  N20_19 
REMARK    6  A    between atoms: N20_19  and  C21_20 
REMARK    7  A    between atoms: C21_20  and  C23_21 
REMARK    8  A    between atoms: C21_20  and  C28_26 
REMARK    9  A    between atoms: C23_21  and  C24_22 
REMARK   10  A    between atoms: C24_22  and  C25_23 
REMARK   11  A    between atoms: N33_31  and  C34_32 
ROOT
ATOM      1  N13 ZIN A   1       0.362  -5.341  -2.566  0.00  0.00    -0.388 N 
ATOM      2  H44 ZIN A   1      -0.383  -5.681  -2.047  0.00  0.00     0.159 HD
ENDROOT
BRANCH   1   3
ATOM      3  C12 ZIN A   1       1.526  -4.766  -1.887  0.00  0.00     0.147 C 
BRANCH   3   4
ATOM      4  C10 ZIN A   1       1.313  -4.823  -0.373  0.00  0.00     0.128 C 
ATOM      5  C9  ZIN A   1       2.471  -4.110   0.342  0.00  0.00     0.148 C 
ATOM      6  N8  ZIN A   1       2.437  -2.689  -0.033  0.00  0.00    -0.372 N 
ATOM      7  C7  ZIN A   1       1.230  -2.021  -0.027  0.00  0.00     0.150 A 
ATOM      8  H39 ZIN A   1       3.252  -2.227  -0.282  0.00  0.00     0.161 HD
ATOM      9  C6  ZIN A   1       0.055  -2.719  -0.023  0.00  0.00     0.153 A 
ATOM     10  N36 ZIN A   1       1.192  -0.651  -0.031  0.00  0.00    -0.173 N 
ATOM     11  C4  ZIN A   1      -1.163  -2.008  -0.022  0.00  0.00     0.314 A 
ATOM     12  N33 ZIN A   1       0.066  -4.128  -0.018  0.00  0.00    -0.309 N 
ATOM     13  N3  ZIN A   1      -1.143  -0.665  -0.023  0.00  0.00    -0.021 NA
ATOM     14  O5  ZIN A   1      -2.228  -2.610  -0.020  0.00  0.00    -0.263 OA
ATOM     15  C2  ZIN A   1      -0.006  -0.004  -0.025  0.00  0.00     0.703 A 
ATOM     16  H55 ZIN A   1       2.018  -0.143  -0.031  0.00  0.00     0.186 HD
BRANCH  15  17
ATOM     17  N1  ZIN A   1      -0.027   1.367  -0.026  0.00  0.00    -0.233 N 
ATOM     18  H37 ZIN A   1       0.806   1.864  -0.031  0.00  0.00     0.174 HD
ATOM     19  H38 ZIN A   1      -0.874   1.839  -0.026  0.00  0.00     0.174 HD
ENDBRANCH  15  17
BRANCH  12  20
ATOM     20  C34 ZIN A   1      -1.042  -4.824   0.306  0.00  0.00     0.356 C 
ATOM     21  O35 ZIN A   1      -1.048  -6.034   0.211  0.00  0.00    -0.283 OA
ENDBRANCH  12  20
ENDBRANCH   3   4
ENDBRANCH   1   3
BRANCH   1  22
ATOM     22  C14 ZIN A   1       0.326  -5.399  -3.955  0.00  0.00     0.028 A 
ATOM     23  C32 ZIN A   1      -0.781  -5.946  -4.598  0.00  0.00     0.030 A 
ATOM     24  C31 ZIN A   1      -0.822  -5.999  -5.973  0.00  0.00     0.019 A 
ATOM     25  C17 ZIN A   1       0.253  -5.514  -6.723  0.00  0.00     0.032 A 
ATOM     26  C16 ZIN A   1       1.366  -4.971  -6.073  0.00  0.00     0.019 A 
ATOM     27  C15 ZIN A   1       1.399  -4.915  -4.699  0.00  0.00     0.030 A 
BRANCH  25  28
ATOM     28  C18 ZIN A   1       0.215  -5.576  -8.196  0.00  0.00     0.252 C 
ATOM     29  O19 ZIN A   1       1.151  -5.154  -8.847  0.00  0.00    -0.268 OA
ATOM     30  N20 ZIN A   1      -0.858  -6.100  -8.821  0.00  0.00    -0.342 N 
ATOM     31  H47 ZIN A   1      -1.605  -6.437  -8.302  0.00  0.00     0.163 HD
BRANCH  30  32
ATOM     32  C21 ZIN A   1      -0.896  -6.162 -10.284  0.00  0.00     0.186 C 
BRANCH  32  33
ATOM     33  C23 ZIN A   1      -1.832  -7.290 -10.723  0.00  0.00     0.046 C 
BRANCH  33  34
ATOM     34  C24 ZIN A   1      -1.254  -8.634 -10.276  0.00  0.00     0.116 C 
BRANCH  34  35
ATOM     35  C25 ZIN A   1      -2.176  -9.745 -10.708  0.00  0.00     0.172 C 
ATOM     36  O26 ZIN A   1      -3.200  -9.486 -11.317  0.00  0.00    -0.648 OA
ATOM     37  O27 ZIN A   1      -1.898 -10.904 -10.449  0.00  0.00    -0.648 OA
ENDBRANCH  34  35
ENDBRANCH  33  34
ENDBRANCH  32  33
BRANCH  32  38
ATOM     38  C28 ZIN A   1      -1.401  -4.850 -10.829  0.00  0.00     0.196 C 
ATOM     39  O29 ZIN A   1      -1.700  -3.948 -10.066  0.00  0.00    -0.646 OA
ATOM     40  O30 ZIN A   1      -1.509  -4.691 -12.033  0.00  0.00    -0.646 OA
ENDBRANCH  32  38
ENDBRANCH  30  32
ENDBRANCH  25  28
ENDBRANCH   1  22
TORSDOF 11
