REMARK  20 active torsions:
REMARK  status: ('A' for Active; 'I' for Inactive)
REMARK    1  A    between atoms: C2_2  and  C4_4 
REMARK    2  A    between atoms: C4_4  and  N5_5 
REMARK    3  A    between atoms: N5_5  and  C6_6 
REMARK    4  A    between atoms: N5_5  and  C17_17 
REMARK    5  A    between atoms: C6_6  and  C7_7 
REMARK    6  A    between atoms: C7_7  and  N8_8 
REMARK    7  A    between atoms: N8_8  and  C9_9 
REMARK    8  A    between atoms: N8_8  and  C13_13 
REMARK    9  A    between atoms: C9_9  and  C10_10 
REMARK   10  A    between atoms: C13_13  and  C14_14 
REMARK   11  A    between atoms: C17_17  and  C18_18 
REMARK   12  A    between atoms: C18_18  and  N19_19 
REMARK   13  A    between atoms: N19_19  and  C20_20 
REMARK   14  A    between atoms: N19_19  and  C24_24 
REMARK   15  A    between atoms: C20_20  and  C21_21 
REMARK   16  A    between atoms: C24_24  and  C26_25 
REMARK   17  A    between atoms: C24_24  and  C35_34 
REMARK   18  A    between atoms: C26_25  and  O27_26 
REMARK   19  A    between atoms: O27_26  and  C28_27 
REMARK   20  A    between atoms: C28_27  and  C29_28 
ROOT
ATOM      1  C18 ZIN A   1      -0.201  -2.110  -0.258  0.00  0.00     0.304 C 
ENDROOT
BRANCH   1   2
ATOM      2  C17 ZIN A   1      -0.843  -0.729  -0.403  0.00  0.00     0.303 C 
BRANCH   2   3
ATOM      3  N5  ZIN A   1      -0.479   0.104   0.751  0.00  0.00     0.102 N 
BRANCH   3   4
ATOM      4  C4  ZIN A   1       0.926   0.526   0.674  0.00  0.00     0.385 C 
BRANCH   4   5
ATOM      5  C2  ZIN A   1       1.129   1.376  -0.554  0.00  0.00     0.202 C 
ATOM      6  O1  ZIN A   1       0.186   1.621  -1.288  0.00  0.00    -0.647 OA
ATOM      7  O3  ZIN A   1       2.234   1.822  -0.811  0.00  0.00    -0.647 OA
ENDBRANCH   4   5
ENDBRANCH   3   4
BRANCH   3   8
ATOM      8  C6  ZIN A   1      -1.372   1.265   0.865  0.00  0.00     0.303 C 
BRANCH   8   9
ATOM      9  C7  ZIN A   1      -1.128   1.966   2.203  0.00  0.00     0.304 C 
BRANCH   9  10
ATOM     10  N8  ZIN A   1      -2.021   3.127   2.316  0.00  0.00     0.110 N 
BRANCH  10  11
ATOM     11  C9  ZIN A   1      -1.988   3.686   3.675  0.00  0.00     0.385 C 
BRANCH  11  12
ATOM     12  C10 ZIN A   1      -2.762   2.788   4.606  0.00  0.00     0.202 C 
ATOM     13  O11 ZIN A   1      -3.285   1.773   4.178  0.00  0.00    -0.647 OA
ATOM     14  O12 ZIN A   1      -2.865   3.077   5.785  0.00  0.00    -0.647 OA
ENDBRANCH  11  12
ENDBRANCH  10  11
BRANCH  10  15
ATOM     15  C13 ZIN A   1      -1.683   4.151   1.318  0.00  0.00     0.385 C 
BRANCH  15  16
ATOM     16  C14 ZIN A   1      -2.814   5.142   1.212  0.00  0.00     0.202 C 
ATOM     17  O15 ZIN A   1      -3.850   4.952   1.826  0.00  0.00    -0.647 OA
ATOM     18  O16 ZIN A   1      -2.692   6.133   0.513  0.00  0.00    -0.647 OA
ENDBRANCH  15  16
ENDBRANCH  10  15
ENDBRANCH   9  10
ENDBRANCH   8   9
ENDBRANCH   3   8
ENDBRANCH   2   3
ENDBRANCH   1   2
BRANCH   1  19
ATOM     19  N19 ZIN A   1      -0.602  -2.958  -1.389  0.00  0.00     0.117 N 
BRANCH  19  20
ATOM     20  C20 ZIN A   1      -0.051  -2.447  -2.651  0.00  0.00     0.386 C 
BRANCH  20  21
ATOM     21  C21 ZIN A   1      -0.777  -3.080  -3.809  0.00  0.00     0.202 C 
ATOM     22  O22 ZIN A   1      -1.736  -3.806  -3.605  0.00  0.00    -0.647 OA
ATOM     23  O23 ZIN A   1      -0.406  -2.868  -4.951  0.00  0.00    -0.647 OA
ENDBRANCH  20  21
ENDBRANCH  19  20
BRANCH  19  24
ATOM     24  C24 ZIN A   1      -0.204  -4.354  -1.167  0.00  0.00     0.346 C 
BRANCH  24  25
ATOM     25  C26 ZIN A   1       1.266  -4.405  -0.747  0.00  0.00     0.215 C 
BRANCH  25  26
ATOM     26  O27 ZIN A   1       1.416  -3.793   0.536  0.00  0.00    -0.384 OA
BRANCH  26  27
ATOM     27  C28 ZIN A   1       2.736  -3.889   1.075  0.00  0.00     0.206 C 
BRANCH  27  28
ATOM     28  C29 ZIN A   1       2.804  -3.133   2.376  0.00  0.00    -0.035 A 
ATOM     29  C34 ZIN A   1       2.409  -3.745   3.552  0.00  0.00     0.009 A 
ATOM     30  C33 ZIN A   1       2.475  -3.053   4.747  0.00  0.00     0.001 A 
ATOM     31  C32 ZIN A   1       2.927  -1.746   4.765  0.00  0.00     0.000 A 
ATOM     32  C31 ZIN A   1       3.317  -1.133   3.589  0.00  0.00     0.001 A 
ATOM     33  C30 ZIN A   1       3.255  -1.827   2.394  0.00  0.00     0.009 A 
ENDBRANCH  27  28
ENDBRANCH  26  27
ENDBRANCH  25  26
ENDBRANCH  24  25
BRANCH  24  34
ATOM     34  C35 ZIN A   1      -1.059  -4.953  -0.080  0.00  0.00     0.209 C 
ATOM     35  O36 ZIN A   1      -0.938  -6.131   0.211  0.00  0.00    -0.646 OA
ATOM     36  O37 ZIN A   1      -1.870  -4.260   0.509  0.00  0.00    -0.646 OA
ENDBRANCH  24  34
ENDBRANCH  19  24
ENDBRANCH   1  19
TORSDOF 20
