REMARK  3 active torsions:
REMARK  status: ('A' for Active; 'I' for Inactive)
REMARK    1  A    between atoms: N10_10  and  C11_11 
REMARK    2  A    between atoms: C15_14  and  C17_15 
REMARK    3  A    between atoms: C17_15  and  O18_16 
ROOT
ATOM      1  O1  ZIN A   1       0.002  -0.004   0.002  0.00  0.00    -0.263 OA
ATOM      2  C2  ZIN A   1      -0.015   1.215   0.009  0.00  0.00     0.300 A 
ATOM      3  N3  ZIN A   1      -1.183   1.893   0.029  0.00  0.00    -0.201 NA
ATOM      4  C4  ZIN A   1      -1.190   3.250   0.036  0.00  0.00     0.239 A 
ATOM      5  N5  ZIN A   1      -0.090   3.950   0.024  0.00  0.00    -0.221 NA
ATOM      6  C6  ZIN A   1       1.112   3.355   0.003  0.00  0.00     0.169 A 
ATOM      7  C7  ZIN A   1       1.192   1.959   0.001  0.00  0.00     0.174 A 
ATOM      8  N8  ZIN A   1       2.504   1.631  -0.022  0.00  0.00    -0.234 NA
ATOM      9  C9  ZIN A   1       3.220   2.719  -0.034  0.00  0.00     0.214 A 
ATOM     10  N10 ZIN A   1       2.402   3.809  -0.014  0.00  0.00    -0.296 N 
ENDROOT
BRANCH  10  11
ATOM     11  C11 ZIN A   1       2.827   5.211  -0.020  0.00  0.00     0.231 C 
ATOM     12  O19 ZIN A   1       4.140   5.319  -0.582  0.00  0.00    -0.359 OA
ATOM     13  C15 ZIN A   1       5.034   5.913   0.375  0.00  0.00     0.147 C 
ATOM     14  C14 ZIN A   1       4.404   5.616   1.759  0.00  0.00     0.038 C 
ATOM     15  C13 ZIN A   1       2.892   5.745   1.427  0.00  0.00     0.057 C 
BRANCH  13  16
ATOM     16  C17 ZIN A   1       6.422   5.276   0.276  0.00  0.00     0.196 C 
BRANCH  16  17
ATOM     17  O18 ZIN A   1       7.034   5.657  -0.958  0.00  0.00    -0.398 OA
ATOM     18  H28 ZIN A   1       7.918   5.288  -1.089  0.00  0.00     0.209 HD
ENDBRANCH  16  17
ENDBRANCH  13  16
ENDBRANCH  10  11
TORSDOF 3
