REMARK  0 active torsions:
REMARK  status: ('A' for Active; 'I' for Inactive)
ROOT
ATOM      1  O1  ZIN A   1       0.002  -0.004   0.002  0.00  0.00    -0.188 OA
ATOM      2  C2  ZIN A   1      -0.016   1.355   0.009  0.00  0.00     0.153 A 
ATOM      3  C3  ZIN A   1      -1.244   2.048   0.031  0.00  0.00     0.106 A 
ATOM      4  N4  ZIN A   1      -2.407   1.389   0.045  0.00  0.00    -0.257 NA
ATOM      5  C5  ZIN A   1      -3.551   2.028   0.065  0.00  0.00     0.117 A 
ATOM      6  C6  ZIN A   1      -3.614   3.420   0.073  0.00  0.00     0.020 A 
ATOM      7  C7  ZIN A   1      -2.462   4.154   0.060  0.00  0.00     0.017 A 
ATOM      8  C8  ZIN A   1      -1.235   3.464   0.038  0.00  0.00     0.017 A 
ATOM      9  C9  ZIN A   1      -0.011   4.153   0.023  0.00  0.00     0.048 A 
ATOM     10 Cl10 ZIN A   1       0.011   5.889   0.033  0.00  0.00    -0.083 Cl
ATOM     11  C11 ZIN A   1       1.160   3.456   0.002  0.00  0.00     0.046 A 
ATOM     12  C12 ZIN A   1       1.163   2.064   0.002  0.00  0.00     0.047 A 
ATOM     13  I13 ZIN A   1       2.988   1.034  -0.031  0.00  0.00    -0.041 I 
ENDROOT
TORSDOF 0
