REMARK  7 active torsions:
REMARK  status: ('A' for Active; 'I' for Inactive)
REMARK    1  A    between atoms: C2_2  and  C3_3 
REMARK    2  A    between atoms: C6_6  and  O8_7 
REMARK    3  A    between atoms: O8_7  and  C9_8 
REMARK    4  A    between atoms: C9_8  and  C11_10 
REMARK    5  A    between atoms: C11_10  and  S12_11 
REMARK    6  A    between atoms: S12_11  and  C13_12 
REMARK    7  A    between atoms: C43_36  and  O45_37 
ROOT
ATOM      1  C3  ZIN A   1       0.771  -0.732   0.178  0.00  0.00     0.002 C 
ATOM      2  C4  ZIN A   1       1.929   0.283   0.267  0.00  0.00     0.022 C 
ATOM      3  C5  ZIN A   1       0.967  -1.584  -1.095  0.00  0.00     0.049 C 
ATOM      4  C6  ZIN A   1      -0.153  -2.605  -1.349  0.00  0.00     0.142 C 
ATOM      5  C26 ZIN A   1       0.158  -4.001  -0.812  0.00  0.00    -0.003 C 
ATOM      6  C27 ZIN A   1       0.944  -4.597  -1.993  0.00  0.00     0.019 C 
ATOM      7  C28 ZIN A   1       1.083  -4.152   0.320  0.00  0.00     0.075 C 
ATOM      8  C30 ZIN A   1       1.865  -5.394   0.583  0.00  0.00     0.132 C 
ATOM      9  O31 ZIN A   1       2.160  -6.284  -0.177  0.00  0.00    -0.298 OA
ATOM     10  C32 ZIN A   1       2.243  -5.345   2.066  0.00  0.00     0.079 C 
ATOM     11  C33 ZIN A   1       1.427  -4.182   2.692  0.00  0.00     0.018 C 
ATOM     12  C34 ZIN A   1       0.312  -3.961   1.696  0.00  0.00    -0.023 C 
ATOM     13  C35 ZIN A   1      -0.757  -5.044   1.753  0.00  0.00     0.011 C 
ATOM     14  C36 ZIN A   1      -1.754  -4.832   0.612  0.00  0.00     0.006 C 
ATOM     15  C37 ZIN A   1      -1.037  -4.933  -0.735  0.00  0.00    -0.007 C 
ATOM     16  C39 ZIN A   1      -2.035  -4.684  -1.861  0.00  0.00     0.011 C 
ATOM     17  C40 ZIN A   1      -0.294  -2.590   1.524  0.00  0.00     0.021 C 
ATOM     18  C42 ZIN A   1      -1.098  -2.240   2.793  0.00  0.00     0.013 C 
ATOM     19  C43 ZIN A   1       0.821  -1.586   1.378  0.00  0.00     0.134 C 
ENDROOT
BRANCH   4  20
ATOM     20  O8  ZIN A   1      -0.284  -2.700  -2.805  0.00  0.00    -0.315 OA
BRANCH  20  21
ATOM     21  C9  ZIN A   1      -1.146  -1.857  -3.396  0.00  0.00     0.268 C 
ATOM     22  O10 ZIN A   1      -1.772  -1.068  -2.729  0.00  0.00    -0.264 OA
BRANCH  21  23
ATOM     23  C11 ZIN A   1      -1.333  -1.897  -4.891  0.00  0.00     0.185 C 
BRANCH  23  24
ATOM     24  S12 ZIN A   1      -2.554  -0.647  -5.380  0.00  0.00    -0.154 SA
BRANCH  24  25
ATOM     25  C13 ZIN A   1      -2.641  -0.846  -7.181  0.00  0.00     0.051 C 
ATOM     26  C22 ZIN A   1      -3.737   0.065  -7.742  0.00  0.00     0.048 C 
ATOM     27  C20 ZIN A   1      -3.708  -0.026  -9.276  0.00  0.00     0.189 C 
ATOM     28  C19 ZIN A   1      -3.621  -1.515  -9.686  0.00  0.00     0.035 C 
ATOM     29  N23 ZIN A   1      -2.395   0.559  -9.711  0.00  0.00    -0.066 N 
ATOM     30  C18 ZIN A   1      -2.111  -1.827  -9.723  0.00  0.00     0.035 C 
ATOM     31  C16 ZIN A   1      -1.422  -0.499  -9.332  0.00  0.00     0.189 C 
ATOM     32  C15 ZIN A   1      -1.292  -0.470  -7.801  0.00  0.00     0.048 C 
ATOM     33  H24 ZIN A   1      -2.387   0.711 -10.709  0.00  0.00     0.280 HD
ATOM     34  C25 ZIN A   1      -2.125   1.813  -8.996  0.00  0.00     0.270 C 
ENDBRANCH  24  25
ENDBRANCH  23  24
ENDBRANCH  21  23
ENDBRANCH  20  21
ENDBRANCH   4  20
BRANCH   1  35
ATOM     35  C2  ZIN A   1      -0.519   0.042   0.118  0.00  0.00    -0.025 C 
ATOM     36  C1  ZIN A   1      -0.498   1.351   0.111  0.00  0.00     0.008 C 
ENDBRANCH   1  35
BRANCH  19  37
ATOM     37  O45 ZIN A   1       0.789  -0.724   2.527  0.00  0.00    -0.394 OA
ATOM     38  H84 ZIN A   1       1.472  -0.040   2.525  0.00  0.00     0.210 HD
ENDBRANCH  19  37
TORSDOF 7
