REMARK  6 active torsions:
REMARK  status: ('A' for Active; 'I' for Inactive)
REMARK    1  A    between atoms: C7_7  and  C9_8 
REMARK    2  A    between atoms: C9_8  and  C10_9 
REMARK    3  A    between atoms: C10_9  and  O11_10 
REMARK    4  A    between atoms: O11_10  and  C12_11 
REMARK    5  A    between atoms: C12_11  and  C14_13 
REMARK    6  A    between atoms: C12_11  and  C20_19 
ROOT
ATOM      1  C12 ZIN A   1       3.233   3.706   1.220  0.00  0.00     0.111 C 
ATOM      2  C13 ZIN A   1       2.986   4.420  -0.111  0.00  0.00     0.057 C 
ENDROOT
BRANCH   1   3
ATOM      3  O11 ZIN A   1       1.992   3.229   1.742  0.00  0.00    -0.371 OA
BRANCH   3   4
ATOM      4  C10 ZIN A   1       1.261   2.399   0.837  0.00  0.00     0.171 C 
BRANCH   4   5
ATOM      5  C9  ZIN A   1       0.022   1.843   1.541  0.00  0.00     0.059 C 
BRANCH   5   6
ATOM      6  C7  ZIN A   1      -0.720   0.895   0.596  0.00  0.00     0.190 C 
ATOM      7  N2  ZIN A   1      -1.940   0.385   1.248  0.00  0.00    -0.071 N 
ATOM      8  C1  ZIN A   1      -2.068   0.974   2.588  0.00  0.00     0.270 C 
ATOM      9  H3  ZIN A   1      -2.748   0.624   0.693  0.00  0.00     0.279 HD
ATOM     10  C4  ZIN A   1      -1.831  -1.085   1.359  0.00  0.00     0.235 C 
ATOM     11  C5  ZIN A   1      -0.844  -1.494   0.238  0.00  0.00     0.030 C 
ATOM     12  C6  ZIN A   1       0.168  -0.319   0.267  0.00  0.00     0.035 C 
ENDBRANCH   5   6
ENDBRANCH   4   5
ENDBRANCH   3   4
ENDBRANCH   1   3
BRANCH   1  13
ATOM     13  C14 ZIN A   1       4.166   2.543   1.000  0.00  0.00    -0.020 A 
ATOM     14  C19 ZIN A   1       4.029   1.395   1.756  0.00  0.00     0.010 A 
ATOM     15  C18 ZIN A   1       4.882   0.326   1.552  0.00  0.00     0.001 A 
ATOM     16  C17 ZIN A   1       5.877   0.410   0.596  0.00  0.00     0.000 A 
ATOM     17  C16 ZIN A   1       6.018   1.560  -0.157  0.00  0.00     0.001 A 
ATOM     18  C15 ZIN A   1       5.162   2.627   0.045  0.00  0.00     0.010 A 
ENDBRANCH   1  13
BRANCH   1  19
ATOM     19  C20 ZIN A   1       3.853   4.669   2.199  0.00  0.00    -0.019 A 
ATOM     20  C26 ZIN A   1       3.177   5.008   3.357  0.00  0.00     0.012 A 
ATOM     21  C25 ZIN A   1       3.748   5.886   4.258  0.00  0.00     0.024 A 
ATOM     22  C23 ZIN A   1       4.991   6.436   3.997  0.00  0.00     0.034 A 
ATOM     23  C22 ZIN A   1       5.664   6.101   2.835  0.00  0.00     0.024 A 
ATOM     24 Cl24 ZIN A   1       5.705   7.545   5.125  0.00  0.00    -0.084 Cl
ATOM     25  C21 ZIN A   1       5.095   5.217   1.937  0.00  0.00     0.012 A 
ENDBRANCH   1  19
TORSDOF 6
