REMARK  6 active torsions:
REMARK  status: ('A' for Active; 'I' for Inactive)
REMARK    1  A    between atoms: C2_2  and  C3_3 
REMARK       I    between atoms: C3_3  and  N5_5 
REMARK    2  A    between atoms: N5_5  and  C6_6 
REMARK    3  A    between atoms: N5_5  and  C12_12 
REMARK    4  A    between atoms: N15_15  and  C16_16 
REMARK    5  A    between atoms: C16_16  and  C17_17 
REMARK    6  A    between atoms: C17_17  and  C18_18 
ROOT
ATOM      1  C12 ZIN A   1      -0.352  -2.544   0.170  0.00  0.00     0.096 C 
ATOM      2  C13 ZIN A   1       0.503  -2.134  -1.032  0.00  0.00     0.056 C 
ATOM      3  C14 ZIN A   1       1.872  -2.811  -0.931  0.00  0.00     0.274 C 
ATOM      4  N15 ZIN A   1       2.528  -2.408   0.320  0.00  0.00     0.088 N 
ATOM      5  C24 ZIN A   1       1.748  -2.832   1.489  0.00  0.00     0.274 C 
ATOM      6  C25 ZIN A   1       0.375  -2.156   1.460  0.00  0.00     0.056 C 
ENDROOT
BRANCH   1   7
ATOM      7  N5  ZIN A   1      -1.643  -1.854   0.110  0.00  0.00    -0.313 N 
ATOM      8  C3  ZIN A   1      -2.776  -2.559  -0.079  0.00  0.00     0.224 C 
ATOM      9  O4  ZIN A   1      -3.830  -1.981  -0.243  0.00  0.00    -0.273 OA
BRANCH   8  10
ATOM     10  C2  ZIN A   1      -2.734  -4.065  -0.084  0.00  0.00     0.099 C 
ATOM     11  C1  ZIN A   1      -4.158  -4.615  -0.191  0.00  0.00     0.014 C 
ENDBRANCH   8  10
BRANCH   7  12
ATOM     12  C6  ZIN A   1      -1.700  -0.463   0.247  0.00  0.00     0.037 A 
ATOM     13  C11 ZIN A   1      -2.928   0.177   0.354  0.00  0.00     0.030 A 
ATOM     14  C10 ZIN A   1      -2.981   1.550   0.496  0.00  0.00     0.002 A 
ATOM     15  C9  ZIN A   1      -1.812   2.289   0.520  0.00  0.00     0.000 A 
ATOM     16  C8  ZIN A   1      -0.588   1.656   0.408  0.00  0.00     0.002 A 
ATOM     17  C7  ZIN A   1      -0.528   0.283   0.272  0.00  0.00     0.030 A 
ENDBRANCH   7  12
ENDBRANCH   1   7
BRANCH   4  18
ATOM     18  C16 ZIN A   1       3.901  -2.927   0.386  0.00  0.00     0.277 C 
BRANCH  18  19
ATOM     19  C17 ZIN A   1       4.463  -2.705   1.791  0.00  0.00     0.068 C 
BRANCH  19  20
ATOM     20  C18 ZIN A   1       5.871  -3.238   1.859  0.00  0.00    -0.057 A 
ATOM     21  C23 ZIN A   1       6.937  -2.414   1.553  0.00  0.00     0.007 A 
ATOM     22  C22 ZIN A   1       8.229  -2.902   1.619  0.00  0.00     0.001 A 
ATOM     23  C21 ZIN A   1       8.454  -4.216   1.983  0.00  0.00     0.000 A 
ATOM     24  C20 ZIN A   1       7.387  -5.042   2.284  0.00  0.00     0.001 A 
ATOM     25  C19 ZIN A   1       6.095  -4.553   2.222  0.00  0.00     0.007 A 
ENDBRANCH  19  20
ENDBRANCH  18  19
ENDBRANCH   4  18
TORSDOF 6
