REMARK  11 active torsions:
REMARK  status: ('A' for Active; 'I' for Inactive)
REMARK    1  A    between atoms: O2_2  and  C3_3 
REMARK    2  A    between atoms: C12_12  and  O13_13 
REMARK    3  A    between atoms: C17_17  and  O18_18 
REMARK    4  A    between atoms: C17_17  and  C19_19 
REMARK    5  A    between atoms: C19_19  and  C21_21 
REMARK    6  A    between atoms: C21_21  and  O22_22 
REMARK    7  A    between atoms: C24_24  and  O26_25 
REMARK    8  A    between atoms: O26_25  and  C27_26 
REMARK    9  A    between atoms: C30_28  and  N32_29 
REMARK   10  A    between atoms: C36_33  and  O38_34 
REMARK   11  A    between atoms: C43_38  and  O44_39 
ROOT
ATOM      1  C3  ZIN A   1      -0.726  -0.441   0.309  0.00  0.00     0.083 A 
ATOM      2  C4  ZIN A   1      -0.357   0.537  -0.610  0.00  0.00     0.038 A 
ATOM      3  C5  ZIN A   1       0.250   0.187  -1.798  0.00  0.00     0.004 A 
ATOM      4  C6  ZIN A   1       0.503  -1.143  -2.095  0.00  0.00     0.017 A 
ATOM      5  C7  ZIN A   1       0.145  -2.136  -1.191  0.00  0.00     0.032 A 
ATOM      6  C8  ZIN A   1      -0.470  -1.785   0.025  0.00  0.00     0.062 A 
ATOM      7  C9  ZIN A   1      -0.850  -2.841   0.985  0.00  0.00     0.200 C 
ATOM      8  O10 ZIN A   1      -1.596  -2.591   1.912  0.00  0.00    -0.286 OA
ATOM      9  C11 ZIN A   1      -0.313  -4.203   0.805  0.00  0.00     0.066 A 
ATOM     10  C12 ZIN A   1      -0.402  -5.146   1.825  0.00  0.00     0.090 A 
ATOM     11  C14 ZIN A   1       0.110  -6.439   1.644  0.00  0.00     0.014 A 
ATOM     12  C15 ZIN A   1       0.704  -6.784   0.457  0.00  0.00    -0.009 A 
ATOM     13  C16 ZIN A   1       1.265  -8.159   0.200  0.00  0.00     0.088 C 
ATOM     14  C17 ZIN A   1       1.478  -8.908   1.514  0.00  0.00     0.127 C 
ATOM     15  C23 ZIN A   1       0.177  -8.839   2.324  0.00  0.00     0.083 C 
ATOM     16  C24 ZIN A   1      -0.018  -7.401   2.797  0.00  0.00     0.164 C 
ATOM     17  C43 ZIN A   1       0.804  -5.845  -0.579  0.00  0.00     0.088 A 
ATOM     18  C45 ZIN A   1       0.302  -4.557  -0.414  0.00  0.00     0.066 A 
ATOM     19  C46 ZIN A   1       0.410  -3.560  -1.494  0.00  0.00     0.197 C 
ATOM     20  O47 ZIN A   1       0.710  -3.903  -2.621  0.00  0.00    -0.286 OA
ENDROOT
BRANCH  16  21
ATOM     21  O26 ZIN A   1      -1.317  -7.268   3.378  0.00  0.00    -0.351 OA
BRANCH  21  22
ATOM     22  C27 ZIN A   1      -1.338  -7.431   4.798  0.00  0.00     0.263 C 
ATOM     23  O42 ZIN A   1      -1.153  -8.811   5.122  0.00  0.00    -0.354 OA
ATOM     24  C39 ZIN A   1      -2.142  -9.678   4.562  0.00  0.00     0.151 C 
ATOM     25  C36 ZIN A   1      -3.522  -9.293   5.101  0.00  0.00     0.177 C 
ATOM     26  C41 ZIN A   1      -1.829 -11.125   4.949  0.00  0.00     0.042 C 
ATOM     27  C30 ZIN A   1      -3.802  -7.826   4.761  0.00  0.00     0.219 C 
ATOM     28  C29 ZIN A   1      -2.686  -6.955   5.346  0.00  0.00     0.096 C 
BRANCH  25  29
ATOM     29  O38 ZIN A   1      -4.519 -10.121   4.500  0.00  0.00    -0.391 OA
ATOM     30  H65 ZIN A   1      -4.403 -11.065   4.674  0.00  0.00     0.210 HD
ENDBRANCH  25  29
BRANCH  27  31
ATOM     31  N32 ZIN A   1      -5.092  -7.424   5.338  0.00  0.00    -0.072 N 
ATOM     32  H33 ZIN A   1      -5.271  -6.455   5.118  0.00  0.00     0.274 HD
ATOM     33  H34 ZIN A   1      -5.827  -7.998   4.952  0.00  0.00     0.274 HD
ATOM     34  H35 ZIN A   1      -5.064  -7.542   6.340  0.00  0.00     0.274 HD
ENDBRANCH  27  31
ENDBRANCH  21  22
ENDBRANCH  16  21
BRANCH  10  35
ATOM     35  O13 ZIN A   1      -0.989  -4.812   3.001  0.00  0.00    -0.359 OA
ATOM     36  H54 ZIN A   1      -1.951  -4.906   3.001  0.00  0.00     0.217 HD
ENDBRANCH  10  35
BRANCH  14  37
ATOM     37  O18 ZIN A   1       1.805 -10.272   1.243  0.00  0.00    -0.382 OA
ATOM     38  H57 ZIN A   1       2.608 -10.387   0.718  0.00  0.00     0.211 HD
ENDBRANCH  14  37
BRANCH  14  39
ATOM     39  C19 ZIN A   1       2.596  -8.262   2.291  0.00  0.00     0.184 C 
ATOM     40  O20 ZIN A   1       2.873  -7.102   2.100  0.00  0.00    -0.292 OA
BRANCH  39  41
ATOM     41  C21 ZIN A   1       3.369  -9.064   3.306  0.00  0.00     0.245 C 
BRANCH  41  42
ATOM     42  O22 ZIN A   1       4.369  -8.237   3.905  0.00  0.00    -0.393 OA
ATOM     43  H60 ZIN A   1       4.906  -8.689   4.570  0.00  0.00     0.209 HD
ENDBRANCH  41  42
ENDBRANCH  39  41
ENDBRANCH  14  39
BRANCH  17  44
ATOM     44  O44 ZIN A   1       1.395  -6.193  -1.749  0.00  0.00    -0.359 OA
ATOM     45  H69 ZIN A   1       0.785  -6.558  -2.404  0.00  0.00     0.217 HD
ENDBRANCH  17  44
BRANCH   1  46
ATOM     46  O2  ZIN A   1      -1.323  -0.092   1.475  0.00  0.00    -0.355 OA
ATOM     47  C1  ZIN A   1      -1.552   1.301   1.695  0.00  0.00     0.210 C 
ENDBRANCH   1  46
TORSDOF 11
