REMARK  20 active torsions:
REMARK  status: ('A' for Active; 'I' for Inactive)
REMARK    1  A    between atoms: C2_2  and  C4_4 
REMARK    2  A    between atoms: C4_4  and  N5_5 
REMARK    3  A    between atoms: N5_5  and  C6_6 
REMARK    4  A    between atoms: N5_5  and  C35_34 
REMARK    5  A    between atoms: C6_6  and  C7_7 
REMARK    6  A    between atoms: C7_7  and  N8_8 
REMARK    7  A    between atoms: N8_8  and  C10_10 
REMARK    8  A    between atoms: N8_8  and  C31_30 
REMARK    9  A    between atoms: C10_10  and  C11_11 
REMARK   10  A    between atoms: C11_11  and  N12_12 
REMARK   11  A    between atoms: N12_12  and  C13_13 
REMARK   12  A    between atoms: N12_12  and  C17_17 
REMARK   13  A    between atoms: C13_13  and  C14_14 
REMARK   14  A    between atoms: C17_17  and  C19_18 
REMARK   15  A    between atoms: C17_17  and  C28_27 
REMARK   16  A    between atoms: C19_18  and  O20_19 
REMARK   17  A    between atoms: O20_19  and  C21_20 
REMARK   18  A    between atoms: C21_20  and  C22_21 
REMARK   19  A    between atoms: C31_30  and  C32_31 
REMARK   20  A    between atoms: C35_34  and  C36_35 
ROOT
ATOM      1  C11 ZIN A   1      -7.228   3.380   4.856  0.00  0.00     0.302 C 
ENDROOT
BRANCH   1   2
ATOM      2  C10 ZIN A   1      -5.946   3.196   4.042  0.00  0.00     0.265 C 
BRANCH   2   3
ATOM      3  N8  ZIN A   1      -6.285   3.075   2.617  0.00  0.00    -0.058 N 
ATOM      4  H9  ZIN A   1      -6.952   2.329   2.492  0.00  0.00     0.280 HD
BRANCH   3   5
ATOM      5  C7  ZIN A   1      -5.069   2.780   1.848  0.00  0.00     0.265 C 
BRANCH   5   6
ATOM      6  C6  ZIN A   1      -4.535   1.402   2.247  0.00  0.00     0.301 C 
BRANCH   6   7
ATOM      7  N5  ZIN A   1      -3.392   1.054   1.393  0.00  0.00     0.110 N 
BRANCH   7   8
ATOM      8  C4  ZIN A   1      -3.812   0.875  -0.003  0.00  0.00     0.385 C 
BRANCH   8   9
ATOM      9  C2  ZIN A   1      -4.828  -0.236  -0.083  0.00  0.00     0.202 C 
ATOM     10  O1  ZIN A   1      -5.112  -0.875   0.916  0.00  0.00    -0.647 OA
ATOM     11  O3  ZIN A   1      -5.368  -0.493  -1.145  0.00  0.00    -0.647 OA
ENDBRANCH   8   9
ENDBRANCH   7   8
BRANCH   7  12
ATOM     12  C35 ZIN A   1      -2.707  -0.145   1.895  0.00  0.00     0.385 C 
BRANCH  12  13
ATOM     13  C36 ZIN A   1      -1.291  -0.168   1.378  0.00  0.00     0.202 C 
ATOM     14  O37 ZIN A   1      -0.905   0.704   0.619  0.00  0.00    -0.647 OA
ATOM     15  O38 ZIN A   1      -0.532  -1.059   1.719  0.00  0.00    -0.647 OA
ENDBRANCH  12  13
ENDBRANCH   7  12
ENDBRANCH   6   7
ENDBRANCH   5   6
ENDBRANCH   3   5
BRANCH   3  16
ATOM     16  C31 ZIN A   1      -6.868   4.338   2.144  0.00  0.00     0.347 C 
BRANCH  16  17
ATOM     17  C32 ZIN A   1      -7.364   4.164   0.732  0.00  0.00     0.199 C 
ATOM     18  O33 ZIN A   1      -7.264   3.082   0.180  0.00  0.00    -0.647 OA
ATOM     19  O34 ZIN A   1      -7.866   5.106   0.142  0.00  0.00    -0.647 OA
ENDBRANCH  16  17
ENDBRANCH   3  16
ENDBRANCH   2   3
ENDBRANCH   1   2
BRANCH   1  20
ATOM     20  N12 ZIN A   1      -6.890   3.500   6.281  0.00  0.00     0.117 N 
BRANCH  20  21
ATOM     21  C13 ZIN A   1      -6.131   4.731   6.540  0.00  0.00     0.386 C 
BRANCH  21  22
ATOM     22  C14 ZIN A   1      -5.463   4.635   7.887  0.00  0.00     0.202 C 
ATOM     23  O15 ZIN A   1      -5.515   3.595   8.521  0.00  0.00    -0.647 OA
ATOM     24  O16 ZIN A   1      -4.872   5.599   8.344  0.00  0.00    -0.647 OA
ENDBRANCH  21  22
ENDBRANCH  20  21
BRANCH  20  25
ATOM     25  C17 ZIN A   1      -8.097   3.440   7.116  0.00  0.00     0.346 C 
BRANCH  25  26
ATOM     26  C19 ZIN A   1      -9.152   4.396   6.556  0.00  0.00     0.215 C 
BRANCH  26  27
ATOM     27  O20 ZIN A   1      -9.601   3.919   5.286  0.00  0.00    -0.384 OA
BRANCH  27  28
ATOM     28  C21 ZIN A   1     -10.681   4.673   4.730  0.00  0.00     0.206 C 
BRANCH  28  29
ATOM     29  C22 ZIN A   1     -11.161   4.006   3.467  0.00  0.00    -0.035 A 
ATOM     30  C27 ZIN A   1     -12.072   2.968   3.536  0.00  0.00     0.009 A 
ATOM     31  C26 ZIN A   1     -12.516   2.360   2.377  0.00  0.00     0.001 A 
ATOM     32  C25 ZIN A   1     -12.042   2.782   1.149  0.00  0.00     0.000 A 
ATOM     33  C24 ZIN A   1     -11.127   3.816   1.080  0.00  0.00     0.001 A 
ATOM     34  C23 ZIN A   1     -10.687   4.428   2.239  0.00  0.00     0.009 A 
ENDBRANCH  28  29
ENDBRANCH  27  28
ENDBRANCH  26  27
ENDBRANCH  25  26
BRANCH  25  35
ATOM     35  C28 ZIN A   1      -8.641   2.034   7.113  0.00  0.00     0.209 C 
ATOM     36  O29 ZIN A   1      -9.437   1.687   7.968  0.00  0.00    -0.646 OA
ATOM     37  O30 ZIN A   1      -8.284   1.245   6.255  0.00  0.00    -0.646 OA
ENDBRANCH  25  35
ENDBRANCH  20  25
ENDBRANCH   1  20
TORSDOF 20
