REMARK  8 active torsions:
REMARK  status: ('A' for Active; 'I' for Inactive)
REMARK    1  A    between atoms: O2_2  and  C3_3 
REMARK    2  A    between atoms: C9_9  and  C10_10 
REMARK       I    between atoms: C10_10  and  N12_12 
REMARK    3  A    between atoms: N12_12  and  C13_13 
REMARK    4  A    between atoms: C13_13  and  C14_14 
REMARK    5  A    between atoms: C14_14  and  C15_15 
REMARK    6  A    between atoms: C18_18  and  S19_19 
REMARK    7  A    between atoms: S19_19  and  N22_22 
REMARK       I    between atoms: N22_22  and  C23_23 
REMARK       I    between atoms: C23_23  and  N25_25 
REMARK    8  A    between atoms: N25_25  and  C26_26 
ROOT
ATOM      1  C15 ZIN A   1       2.087  -7.266  -0.022  0.00  0.00    -0.057 A 
ATOM      2  C16 ZIN A   1       2.661  -7.635  -1.224  0.00  0.00     0.009 A 
ATOM      3  C17 ZIN A   1       3.827  -8.378  -1.235  0.00  0.00     0.026 A 
ATOM      4  C18 ZIN A   1       4.418  -8.753  -0.043  0.00  0.00     0.081 A 
ATOM      5  C32 ZIN A   1       3.845  -8.383   1.160  0.00  0.00     0.026 A 
ATOM      6  C33 ZIN A   1       2.681  -7.636   1.170  0.00  0.00     0.009 A 
ENDROOT
BRANCH   1   7
ATOM      7  C14 ZIN A   1       0.817  -6.455  -0.011  0.00  0.00     0.058 C 
BRANCH   7   8
ATOM      8  C13 ZIN A   1       1.163  -4.965  -0.016  0.00  0.00     0.127 C 
BRANCH   8   9
ATOM      9  N12 ZIN A   1      -0.072  -4.177  -0.005  0.00  0.00    -0.356 N 
ATOM     10  C10 ZIN A   1      -0.012  -2.830  -0.008  0.00  0.00     0.254 C 
ATOM     11  O11 ZIN A   1       1.067  -2.270  -0.019  0.00  0.00    -0.268 OA
ATOM     12  H40 ZIN A   1      -0.933  -4.624   0.003  0.00  0.00     0.162 HD
BRANCH  10  13
ATOM     13  C9  ZIN A   1      -1.256  -2.037   0.003  0.00  0.00     0.066 A 
ATOM     14  C3  ZIN A   1      -1.198  -0.636   0.010  0.00  0.00     0.084 A 
ATOM     15  C4  ZIN A   1      -2.373   0.100   0.019  0.00  0.00     0.039 A 
ATOM     16  C5  ZIN A   1      -3.594  -0.544   0.028  0.00  0.00     0.026 A 
ATOM     17  C6  ZIN A   1      -3.656  -1.929   0.026  0.00  0.00     0.035 A 
ATOM     18 Cl7  ZIN A   1      -5.199  -2.725   0.036  0.00  0.00    -0.084 Cl
ATOM     19  C8  ZIN A   1      -2.497  -2.677   0.016  0.00  0.00     0.043 A 
BRANCH  14  20
ATOM     20  O2  ZIN A   1       0.002  -0.004   0.002  0.00  0.00    -0.355 OA
ATOM     21  C1  ZIN A   1      -0.017   1.425   0.010  0.00  0.00     0.210 C 
ENDBRANCH  14  20
ENDBRANCH  10  13
ENDBRANCH   8   9
ENDBRANCH   7   8
ENDBRANCH   1   7
BRANCH   4  22
ATOM     22  S19 ZIN A   1       5.903  -9.701  -0.056  0.00  0.00     0.287 S 
ATOM     23  O20 ZIN A   1       5.570 -11.134  -0.056  0.00  0.00    -0.198 OA
ATOM     24  O21 ZIN A   1       6.681  -9.378  -1.262  0.00  0.00    -0.198 OA
BRANCH  22  25
ATOM     25  N22 ZIN A   1       6.710  -9.378   1.159  0.00  0.00    -0.102 NA
ATOM     26  C23 ZIN A   1       7.883  -9.982   1.360  0.00  0.00     0.353 C 
ATOM     27  O24 ZIN A   1       8.295 -10.796   0.553  0.00  0.00    -0.244 OA
ATOM     28  N25 ZIN A   1       8.612  -9.691   2.455  0.00  0.00    -0.336 N 
ATOM     29  H47 ZIN A   1       8.284  -9.042   3.098  0.00  0.00     0.164 HD
BRANCH  28  30
ATOM     30  C26 ZIN A   1       9.899 -10.354   2.676  0.00  0.00     0.086 C 
ATOM     31  C31 ZIN A   1      10.219 -10.362   4.173  0.00  0.00     0.025 C 
ATOM     32  C30 ZIN A   1      11.563 -11.055   4.403  0.00  0.00     0.002 C 
ATOM     33  C29 ZIN A   1      12.661 -10.299   3.652  0.00  0.00     0.000 C 
ATOM     34  C28 ZIN A   1      12.342 -10.290   2.156  0.00  0.00     0.002 C 
ATOM     35  C27 ZIN A   1      10.998  -9.598   1.925  0.00  0.00     0.025 C 
ENDBRANCH  28  30
ENDBRANCH  22  25
ENDBRANCH   4  22
TORSDOF 8
