REMARK  4 active torsions:
REMARK  status: ('A' for Active; 'I' for Inactive)
REMARK    1  A    between atoms: C3_3  and  N4_4 
REMARK    2  A    between atoms: N4_4  and  C7_7 
REMARK    3  A    between atoms: C7_7  and  C10_9 
REMARK    4  A    between atoms: C10_9  and  C11_10 
ROOT
ATOM      1  C1  <0> d   1       0.558  -1.523  -0.843  0.00  0.00     0.013 C 
ATOM      2  C2  <0> d   1       0.296  -0.393  -0.662  0.00  0.00    -0.090 C 
ATOM      3  C3  <0> d   1      -0.032   1.024  -0.436  0.00  0.00     0.327 C 
ENDROOT
BRANCH   3   4
ATOM      4  N4  <0> d   1       1.207   1.813  -0.393  0.00  0.00    -0.061 N 
ATOM      5  H5  <0> d   1       1.827   1.427   0.304  0.00  0.00     0.281 HD
ATOM      6  C6  <0> d   1       1.860   1.771  -1.708  0.00  0.00     0.271 C 
BRANCH   4   7
ATOM      7  C7  <0> d   1       0.889   3.205  -0.048  0.00  0.00     0.189 C 
ATOM      8  C9  <0> d   1       0.211   3.249   1.323  0.00  0.00     0.040 C 
BRANCH   7   9
ATOM      9  C10 <0> d   1       2.178   4.027  -0.006  0.00  0.00     0.071 C 
BRANCH   9  10
ATOM     10  C11 <0> d   1       1.842   5.477   0.230  0.00  0.00    -0.056 A 
ATOM     11  C16 <0> d   1       1.885   5.997   1.511  0.00  0.00     0.007 A 
ATOM     12  C15 <0> d   1       1.581   7.328   1.727  0.00  0.00     0.001 A 
ATOM     13  C14 <0> d   1       1.225   8.137   0.664  0.00  0.00     0.000 A 
ATOM     14  C13 <0> d   1       1.177   7.616  -0.616  0.00  0.00     0.001 A 
ATOM     15  C12 <0> d   1       1.485   6.286  -0.832  0.00  0.00     0.007 A 
ENDBRANCH   9  10
ENDBRANCH   7   9
ENDBRANCH   4   7
ENDBRANCH   3   4
TORSDOF 4
