REMARK  20 active torsions:
REMARK  status: ('A' for Active; 'I' for Inactive)
REMARK    1  A    between atoms: C2_2  and  O3_3 
REMARK    2  A    between atoms: O3_3  and  C4_4 
REMARK    3  A    between atoms: C7_7  and  C8_8 
REMARK    4  A    between atoms: C8_8  and  C9_9 
REMARK    5  A    between atoms: C9_9  and  C11_10 
REMARK    6  A    between atoms: C9_9  and  N29_28 
REMARK    7  A    between atoms: C11_10  and  N12_11 
REMARK    8  A    between atoms: N12_11  and  C14_13 
REMARK    9  A    between atoms: N12_11  and  C25_24 
REMARK   10  A    between atoms: C14_13  and  C15_14 
REMARK   11  A    between atoms: C15_14  and  N16_15 
REMARK   12  A    between atoms: N16_15  and  C17_16 
REMARK   13  A    between atoms: N16_15  and  C21_20 
REMARK   14  A    between atoms: C17_16  and  C18_17 
REMARK   15  A    between atoms: C21_20  and  C22_21 
REMARK   16  A    between atoms: C25_24  and  C26_25 
REMARK   17  A    between atoms: N29_28  and  C30_29 
REMARK   18  A    between atoms: N29_28  and  C34_33 
REMARK   19  A    between atoms: C30_29  and  C31_30 
REMARK   20  A    between atoms: C34_33  and  C35_34 
ROOT
ATOM      1  C9  ZIN A   1      -0.708  -6.211  -2.112  0.00  0.00     0.254 C 
ENDROOT
BRANCH   1   2
ATOM      2  C8  ZIN A   1      -0.316  -5.579  -0.775  0.00  0.00     0.076 C 
BRANCH   2   3
ATOM      3  C7  ZIN A   1      -0.856  -4.173  -0.706  0.00  0.00    -0.056 A 
ATOM      4  C6  ZIN A   1      -2.069  -3.930  -0.089  0.00  0.00     0.010 A 
ATOM      5  C5  ZIN A   1      -2.567  -2.643  -0.024  0.00  0.00     0.037 A 
ATOM      6  C4  ZIN A   1      -1.848  -1.594  -0.579  0.00  0.00     0.068 A 
ATOM      7  C39 ZIN A   1      -0.634  -1.842  -1.202  0.00  0.00     0.037 A 
ATOM      8  C38 ZIN A   1      -0.138  -3.130  -1.260  0.00  0.00     0.010 A 
BRANCH   6   9
ATOM      9  O3  ZIN A   1      -2.335  -0.327  -0.517  0.00  0.00    -0.352 OA
BRANCH   9  10
ATOM     10  C2  ZIN A   1      -3.591  -0.147   0.140  0.00  0.00     0.171 C 
ATOM     11  C1  ZIN A   1      -3.974   1.334   0.111  0.00  0.00     0.034 C 
ENDBRANCH   9  10
ENDBRANCH   6   9
ENDBRANCH   2   3
ENDBRANCH   1   2
BRANCH   1  12
ATOM     12  C11 ZIN A   1      -0.043  -7.583  -2.241  0.00  0.00     0.271 C 
BRANCH  12  13
ATOM     13  N12 ZIN A   1      -0.379  -8.168  -3.546  0.00  0.00    -0.058 N 
ATOM     14  H13 ZIN A   1      -1.381  -8.182  -3.661  0.00  0.00     0.280 HD
BRANCH  13  15
ATOM     15  C14 ZIN A   1       0.141  -9.540  -3.616  0.00  0.00     0.265 C 
BRANCH  15  16
ATOM     16  C15 ZIN A   1      -0.355 -10.209  -4.899  0.00  0.00     0.301 C 
BRANCH  16  17
ATOM     17  N16 ZIN A   1       0.063 -11.617  -4.911  0.00  0.00     0.110 N 
BRANCH  17  18
ATOM     18  C17 ZIN A   1      -0.603 -12.373  -3.842  0.00  0.00     0.385 C 
BRANCH  18  19
ATOM     19  C18 ZIN A   1      -2.096 -12.299  -4.030  0.00  0.00     0.202 C 
ATOM     20  O19 ZIN A   1      -2.561 -11.729  -5.003  0.00  0.00    -0.647 OA
ATOM     21  O20 ZIN A   1      -2.841 -12.809  -3.210  0.00  0.00    -0.647 OA
ENDBRANCH  18  19
ENDBRANCH  17  18
BRANCH  17  22
ATOM     22  C21 ZIN A   1      -0.185 -12.230  -6.223  0.00  0.00     0.385 C 
BRANCH  22  23
ATOM     23  C22 ZIN A   1       0.523 -13.558  -6.299  0.00  0.00     0.202 C 
ATOM     24  O23 ZIN A   1       1.268 -13.904  -5.399  0.00  0.00    -0.647 OA
ATOM     25  O24 ZIN A   1       0.351 -14.286  -7.262  0.00  0.00    -0.647 OA
ENDBRANCH  22  23
ENDBRANCH  17  22
ENDBRANCH  16  17
ENDBRANCH  15  16
ENDBRANCH  13  15
BRANCH  13  26
ATOM     26  C25 ZIN A   1       0.225  -7.361  -4.615  0.00  0.00     0.347 C 
BRANCH  26  27
ATOM     27  C26 ZIN A   1       1.722  -7.341  -4.445  0.00  0.00     0.199 C 
ATOM     28  O27 ZIN A   1       2.241  -7.978  -3.544  0.00  0.00    -0.647 OA
ATOM     29  O28 ZIN A   1       2.414  -6.690  -5.208  0.00  0.00    -0.647 OA
ENDBRANCH  26  27
ENDBRANCH  13  26
ENDBRANCH  12  13
ENDBRANCH   1  12
BRANCH   1  30
ATOM     30  N29 ZIN A   1      -2.167  -6.365  -2.171  0.00  0.00     0.115 N 
BRANCH  30  31
ATOM     31  C30 ZIN A   1      -2.690  -6.912  -0.912  0.00  0.00     0.386 C 
BRANCH  31  32
ATOM     32  C31 ZIN A   1      -2.575  -8.415  -0.931  0.00  0.00     0.202 C 
ATOM     33  O32 ZIN A   1      -2.226  -8.987  -1.949  0.00  0.00    -0.647 OA
ATOM     34  O33 ZIN A   1      -2.832  -9.059   0.072  0.00  0.00    -0.647 OA
ENDBRANCH  31  32
ENDBRANCH  30  31
BRANCH  30  35
ATOM     35  C34 ZIN A   1      -2.819  -5.091  -2.502  0.00  0.00     0.386 C 
BRANCH  35  36
ATOM     36  C35 ZIN A   1      -2.695  -4.833  -3.982  0.00  0.00     0.202 C 
ATOM     37  O36 ZIN A   1      -2.223  -5.688  -4.712  0.00  0.00    -0.647 OA
ATOM     38  O37 ZIN A   1      -3.066  -3.770  -4.449  0.00  0.00    -0.647 OA
ENDBRANCH  35  36
ENDBRANCH  30  35
ENDBRANCH   1  30
TORSDOF 20
