REMARK  9 active torsions:
REMARK  status: ('A' for Active; 'I' for Inactive)
REMARK    1  A    between atoms: C2_2  and  O4_3 
REMARK    2  A    between atoms: C2_2  and  C5_4 
REMARK    3  A    between atoms: C5_4  and  N6_5 
REMARK    4  A    between atoms: N9_8  and  C11_10 
REMARK    5  A    between atoms: C11_10  and  C12_11 
REMARK    6  A    between atoms: N17_16  and  C18_17 
REMARK    7  A    between atoms: C18_17  and  C19_18 
REMARK    8  A    between atoms: N24_23  and  C26_25 
REMARK    9  A    between atoms: C26_25  and  C27_26 
ROOT
ATOM      1  N6  ZIN A   1       0.812  -2.306  -1.465  0.00  0.00     0.094 N 
ATOM      2  C7  ZIN A   1      -0.616  -2.620  -1.744  0.00  0.00     0.300 C 
ATOM      3  C8  ZIN A   1      -1.153  -1.798  -2.903  0.00  0.00     0.265 C 
ATOM      4  N9  ZIN A   1      -1.697  -2.670  -3.960  0.00  0.00    -0.058 N 
ATOM      5  H10 ZIN A   1      -1.037  -3.393  -4.167  0.00  0.00     0.280 HD
ATOM      6  C15 ZIN A   1      -1.948  -1.849  -5.160  0.00  0.00     0.265 C 
ATOM      7  C16 ZIN A   1      -1.432  -2.545  -6.408  0.00  0.00     0.300 C 
ATOM      8  N17 ZIN A   1      -0.073  -2.029  -6.789  0.00  0.00     0.101 N 
ATOM      9  C22 ZIN A   1       0.665  -1.879  -5.492  0.00  0.00     0.300 C 
ATOM     10  C23 ZIN A   1       2.148  -1.683  -5.786  0.00  0.00     0.265 C 
ATOM     11  N24 ZIN A   1       2.961  -1.973  -4.604  0.00  0.00    -0.058 N 
ATOM     12  H25 ZIN A   1       3.821  -1.418  -4.679  0.00  0.00     0.280 HD
ATOM     13  C30 ZIN A   1       2.283  -1.569  -3.365  0.00  0.00     0.265 C 
ATOM     14  C31 ZIN A   1       1.595  -2.718  -2.655  0.00  0.00     0.300 C 
ENDROOT
BRANCH   1  15
ATOM     15  C5  ZIN A   1       0.933  -0.852  -1.214  0.00  0.00     0.303 C 
BRANCH  15  16
ATOM     16  C2  ZIN A   1       0.323  -0.517   0.149  0.00  0.00     0.142 C 
ATOM     17  C1  ZIN A   1       0.335   0.999   0.354  0.00  0.00     0.041 C 
BRANCH  16  18
ATOM     18  O4  ZIN A   1       1.089  -1.143   1.180  0.00  0.00    -0.394 OA
ATOM     19  H35 ZIN A   1       2.015  -0.866   1.206  0.00  0.00     0.210 HD
ENDBRANCH  16  18
ENDBRANCH  15  16
ENDBRANCH   1  15
BRANCH  11  20
ATOM     20  C26 ZIN A   1       3.350  -3.386  -4.592  0.00  0.00     0.347 C 
BRANCH  20  21
ATOM     21  C27 ZIN A   1       4.253  -3.669  -5.765  0.00  0.00     0.199 C 
ATOM     22  O28 ZIN A   1       4.544  -2.774  -6.539  0.00  0.00    -0.647 OA
ATOM     23  O29 ZIN A   1       4.691  -4.793  -5.940  0.00  0.00    -0.647 OA
ENDBRANCH  20  21
ENDBRANCH  11  20
BRANCH   4  24
ATOM     24  C11 ZIN A   1      -2.972  -3.249  -3.512  0.00  0.00     0.347 C 
BRANCH  24  25
ATOM     25  C12 ZIN A   1      -3.432  -4.282  -4.509  0.00  0.00     0.199 C 
ATOM     26  O13 ZIN A   1      -2.702  -4.608  -5.430  0.00  0.00    -0.647 OA
ATOM     27  O14 ZIN A   1      -4.533  -4.793  -4.394  0.00  0.00    -0.647 OA
ENDBRANCH  24  25
ENDBRANCH   4  24
BRANCH   8  28
ATOM     28  C18 ZIN A   1      -0.318  -0.617  -7.257  0.00  0.00     0.385 C 
BRANCH  28  29
ATOM     29  C19 ZIN A   1       0.935  -0.075  -7.896  0.00  0.00     0.202 C 
ATOM     30  O20 ZIN A   1       1.933  -0.771  -7.966  0.00  0.00    -0.647 OA
ATOM     31  O21 ZIN A   1       0.950   1.058  -8.344  0.00  0.00    -0.647 OA
ENDBRANCH  28  29
ENDBRANCH   8  28
TORSDOF 9
