REMARK  8 active torsions:
REMARK  status: ('A' for Active; 'I' for Inactive)
REMARK    1  A    between atoms: C2_2  and  C3_3 
REMARK    2  A    between atoms: C3_3  and  C4_4 
REMARK    3  A    between atoms: C12_12  and  C13_13 
REMARK    4  A    between atoms: C15_15  and  S16_16 
REMARK    5  A    between atoms: S16_16  and  N19_19 
REMARK    6  A    between atoms: N22_22  and  C23_23 
REMARK    7  A    between atoms: C29_29  and  O30_30 
REMARK    8  A    between atoms: O30_30  and  C31_31 
ROOT
ATOM      1  C13 ZIN A   1      -3.390  -3.201  -3.643  0.00  0.00     0.046 A 
ATOM      2  C14 ZIN A   1      -4.209  -4.227  -4.117  0.00  0.00     0.043 A 
ATOM      3  C15 ZIN A   1      -5.378  -3.921  -4.783  0.00  0.00     0.080 A 
ATOM      4  C27 ZIN A   1      -5.744  -2.602  -4.981  0.00  0.00     0.028 A 
ATOM      5  C28 ZIN A   1      -4.942  -1.577  -4.516  0.00  0.00     0.039 A 
ATOM      6  C29 ZIN A   1      -3.767  -1.866  -3.841  0.00  0.00     0.083 A 
ENDROOT
BRANCH   1   7
ATOM      7  C12 ZIN A   1      -2.137  -3.521  -2.930  0.00  0.00     0.164 A 
ATOM      8  N11 ZIN A   1      -1.794  -4.846  -2.751  0.00  0.00    -0.304 N 
ATOM      9  C9  ZIN A   1      -0.654  -5.178  -2.103  0.00  0.00     0.278 A 
ATOM     10  H45 ZIN A   1      -2.374  -5.544  -3.092  0.00  0.00     0.171 HD
ATOM     11  C8  ZIN A   1       0.196  -4.098  -1.603  0.00  0.00     0.152 A 
ATOM     12  O10 ZIN A   1      -0.344  -6.344  -1.941  0.00  0.00    -0.265 OA
ATOM     13  C6  ZIN A   1       1.387  -4.041  -0.921  0.00  0.00     0.067 A 
ATOM     14  N34 ZIN A   1      -0.204  -2.789  -1.808  0.00  0.00    -0.210 N 
ATOM     15  N5  ZIN A   1       1.679  -2.753  -0.738  0.00  0.00    -0.236 NA
ATOM     16  C7  ZIN A   1       2.211  -5.217  -0.465  0.00  0.00     0.073 C 
ATOM     17  C4  ZIN A   1       0.739  -2.004  -1.265  0.00  0.00     0.128 A 
ATOM     18  N33 ZIN A   1      -1.397  -2.543  -2.493  0.00  0.00    -0.146 NA
BRANCH  17  19
ATOM     19  C3  ZIN A   1       0.718  -0.497  -1.257  0.00  0.00     0.080 C 
BRANCH  19  20
ATOM     20  C2  ZIN A   1       0.002  -0.004   0.002  0.00  0.00     0.003 C 
ATOM     21  C1  ZIN A   1      -0.019   1.526   0.010  0.00  0.00     0.005 C 
ENDBRANCH  19  20
ENDBRANCH  17  19
ENDBRANCH   1   7
BRANCH   6  22
ATOM     22  O30 ZIN A   1      -2.978  -0.861  -3.383  0.00  0.00    -0.351 OA
BRANCH  22  23
ATOM     23  C31 ZIN A   1      -3.420   0.475  -3.632  0.00  0.00     0.171 C 
ATOM     24  C32 ZIN A   1      -2.410   1.464  -3.047  0.00  0.00     0.034 C 
ENDBRANCH  22  23
ENDBRANCH   6  22
BRANCH   3  25
ATOM     25  S16 ZIN A   1      -6.410  -5.218  -5.382  0.00  0.00     0.261 S 
ATOM     26  O17 ZIN A   1      -7.177  -4.663  -6.442  0.00  0.00    -0.200 OA
ATOM     27  O18 ZIN A   1      -5.574  -6.356  -5.540  0.00  0.00    -0.200 OA
BRANCH  25  28
ATOM     28  N19 ZIN A   1      -7.482  -5.589  -4.175  0.00  0.00    -0.303 N 
ATOM     29  C26 ZIN A   1      -8.779  -4.903  -4.080  0.00  0.00     0.165 C 
ATOM     30  C25 ZIN A   1      -8.953  -4.375  -2.657  0.00  0.00     0.293 C 
ATOM     31  N22 ZIN A   1      -8.759  -5.473  -1.701  0.00  0.00     0.091 N 
ATOM     32  C21 ZIN A   1      -7.394  -6.009  -1.775  0.00  0.00     0.293 C 
ATOM     33  C20 ZIN A   1      -7.158  -6.609  -3.165  0.00  0.00     0.165 C 
BRANCH  31  34
ATOM     34  C23 ZIN A   1      -9.084  -5.045  -0.334  0.00  0.00     0.268 C 
ATOM     35  C24 ZIN A   1     -10.578  -4.729  -0.239  0.00  0.00     0.037 C 
ENDBRANCH  31  34
ENDBRANCH  25  28
ENDBRANCH   3  25
TORSDOF 8
