REMARK  22 active torsions:
REMARK  status: ('A' for Active; 'I' for Inactive)
REMARK    1  A    between atoms: O2_2  and  C3_3 
REMARK    2  A    between atoms: C3_3  and  C4_4 
REMARK    3  A    between atoms: C4_4  and  N5_5 
REMARK       I    between atoms: N5_5  and  C6_6 
REMARK    4  A    between atoms: C6_6  and  C8_8 
REMARK    5  A    between atoms: C8_8  and  N9_9 
REMARK    6  A    between atoms: N9_9  and  C10_10 
REMARK    7  A    between atoms: N9_9  and  C33_33 
REMARK    8  A    between atoms: C10_10  and  C11_11 
REMARK    9  A    between atoms: C11_11  and  N12_12 
REMARK   10  A    between atoms: N12_12  and  C14_14 
REMARK   11  A    between atoms: N12_12  and  C29_29 
REMARK   12  A    between atoms: C14_14  and  C15_15 
REMARK   13  A    between atoms: C15_15  and  N16_16 
REMARK   14  A    between atoms: N16_16  and  C17_17 
REMARK   15  A    between atoms: N16_16  and  C21_21 
REMARK   16  A    between atoms: C17_17  and  C18_18 
REMARK   17  A    between atoms: C21_21  and  C22_22 
REMARK       I    between atoms: C22_22  and  N24_24 
REMARK   18  A    between atoms: N24_24  and  C25_25 
REMARK   19  A    between atoms: C25_25  and  C26_26 
REMARK   20  A    between atoms: C26_26  and  O27_27 
REMARK   21  A    between atoms: C29_29  and  C30_30 
REMARK   22  A    between atoms: C33_33  and  C34_34 
ROOT
ATOM      1  N12 ZIN A   1      -4.791  -8.873  -1.397  0.00  0.00    -0.058 N 
ATOM      2  H13 ZIN A   1      -5.206  -8.774  -2.312  0.00  0.00     0.280 HD
ENDROOT
BRANCH   1   3
ATOM      3  C11 ZIN A   1      -3.409  -8.375  -1.429  0.00  0.00     0.265 C 
BRANCH   3   4
ATOM      4  C10 ZIN A   1      -2.645  -9.064  -2.562  0.00  0.00     0.301 C 
BRANCH   4   5
ATOM      5  N9  ZIN A   1      -1.246  -8.618  -2.550  0.00  0.00     0.108 N 
BRANCH   5   6
ATOM      6  C8  ZIN A   1      -1.121  -7.261  -3.099  0.00  0.00     0.375 C 
BRANCH   6   7
ATOM      7  C6  ZIN A   1       0.272  -6.744  -2.848  0.00  0.00     0.246 C 
ATOM      8  N5  ZIN A   1       0.618  -5.510  -3.267  0.00  0.00    -0.358 N 
ATOM      9  H44 ZIN A   1      -0.029  -4.956  -3.730  0.00  0.00     0.162 HD
ATOM     10  O7  ZIN A   1       1.081  -7.437  -2.270  0.00  0.00    -0.272 OA
BRANCH   8  11
ATOM     11  C4  ZIN A   1       1.973  -5.008  -3.024  0.00  0.00     0.148 C 
BRANCH  11  12
ATOM     12  C3  ZIN A   1       2.102  -3.594  -3.595  0.00  0.00     0.186 C 
BRANCH  12  13
ATOM     13  O2  ZIN A   1       1.236  -2.710  -2.880  0.00  0.00    -0.394 OA
ATOM     14  C1  ZIN A   1       1.281  -1.357  -3.337  0.00  0.00     0.201 C 
ENDBRANCH  12  13
ENDBRANCH  11  12
ENDBRANCH   8  11
ENDBRANCH   6   7
ENDBRANCH   5   6
BRANCH   5  15
ATOM     15  C33 ZIN A   1      -0.387  -9.561  -3.279  0.00  0.00     0.385 C 
BRANCH  15  16
ATOM     16  C34 ZIN A   1      -0.223 -10.821  -2.468  0.00  0.00     0.202 C 
ATOM     17  O35 ZIN A   1      -0.767 -10.921  -1.381  0.00  0.00    -0.647 OA
ATOM     18  O36 ZIN A   1       0.453 -11.739  -2.898  0.00  0.00    -0.647 OA
ENDBRANCH  15  16
ENDBRANCH   5  15
ENDBRANCH   4   5
ENDBRANCH   3   4
ENDBRANCH   1   3
BRANCH   1  19
ATOM     19  C14 ZIN A   1      -4.792 -10.290  -1.010  0.00  0.00     0.265 C 
BRANCH  19  20
ATOM     20  C15 ZIN A   1      -6.216 -10.842  -1.097  0.00  0.00     0.301 C 
BRANCH  20  21
ATOM     21  N16 ZIN A   1      -6.217 -12.259  -0.710  0.00  0.00     0.108 N 
BRANCH  21  22
ATOM     22  C17 ZIN A   1      -5.867 -12.418   0.708  0.00  0.00     0.385 C 
BRANCH  22  23
ATOM     23  C18 ZIN A   1      -6.879 -11.695   1.559  0.00  0.00     0.202 C 
ATOM     24  O19 ZIN A   1      -7.849 -11.170   1.040  0.00  0.00    -0.647 OA
ATOM     25  O20 ZIN A   1      -6.727 -11.634   2.767  0.00  0.00    -0.647 OA
ENDBRANCH  22  23
ENDBRANCH  21  22
BRANCH  21  26
ATOM     26  C21 ZIN A   1      -7.513 -12.884  -1.006  0.00  0.00     0.375 C 
BRANCH  26  27
ATOM     27  C22 ZIN A   1      -7.359 -14.383  -1.006  0.00  0.00     0.246 C 
ATOM     28  O23 ZIN A   1      -6.274 -14.881  -0.795  0.00  0.00    -0.272 OA
ATOM     29  N24 ZIN A   1      -8.428 -15.171  -1.240  0.00  0.00    -0.358 N 
ATOM     30  H59 ZIN A   1      -9.296 -14.773  -1.409  0.00  0.00     0.162 HD
BRANCH  29  31
ATOM     31  C25 ZIN A   1      -8.278 -16.628  -1.240  0.00  0.00     0.148 C 
BRANCH  31  32
ATOM     32  C26 ZIN A   1      -9.631 -17.280  -1.530  0.00  0.00     0.186 C 
BRANCH  32  33
ATOM     33  O27 ZIN A   1     -10.049 -16.943  -2.854  0.00  0.00    -0.394 OA
ATOM     34  C28 ZIN A   1     -11.309 -17.505  -3.228  0.00  0.00     0.201 C 
ENDBRANCH  32  33
ENDBRANCH  31  32
ENDBRANCH  29  31
ENDBRANCH  26  27
ENDBRANCH  21  26
ENDBRANCH  20  21
ENDBRANCH  19  20
ENDBRANCH   1  19
BRANCH   1  35
ATOM     35  C29 ZIN A   1      -5.568  -8.098  -0.420  0.00  0.00     0.347 C 
BRANCH  35  36
ATOM     36  C30 ZIN A   1      -5.706  -6.677  -0.902  0.00  0.00     0.199 C 
ATOM     37  O31 ZIN A   1      -5.304  -6.367  -2.011  0.00  0.00    -0.647 OA
ATOM     38  O32 ZIN A   1      -6.220  -5.837  -0.183  0.00  0.00    -0.647 OA
ENDBRANCH  35  36
ENDBRANCH   1  35
TORSDOF 22
