REMARK  3 active torsions:
REMARK  status: ('A' for Active; 'I' for Inactive)
REMARK    1  A    between atoms: P2_2  and  O5_5 
REMARK    2  A    between atoms: O5_5  and  P6_6 
REMARK    3  A    between atoms: P6_6  and  O9_9 
ROOT
ATOM      1  O5  ZIN A   1      -0.773   2.082   1.335  0.00  0.00    -0.173 OA
ENDROOT
BRANCH   1   2
ATOM      2  P2  ZIN A   1      -0.019   1.562   0.011  0.00  0.00     0.431 P 
ATOM      3  O1  ZIN A   1       0.002  -0.004   0.002  0.00  0.00    -0.616 OA
ATOM      4  O3  ZIN A   1       1.451   2.105  -0.001  0.00  0.00    -0.616 OA
ATOM      5  O4  ZIN A   1      -0.777   2.081  -1.259  0.00  0.00    -0.616 OA
ENDBRANCH   1   2
BRANCH   1   6
ATOM      6  P6  ZIN A   1      -0.712   3.440   2.197  0.00  0.00     0.416 P 
ATOM      7  O7  ZIN A   1      -0.731   4.656   1.244  0.00  0.00    -0.624 OA
ATOM      8  O8  ZIN A   1       0.588   3.462   3.033  0.00  0.00    -0.624 OA
BRANCH   6   9
ATOM      9  O9  ZIN A   1      -1.984   3.510   3.181  0.00  0.00    -0.300 OA
ATOM     10  H10 ZIN A   1      -2.012   4.304   3.732  0.00  0.00     0.223 HD
ENDBRANCH   6   9
ENDBRANCH   1   6
TORSDOF 3
