REMARK  4 active torsions:
REMARK  status: ('A' for Active; 'I' for Inactive)
REMARK    1  A    between atoms: O2_2  and  C3_3 
REMARK    2  A    between atoms: C8_8  and  O9_9 
REMARK    3  A    between atoms: C16_15  and  C18_16 
REMARK    4  A    between atoms: C18_16  and  C19_17 
ROOT
ATOM      1  C3  ZIN A   1       0.606  -0.608  -1.056  0.00  0.00     0.102 A 
ATOM      2  C4  ZIN A   1       1.173   0.156  -2.062  0.00  0.00     0.047 A 
ATOM      3  C5  ZIN A   1       1.790  -0.456  -3.143  0.00  0.00    -0.045 A 
ATOM      4  C6  ZIN A   1       1.845  -1.831  -3.220  0.00  0.00    -0.015 A 
ATOM      5  C7  ZIN A   1       1.276  -2.600  -2.214  0.00  0.00     0.049 A 
ATOM      6  C8  ZIN A   1       0.663  -1.996  -1.131  0.00  0.00     0.102 A 
ATOM      7  C11 ZIN A   1       2.510  -2.540  -4.369  0.00  0.00     0.263 C 
ATOM      8  C13 ZIN A   1       1.627  -3.712  -4.816  0.00  0.00     0.119 C 
ATOM      9  C14 ZIN A   1       2.257  -4.340  -6.041  0.00  0.00     0.135 C 
ATOM     10  O15 ZIN A   1       2.421  -5.534  -6.116  0.00  0.00    -0.297 OA
ATOM     11  C16 ZIN A   1       2.674  -3.420  -7.169  0.00  0.00     0.084 C 
ATOM     12  C22 ZIN A   1       3.492  -2.270  -6.572  0.00  0.00     0.285 C 
ATOM     13  N23 ZIN A   1       2.705  -1.634  -5.503  0.00  0.00     0.099 N 
ATOM     14  C24 ZIN A   1       3.352  -0.395  -5.048  0.00  0.00     0.278 C 
ATOM     15  C25 ZIN A   1       2.389   0.418  -4.216  0.00  0.00     0.069 C 
ENDROOT
BRANCH  11  16
ATOM     16  C18 ZIN A   1       1.431  -2.863  -7.867  0.00  0.00     0.018 C 
BRANCH  16  17
ATOM     17  C19 ZIN A   1       0.669  -4.006  -8.541  0.00  0.00    -0.022 C 
ATOM     18  C20 ZIN A   1      -0.637  -3.470  -9.131  0.00  0.00     0.009 C 
ATOM     19  C21 ZIN A   1       1.527  -4.602  -9.658  0.00  0.00     0.009 C 
ENDBRANCH  16  17
ENDBRANCH  11  16
BRANCH   6  20
ATOM     20  O9  ZIN A   1       0.108  -2.756  -0.149  0.00  0.00    -0.353 OA
ATOM     21  C10 ZIN A   1       0.194  -4.175  -0.300  0.00  0.00     0.210 C 
ENDBRANCH   6  20
BRANCH   1  22
ATOM     22  O2  ZIN A   1       0.002  -0.004   0.002  0.00  0.00    -0.353 OA
ATOM     23  C1  ZIN A   1      -0.017   1.425   0.010  0.00  0.00     0.210 C 
ENDBRANCH   1  22
TORSDOF 4
