REMARK  6 active torsions:
REMARK  status: ('A' for Active; 'I' for Inactive)
REMARK    1  A    between atoms: C3_3  and  C4_4 
REMARK    2  A    between atoms: C4_4  and  O5_5 
REMARK    3  A    between atoms: O5_5  and  C6_6 
REMARK    4  A    between atoms: C6_6  and  C8_7 
REMARK    5  A    between atoms: C6_6  and  C14_13 
REMARK    6  A    between atoms: C8_7  and  N9_8 
ROOT
ATOM      1  C6  <0> d   1      -4.830   2.498   0.088  0.00  0.00     0.174 C 
ENDROOT
BRANCH   1   2
ATOM      2  O5  <0> d   1      -3.474   2.951   0.070  0.00  0.00    -0.375 OA
BRANCH   2   3
ATOM      3  C4  <0> d   1      -2.509   1.897   0.050  0.00  0.00     0.209 C 
BRANCH   3   4
ATOM      4  C3  <0> d   1      -1.123   2.486   0.032  0.00  0.00    -0.005 A 
ATOM      5  C2  <0> d   1      -0.021   1.732   0.012  0.00  0.00     0.083 A 
ATOM      6 Cl1  <0> d   1       0.002  -0.004   0.002  0.00  0.00    -0.076 Cl
ATOM      7  S24 <0> d   1       1.402   2.765   0.004  0.00  0.00    -0.089 SA
ATOM      8  C23 <0> d   1       0.393   4.206   0.019  0.00  0.00     0.052 A 
ATOM      9  C22 <0> d   1      -0.893   3.852   0.036  0.00  0.00     0.019 A 
ENDBRANCH   3   4
ENDBRANCH   2   3
ENDBRANCH   1   2
BRANCH   1  10
ATOM     10  C8  <0> d   1      -5.292   2.328   1.536  0.00  0.00     0.166 C 
BRANCH  10  11
ATOM     11  N9  <0> d   1      -4.517   1.260   2.174  0.00  0.00    -0.347 N 
ATOM     12  C13 <0> d   1      -3.353   1.404   2.843  0.00  0.00     0.209 A 
ATOM     13  N12 <0> d   1      -2.968   0.232   3.269  0.00  0.00    -0.255 NA
ATOM     14  C11 <0> d   1      -3.858  -0.694   2.883  0.00  0.00     0.135 A 
ATOM     15  C10 <0> d   1      -4.835  -0.071   2.197  0.00  0.00     0.111 A 
ENDBRANCH  10  11
ENDBRANCH   1  10
BRANCH   1  16
ATOM     16  C14 <0> d   1      -5.707   3.510  -0.604  0.00  0.00    -0.006 A 
ATOM     17  C20 <0> d   1      -6.905   3.113  -1.172  0.00  0.00     0.044 A 
ATOM     18  C19 <0> d   1      -7.712   4.043  -1.802  0.00  0.00     0.048 A 
ATOM     19 Cl21 <0> d   1      -7.400   1.452  -1.083  0.00  0.00    -0.084 Cl
ATOM     20  C17 <0> d   1      -7.316   5.367  -1.873  0.00  0.00     0.035 A 
ATOM     21  C16 <0> d   1      -6.116   5.761  -1.309  0.00  0.00     0.024 A 
ATOM     22 Cl18 <0> d   1      -8.326   6.533  -2.669  0.00  0.00    -0.084 Cl
ATOM     23  C15 <0> d   1      -5.312   4.832  -0.675  0.00  0.00     0.013 A 
ENDBRANCH   1  16
TORSDOF 6
