REMARK  7 active torsions:
REMARK  status: ('A' for Active; 'I' for Inactive)
REMARK    1  A    between atoms: N1_1  and  C2_2 
REMARK    2  A    between atoms: C2_2  and  C3_3 
REMARK    3  A    between atoms: C2_2  and  C5_5 
REMARK    4  A    between atoms: C2_2  and  C7_7 
REMARK    5  A    between atoms: C3_3  and  O4_4 
REMARK    6  A    between atoms: C5_5  and  O6_6 
REMARK    7  A    between atoms: C7_7  and  O8_8 
ROOT
ATOM      1  C2  RES d   1       0.002  -0.004   0.002  0.00  0.00     0.217 C 
ENDROOT
BRANCH   1   2
ATOM      2  N1  RES d   1      -0.018   1.465   0.010  0.00  0.00     0.094 N 
ATOM      3  H9  RES d   1       0.919   1.839   0.003  0.00  0.00     0.314 HD
ATOM      4  H10 RES d   1      -0.556   1.823  -0.764  0.00  0.00     0.314 HD
ENDBRANCH   1   2
BRANCH   1   5
ATOM      5  C3  RES d   1       0.826  -0.509   1.188  0.00  0.00     0.210 C 
BRANCH   5   6
ATOM      6  O4  RES d   1       0.845  -1.938   1.180  0.00  0.00    -0.398 OA
ATOM      7  H13 RES d   1       1.351  -2.329   1.906  0.00  0.00     0.209 HD
ENDBRANCH   5   6
ENDBRANCH   1   5
BRANCH   1   8
ATOM      8  C5  RES d   1      -1.429  -0.534   0.112  0.00  0.00     0.210 C 
BRANCH   8   9
ATOM      9  O6  RES d   1      -2.054   0.021   1.271  0.00  0.00    -0.398 OA
ATOM     10  H16 RES d   1      -2.966  -0.272   1.404  0.00  0.00     0.209 HD
ENDBRANCH   8   9
ENDBRANCH   1   8
BRANCH   1  11
ATOM     11  C7  RES d   1       0.630  -0.498  -1.303  0.00  0.00     0.210 C 
BRANCH  11  12
ATOM     12  O8  RES d   1       1.966  -0.003  -1.406  0.00  0.00    -0.398 OA
ATOM     13  H19 RES d   1       2.427  -0.278  -2.211  0.00  0.00     0.209 HD
ENDBRANCH  11  12
ENDBRANCH   1  11
TORSDOF 7
