REMARK  4 active torsions:
REMARK  status: ('A' for Active; 'I' for Inactive)
REMARK    1  A    between atoms: O1_1  and  C2_2 
REMARK    2  A    between atoms: C5_5  and  C6_6 
REMARK    3  A    between atoms: C17_16  and  O18_17 
REMARK    4  A    between atoms: C19_18  and  O20_19 
ROOT
ATOM      1  C6  ZIN A   1       0.060  -4.272  -0.021  0.00  0.00     0.078 C 
ATOM      2  C8  ZIN A   1       1.373  -4.830   0.505  0.00  0.00     0.246 C 
ATOM      3  N9  ZIN A   1       1.860  -4.099   1.661  0.00  0.00    -0.074 N 
ATOM      4  H10 ZIN A   1       2.714  -4.562   1.988  0.00  0.00     0.277 HD
ATOM      5  H11 ZIN A   1       2.136  -3.162   1.419  0.00  0.00     0.277 HD
ATOM      6  C12 ZIN A   1       0.915  -4.080   2.774  0.00  0.00     0.237 C 
ATOM      7  C13 ZIN A   1       0.142  -5.394   2.816  0.00  0.00     0.068 C 
ATOM      8  C14 ZIN A   1      -1.106  -5.332   1.972  0.00  0.00    -0.025 A 
ATOM      9  C15 ZIN A   1      -1.143  -4.816   0.701  0.00  0.00    -0.037 A 
ATOM     10  C16 ZIN A   1      -2.348  -4.784   0.002  0.00  0.00     0.048 A 
ATOM     11  C17 ZIN A   1      -3.509  -5.274   0.569  0.00  0.00     0.101 A 
ATOM     12  C19 ZIN A   1      -3.470  -5.810   1.851  0.00  0.00     0.121 A 
ATOM     13  C21 ZIN A   1      -2.273  -5.838   2.543  0.00  0.00     0.076 A 
ATOM     14 Cl22 ZIN A   1      -2.227  -6.515   4.142  0.00  0.00    -0.081 Cl
ENDROOT
BRANCH   1  15
ATOM     15  C5  ZIN A   1       0.040  -2.770  -0.013  0.00  0.00    -0.048 A 
ATOM     16  C4  ZIN A   1      -0.648  -2.095   0.978  0.00  0.00     0.011 A 
ATOM     17  C3  ZIN A   1      -0.668  -0.714   0.988  0.00  0.00     0.037 A 
ATOM     18  C2  ZIN A   1       0.003  -0.004   0.002  0.00  0.00     0.065 A 
ATOM     19  C24 ZIN A   1       0.688  -0.684  -0.994  0.00  0.00     0.037 A 
ATOM     20  C23 ZIN A   1       0.709  -2.066  -0.997  0.00  0.00     0.011 A 
BRANCH  18  21
ATOM     21  O1  ZIN A   1      -0.016   1.355   0.010  0.00  0.00    -0.361 OA
ATOM     22  H25 ZIN A   1      -0.751   1.741  -0.485  0.00  0.00     0.217 HD
ENDBRANCH  18  21
ENDBRANCH   1  15
BRANCH  11  23
ATOM     23  O18 ZIN A   1      -4.680  -5.233  -0.122  0.00  0.00    -0.358 OA
ATOM     24  H35 ZIN A   1      -4.847  -6.020  -0.659  0.00  0.00     0.217 HD
ENDBRANCH  11  23
BRANCH  12  25
ATOM     25  O20 ZIN A   1      -4.602  -6.302   2.422  0.00  0.00    -0.356 OA
ATOM     26  H36 ZIN A   1      -4.755  -7.241   2.248  0.00  0.00     0.218 HD
ENDBRANCH  12  25
TORSDOF 4
