REMARK  5 active torsions:
REMARK  status: ('A' for Active; 'I' for Inactive)
REMARK    1  A    between atoms: N2_2  and  C5_5 
REMARK    2  A    between atoms: C9_8  and  C10_9 
REMARK       I    between atoms: C10_9  and  N11_10 
REMARK    3  A    between atoms: C15_14  and  O16_15 
REMARK    4  A    between atoms: C23_22  and  O24_23 
REMARK    5  A    between atoms: C29_28  and  O31_30 
ROOT
ATOM      1  C5  ZIN A   1      -1.352  -0.515   0.126  0.00  0.00     0.255 C 
ATOM      2  C7  ZIN A   1      -1.298  -2.006   0.272  0.00  0.00     0.135 C 
ATOM      3  O8  ZIN A   1      -0.974  -2.529   1.464  0.00  0.00    -0.193 OA
ATOM      4  C9  ZIN A   1      -1.569  -2.854  -0.772  0.00  0.00     0.115 C 
ATOM      5  C13 ZIN A   1      -1.956  -2.320  -2.077  0.00  0.00     0.210 C 
ATOM      6  O14 ZIN A   1      -2.400  -3.051  -2.938  0.00  0.00    -0.288 OA
ATOM      7  C15 ZIN A   1      -1.791  -0.833  -2.335  0.00  0.00     0.194 C 
ATOM      8  C17 ZIN A   1      -2.731  -0.460  -3.451  0.00  0.00     0.201 C 
ATOM      9  O18 ZIN A   1      -2.406  -0.726  -4.592  0.00  0.00    -0.289 OA
ATOM     10  C19 ZIN A   1      -3.950   0.173  -3.244  0.00  0.00     0.036 C 
ATOM     11  C20 ZIN A   1      -4.732   0.497  -4.339  0.00  0.00     0.131 C 
ATOM     12  O21 ZIN A   1      -4.274   0.280  -5.591  0.00  0.00    -0.190 OA
ATOM     13  C22 ZIN A   1      -6.066   1.079  -4.127  0.00  0.00     0.043 A 
ATOM     14  C23 ZIN A   1      -6.745   1.712  -5.177  0.00  0.00     0.079 A 
ATOM     15  C25 ZIN A   1      -7.998   2.261  -4.948  0.00  0.00     0.037 A 
ATOM     16  C26 ZIN A   1      -8.569   2.186  -3.692  0.00  0.00     0.003 A 
ATOM     17  C27 ZIN A   1      -7.901   1.558  -2.652  0.00  0.00     0.011 A 
ATOM     18  C28 ZIN A   1      -6.660   1.002  -2.863  0.00  0.00    -0.008 A 
ATOM     19  C29 ZIN A   1      -5.937   0.297  -1.744  0.00  0.00     0.090 C 
ATOM     20  C30 ZIN A   1      -6.433   0.833  -0.400  0.00  0.00     0.052 C 
ATOM     21  C32 ZIN A   1      -4.437   0.546  -1.869  0.00  0.00     0.065 C 
ATOM     22  C34 ZIN A   1      -3.681  -0.258  -0.808  0.00  0.00     0.024 C 
ATOM     23  C35 ZIN A   1      -2.187  -0.087  -1.065  0.00  0.00     0.074 C 
ENDROOT
BRANCH   4  24
ATOM     24  C10 ZIN A   1      -1.471  -4.310  -0.578  0.00  0.00     0.255 C 
ATOM     25  N11 ZIN A   1      -1.610  -5.141  -1.629  0.00  0.00    -0.366 N 
ATOM     26  H43 ZIN A   1      -1.844  -4.785  -2.501  0.00  0.00     0.159 HD
ATOM     27  H44 ZIN A   1      -1.477  -6.095  -1.515  0.00  0.00     0.159 HD
ATOM     28  O12 ZIN A   1      -1.263  -4.762   0.532  0.00  0.00    -0.268 OA
ENDBRANCH   4  24
BRANCH   1  29
ATOM     29  N2  ZIN A   1       0.015  -0.003  -0.041  0.00  0.00    -0.068 N 
ATOM     30  C1  ZIN A   1      -0.006   1.466  -0.017  0.00  0.00     0.270 C 
ATOM     31  H3  ZIN A   1       0.387  -0.319  -0.924  0.00  0.00     0.279 HD
ATOM     32  C4  ZIN A   1       0.861  -0.499   1.053  0.00  0.00     0.270 C 
ENDBRANCH   1  29
BRANCH   7  33
ATOM     33  O16 ZIN A   1      -0.437  -0.538  -2.683  0.00  0.00    -0.373 OA
ATOM     34  H45 ZIN A   1      -0.126  -0.994  -3.477  0.00  0.00     0.211 HD
ENDBRANCH   7  33
BRANCH  19  35
ATOM     35  O31 ZIN A   1      -6.195  -1.107  -1.821  0.00  0.00    -0.385 OA
ATOM     36  H53 ZIN A   1      -7.131  -1.340  -1.748  0.00  0.00     0.211 HD
ENDBRANCH  19  35
BRANCH  14  37
ATOM     37  O24 ZIN A   1      -6.181   1.786  -6.409  0.00  0.00    -0.360 OA
ATOM     38  H46 ZIN A   1      -6.395   1.039  -6.985  0.00  0.00     0.217 HD
ENDBRANCH  14  37
TORSDOF 5
