REMARK  9 active torsions:
REMARK  status: ('A' for Active; 'I' for Inactive)
REMARK    1  A    between atoms: O2_2  and  C3_3 
REMARK    2  A    between atoms: C8_8  and  O9_9 
REMARK    3  A    between atoms: C14_13  and  O16_14 
REMARK    4  A    between atoms: O16_14  and  C17_15 
REMARK    5  A    between atoms: C17_15  and  C19_17 
REMARK    6  A    between atoms: C19_17  and  N21_18 
REMARK    7  A    between atoms: C19_17  and  C22_19 
REMARK    8  A    between atoms: C25_22  and  C27_23 
REMARK    9  A    between atoms: C27_23  and  C28_24 
ROOT
ATOM      1  C3  ZIN A   1       0.216  -0.679   1.433  0.00  0.00     0.102 A 
ATOM      2  C4  ZIN A   1       0.763   0.039   2.481  0.00  0.00     0.047 A 
ATOM      3  C5  ZIN A   1       1.496  -0.606   3.465  0.00  0.00    -0.045 A 
ATOM      4  C6  ZIN A   1       1.682  -1.971   3.404  0.00  0.00    -0.018 A 
ATOM      5  C7  ZIN A   1       1.137  -2.696   2.354  0.00  0.00     0.049 A 
ATOM      6  C8  ZIN A   1       0.400  -2.058   1.372  0.00  0.00     0.102 A 
ATOM      7  C11 ZIN A   1       2.463  -2.709   4.458  0.00  0.00     0.224 C 
ATOM      8  C13 ZIN A   1       3.330  -3.787   3.806  0.00  0.00     0.071 C 
ATOM      9  C14 ZIN A   1       4.074  -4.559   4.900  0.00  0.00     0.140 C 
ATOM     10  C25 ZIN A   1       4.894  -3.577   5.742  0.00  0.00     0.041 C 
ATOM     11  C31 ZIN A   1       3.967  -2.502   6.315  0.00  0.00     0.243 C 
ATOM     12  N32 ZIN A   1       3.323  -1.788   5.204  0.00  0.00    -0.062 N 
ATOM     13  H33 ZIN A   1       4.032  -1.405   4.596  0.00  0.00     0.280 HD
ATOM     14  C34 ZIN A   1       2.487  -0.698   5.725  0.00  0.00     0.240 C 
ATOM     15  C35 ZIN A   1       2.079   0.217   4.586  0.00  0.00     0.067 C 
ENDROOT
BRANCH   9  16
ATOM     16  O16 ZIN A   1       4.961  -5.533   4.290  0.00  0.00    -0.314 OA
BRANCH  16  17
ATOM     17  C17 ZIN A   1       4.456  -6.755   4.056  0.00  0.00     0.292 C 
ATOM     18  O18 ZIN A   1       3.311  -7.002   4.352  0.00  0.00    -0.263 OA
BRANCH  17  19
ATOM     19  C19 ZIN A   1       5.317  -7.818   3.425  0.00  0.00     0.320 C 
BRANCH  19  20
ATOM     20  N21 ZIN A   1       4.743  -9.142   3.703  0.00  0.00     0.092 N 
ATOM     21  H46 ZIN A   1       4.753  -9.340   4.692  0.00  0.00     0.313 HD
ATOM     22  H47 ZIN A   1       3.809  -9.217   3.328  0.00  0.00     0.313 HD
ENDBRANCH  19  20
BRANCH  19  23
ATOM     23  C22 ZIN A   1       5.376  -7.595   1.912  0.00  0.00     0.020 C 
ATOM     24  C23 ZIN A   1       6.250  -8.675   1.271  0.00  0.00     0.012 C 
ATOM     25  C24 ZIN A   1       3.963  -7.671   1.330  0.00  0.00     0.012 C 
ENDBRANCH  19  23
ENDBRANCH  17  19
ENDBRANCH  16  17
ENDBRANCH   9  16
BRANCH  10  26
ATOM     26  C27 ZIN A   1       5.572  -4.330   6.888  0.00  0.00     0.012 C 
BRANCH  26  27
ATOM     27  C28 ZIN A   1       6.500  -3.379   7.645  0.00  0.00    -0.022 C 
ATOM     28  C29 ZIN A   1       7.066  -4.090   8.876  0.00  0.00     0.009 C 
ATOM     29  C30 ZIN A   1       7.649  -2.951   6.730  0.00  0.00     0.009 C 
ENDBRANCH  26  27
ENDBRANCH  10  26
BRANCH   6  30
ATOM     30  O9  ZIN A   1      -0.133  -2.773   0.345  0.00  0.00    -0.353 OA
ATOM     31  C10 ZIN A   1       0.108  -4.181   0.342  0.00  0.00     0.210 C 
ENDBRANCH   6  30
BRANCH   1  32
ATOM     32  O2  ZIN A   1      -0.503  -0.043   0.470  0.00  0.00    -0.353 OA
ATOM     33  C1  ZIN A   1      -0.650   1.373   0.599  0.00  0.00     0.210 C 
ENDBRANCH   1  32
TORSDOF 9
