REMARK  6 active torsions:
REMARK  status: ('A' for Active; 'I' for Inactive)
REMARK    1  A    between atoms: C2_2  and  C3_3 
REMARK    2  A    between atoms: C2_2  and  C23_23 
REMARK    3  A    between atoms: C3_3  and  C4_4 
REMARK    4  A    between atoms: C4_4  and  C5_5 
REMARK    5  A    between atoms: C5_5  and  N6_6 
REMARK    6  A    between atoms: C10_10  and  N11_11 
ROOT
ATOM      1  N6  <0> d   1       4.950   0.899   0.014  0.00  0.00    -0.068 N 
ATOM      2  H7  <0> d   1       4.992   0.404   0.892  0.00  0.00     0.280 HD
ATOM      3  C8  <0> d   1       4.817  -0.063  -1.086  0.00  0.00     0.264 C 
ATOM      4  C9  <0> d   1       6.070  -0.877  -1.224  0.00  0.00     0.026 C 
ATOM      5  C10 <0> d   1       7.217  -0.515  -0.709  0.00  0.00     0.021 C 
ATOM      6  C21 <0> d   1       7.383   0.756   0.077  0.00  0.00     0.085 C 
ATOM      7  C22 <0> d   1       6.185   1.676  -0.173  0.00  0.00     0.241 C 
ENDROOT
BRANCH   1   8
ATOM      8  C5  <0> d   1       3.794   1.806   0.017  0.00  0.00     0.235 C 
BRANCH   8   9
ATOM      9  C4  <0> d   1       2.524   1.013   0.331  0.00  0.00     0.035 C 
BRANCH   9  10
ATOM     10  C3  <0> d   1       1.320   1.958   0.333  0.00  0.00     0.085 C 
BRANCH  10  11
ATOM     11  C2  <0> d   1       0.069   1.177   0.643  0.00  0.00     0.159 C 
ATOM     12  O1  <0> d   1       0.134  -0.018   0.842  0.00  0.00    -0.292 OA
BRANCH  11  13
ATOM     13  C23 <0> d   1      -1.230   1.862   0.697  0.00  0.00     0.010 A 
ATOM     14  C29 <0> d   1      -2.395   1.139   0.979  0.00  0.00     0.018 A 
ATOM     15  C28 <0> d   1      -3.608   1.788   1.034  0.00  0.00     0.043 A 
ATOM     16  C26 <0> d   1      -3.679   3.153   0.801  0.00  0.00     0.116 A 
ATOM     17  C25 <0> d   1      -2.530   3.875   0.516  0.00  0.00     0.043 A 
ATOM     18  F27 <0> d   1      -4.874   3.783   0.852  0.00  0.00    -0.206 F 
ATOM     19  C24 <0> d   1      -1.309   3.239   0.463  0.00  0.00     0.018 A 
ENDBRANCH  11  13
ENDBRANCH  10  11
ENDBRANCH   9  10
ENDBRANCH   8   9
ENDBRANCH   1   8
BRANCH   5  20
ATOM     20  N11 <0> d   1       8.327  -1.337  -0.897  0.00  0.00    -0.266 N 
ATOM     21  C20 <0> d   1       9.574  -1.175  -0.295  0.00  0.00     0.070 A 
ATOM     22  C15 <0> d   1      10.383  -2.215  -0.757  0.00  0.00     0.063 A 
ATOM     23  C19 <0> d   1      10.083  -0.253   0.607  0.00  0.00     0.032 A 
ATOM     24  N14 <0> d   1       9.606  -2.972  -1.631  0.00  0.00    -0.306 N 
ATOM     25  C16 <0> d   1      11.695  -2.315  -0.321  0.00  0.00     0.032 A 
ATOM     26  C12 <0> d   1       8.379  -2.421  -1.694  0.00  0.00     0.332 A 
ATOM     27  H39 <0> d   1       9.899  -3.762  -2.112  0.00  0.00     0.171 HD
ATOM     28  O13 <0> d   1       7.457  -2.839  -2.369  0.00  0.00    -0.246 OA
ATOM     29  C17 <0> d   1      12.195  -1.388   0.573  0.00  0.00     0.002 A 
ATOM     30  C18 <0> d   1      11.392  -0.361   1.036  0.00  0.00     0.002 A 
ENDBRANCH   5  20
TORSDOF 6
