REMARK  11 active torsions:
REMARK  status: ('A' for Active; 'I' for Inactive)
REMARK    1  A    between atoms: C2_2  and  C3_3 
REMARK    2  A    between atoms: C3_3  and  C4_4 
REMARK    3  A    between atoms: C4_4  and  N5_5 
REMARK    4  A    between atoms: N5_5  and  C7_7 
REMARK    5  A    between atoms: N5_5  and  C11_11 
REMARK    6  A    between atoms: C7_7  and  C8_8 
REMARK    7  A    between atoms: C8_8  and  C9_9 
REMARK    8  A    between atoms: C11_11  and  C12_12 
REMARK    9  A    between atoms: C12_12  and  O14_13 
REMARK   10  A    between atoms: C12_12  and  C15_14 
REMARK   11  A    between atoms: C30_29  and  C31_30 
ROOT
ATOM      1  C15 ZIN A   1      -5.294  -5.799   0.873  0.00  0.00    -0.014 A 
ATOM      2  C16 ZIN A   1      -5.739  -6.752  -0.021  0.00  0.00     0.034 A 
ATOM      3  C17 ZIN A   1      -5.766  -8.092   0.334  0.00  0.00     0.035 A 
ATOM      4 Cl18 ZIN A   1      -6.328  -9.275  -0.805  0.00  0.00    -0.084 Cl
ATOM      5  C19 ZIN A   1      -5.348  -8.490   1.588  0.00  0.00     0.037 A 
ATOM      6  C20 ZIN A   1      -4.896  -7.540   2.503  0.00  0.00    -0.012 A 
ATOM      7  C21 ZIN A   1      -4.862  -6.182   2.142  0.00  0.00    -0.005 A 
ATOM      8  C22 ZIN A   1      -4.347  -5.402   3.287  0.00  0.00    -0.013 A 
ATOM      9  C23 ZIN A   1      -4.118  -4.037   3.456  0.00  0.00     0.015 A 
ATOM     10  C24 ZIN A   1      -3.620  -3.564   4.653  0.00  0.00     0.024 A 
ATOM     11  C25 ZIN A   1      -3.344  -4.436   5.694  0.00  0.00     0.035 A 
ATOM     12 Cl26 ZIN A   1      -2.718  -3.822   7.192  0.00  0.00    -0.084 Cl
ATOM     13  C27 ZIN A   1      -3.565  -5.792   5.546  0.00  0.00     0.037 A 
ATOM     14  C28 ZIN A   1      -4.066  -6.286   4.344  0.00  0.00    -0.012 A 
ATOM     15  C29 ZIN A   1      -4.395  -7.653   3.889  0.00  0.00    -0.013 A 
ATOM     16  C30 ZIN A   1      -4.264  -8.797   4.610  0.00  0.00     0.024 C 
ENDROOT
BRANCH   1  17
ATOM     17  C12 ZIN A   1      -5.269  -4.346   0.475  0.00  0.00     0.178 C 
BRANCH  17  18
ATOM     18  C11 ZIN A   1      -3.878  -3.985  -0.050  0.00  0.00     0.271 C 
BRANCH  18  19
ATOM     19  N5  ZIN A   1      -3.865  -2.578  -0.473  0.00  0.00    -0.068 N 
ATOM     20  H6  ZIN A   1      -4.602  -2.421  -1.143  0.00  0.00     0.280 HD
BRANCH  19  21
ATOM     21  C4  ZIN A   1      -4.074  -1.713   0.696  0.00  0.00     0.235 C 
BRANCH  21  22
ATOM     22  C3  ZIN A   1      -4.184  -0.257   0.240  0.00  0.00     0.027 C 
BRANCH  22  23
ATOM     23  C2  ZIN A   1      -4.401   0.644   1.458  0.00  0.00    -0.003 C 
ATOM     24  C1  ZIN A   1      -4.511   2.100   1.002  0.00  0.00     0.005 C 
ENDBRANCH  22  23
ENDBRANCH  21  22
ENDBRANCH  19  21
BRANCH  19  25
ATOM     25  C7  ZIN A   1      -2.569  -2.264  -1.089  0.00  0.00     0.235 C 
BRANCH  25  26
ATOM     26  C8  ZIN A   1      -2.422  -3.047  -2.395  0.00  0.00     0.027 C 
BRANCH  26  27
ATOM     27  C9  ZIN A   1      -1.038  -2.787  -2.993  0.00  0.00    -0.003 C 
ATOM     28  C10 ZIN A   1      -0.891  -3.570  -4.299  0.00  0.00     0.005 C 
ENDBRANCH  26  27
ENDBRANCH  25  26
ENDBRANCH  19  25
ENDBRANCH  18  19
ENDBRANCH  17  18
BRANCH  17  29
ATOM     29  O14 ZIN A   1      -6.239  -4.116  -0.549  0.00  0.00    -0.389 OA
ATOM     30  H58 ZIN A   1      -6.128  -4.676  -1.330  0.00  0.00     0.210 HD
ENDBRANCH  17  29
ENDBRANCH   1  17
BRANCH  16  31
ATOM     31  C31 ZIN A   1      -4.351 -10.102   3.939  0.00  0.00    -0.035 A 
ATOM     32  C37 ZIN A   1      -5.086 -11.143   4.520  0.00  0.00     0.013 A 
ATOM     33  C36 ZIN A   1      -5.167 -12.362   3.883  0.00  0.00     0.024 A 
ATOM     34  C34 ZIN A   1      -4.516 -12.562   2.676  0.00  0.00     0.034 A 
ATOM     35  C33 ZIN A   1      -3.783 -11.539   2.099  0.00  0.00     0.024 A 
ATOM     36 Cl35 ZIN A   1      -4.618 -14.104   1.885  0.00  0.00    -0.084 Cl
ATOM     37  C32 ZIN A   1      -3.696 -10.312   2.721  0.00  0.00     0.013 A 
ENDBRANCH  16  31
TORSDOF 11
