REMARK  7 active torsions:
REMARK  status: ('A' for Active; 'I' for Inactive)
REMARK    1  A    between atoms: C7_7  and  C8_8 
REMARK    2  A    between atoms: C10_10  and  N11_11 
REMARK    3  A    between atoms: C21_21  and  N22_22 
REMARK       I    between atoms: N22_22  and  C24_24 
REMARK    4  A    between atoms: C24_24  and  C26_26 
REMARK    5  A    between atoms: C26_26  and  C29_29 
REMARK    6  A    between atoms: C31_31  and  C32_32 
REMARK    7  A    between atoms: C37_37  and  C38_38 
ROOT
ATOM      1  C8  ZIN A   1       0.488  -0.623   1.441  0.00  0.00     0.006 A 
ATOM      2  C9  ZIN A   1       1.802  -0.737   1.891  0.00  0.00     0.059 A 
ATOM      3  C10 ZIN A   1       2.184  -0.052   3.037  0.00  0.00     0.106 A 
ATOM      4  N19 ZIN A   1       1.318   0.700   3.699  0.00  0.00    -0.246 NA
ATOM      5  C20 ZIN A   1       0.065   0.834   3.306  0.00  0.00     0.149 A 
ATOM      6  C21 ZIN A   1      -0.396   0.190   2.170  0.00  0.00     0.065 A 
ENDROOT
BRANCH   6   7
ATOM      7  N22 ZIN A   1      -1.727   0.337   1.761  0.00  0.00    -0.319 N 
ATOM      8  C23 ZIN A   1      -2.076   1.342   0.753  0.00  0.00     0.159 C 
ATOM      9  C24 ZIN A   1      -2.686  -0.445   2.293  0.00  0.00     0.236 C 
ATOM     10  O25 ZIN A   1      -2.414  -1.210   3.194  0.00  0.00    -0.272 OA
BRANCH   9  11
ATOM     11  C26 ZIN A   1      -4.098  -0.368   1.770  0.00  0.00     0.061 C 
ATOM     12  C27 ZIN A   1      -4.096  -0.620   0.260  0.00  0.00     0.030 C 
ATOM     13  C28 ZIN A   1      -4.956  -1.429   2.462  0.00  0.00     0.030 C 
BRANCH  11  14
ATOM     14  C29 ZIN A   1      -4.664   0.999   2.051  0.00  0.00    -0.039 A 
ATOM     15  C42 ZIN A   1      -5.898   1.355   1.538  0.00  0.00     0.024 A 
ATOM     16  C37 ZIN A   1      -6.420   2.608   1.800  0.00  0.00     0.049 A 
ATOM     17  C36 ZIN A   1      -5.704   3.509   2.566  0.00  0.00     0.032 A 
ATOM     18  C31 ZIN A   1      -4.468   3.155   3.074  0.00  0.00     0.049 A 
ATOM     19  C30 ZIN A   1      -3.948   1.900   2.816  0.00  0.00     0.024 A 
BRANCH  16  20
ATOM     20  C38 ZIN A   1      -7.767   2.994   1.246  0.00  0.00     0.417 C 
ATOM     21  F39 ZIN A   1      -8.076   4.300   1.639  0.00  0.00    -0.166 F 
ATOM     22  F40 ZIN A   1      -7.736   2.921  -0.151  0.00  0.00    -0.166 F 
ATOM     23  F41 ZIN A   1      -8.741   2.117   1.736  0.00  0.00    -0.166 F 
ENDBRANCH  16  20
BRANCH  18  24
ATOM     24  C32 ZIN A   1      -3.687   4.137   3.909  0.00  0.00     0.417 C 
ATOM     25  F33 ZIN A   1      -2.865   4.906   3.077  0.00  0.00    -0.166 F 
ATOM     26  F34 ZIN A   1      -4.573   4.976   4.592  0.00  0.00    -0.166 F 
ATOM     27  F35 ZIN A   1      -2.898   3.442   4.831  0.00  0.00    -0.166 F 
ENDBRANCH  18  24
ENDBRANCH  11  14
ENDBRANCH   9  11
ENDBRANCH   6   7
BRANCH   1  28
ATOM     28  C7  ZIN A   1       0.036  -1.336   0.221  0.00  0.00    -0.018 A 
ATOM     29  C2  ZIN A   1       0.361  -0.840  -1.040  0.00  0.00    -0.051 A 
ATOM     30  C1  ZIN A   1       1.178   0.420  -1.168  0.00  0.00     0.049 C 
ATOM     31  C3  ZIN A   1      -0.062  -1.507  -2.171  0.00  0.00     0.007 A 
ATOM     32  C4  ZIN A   1      -0.811  -2.664  -2.055  0.00  0.00     0.001 A 
ATOM     33  C5  ZIN A   1      -1.141  -3.158  -0.806  0.00  0.00     0.001 A 
ATOM     34  C6  ZIN A   1      -0.724  -2.499   0.332  0.00  0.00     0.013 A 
ENDBRANCH   1  28
BRANCH   3  35
ATOM     35  N11 ZIN A   1       3.494  -0.157   3.497  0.00  0.00    -0.265 NA
ATOM     36  C18 ZIN A   1       3.691   0.640   4.716  0.00  0.00     0.125 C 
ATOM     37  C17 ZIN A   1       5.154   0.546   5.153  0.00  0.00     0.249 C 
ATOM     38  N14 ZIN A   1       5.500  -0.859   5.405  0.00  0.00    -0.073 N 
ATOM     39  C13 ZIN A   1       5.322  -1.638   4.172  0.00  0.00     0.249 C 
ATOM     40  H15 ZIN A   1       4.899  -1.230   6.126  0.00  0.00     0.279 HD
ATOM     41  C16 ZIN A   1       6.900  -0.947   5.842  0.00  0.00     0.269 C 
ATOM     42  C12 ZIN A   1       3.861  -1.562   3.727  0.00  0.00     0.125 C 
ENDBRANCH   3  35
TORSDOF 7
