REMARK  1 active torsions:
REMARK  status: ('A' for Active; 'I' for Inactive)
REMARK    1  A    between atoms: C24_21  and  O25_22 
ROOT
ATOM      1  C1  ZIN A   1      -0.018   1.465   0.010  0.00  0.00     0.270 C 
ATOM      2  N2  ZIN A   1       0.002  -0.004   0.002  0.00  0.00    -0.070 N 
ATOM      3  H3  ZIN A   1       0.475  -0.325  -0.830  0.00  0.00     0.279 HD
ATOM      4  C4  ZIN A   1      -1.376  -0.504  -0.005  0.00  0.00     0.236 C 
ATOM      5  C5  ZIN A   1      -2.123  -0.000   1.236  0.00  0.00     0.045 C 
ATOM      6  C6  ZIN A   1      -1.366  -0.472   2.476  0.00  0.00     0.031 C 
ATOM      7  C7  ZIN A   1      -1.243  -1.976   2.451  0.00  0.00    -0.003 C 
ATOM      8  C8  ZIN A   1      -2.253  -2.494   3.249  0.00  0.00     0.110 C 
ATOM      9  O9  ZIN A   1      -2.951  -1.494   3.828  0.00  0.00    -0.334 OA
ATOM     10  C10 ZIN A   1      -2.169  -0.264   3.752  0.00  0.00     0.212 C 
ATOM     11  C12 ZIN A   1      -1.309  -0.207   4.980  0.00  0.00     0.157 C 
ATOM     12  O13 ZIN A   1      -1.802  -0.503   6.042  0.00  0.00    -0.295 OA
ATOM     13  C14 ZIN A   1       0.134   0.200   4.951  0.00  0.00     0.081 C 
ATOM     14  C15 ZIN A   1       0.822  -0.401   3.723  0.00  0.00     0.015 C 
ATOM     15  C16 ZIN A   1       0.057   0.061   2.447  0.00  0.00     0.033 C 
ATOM     16  C18 ZIN A   1       0.727  -0.483   1.184  0.00  0.00     0.197 C 
ATOM     17  C20 ZIN A   1       0.844  -1.997   1.141  0.00  0.00     0.072 C 
ATOM     18  C21 ZIN A   1      -0.250  -2.709   1.843  0.00  0.00    -0.046 C 
ATOM     19  C22 ZIN A   1      -0.375  -4.084   1.926  0.00  0.00     0.011 C 
ATOM     20  C23 ZIN A   1      -1.399  -4.649   2.669  0.00  0.00     0.040 C 
ATOM     21  C24 ZIN A   1      -2.358  -3.886   3.350  0.00  0.00     0.099 C 
ENDROOT
BRANCH  21  22
ATOM     22  O25 ZIN A   1      -3.331  -4.471   4.099  0.00  0.00    -0.358 OA
ATOM     23  H41 ZIN A   1      -3.086  -4.611   5.024  0.00  0.00     0.217 HD
ENDBRANCH  21  22
TORSDOF 1
