REMARK  5 active torsions:
REMARK  status: ('A' for Active; 'I' for Inactive)
REMARK    1  A    between atoms: C8_7  and  O9_8 
REMARK    2  A    between atoms: C16_15  and  O17_16 
REMARK    3  A    between atoms: C20_19  and  C21_20 
REMARK       I    between atoms: C21_20  and  N22_21 
REMARK    4  A    between atoms: C26_25  and  N28_26 
REMARK    5  A    between atoms: C33_30  and  O35_31 
ROOT
ATOM      1  C1  ZIN A   1      -0.556   1.815   0.312  0.00  0.00     0.016 C 
ATOM      2  C2  ZIN A   1      -0.649   0.289   0.240  0.00  0.00     0.027 C 
ATOM      3  C4  ZIN A   1      -0.284  -0.168  -1.147  0.00  0.00    -0.038 A 
ATOM      4  C5  ZIN A   1      -0.432   0.677  -2.223  0.00  0.00     0.009 A 
ATOM      5  C6  ZIN A   1      -0.109   0.245  -3.500  0.00  0.00     0.003 A 
ATOM      6  C7  ZIN A   1       0.365  -1.035  -3.708  0.00  0.00     0.037 A 
ATOM      7  C8  ZIN A   1       0.527  -1.899  -2.634  0.00  0.00     0.079 A 
ATOM      8  C10 ZIN A   1       0.208  -1.464  -1.342  0.00  0.00     0.041 A 
ATOM      9  C11 ZIN A   1       0.362  -2.354  -0.183  0.00  0.00     0.131 C 
ATOM     10  O12 ZIN A   1       0.486  -3.688  -0.361  0.00  0.00    -0.190 OA
ATOM     11  C13 ZIN A   1       0.379  -1.818   1.091  0.00  0.00     0.036 C 
ATOM     12  C14 ZIN A   1       0.460  -2.676   2.182  0.00  0.00     0.200 C 
ATOM     13  O15 ZIN A   1       0.488  -3.873   1.970  0.00  0.00    -0.289 OA
ATOM     14  C16 ZIN A   1       0.513  -2.207   3.605  0.00  0.00     0.183 C 
ATOM     15  C18 ZIN A   1      -0.697  -2.686   4.346  0.00  0.00     0.147 C 
ATOM     16  O19 ZIN A   1      -1.205  -3.889   4.037  0.00  0.00    -0.192 OA
ATOM     17  C20 ZIN A   1      -1.309  -1.946   5.326  0.00  0.00     0.115 C 
ATOM     18  C24 ZIN A   1      -0.796  -0.623   5.672  0.00  0.00     0.201 C 
ATOM     19  O25 ZIN A   1      -1.415   0.089   6.436  0.00  0.00    -0.290 OA
ATOM     20  C26 ZIN A   1       0.500  -0.147   5.080  0.00  0.00     0.306 C 
ATOM     21  C31 ZIN A   1       0.704  -0.710   3.688  0.00  0.00     0.105 C 
ATOM     22  C33 ZIN A   1      -0.192   0.002   2.676  0.00  0.00     0.138 C 
ATOM     23  C36 ZIN A   1       0.305  -0.325   1.262  0.00  0.00     0.063 C 
ENDROOT
BRANCH  17  24
ATOM     24  C21 ZIN A   1      -2.483  -2.487   6.029  0.00  0.00     0.255 C 
ATOM     25  N22 ZIN A   1      -3.148  -1.721   6.917  0.00  0.00    -0.366 N 
ATOM     26  H46 ZIN A   1      -2.810  -0.842   7.148  0.00  0.00     0.159 HD
ATOM     27  H47 ZIN A   1      -3.964  -2.050   7.325  0.00  0.00     0.159 HD
ATOM     28  O23 ZIN A   1      -2.853  -3.624   5.809  0.00  0.00    -0.268 OA
ENDBRANCH  17  24
BRANCH  14  29
ATOM     29  O17 ZIN A   1       1.646  -2.823   4.221  0.00  0.00    -0.374 OA
ATOM     30  H45 ZIN A   1       1.652  -3.788   4.157  0.00  0.00     0.211 HD
ENDBRANCH  14  29
BRANCH  20  31
ATOM     31  N28 ZIN A   1       1.609  -0.577   5.941  0.00  0.00     0.092 N 
ATOM     32  C29 ZIN A   1       2.874   0.040   5.518  0.00  0.00     0.310 C 
ATOM     33  C30 ZIN A   1       1.326  -0.282   7.352  0.00  0.00     0.310 C 
ENDBRANCH  20  31
BRANCH  22  34
ATOM     34  O35 ZIN A   1      -0.132   1.413   2.893  0.00  0.00    -0.394 OA
ATOM     35  H54 ZIN A   1       0.739   1.800   2.731  0.00  0.00     0.210 HD
ENDBRANCH  22  34
BRANCH   7  36
ATOM     36  O9  ZIN A   1       0.992  -3.158  -2.835  0.00  0.00    -0.360 OA
ATOM     37  H44 ZIN A   1       1.954  -3.234  -2.785  0.00  0.00     0.217 HD
ENDBRANCH   7  36
TORSDOF 5
