REMARK  5 active torsions:
REMARK  status: ('A' for Active; 'I' for Inactive)
REMARK    1  A    between atoms: C2_2  and  O4_3 
REMARK    2  A    between atoms: C2_2  and  C5_4 
REMARK    3  A    between atoms: C5_4  and  O7_5 
REMARK    4  A    between atoms: C5_4  and  C8_6 
REMARK    5  A    between atoms: C18_15  and  N19_16 
ROOT
ATOM      1  C8  <0> d   1       0.763  -2.041   1.233  0.00  0.00     0.131 C 
ATOM      2  C10 <0> d   1       1.488  -2.558   2.485  0.00  0.00     0.149 C 
ATOM      3  N11 <0> d   1       0.712  -2.152   3.665  0.00  0.00    -0.372 N 
ATOM      4  C12 <0> d   1      -0.659  -2.320   3.659  0.00  0.00     0.149 A 
ATOM      5  C13 <0> d   1      -1.324  -2.517   2.483  0.00  0.00     0.144 A 
ATOM      6  N14 <0> d   1      -0.615  -2.558   1.262  0.00  0.00    -0.373 N 
ATOM      7  C15 <0> d   1      -2.724  -2.680   2.507  0.00  0.00     0.313 A 
ATOM      8  O16 <0> d   1      -3.343  -2.855   1.466  0.00  0.00    -0.263 OA
ATOM      9  N17 <0> d   1      -3.373  -2.641   3.683  0.00  0.00    -0.021 NA
ATOM     10  C18 <0> d   1      -2.721  -2.453   4.810  0.00  0.00     0.703 A 
ATOM     11  N20 <0> d   1      -1.370  -2.290   4.830  0.00  0.00    -0.173 N 
ATOM     12  H28 <0> d   1       1.156  -1.773   4.439  0.00  0.00     0.161 HD
ATOM     13  H29 <0> d   1      -1.027  -2.918   0.461  0.00  0.00     0.160 HD
ATOM     14  H32 <0> d   1      -0.911  -2.153   5.674  0.00  0.00     0.186 HD
ENDROOT
BRANCH   1  15
ATOM     15  C5  <0> d   1       0.742  -0.511   1.242  0.00  0.00     0.170 C 
BRANCH  15  16
ATOM     16  C2  <0> d   1       0.002  -0.004   0.002  0.00  0.00     0.145 C 
ATOM     17  C1  <0> d   1      -0.019   1.526   0.010  0.00  0.00     0.042 C 
BRANCH  16  18
ATOM     18  O4  <0> d   1      -1.339  -0.499   0.012  0.00  0.00    -0.393 OA
ATOM     19  H24 <0> d   1      -1.868  -0.216  -0.746  0.00  0.00     0.210 HD
ENDBRANCH  16  18
ENDBRANCH  15  16
BRANCH  15  20
ATOM     20  O7  <0> d   1       2.083  -0.016   1.231  0.00  0.00    -0.391 OA
ATOM     21  H25 <0> d   1       2.597  -0.290   0.460  0.00  0.00     0.210 HD
ENDBRANCH  15  20
ENDBRANCH   1  15
BRANCH  10  22
ATOM     22  N19 <0> d   1      -3.419  -2.420   5.990  0.00  0.00    -0.233 N 
ATOM     23  H30 <0> d   1      -4.382  -2.535   5.988  0.00  0.00     0.174 HD
ATOM     24  H31 <0> d   1      -2.949  -2.282   6.828  0.00  0.00     0.174 HD
ENDBRANCH  10  22
TORSDOF 5
