REMARK  7 active torsions:
REMARK  status: ('A' for Active; 'I' for Inactive)
REMARK    1  A    between atoms: O2_2  and  C3_3 
REMARK    2  A    between atoms: C8_8  and  O9_9 
REMARK    3  A    between atoms: C19_18  and  O20_19 
REMARK    4  A    between atoms: O20_19  and  C21_20 
REMARK    5  A    between atoms: C44_40  and  O45_41 
REMARK    6  A    between atoms: C46_42  and  O47_43 
REMARK    7  A    between atoms: C56_51  and  O58_52 
ROOT
ATOM      1  C3  ZIN A   1       1.742   1.598  -0.850  0.00  0.00     0.101 A 
ATOM      2  C4  ZIN A   1       1.797   0.218  -0.737  0.00  0.00     0.050 A 
ATOM      3  C5  ZIN A   1       0.642  -0.540  -0.849  0.00  0.00    -0.011 A 
ATOM      4  C6  ZIN A   1      -0.570   0.074  -1.075  0.00  0.00    -0.044 A 
ATOM      5  C7  ZIN A   1      -0.628   1.460  -1.194  0.00  0.00     0.047 A 
ATOM      6  C8  ZIN A   1       0.518   2.222  -1.082  0.00  0.00     0.099 A 
ATOM      7  C10 ZIN A   1      -1.864  -0.681  -1.203  0.00  0.00     0.058 C 
ATOM      8  C11 ZIN A   1      -1.646  -2.191  -1.206  0.00  0.00     0.120 C 
ATOM      9  N12 ZIN A   1      -0.560  -2.549  -0.308  0.00  0.00    -0.400 N 
ATOM     10  C13 ZIN A   1       0.744  -2.043  -0.720  0.00  0.00     0.151 C 
ATOM     11  C14 ZIN A   1       1.792  -2.370   0.348  0.00  0.00     0.121 C 
ATOM     12  S15 ZIN A   1       1.341  -3.790   1.394  0.00  0.00    -0.154 SA
ATOM     13  C16 ZIN A   1       1.035  -5.076   0.205  0.00  0.00     0.119 C 
ATOM     14  C18 ZIN A   1      -0.346  -5.321  -0.337  0.00  0.00     0.004 A 
ATOM     15  C19 ZIN A   1      -1.442  -5.274   0.510  0.00  0.00     0.096 A 
ATOM     16  C24 ZIN A   1      -2.746  -5.407   0.043  0.00  0.00     0.009 A 
ATOM     17  C25 ZIN A   1      -3.918  -5.351   0.988  0.00  0.00     0.054 C 
ATOM     18  C26 ZIN A   1      -2.932  -5.593  -1.318  0.00  0.00     0.114 A 
ATOM     19  O27 ZIN A   1      -4.071  -5.716  -2.032  0.00  0.00    -0.322 OA
ATOM     20  C28 ZIN A   1      -3.695  -5.517  -3.409  0.00  0.00     0.352 C 
ATOM     21  O29 ZIN A   1      -2.294  -5.840  -3.454  0.00  0.00    -0.322 OA
ATOM     22  C30 ZIN A   1      -1.834  -5.671  -2.190  0.00  0.00     0.114 A 
ATOM     23  C31 ZIN A   1      -0.550  -5.563  -1.714  0.00  0.00     0.024 A 
ATOM     24  C32 ZIN A   1       0.662  -5.677  -2.656  0.00  0.00     0.287 C 
ATOM     25  C34 ZIN A   1       0.833  -4.529  -3.602  0.00  0.00     0.220 C 
ATOM     26  O35 ZIN A   1       0.397  -3.346  -2.862  0.00  0.00    -0.317 OA
ATOM     27  C36 ZIN A   1       1.136  -2.626  -2.049  0.00  0.00     0.292 C 
ATOM     28  O37 ZIN A   1       2.271  -2.396  -2.413  0.00  0.00    -0.262 OA
ATOM     29  N38 ZIN A   1       1.692  -6.436  -1.877  0.00  0.00     0.139 NA
ATOM     30  C39 ZIN A   1       2.135  -5.633  -0.672  0.00  0.00     0.280 C 
ATOM     31  C41 ZIN A   1       3.092  -6.512   0.136  0.00  0.00     0.259 C 
ATOM     32  C43 ZIN A   1       2.382  -7.769   0.568  0.00  0.00     0.017 A 
ATOM     33  C44 ZIN A   1       1.747  -7.809   1.799  0.00  0.00     0.108 A 
ATOM     34  C46 ZIN A   1       1.073  -8.962   2.200  0.00  0.00     0.107 A 
ATOM     35  C49 ZIN A   1       1.050 -10.062   1.359  0.00  0.00    -0.025 A 
ATOM     36  C50 ZIN A   1       0.316 -11.311   1.775  0.00  0.00     0.051 C 
ATOM     37  C51 ZIN A   1       1.695 -10.017   0.143  0.00  0.00     0.017 A 
ATOM     38  C52 ZIN A   1       2.376  -8.874  -0.257  0.00  0.00    -0.044 A 
ATOM     39  C53 ZIN A   1       3.087  -8.879  -1.581  0.00  0.00     0.077 C 
ATOM     40  C54 ZIN A   1       3.810  -7.582  -1.892  0.00  0.00     0.251 C 
ATOM     41  C56 ZIN A   1       2.897  -6.656  -2.712  0.00  0.00     0.389 C 
ATOM     42  N59 ZIN A   1       4.252  -6.873  -0.691  0.00  0.00    -0.056 N 
ATOM     43  H60 ZIN A   1       4.727  -6.021  -0.971  0.00  0.00     0.281 HD
ATOM     44  C61 ZIN A   1       5.192  -7.696   0.076  0.00  0.00     0.271 C 
ATOM     45  H72 ZIN A   1      -0.749  -2.650   0.643  0.00  0.00     0.154 HD
ENDROOT
BRANCH   1  46
ATOM     46  O2  ZIN A   1       2.875   2.339  -0.734  0.00  0.00    -0.353 OA
ATOM     47  C1  ZIN A   1       4.093   1.631  -0.496  0.00  0.00     0.210 C 
ENDBRANCH   1  46
BRANCH   6  48
ATOM     48  O9  ZIN A   1       0.451   3.575  -1.197  0.00  0.00    -0.358 OA
ATOM     49  H67 ZIN A   1       0.301   4.034  -0.359  0.00  0.00     0.217 HD
ENDBRANCH   6  48
BRANCH  15  50
ATOM     50  O20 ZIN A   1      -1.241  -5.100   1.844  0.00  0.00    -0.278 OA
BRANCH  50  51
ATOM     51  C21 ZIN A   1      -1.082  -6.207   2.586  0.00  0.00     0.260 C 
ATOM     52  C22 ZIN A   1      -0.856  -6.092   4.072  0.00  0.00     0.126 C 
ATOM     53  O23 ZIN A   1      -1.121  -7.295   2.063  0.00  0.00    -0.265 OA
ENDBRANCH  50  51
ENDBRANCH  15  50
BRANCH  41  54
ATOM     54  O58 ZIN A   1       3.568  -5.430  -2.979  0.00  0.00    -0.366 OA
ATOM     55  H95 ZIN A   1       4.344  -5.522  -3.549  0.00  0.00     0.212 HD
ENDBRANCH  41  54
BRANCH  33  56
ATOM     56  O45 ZIN A   1       1.778  -6.728   2.623  0.00  0.00    -0.357 OA
ATOM     57  H85 ZIN A   1       2.529  -6.720   3.233  0.00  0.00     0.217 HD
ENDBRANCH  33  56
BRANCH  34  58
ATOM     58  O47 ZIN A   1       0.447  -9.005   3.407  0.00  0.00    -0.353 OA
ATOM     59  C48 ZIN A   1       1.216  -9.461   4.521  0.00  0.00     0.210 C 
ENDBRANCH  34  58
TORSDOF 7
