REMARK  7 active torsions:
REMARK  status: ('A' for Active; 'I' for Inactive)
REMARK    1  A    between atoms: O2_2  and  C3_3 
REMARK    2  A    between atoms: C5_5  and  C6_6 
REMARK    3  A    between atoms: C6_6  and  C7_7 
REMARK    4  A    between atoms: C10_10  and  N11_11 
REMARK    5  A    between atoms: C13_13  and  N14_14 
REMARK    6  A    between atoms: C16_16  and  O17_17 
REMARK    7  A    between atoms: C19_19  and  O20_20 
ROOT
ATOM      1  C6  ZIN A   1       2.402   0.386  -4.230  0.00  0.00     0.082 C 
ENDROOT
BRANCH   1   2
ATOM      2  C5  ZIN A   1       1.787  -0.452  -3.139  0.00  0.00    -0.048 A 
ATOM      3  C4  ZIN A   1       1.173   0.160  -2.063  0.00  0.00     0.047 A 
ATOM      4  C3  ZIN A   1       0.606  -0.608  -1.056  0.00  0.00     0.104 A 
ATOM      5  C19 ZIN A   1       0.661  -1.994  -1.128  0.00  0.00     0.135 A 
ATOM      6  C16 ZIN A   1       1.275  -2.606  -2.215  0.00  0.00     0.104 A 
ATOM      7  C15 ZIN A   1       1.840  -1.831  -3.217  0.00  0.00     0.047 A 
BRANCH   4   8
ATOM      8  O2  ZIN A   1       0.002  -0.004   0.002  0.00  0.00    -0.353 OA
ATOM      9  C1  ZIN A   1      -0.017   1.425   0.010  0.00  0.00     0.210 C 
ENDBRANCH   4   8
BRANCH   5  10
ATOM     10  O20 ZIN A   1       0.106  -2.751  -0.143  0.00  0.00    -0.351 OA
ATOM     11  C21 ZIN A   1       0.950  -3.111   0.953  0.00  0.00     0.210 C 
ENDBRANCH   5  10
BRANCH   6  12
ATOM     12  O17 ZIN A   1       1.327  -3.963  -2.292  0.00  0.00    -0.353 OA
ATOM     13  C18 ZIN A   1       1.979  -4.523  -3.434  0.00  0.00     0.210 C 
ENDBRANCH   6  12
ENDBRANCH   1   2
BRANCH   1  14
ATOM     14  C7  ZIN A   1       3.843   0.672  -3.892  0.00  0.00     0.010 A 
ATOM     15  C13 ZIN A   1       4.848  -0.241  -4.220  0.00  0.00     0.148 A 
ATOM     16  N12 ZIN A   1       6.108   0.049  -3.911  0.00  0.00    -0.045 NA
ATOM     17  C10 ZIN A   1       6.407   1.181  -3.292  0.00  0.00     0.721 A 
ATOM     18  N9  ZIN A   1       5.474   2.062  -2.964  0.00  0.00    -0.075 NA
ATOM     19  C8  ZIN A   1       4.198   1.840  -3.247  0.00  0.00     0.147 A 
BRANCH  15  20
ATOM     20  N14 ZIN A   1       4.538  -1.426  -4.867  0.00  0.00    -0.383 N 
ATOM     21  H31 ZIN A   1       5.243  -2.051  -5.098  0.00  0.00     0.157 HD
ATOM     22  H32 ZIN A   1       3.616  -1.630  -5.089  0.00  0.00     0.157 HD
ENDBRANCH  15  20
BRANCH  17  23
ATOM     23  N11 ZIN A   1       7.728   1.450  -2.978  0.00  0.00    -0.231 N 
ATOM     24  H29 ZIN A   1       7.961   2.275  -2.524  0.00  0.00     0.174 HD
ATOM     25  H30 ZIN A   1       8.421   0.813  -3.212  0.00  0.00     0.174 HD
ENDBRANCH  17  23
ENDBRANCH   1  14
TORSDOF 7
