REMARK  10 active torsions:
REMARK  status: ('A' for Active; 'I' for Inactive)
REMARK    1  A    between atoms: C2_2  and  C4_3 
REMARK    2  A    between atoms: C2_2  and  N12_11 
REMARK    3  A    between atoms: C4_3  and  C5_4 
REMARK    4  A    between atoms: C5_4  and  C6_5 
REMARK    5  A    between atoms: N12_11  and  C15_14 
REMARK    6  A    between atoms: C15_14  and  C16_15 
REMARK    7  A    between atoms: C16_15  and  O18_16 
REMARK    8  A    between atoms: C16_15  and  C19_17 
REMARK    9  A    between atoms: C22_20  and  O23_21 
REMARK   10  A    between atoms: C24_22  and  C25_23 
REMARK       I    between atoms: C25_23  and  N26_24 
ROOT
ATOM      1  C16 ZIN A   1       0.700  -0.626   3.637  0.00  0.00     0.176 C 
ENDROOT
BRANCH   1   2
ATOM      2  C15 ZIN A   1      -0.040  -0.119   2.398  0.00  0.00     0.269 C 
BRANCH   2   3
ATOM      3  N12 ZIN A   1       0.713  -0.491   1.192  0.00  0.00    -0.069 N 
ATOM      4  H13 ZIN A   1       0.798  -1.495   1.145  0.00  0.00     0.277 HD
ATOM      5  H14 ZIN A   1       1.632  -0.076   1.228  0.00  0.00     0.277 HD
BRANCH   3   6
ATOM      6  C2  ZIN A   1       0.002  -0.004   0.002  0.00  0.00     0.182 C 
ATOM      7  C1  ZIN A   1      -0.019   1.526   0.010  0.00  0.00     0.040 C 
BRANCH   6   8
ATOM      8  C4  ZIN A   1       0.718  -0.497  -1.257  0.00  0.00     0.037 C 
BRANCH   8   9
ATOM      9  C5  ZIN A   1       0.630  -2.023  -1.329  0.00  0.00     0.040 C 
BRANCH   9  10
ATOM     10  C6  ZIN A   1       1.336  -2.509  -2.568  0.00  0.00    -0.058 A 
ATOM     11  C11 ZIN A   1       2.682  -2.820  -2.521  0.00  0.00     0.007 A 
ATOM     12  C10 ZIN A   1       3.328  -3.270  -3.657  0.00  0.00     0.001 A 
ATOM     13  C9  ZIN A   1       2.630  -3.400  -4.843  0.00  0.00     0.000 A 
ATOM     14  C8  ZIN A   1       1.285  -3.085  -4.892  0.00  0.00     0.001 A 
ATOM     15  C7  ZIN A   1       0.638  -2.639  -3.755  0.00  0.00     0.007 A 
ENDBRANCH   9  10
ENDBRANCH   8   9
ENDBRANCH   6   8
ENDBRANCH   3   6
ENDBRANCH   2   3
ENDBRANCH   1   2
BRANCH   1  16
ATOM     16  O18 ZIN A   1       0.821  -2.048   3.571  0.00  0.00    -0.389 OA
ATOM     17  H43 ZIN A   1      -0.025  -2.514   3.534  0.00  0.00     0.210 HD
ENDBRANCH   1  16
BRANCH   1  18
ATOM     18  C19 ZIN A   1      -0.072  -0.244   4.874  0.00  0.00    -0.027 A 
ATOM     19  C28 ZIN A   1       0.252   0.909   5.556  0.00  0.00     0.029 A 
ATOM     20  C24 ZIN A   1      -0.467   1.267   6.699  0.00  0.00     0.065 A 
ATOM     21  C22 ZIN A   1      -1.506   0.442   7.151  0.00  0.00     0.081 A 
ATOM     22  C21 ZIN A   1      -1.814  -0.718   6.455  0.00  0.00     0.038 A 
ATOM     23  C20 ZIN A   1      -1.099  -1.057   5.324  0.00  0.00     0.012 A 
BRANCH  20  24
ATOM     24  C25 ZIN A   1      -0.130   2.503   7.431  0.00  0.00     0.252 C 
ATOM     25  N26 ZIN A   1       0.870   3.293   6.994  0.00  0.00    -0.366 N 
ATOM     26  H47 ZIN A   1       1.369   3.049   6.198  0.00  0.00     0.159 HD
ATOM     27  H48 ZIN A   1       1.092   4.106   7.474  0.00  0.00     0.159 HD
ATOM     28  O27 ZIN A   1      -0.754   2.808   8.428  0.00  0.00    -0.268 OA
ENDBRANCH  20  24
BRANCH  21  29
ATOM     29  O23 ZIN A   1      -2.207   0.776   8.263  0.00  0.00    -0.360 OA
ATOM     30  H46 ZIN A   1      -1.836   0.422   9.083  0.00  0.00     0.217 HD
ENDBRANCH  21  29
ENDBRANCH   1  18
TORSDOF 10
