REMARK  5 active torsions:
REMARK  status: ('A' for Active; 'I' for Inactive)
REMARK    1  A    between atoms: N10_10  and  C11_11 
REMARK    2  A    between atoms: C11_11  and  C12_12 
REMARK    3  A    between atoms: C12_12  and  N13_13 
REMARK    4  A    between atoms: N16_16  and  C17_17 
REMARK    5  A    between atoms: C21_21  and  C22_22 
ROOT
ATOM      1  N13 ZIN A   1       4.362   0.920   1.407  0.00  0.00     0.092 N 
ATOM      2  C14 ZIN A   1       4.542  -0.182   0.453  0.00  0.00     0.287 C 
ATOM      3  C15 ZIN A   1       6.019  -0.578   0.408  0.00  0.00     0.126 C 
ATOM      4  N16 ZIN A   1       6.459  -0.973   1.753  0.00  0.00    -0.280 NA
ATOM      5  C27 ZIN A   1       6.279   0.130   2.708  0.00  0.00     0.126 C 
ATOM      6  C28 ZIN A   1       4.801   0.525   2.753  0.00  0.00     0.287 C 
ENDROOT
BRANCH   1   7
ATOM      7  C12 ZIN A   1       2.966   1.380   1.423  0.00  0.00     0.292 C 
BRANCH   7   8
ATOM      8  C11 ZIN A   1       2.467   1.544  -0.013  0.00  0.00     0.164 C 
BRANCH   8   9
ATOM      9  N10 ZIN A   1       1.076   2.003   0.003  0.00  0.00    -0.296 N 
ATOM     10  C2  ZIN A   1      -0.014   1.213   0.009  0.00  0.00     0.327 A 
ATOM     11  O1  ZIN A   1       0.002  -0.004   0.002  0.00  0.00    -0.246 OA
ATOM     12  N3  ZIN A   1      -1.125   1.973   0.029  0.00  0.00    -0.306 N 
ATOM     13  C4  ZIN A   1      -0.741   3.312   0.031  0.00  0.00     0.063 A 
ATOM     14  H29 ZIN A   1      -2.038   1.644   0.040  0.00  0.00     0.171 HD
ATOM     15  C9  ZIN A   1       0.655   3.331   0.011  0.00  0.00     0.065 A 
ATOM     16  C5  ZIN A   1      -1.448   4.504   0.048  0.00  0.00     0.032 A 
ATOM     17  C8  ZIN A   1       1.329   4.542   0.006  0.00  0.00     0.032 A 
ATOM     18  C7  ZIN A   1       0.616   5.725   0.024  0.00  0.00     0.002 A 
ATOM     19  C6  ZIN A   1      -0.767   5.707   0.044  0.00  0.00     0.002 A 
ENDBRANCH   8   9
ENDBRANCH   7   8
ENDBRANCH   1   7
BRANCH   4  20
ATOM     20  C17 ZIN A   1       7.786  -1.410   1.738  0.00  0.00     0.011 A 
ATOM     21  C26 ZIN A   1       8.394  -1.830   2.914  0.00  0.00     0.039 A 
ATOM     22  C21 ZIN A   1       9.704  -2.267   2.895  0.00  0.00     0.049 A 
ATOM     23  C20 ZIN A   1      10.414  -2.276   1.708  0.00  0.00     0.016 A 
ATOM     24  C19 ZIN A   1       9.813  -1.854   0.536  0.00  0.00     0.003 A 
ATOM     25  C18 ZIN A   1       8.501  -1.421   0.547  0.00  0.00     0.024 A 
BRANCH  22  26
ATOM     26  C22 ZIN A   1      10.363  -2.727   4.169  0.00  0.00     0.417 C 
ATOM     27  F23 ZIN A   1      11.680  -3.112   3.900  0.00  0.00    -0.166 F 
ATOM     28  F24 ZIN A   1      10.363  -1.682   5.098  0.00  0.00    -0.166 F 
ATOM     29  F25 ZIN A   1       9.656  -3.816   4.692  0.00  0.00    -0.166 F 
ENDBRANCH  22  26
ENDBRANCH   4  20
TORSDOF 5
