REMARK  0 active torsions:
REMARK  status: ('A' for Active; 'I' for Inactive)
ROOT
ATOM      1  C1  ZIN A   1      -0.019   1.526   0.010  0.00  0.00     0.051 C 
ATOM      2  C2  ZIN A   1       0.002  -0.004   0.002  0.00  0.00     0.179 C 
ATOM      3  O4  ZIN A   1       0.723  -0.499  -1.140  0.00  0.00    -0.362 OA
ATOM      4  C5  ZIN A   1       1.505  -1.669  -0.948  0.00  0.00     0.098 C 
ATOM      5  C6  ZIN A   1       1.473  -2.187   0.513  0.00  0.00     0.116 C 
ATOM      6  S7  ZIN A   1       0.988  -0.652   1.416  0.00  0.00    -0.135 SA
ATOM      7  C8  ZIN A   1       0.987  -2.787  -1.862  0.00  0.00     0.274 C 
ATOM      8  N9  ZIN A   1       2.037  -3.199  -2.794  0.00  0.00    -0.068 N 
ATOM      9  H10 ZIN A   1       1.668  -3.925  -3.389  0.00  0.00     0.280 HD
ATOM     10  C11 ZIN A   1       2.451  -2.076  -3.638  0.00  0.00     0.235 C 
ATOM     11  C12 ZIN A   1       3.030  -0.956  -2.771  0.00  0.00     0.035 C 
ATOM     12  C13 ZIN A   1       2.967  -1.372  -1.315  0.00  0.00     0.026 C 
ATOM     13  C14 ZIN A   1       3.765  -2.671  -1.147  0.00  0.00     0.035 C 
ATOM     14  C15 ZIN A   1       3.189  -3.738  -2.067  0.00  0.00     0.235 C 
ENDROOT
TORSDOF 0
