REMARK  26 active torsions:
REMARK  status: ('A' for Active; 'I' for Inactive)
REMARK    1  A    between atoms: C2_2  and  C3_3 
REMARK    2  A    between atoms: C3_3  and  N4_4 
REMARK    3  A    between atoms: C12_12  and  O13_13 
REMARK    4  A    between atoms: C18_17  and  O20_18 
REMARK    5  A    between atoms: O20_18  and  C21_19 
REMARK    6  A    between atoms: C21_19  and  C22_20 
REMARK    7  A    between atoms: C22_20  and  O23_21 
REMARK    8  A    between atoms: O23_21  and  C24_22 
REMARK    9  A    between atoms: C24_22  and  C25_23 
REMARK   10  A    between atoms: C25_23  and  O26_24 
REMARK   11  A    between atoms: O26_24  and  C27_25 
REMARK   12  A    between atoms: C27_25  and  C28_26 
REMARK   13  A    between atoms: C28_26  and  O29_27 
REMARK   14  A    between atoms: O29_27  and  C30_28 
REMARK   15  A    between atoms: C30_28  and  C31_29 
REMARK   16  A    between atoms: C31_29  and  O32_30 
REMARK   17  A    between atoms: O32_30  and  C33_31 
REMARK   18  A    between atoms: C33_31  and  C34_32 
REMARK   19  A    between atoms: C34_32  and  O35_33 
REMARK   20  A    between atoms: O35_33  and  C36_34 
REMARK   21  A    between atoms: C36_34  and  C37_35 
REMARK   22  A    between atoms: C37_35  and  O38_36 
REMARK   23  A    between atoms: O38_36  and  C39_37 
REMARK   24  A    between atoms: C39_37  and  C40_38 
REMARK   25  A    between atoms: C40_38  and  O41_39 
REMARK   26  A    between atoms: C45_43  and  O46_44 
ROOT
ATOM      1  N4  ZIN A   1       1.368  -1.678   1.115  0.00  0.00     0.099 N 
ATOM      2  C5  ZIN A   1       0.343  -2.719   0.979  0.00  0.00     0.275 C 
ATOM      3  C6  ZIN A   1       0.341  -3.624   2.218  0.00  0.00     0.050 C 
ATOM      4  C7  ZIN A   1       1.742  -4.218   2.373  0.00  0.00     0.054 C 
ATOM      5  C8  ZIN A   1       2.113  -4.942   1.101  0.00  0.00    -0.001 A 
ATOM      6  C9  ZIN A   1       2.729  -4.407  -0.005  0.00  0.00    -0.046 A 
ATOM      7  C10 ZIN A   1       2.952  -5.282  -1.055  0.00  0.00     0.011 A 
ATOM      8  C11 ZIN A   1       2.610  -6.619  -0.933  0.00  0.00     0.040 A 
ATOM      9  C12 ZIN A   1       2.053  -7.162   0.222  0.00  0.00     0.099 A 
ATOM     10  C14 ZIN A   1       1.816  -6.286   1.286  0.00  0.00     0.110 A 
ATOM     11  O15 ZIN A   1       1.363  -6.494   2.542  0.00  0.00    -0.339 OA
ATOM     12  C16 ZIN A   1       1.774  -5.360   3.374  0.00  0.00     0.174 C 
ATOM     13  C18 ZIN A   1       3.148  -5.696   3.916  0.00  0.00     0.152 C 
ATOM     14  C43 ZIN A   1       4.092  -4.526   4.067  0.00  0.00     0.037 C 
ATOM     15  C44 ZIN A   1       4.159  -3.692   2.789  0.00  0.00     0.044 C 
ATOM     16  C45 ZIN A   1       2.751  -3.096   2.538  0.00  0.00     0.103 C 
ATOM     17  C47 ZIN A   1       2.716  -2.239   1.273  0.00  0.00     0.262 C 
ATOM     18  C49 ZIN A   1       3.136  -2.969   0.008  0.00  0.00     0.078 C 
ENDROOT
BRANCH  13  19
ATOM     19  O20 ZIN A   1       3.756  -6.647   3.039  0.00  0.00    -0.381 OA
BRANCH  19  20
ATOM     20  C21 ZIN A   1       4.667  -7.537   3.687  0.00  0.00     0.194 C 
BRANCH  20  21
ATOM     21  C22 ZIN A   1       5.254  -8.505   2.658  0.00  0.00     0.193 C 
BRANCH  21  22
ATOM     22  O23 ZIN A   1       6.043  -7.777   1.715  0.00  0.00    -0.387 OA
BRANCH  22  23
ATOM     23  C24 ZIN A   1       6.640  -8.592   0.705  0.00  0.00     0.193 C 
BRANCH  23  24
ATOM     24  C25 ZIN A   1       7.457  -7.712  -0.244  0.00  0.00     0.193 C 
BRANCH  24  25
ATOM     25  O26 ZIN A   1       8.551  -7.131   0.469  0.00  0.00    -0.387 OA
BRANCH  25  26
ATOM     26  C27 ZIN A   1       9.381  -6.286  -0.330  0.00  0.00     0.193 C 
BRANCH  26  27
ATOM     27  C28 ZIN A   1      10.513  -5.722   0.531  0.00  0.00     0.193 C 
BRANCH  27  28
ATOM     28  O29 ZIN A   1      11.361  -6.788   0.961  0.00  0.00    -0.387 OA
BRANCH  28  29
ATOM     29  C30 ZIN A   1      12.457  -6.367   1.776  0.00  0.00     0.193 C 
BRANCH  29  30
ATOM     30  C31 ZIN A   1      13.293  -7.585   2.176  0.00  0.00     0.193 C 
BRANCH  30  31
ATOM     31  O32 ZIN A   1      13.888  -8.158   1.010  0.00  0.00    -0.387 OA
BRANCH  31  32
ATOM     32  C33 ZIN A   1      14.694  -9.308   1.274  0.00  0.00     0.193 C 
BRANCH  32  33
ATOM     33  C34 ZIN A   1      15.277  -9.834  -0.039  0.00  0.00     0.193 C 
BRANCH  33  34
ATOM     34  O35 ZIN A   1      16.171  -8.863  -0.587  0.00  0.00    -0.387 OA
BRANCH  34  35
ATOM     35  C36 ZIN A   1      16.773  -9.258  -1.821  0.00  0.00     0.193 C 
BRANCH  35  36
ATOM     36  C37 ZIN A   1      17.706  -8.149  -2.312  0.00  0.00     0.193 C 
BRANCH  36  37
ATOM     37  O38 ZIN A   1      18.790  -7.997  -1.393  0.00  0.00    -0.387 OA
BRANCH  37  38
ATOM     38  C39 ZIN A   1      19.724  -6.980  -1.760  0.00  0.00     0.193 C 
BRANCH  38  39
ATOM     39  C40 ZIN A   1      20.836  -6.906  -0.712  0.00  0.00     0.193 C 
BRANCH  39  40
ATOM     40  O41 ZIN A   1      21.581  -8.125  -0.721  0.00  0.00    -0.394 OA
ATOM     41  C42 ZIN A   1      22.649  -8.160   0.228  0.00  0.00     0.201 C 
ENDBRANCH  39  40
ENDBRANCH  38  39
ENDBRANCH  37  38
ENDBRANCH  36  37
ENDBRANCH  35  36
ENDBRANCH  34  35
ENDBRANCH  33  34
ENDBRANCH  32  33
ENDBRANCH  31  32
ENDBRANCH  30  31
ENDBRANCH  29  30
ENDBRANCH  28  29
ENDBRANCH  27  28
ENDBRANCH  26  27
ENDBRANCH  25  26
ENDBRANCH  24  25
ENDBRANCH  23  24
ENDBRANCH  22  23
ENDBRANCH  21  22
ENDBRANCH  20  21
ENDBRANCH  19  20
ENDBRANCH  13  19
BRANCH  16  42
ATOM     42  O46 ZIN A   1       2.377  -2.281   3.650  0.00  0.00    -0.386 OA
ATOM     43  H97 ZIN A   1       2.976  -1.540   3.814  0.00  0.00     0.210 HD
ENDBRANCH  16  42
BRANCH   9  44
ATOM     44  O13 ZIN A   1       1.753  -8.486   0.312  0.00  0.00    -0.358 OA
ATOM     45  H61 ZIN A   1       2.476  -9.031   0.651  0.00  0.00     0.217 HD
ENDBRANCH   9  44
BRANCH   1  46
ATOM     46  C3  ZIN A   1       1.317  -0.740  -0.015  0.00  0.00     0.299 C 
BRANCH  46  47
ATOM     47  C2  ZIN A   1       0.002  -0.004   0.002  0.00  0.00    -0.007 C 
ATOM     48  C1  ZIN A   1      -0.016   1.306   0.009  0.00  0.00     0.008 C 
ENDBRANCH  46  47
ENDBRANCH   1  46
TORSDOF 26
