REMARK  1 active torsions:
REMARK  status: ('A' for Active; 'I' for Inactive)
REMARK    1  A    between atoms: N5_5  and  C6_6 
ROOT
ATOM      1  C6  <0> d   1      -0.921  -3.684   1.562  0.00  0.00     0.139 C 
ATOM      2  N7  <0> d   1      -2.126  -4.076   1.346  0.00  0.00    -0.228 NA
ATOM      3  C8  <0> d   1      -2.808  -5.071   1.979  0.00  0.00     0.087 A 
ATOM      4  C9  <0> d   1      -4.155  -4.874   2.296  0.00  0.00     0.057 A 
ATOM      5  C10 <0> d   1      -4.881  -5.883   2.901  0.00  0.00     0.036 A 
ATOM      6 Cl11 <0> d   1      -6.552  -5.629   3.294  0.00  0.00    -0.084 Cl
ATOM      7  C12 <0> d   1      -4.280  -7.093   3.195  0.00  0.00     0.026 A 
ATOM      8  C13 <0> d   1      -2.942  -7.294   2.900  0.00  0.00     0.033 A 
ATOM      9  C14 <0> d   1      -2.200  -6.285   2.310  0.00  0.00     0.061 A 
ATOM     10  N15 <0> d   1      -0.823  -6.477   2.103  0.00  0.00    -0.354 N 
ATOM     11  C16 <0> d   1       0.076  -5.633   2.757  0.00  0.00     0.046 A 
ATOM     12  C17 <0> d   1       1.023  -6.159   3.621  0.00  0.00     0.030 A 
ATOM     13  C18 <0> d   1       1.889  -5.316   4.294  0.00  0.00     0.002 A 
ATOM     14  C19 <0> d   1       1.813  -3.947   4.110  0.00  0.00     0.001 A 
ATOM     15  C20 <0> d   1       0.884  -3.410   3.242  0.00  0.00     0.017 A 
ATOM     16  C21 <0> d   1       0.017  -4.253   2.541  0.00  0.00     0.036 A 
ATOM     17  H34 <0> d   1      -0.504  -7.181   1.517  0.00  0.00     0.166 HD
ENDROOT
BRANCH   1  18
ATOM     18  N5  <0> d   1      -0.463  -2.633   0.801  0.00  0.00    -0.362 N 
ATOM     19  C4  <0> d   1       0.946  -2.213   0.863  0.00  0.00     0.154 C 
ATOM     20  C3  <0> d   1       1.494  -2.136  -0.566  0.00  0.00     0.291 C 
ATOM     21  N2  <0> d   1       0.623  -1.273  -1.375  0.00  0.00     0.087 N 
ATOM     22  C1  <0> d   1       1.205  -1.034  -2.703  0.00  0.00     0.310 C 
ATOM     23  C23 <0> d   1      -0.730  -1.835  -1.487  0.00  0.00     0.291 C 
ATOM     24  C22 <0> d   1      -1.369  -1.899  -0.096  0.00  0.00     0.154 C 
ENDBRANCH   1  18
TORSDOF 1
