REMARK  7 active torsions:
REMARK  status: ('A' for Active; 'I' for Inactive)
REMARK    1  A    between atoms: O1_1  and  C2_2 
REMARK    2  A    between atoms: C2_2  and  C3_3 
REMARK    3  A    between atoms: C3_3  and  N4_4 
REMARK    4  A    between atoms: N7_7  and  C8_8 
REMARK    5  A    between atoms: C8_8  and  C9_9 
REMARK    6  A    between atoms: C9_9  and  C10_10 
REMARK    7  A    between atoms: C10_10  and  N11_11 
ROOT
ATOM      1  N11 ZIN A   1      -8.638   1.724  -4.608  0.00  0.00    -0.345 N 
ATOM      2  C12 ZIN A   1      -9.268   2.926  -4.295  0.00  0.00     0.052 A 
ATOM      3  C13 ZIN A   1      -8.503   3.969  -3.785  0.00  0.00     0.031 A 
ATOM      4  C14 ZIN A   1      -9.093   5.178  -3.467  0.00  0.00     0.002 A 
ATOM      5  C15 ZIN A   1     -10.450   5.358  -3.654  0.00  0.00     0.002 A 
ATOM      6  C16 ZIN A   1     -11.220   4.327  -4.160  0.00  0.00     0.021 A 
ATOM      7  C17 ZIN A   1     -10.635   3.110  -4.480  0.00  0.00     0.032 A 
ATOM      8  S18 ZIN A   1     -11.639   1.812  -5.117  0.00  0.00    -0.086 SA
ATOM      9  C19 ZIN A   1     -10.646   0.376  -4.887  0.00  0.00     0.032 A 
ATOM     10  C20 ZIN A   1     -11.241  -0.877  -4.937  0.00  0.00     0.023 A 
ATOM     11  C21 ZIN A   1     -10.479  -2.017  -4.757  0.00  0.00     0.025 A 
ATOM     12  C22 ZIN A   1      -9.120  -1.910  -4.526  0.00  0.00     0.036 A 
ATOM     13 Cl23 ZIN A   1      -8.165  -3.341  -4.299  0.00  0.00    -0.084 Cl
ATOM     14  C24 ZIN A   1      -8.521  -0.665  -4.475  0.00  0.00     0.054 A 
ATOM     15  C25 ZIN A   1      -9.279   0.488  -4.661  0.00  0.00     0.053 A 
ENDROOT
BRANCH   1  16
ATOM     16  C10 ZIN A   1      -7.205   1.762  -4.909  0.00  0.00     0.131 C 
BRANCH  16  17
ATOM     17  C9  ZIN A   1      -6.408   1.577  -3.616  0.00  0.00     0.050 C 
BRANCH  17  18
ATOM     18  C8  ZIN A   1      -4.911   1.617  -3.929  0.00  0.00     0.274 C 
BRANCH  18  19
ATOM     19  N7  ZIN A   1      -4.146   1.440  -2.688  0.00  0.00     0.091 N 
ATOM     20  C6  ZIN A   1      -2.717   1.707  -2.906  0.00  0.00     0.302 C 
ATOM     21  C5  ZIN A   1      -1.970   1.589  -1.576  0.00  0.00     0.302 C 
ATOM     22  N4  ZIN A   1      -2.171   0.244  -1.022  0.00  0.00     0.093 N 
ATOM     23  C27 ZIN A   1      -3.600  -0.024  -0.803  0.00  0.00     0.302 C 
ATOM     24  C26 ZIN A   1      -4.348   0.094  -2.133  0.00  0.00     0.302 C 
BRANCH  22  25
ATOM     25  C3  ZIN A   1      -1.406   0.066   0.220  0.00  0.00     0.298 C 
BRANCH  25  26
ATOM     26  C2  ZIN A   1      -1.631   1.272   1.135  0.00  0.00     0.194 C 
BRANCH  26  27
ATOM     27  O1  ZIN A   1      -2.996   1.302   1.555  0.00  0.00    -0.399 OA
ATOM     28  H28 ZIN A   1      -3.211   2.043   2.139  0.00  0.00     0.209 HD
ENDBRANCH  26  27
ENDBRANCH  25  26
ENDBRANCH  22  25
ENDBRANCH  18  19
ENDBRANCH  17  18
ENDBRANCH  16  17
ENDBRANCH   1  16
TORSDOF 7
