REMARK  4 active torsions:
REMARK  status: ('A' for Active; 'I' for Inactive)
REMARK    1  A    between atoms: C5_5  and  O6_6 
REMARK    2  A    between atoms: C13_12  and  O14_13 
REMARK    3  A    between atoms: N20_19  and  C22_21 
REMARK    4  A    between atoms: C22_21  and  C23_22 
ROOT
ATOM      1  O1  ZIN A   1      -0.006  -0.003   0.004  0.00  0.00    -0.295 OA
ATOM      2  C2  ZIN A   1      -0.021   1.204   0.010  0.00  0.00     0.157 C 
ATOM      3  C3  ZIN A   1      -1.347   1.903   0.033  0.00  0.00     0.084 C 
ATOM      4  C4  ZIN A   1      -1.292   3.108   0.975  0.00  0.00     0.048 C 
ATOM      5  C5  ZIN A   1      -0.163   4.033   0.523  0.00  0.00     0.102 C 
ATOM      6  C7  ZIN A   1      -0.098   5.263   1.434  0.00  0.00     0.227 C 
ATOM      7  C9  ZIN A   1       0.103   4.946   2.906  0.00  0.00     0.075 C 
ATOM      8  C10 ZIN A   1       0.911   3.713   3.147  0.00  0.00    -0.046 A 
ATOM      9  C11 ZIN A   1       1.254   3.218   4.393  0.00  0.00     0.011 A 
ATOM     10  C12 ZIN A   1       1.965   2.034   4.501  0.00  0.00     0.040 A 
ATOM     11  C13 ZIN A   1       2.358   1.273   3.402  0.00  0.00     0.099 A 
ATOM     12  C15 ZIN A   1       2.029   1.770   2.136  0.00  0.00     0.110 A 
ATOM     13  C16 ZIN A   1       1.362   2.983   2.071  0.00  0.00    -0.001 A 
ATOM     14  C17 ZIN A   1       1.173   3.317   0.630  0.00  0.00     0.058 C 
ATOM     15  C18 ZIN A   1       2.287   4.251   0.165  0.00  0.00     0.048 C 
ATOM     16  C19 ZIN A   1       2.267   5.508   1.043  0.00  0.00     0.236 C 
ATOM     17  N20 ZIN A   1       0.971   6.155   0.969  0.00  0.00    -0.063 N 
ATOM     18  H21 ZIN A   1       0.986   6.994   1.529  0.00  0.00     0.280 HD
ATOM     19  C26 ZIN A   1       1.289   1.937   0.001  0.00  0.00     0.214 C 
ATOM     20  O28 ZIN A   1       2.212   1.272   0.894  0.00  0.00    -0.334 OA
ENDROOT
BRANCH  17  21
ATOM     21  C22 ZIN A   1       0.687   6.511  -0.428  0.00  0.00     0.240 C 
BRANCH  21  22
ATOM     22  C23 ZIN A   1       1.612   7.649  -0.862  0.00  0.00     0.011 A 
ATOM     23  C25 ZIN A   1       1.393   8.246  -2.254  0.00  0.00     0.007 A 
ATOM     24  C24 ZIN A   1       2.611   7.360  -1.984  0.00  0.00     0.007 A 
ENDBRANCH  21  22
ENDBRANCH  17  21
BRANCH   5  25
ATOM     25  O6  ZIN A   1      -0.385   4.436  -0.830  0.00  0.00    -0.386 OA
ATOM     26  H33 ZIN A   1      -1.215   4.913  -0.967  0.00  0.00     0.210 HD
ENDBRANCH   5  25
BRANCH  11  27
ATOM     27  O14 ZIN A   1       3.031   0.101   3.553  0.00  0.00    -0.358 OA
ATOM     28  H38 ZIN A   1       2.458  -0.675   3.625  0.00  0.00     0.217 HD
ENDBRANCH  11  27
TORSDOF 4
