REMARK  5 active torsions:
REMARK  status: ('A' for Active; 'I' for Inactive)
REMARK    1  A    between atoms: C5_5  and  C7_6 
REMARK       I    between atoms: C7_6  and  N9_8 
REMARK    2  A    between atoms: N9_8  and  C10_9 
REMARK    3  A    between atoms: C13_12  and  O14_13 
REMARK    4  A    between atoms: C23_21  and  C25_22 
REMARK    5  A    between atoms: C25_22  and  C26_23 
ROOT
ATOM      1  C10 ZIN A   1       3.393  -0.632  -4.716  0.00  0.00     0.220 C 
ATOM      2  C11 ZIN A   1       4.826  -0.097  -4.696  0.00  0.00     0.082 C 
ATOM      3  O12 ZIN A   1       2.696  -0.157  -5.884  0.00  0.00    -0.296 OA
ATOM      4  C13 ZIN A   1       1.821  -1.240  -6.238  0.00  0.00     0.276 C 
ATOM      5  C15 ZIN A   1       1.617  -1.295  -7.739  0.00  0.00     0.173 C 
ATOM      6  C17 ZIN A   1       0.365  -0.489  -8.151  0.00  0.00     0.034 C 
ATOM      7  C18 ZIN A   1      -0.014  -1.123  -9.512  0.00  0.00     0.022 C 
ATOM      8  C19 ZIN A   1       0.649  -2.515  -9.502  0.00  0.00     0.127 C 
ATOM      9  N20 ZIN A   1       1.341  -2.662  -8.202  0.00  0.00    -0.338 N 
ATOM     10  C21 ZIN A   1       1.617  -3.817  -7.582  0.00  0.00     0.243 C 
ATOM     11  O22 ZIN A   1       1.450  -4.864  -8.171  0.00  0.00    -0.271 OA
ATOM     12  C23 ZIN A   1       2.132  -3.839  -6.168  0.00  0.00     0.189 C 
ATOM     13  N32 ZIN A   1       2.439  -2.471  -5.743  0.00  0.00    -0.277 N 
ATOM     14  C33 ZIN A   1       3.396  -2.140  -4.846  0.00  0.00     0.280 C 
ATOM     15  O34 ZIN A   1       4.139  -2.908  -4.273  0.00  0.00    -0.268 OA
ENDROOT
BRANCH   1  16
ATOM     16  N9  ZIN A   1       2.683  -0.227  -3.500  0.00  0.00    -0.321 N 
ATOM     17  C7  ZIN A   1       2.367   1.068  -3.304  0.00  0.00     0.226 C 
ATOM     18  O8  ZIN A   1       2.587   1.885  -4.173  0.00  0.00    -0.273 OA
ATOM     19  H55 ZIN A   1       2.440  -0.892  -2.837  0.00  0.00     0.166 HD
BRANCH  17  20
ATOM     20  C5  ZIN A   1       1.741   1.502  -2.003  0.00  0.00     0.104 C 
ATOM     21  C4  ZIN A   1       2.639   1.082  -0.838  0.00  0.00     0.249 C 
ATOM     22  N2  ZIN A   1       2.025   1.500   0.428  0.00  0.00    -0.069 N 
ATOM     23  C1  ZIN A   1       0.679   0.920   0.532  0.00  0.00     0.270 C 
ATOM     24  H3  ZIN A   1       2.590   1.174   1.198  0.00  0.00     0.280 HD
ATOM     25  C48 ZIN A   1       1.930   2.964   0.479  0.00  0.00     0.200 C 
ATOM     26  C36 ZIN A   1       1.017   3.464  -0.638  0.00  0.00     0.051 C 
ATOM     27  C47 ZIN A   1       1.455   3.360   1.887  0.00  0.00     0.075 C 
ATOM     28  C35 ZIN A   1       1.584   3.025  -1.992  0.00  0.00     0.027 C 
ATOM     29  C38 ZIN A   1       0.918   4.959  -0.600  0.00  0.00    -0.039 A 
ATOM     30  C46 ZIN A   1       0.699   5.814  -1.634  0.00  0.00     0.008 A 
ATOM     31  C39 ZIN A   1       1.067   5.561   0.651  0.00  0.00     0.005 A 
ATOM     32  C45 ZIN A   1       0.632   7.188  -1.409  0.00  0.00     0.003 A 
ATOM     33  C44 ZIN A   1       0.776   7.784  -0.164  0.00  0.00     0.030 A 
ATOM     34  C43 ZIN A   1       1.003   6.934   0.917  0.00  0.00     0.043 A 
ATOM     35  N42 ZIN A   1       1.197   7.054   2.260  0.00  0.00    -0.365 N 
ATOM     36  C41 ZIN A   1       1.389   5.807   2.835  0.00  0.00     0.096 A 
ATOM     37  H76 ZIN A   1       1.200   7.894   2.746  0.00  0.00     0.165 HD
ATOM     38  C40 ZIN A   1       1.324   4.861   1.910  0.00  0.00    -0.028 A 
ENDBRANCH  17  20
ENDBRANCH   1  16
BRANCH   4  39
ATOM     39  O14 ZIN A   1       0.553  -1.055  -5.608  0.00  0.00    -0.347 OA
ATOM     40  H59 ZIN A   1       0.595  -1.015  -4.642  0.00  0.00     0.215 HD
ENDBRANCH   4  39
BRANCH  12  41
ATOM     41  C25 ZIN A   1       1.050  -4.393  -5.239  0.00  0.00     0.073 C 
BRANCH  41  42
ATOM     42  C26 ZIN A   1       1.607  -4.534  -3.846  0.00  0.00    -0.056 A 
ATOM     43  C31 ZIN A   1       1.407  -3.531  -2.917  0.00  0.00     0.007 A 
ATOM     44  C30 ZIN A   1       1.914  -3.662  -1.637  0.00  0.00     0.001 A 
ATOM     45  C29 ZIN A   1       2.630  -4.793  -1.291  0.00  0.00     0.000 A 
ATOM     46  C28 ZIN A   1       2.834  -5.794  -2.222  0.00  0.00     0.001 A 
ATOM     47  C27 ZIN A   1       2.323  -5.665  -3.500  0.00  0.00     0.007 A 
ENDBRANCH  41  42
ENDBRANCH  12  41
TORSDOF 5
