REMARK  11 active torsions:
REMARK  status: ('A' for Active; 'I' for Inactive)
REMARK    1  A    between atoms: C2_2  and  N3_3 
REMARK    2  A    between atoms: N3_3  and  C5_5 
REMARK    3  A    between atoms: N3_3  and  C7_7 
REMARK    4  A    between atoms: C7_7  and  C8_8 
REMARK    5  A    between atoms: C9_9  and  C10_10 
REMARK    6  A    between atoms: C10_10  and  O11_11 
REMARK    7  A    between atoms: O11_11  and  C12_12 
REMARK    8  A    between atoms: C12_12  and  C14_14 
REMARK    9  A    between atoms: C14_14  and  O15_15 
REMARK   10  A    between atoms: C14_14  and  C16_16 
REMARK   11  A    between atoms: C14_14  and  C22_22 
ROOT
ATOM      1  C14 ZIN A   1      -7.500  -6.324  -0.727  0.00  0.00     0.176 C 
ENDROOT
BRANCH   1   2
ATOM      2  C12 ZIN A   1      -7.214  -4.847  -0.635  0.00  0.00     0.299 C 
ATOM      3  O13 ZIN A   1      -8.124  -4.053  -0.661  0.00  0.00    -0.261 OA
BRANCH   2   4
ATOM      4  O11 ZIN A   1      -5.949  -4.414  -0.523  0.00  0.00    -0.307 OA
BRANCH   4   5
ATOM      5  C10 ZIN A   1      -5.748  -2.978  -0.440  0.00  0.00     0.272 C 
BRANCH   5   6
ATOM      6  C9  ZIN A   1      -4.310  -2.689  -0.323  0.00  0.00    -0.078 C 
ATOM      7  C8  ZIN A   1      -3.162  -2.459  -0.230  0.00  0.00    -0.077 C 
BRANCH   7   8
ATOM      8  C7  ZIN A   1      -1.724  -2.170  -0.114  0.00  0.00     0.328 C 
BRANCH   8   9
ATOM      9  N3  ZIN A   1      -1.521  -0.718  -0.029  0.00  0.00    -0.062 N 
ATOM     10  H4  ZIN A   1      -2.073  -0.345   0.729  0.00  0.00     0.280 HD
BRANCH   9  11
ATOM     11  C2  ZIN A   1      -0.100  -0.435   0.215  0.00  0.00     0.231 C 
ATOM     12  C1  ZIN A   1       0.091   1.068   0.428  0.00  0.00     0.034 C 
ENDBRANCH   9  11
BRANCH   9  13
ATOM     13  C5  ZIN A   1      -1.935  -0.091  -1.291  0.00  0.00     0.231 C 
ATOM     14  C6  ZIN A   1      -1.010  -0.553  -2.418  0.00  0.00     0.034 C 
ENDBRANCH   9  13
ENDBRANCH   8   9
ENDBRANCH   7   8
ENDBRANCH   5   6
ENDBRANCH   4   5
ENDBRANCH   2   4
ENDBRANCH   1   2
BRANCH   1  15
ATOM     15  O15 ZIN A   1      -6.454  -6.966  -1.459  0.00  0.00    -0.374 OA
ATOM     16  H42 ZIN A   1      -6.349  -6.639  -2.363  0.00  0.00     0.211 HD
ENDBRANCH   1  15
BRANCH   1  17
ATOM     17  C16 ZIN A   1      -8.813  -6.539  -1.433  0.00  0.00    -0.014 A 
ATOM     18  C21 ZIN A   1      -8.843  -6.682  -2.808  0.00  0.00     0.011 A 
ATOM     19  C20 ZIN A   1     -10.048  -6.884  -3.455  0.00  0.00     0.001 A 
ATOM     20  C19 ZIN A   1     -11.223  -6.932  -2.730  0.00  0.00     0.000 A 
ATOM     21  C18 ZIN A   1     -11.194  -6.783  -1.356  0.00  0.00     0.001 A 
ATOM     22  C17 ZIN A   1      -9.989  -6.586  -0.708  0.00  0.00     0.011 A 
ENDBRANCH   1  17
BRANCH   1  23
ATOM     23  C22 ZIN A   1      -7.575  -6.918   0.681  0.00  0.00     0.035 C 
ATOM     24  C27 ZIN A   1      -6.241  -6.700   1.399  0.00  0.00     0.008 C 
ATOM     25  C26 ZIN A   1      -6.316  -7.293   2.807  0.00  0.00     0.001 C 
ATOM     26  C25 ZIN A   1      -6.606  -8.793   2.714  0.00  0.00     0.000 C 
ATOM     27  C24 ZIN A   1      -7.940  -9.011   1.996  0.00  0.00     0.001 C 
ATOM     28  C23 ZIN A   1      -7.865  -8.417   0.588  0.00  0.00     0.008 C 
ENDBRANCH   1  23
TORSDOF 11
