REMARK  5 active torsions:
REMARK  status: ('A' for Active; 'I' for Inactive)
REMARK    1  A    between atoms: O2_2  and  C3_3 
REMARK    2  A    between atoms: C4_4  and  O5_5 
REMARK    3  A    between atoms: C9_9  and  N10_10 
REMARK    4  A    between atoms: C12_12  and  N13_13 
REMARK       I    between atoms: N16_16  and  C17_17 
REMARK    5  A    between atoms: C17_17  and  C19_19 
ROOT
ATOM      1  N13 ZIN A   1      -7.080   0.218   0.059  0.00  0.00    -0.248 NA
ATOM      2  C14 ZIN A   1      -7.105   1.152   1.192  0.00  0.00     0.118 C 
ATOM      3  C15 ZIN A   1      -8.327   2.069   1.067  0.00  0.00     0.140 C 
ATOM      4  N16 ZIN A   1      -9.527   1.231   0.925  0.00  0.00    -0.348 N 
ATOM      5  C17 ZIN A   1     -10.602   1.422   1.715  0.00  0.00     0.251 C 
ATOM      6  O18 ZIN A   1     -10.588   2.294   2.557  0.00  0.00    -0.270 OA
ATOM      7  C30 ZIN A   1      -9.523   0.179  -0.103  0.00  0.00     0.140 C 
ATOM      8  C31 ZIN A   1      -8.255  -0.664   0.068  0.00  0.00     0.118 C 
ENDROOT
BRANCH   1   9
ATOM      9  C12 ZIN A   1      -5.907  -0.517   0.048  0.00  0.00     0.206 A 
ATOM     10  N11 ZIN A   1      -5.988  -1.845   0.048  0.00  0.00    -0.200 NA
ATOM     11  C9  ZIN A   1      -4.901  -2.603   0.038  0.00  0.00     0.137 A 
ATOM     12  C8  ZIN A   1      -3.636  -1.967   0.028  0.00  0.00     0.041 A 
ATOM     13  C7  ZIN A   1      -2.442  -2.697   0.018  0.00  0.00     0.057 A 
ATOM     14  C33 ZIN A   1      -3.598  -0.551   0.029  0.00  0.00     0.077 A 
ATOM     15  C4  ZIN A   1      -1.246  -2.038   0.009  0.00  0.00     0.102 A 
ATOM     16  C3  ZIN A   1      -1.200  -0.637   0.010  0.00  0.00     0.103 A 
ATOM     17  C34 ZIN A   1      -2.361   0.104   0.025  0.00  0.00     0.072 A 
ATOM     18  N32 ZIN A   1      -4.757   0.127   0.039  0.00  0.00    -0.217 NA
BRANCH  11  19
ATOM     19  N10 ZIN A   1      -5.000  -3.979   0.038  0.00  0.00    -0.383 N 
ATOM     20  H42 ZIN A   1      -4.197  -4.523   0.031  0.00  0.00     0.157 HD
ATOM     21  H43 ZIN A   1      -5.872  -4.403   0.045  0.00  0.00     0.157 HD
ENDBRANCH  11  19
BRANCH  15  22
ATOM     22  O5  ZIN A   1      -0.086  -2.749  -0.001  0.00  0.00    -0.353 OA
ATOM     23  C6  ZIN A   1      -0.198  -4.173  -0.002  0.00  0.00     0.210 C 
ENDBRANCH  15  22
BRANCH  16  24
ATOM     24  O2  ZIN A   1       0.002  -0.004   0.002  0.00  0.00    -0.353 OA
ATOM     25  C1  ZIN A   1      -0.017   1.425   0.010  0.00  0.00     0.210 C 
ENDBRANCH  16  24
ENDBRANCH   1   9
BRANCH   5  26
ATOM     26  C19 ZIN A   1     -11.822   0.552   1.551  0.00  0.00     0.245 C 
ATOM     27  O29 ZIN A   1     -12.783   0.874   2.562  0.00  0.00    -0.331 OA
ATOM     28  C28 ZIN A   1     -14.045   0.397   2.379  0.00  0.00     0.103 A 
ATOM     29  C23 ZIN A   1     -14.465  -0.046   1.130  0.00  0.00     0.102 A 
ATOM     30  C27 ZIN A   1     -14.920   0.359   3.454  0.00  0.00     0.040 A 
ATOM     31  O22 ZIN A   1     -13.621  -0.022   0.063  0.00  0.00    -0.345 OA
ATOM     32  C24 ZIN A   1     -15.758  -0.519   0.965  0.00  0.00     0.039 A 
ATOM     33  C21 ZIN A   1     -12.460   0.809   0.179  0.00  0.00     0.218 C 
ATOM     34  C25 ZIN A   1     -16.626  -0.553   2.041  0.00  0.00     0.003 A 
ATOM     35  C26 ZIN A   1     -16.207  -0.116   3.283  0.00  0.00     0.003 A 
ENDBRANCH   5  26
TORSDOF 5
