REMARK  6 active torsions:
REMARK  status: ('A' for Active; 'I' for Inactive)
REMARK    1  A    between atoms: C2_2  and  C4_4 
REMARK    2  A    between atoms: C4_4  and  C5_5 
REMARK    3  A    between atoms: C15_13  and  O16_14 
REMARK    4  A    between atoms: C18_16  and  N19_17 
REMARK    5  A    between atoms: C18_16  and  C43_39 
REMARK       I    between atoms: N19_17  and  C20_18 
REMARK    6  A    between atoms: C20_18  and  C22_20 
ROOT
ATOM      1  N19 ZIN A   1      -0.188   4.078   0.781  0.00  0.00    -0.320 N 
ATOM      2  C20 ZIN A   1       0.396   5.279   0.599  0.00  0.00     0.229 C 
ATOM      3  O21 ZIN A   1       0.585   6.011   1.548  0.00  0.00    -0.273 OA
ATOM      4  H65 ZIN A   1      -0.263   3.458   0.040  0.00  0.00     0.166 HD
ENDROOT
BRANCH   1   5
ATOM      5  C18 ZIN A   1      -0.711   3.710   2.100  0.00  0.00     0.227 C 
ATOM      6  O17 ZIN A   1       0.251   4.026   3.125  0.00  0.00    -0.295 OA
ATOM      7  C15 ZIN A   1       1.014   2.818   3.277  0.00  0.00     0.276 C 
ATOM      8  C13 ZIN A   1       1.487   2.661   4.709  0.00  0.00     0.173 C 
ATOM      9  N48 ZIN A   1       0.152   1.692   2.882  0.00  0.00    -0.277 N 
ATOM     10  N9  ZIN A   1       1.645   1.252   5.093  0.00  0.00    -0.338 N 
ATOM     11  C12 ZIN A   1       2.903   3.254   4.882  0.00  0.00     0.034 C 
ATOM     12  C7  ZIN A   1       1.101   0.173   4.515  0.00  0.00     0.243 C 
ATOM     13  C10 ZIN A   1       2.571   1.241   6.241  0.00  0.00     0.127 C 
ATOM     14  C5  ZIN A   1       0.364   0.279   3.206  0.00  0.00     0.185 C 
ATOM     15  O8  ZIN A   1       1.204  -0.909   5.054  0.00  0.00    -0.271 OA
ATOM     16  C11 ZIN A   1       3.430   2.517   6.137  0.00  0.00     0.022 C 
ATOM     17  C46 ZIN A   1      -0.903   2.211   2.189  0.00  0.00     0.281 C 
ATOM     18  O47 ZIN A   1      -1.828   1.577   1.727  0.00  0.00    -0.268 OA
BRANCH   7  19
ATOM     19  O16 ZIN A   1       2.144   2.878   2.405  0.00  0.00    -0.347 OA
ATOM     20  H64 ZIN A   1       1.915   2.979   1.471  0.00  0.00     0.215 HD
ENDBRANCH   7  19
BRANCH  14  21
ATOM     21  C4  ZIN A   1       1.190  -0.380   2.100  0.00  0.00     0.039 C 
BRANCH  21  22
ATOM     22  C2  ZIN A   1       1.286  -1.884   2.363  0.00  0.00    -0.020 C 
ATOM     23  C1  ZIN A   1      -0.109  -2.507   2.279  0.00  0.00     0.009 C 
ATOM     24  C3  ZIN A   1       2.195  -2.528   1.314  0.00  0.00     0.009 C 
ENDBRANCH  21  22
ENDBRANCH  14  21
BRANCH   5  25
ATOM     25  C43 ZIN A   1      -2.031   4.434   2.368  0.00  0.00     0.043 C 
ATOM     26  C44 ZIN A   1      -1.769   5.934   2.520  0.00  0.00     0.015 C 
ATOM     27  C45 ZIN A   1      -2.989   4.199   1.198  0.00  0.00     0.015 C 
ENDBRANCH   5  25
ENDBRANCH   1   5
BRANCH   2  28
ATOM     28  C22 ZIN A   1       0.813   5.712  -0.782  0.00  0.00     0.127 C 
ATOM     29  C42 ZIN A   1       1.462   7.100  -0.716  0.00  0.00     0.253 C 
ATOM     30  N39 ZIN A   1       1.928   7.460  -2.057  0.00  0.00    -0.065 N 
ATOM     31  C37 ZIN A   1       3.009   6.592  -2.506  0.00  0.00     0.225 C 
ATOM     32  H40 ZIN A   1       1.157   7.386  -2.703  0.00  0.00     0.280 HD
ATOM     33  C41 ZIN A   1       2.406   8.849  -2.039  0.00  0.00     0.270 C 
ATOM     34  C25 ZIN A   1       2.817   5.154  -2.108  0.00  0.00    -0.019 C 
ATOM     35  C36 ZIN A   1       3.228   6.787  -4.013  0.00  0.00     0.080 C 
ATOM     36  C24 ZIN A   1       1.827   4.745  -1.334  0.00  0.00    -0.001 C 
ATOM     37  C26 ZIN A   1       3.794   4.165  -2.604  0.00  0.00    -0.015 A 
ATOM     38  C31 ZIN A   1       4.144   2.933  -2.099  0.00  0.00     0.013 A 
ATOM     39  C27 ZIN A   1       4.469   4.556  -3.779  0.00  0.00     0.011 A 
ATOM     40  C30 ZIN A   1       5.114   2.171  -2.747  0.00  0.00     0.003 A 
ATOM     41  C29 ZIN A   1       5.782   2.569  -3.899  0.00  0.00     0.030 A 
ATOM     42  C28 ZIN A   1       5.450   3.811  -4.439  0.00  0.00     0.044 A 
ATOM     43  N32 ZIN A   1       5.828   4.576  -5.502  0.00  0.00    -0.349 N 
ATOM     44  C33 ZIN A   1       5.109   5.761  -5.525  0.00  0.00     0.087 A 
ATOM     45  H70 ZIN A   1       6.506   4.327  -6.150  0.00  0.00     0.166 HD
ATOM     46 Br34 ZIN A   1       5.305   7.119  -6.826  0.00  0.00    -0.031 Br
ATOM     47  C35 ZIN A   1       4.260   5.805  -4.502  0.00  0.00    -0.008 A 
ENDBRANCH   2  28
TORSDOF 6
