REMARK  2 active torsions:
REMARK  status: ('A' for Active; 'I' for Inactive)
REMARK    1  A    between atoms: N1_1  and  C2_2 
REMARK    2  A    between atoms: C9_9  and  N10_10 
ROOT
ATOM      1  C2  ZIN A   1       0.002  -0.004   0.002  0.00  0.00     0.027 A 
ATOM      2  C3  ZIN A   1      -1.189  -0.693   0.004  0.00  0.00     0.059 A 
ATOM      3  C4  ZIN A   1      -1.177  -2.101  -0.004  0.00  0.00     0.045 A 
ATOM      4  N5  ZIN A   1      -2.313  -2.791  -0.003  0.00  0.00    -0.355 N 
ATOM      5  H6  ZIN A   1      -3.158  -2.315   0.004  0.00  0.00     0.166 HD
ATOM      6  C7  ZIN A   1      -2.317  -4.122  -0.011  0.00  0.00     0.045 A 
ATOM      7  C8  ZIN A   1      -3.529  -4.839  -0.011  0.00  0.00     0.059 A 
ATOM      8  C9  ZIN A   1      -3.503  -6.214  -0.020  0.00  0.00     0.027 A 
ATOM      9  C11 ZIN A   1      -2.294  -6.923  -0.031  0.00  0.00     0.030 A 
ATOM     10  C12 ZIN A   1      -1.098  -6.284  -0.031  0.00  0.00     0.016 A 
ATOM     11  C13 ZIN A   1      -1.058  -4.874  -0.022  0.00  0.00    -0.008 A 
ATOM     12  C14 ZIN A   1       0.157  -4.186  -0.023  0.00  0.00     0.027 A 
ATOM     13  C15 ZIN A   1       0.118  -2.789  -0.015  0.00  0.00    -0.008 A 
ATOM     14  C16 ZIN A   1       1.305  -2.027  -0.015  0.00  0.00     0.016 A 
ATOM     15  C17 ZIN A   1       1.234  -0.673  -0.013  0.00  0.00     0.030 A 
ENDROOT
BRANCH   1  16
ATOM     16  N1  ZIN A   1      -0.017   1.389   0.010  0.00  0.00    -0.399 N 
ATOM     17  H18 ZIN A   1       0.817   1.885   0.004  0.00  0.00     0.156 HD
ATOM     18  H19 ZIN A   1      -0.863   1.862   0.016  0.00  0.00     0.156 HD
ENDBRANCH   1  16
BRANCH   8  19
ATOM     19  N10 ZIN A   1      -4.705  -6.918  -0.020  0.00  0.00    -0.399 N 
ATOM     20  H22 ZIN A   1      -5.548  -6.438  -0.013  0.00  0.00     0.156 HD
ATOM     21  H23 ZIN A   1      -4.699  -7.888  -0.026  0.00  0.00     0.156 HD
ENDBRANCH   8  19
TORSDOF 2
