REMARK  1 active torsions:
REMARK  status: ('A' for Active; 'I' for Inactive)
REMARK    1  A    between atoms: C8_8  and  C9_9 
ROOT
ATOM      1  C1  ZIN A   1      -0.018   1.503   0.010  0.00  0.00     0.048 C 
ATOM      2  C2  ZIN A   1       0.002  -0.004   0.002  0.00  0.00    -0.055 A 
ATOM      3  C3  ZIN A   1       0.006  -0.687  -1.179  0.00  0.00     0.083 A 
ATOM      4  C4  ZIN A   1       0.026  -2.092  -1.160  0.00  0.00     0.274 A 
ATOM      5  O5  ZIN A   1       0.030  -2.716  -2.209  0.00  0.00    -0.266 OA
ATOM      6  N6  ZIN A   1       0.040  -2.751   0.014  0.00  0.00    -0.155 N 
ATOM      7  O7  ZIN A   1       0.061  -4.167   0.023  0.00  0.00    -0.077 OA
ATOM      8  C8  ZIN A   1       0.037  -2.073   1.190  0.00  0.00     0.052 A 
ATOM      9  C15 ZIN A   1       0.023  -0.719   1.208  0.00  0.00     0.035 A 
ENDROOT
BRANCH   8  10
ATOM     10  C9  ZIN A   1       0.054  -2.835   2.490  0.00  0.00     0.038 C 
ATOM     11  C14 ZIN A   1       1.316  -3.697   2.559  0.00  0.00     0.011 C 
ATOM     12  C13 ZIN A   1       1.334  -4.471   3.879  0.00  0.00     0.001 C 
ATOM     13  C12 ZIN A   1       0.098  -5.368   3.961  0.00  0.00     0.000 C 
ATOM     14  C11 ZIN A   1      -1.165  -4.506   3.892  0.00  0.00     0.001 C 
ATOM     15  C10 ZIN A   1      -1.182  -3.732   2.572  0.00  0.00     0.011 C 
ENDBRANCH   8  10
TORSDOF 1
