REMARK  5 active torsions:
REMARK  status: ('A' for Active; 'I' for Inactive)
REMARK    1  A    between atoms: O2_2  and  C3_3 
REMARK    2  A    between atoms: C6_6  and  C7_7 
REMARK    3  A    between atoms: C7_7  and  C9_9 
REMARK    4  A    between atoms: C10_10  and  C12_12 
REMARK    5  A    between atoms: C15_15  and  C16_16 
ROOT
ATOM      1  C9  ZIN A   1      -5.012  -4.027   0.034  0.00  0.00     0.096 C 
ATOM      2  C10 ZIN A   1      -6.217  -4.661   0.041  0.00  0.00     0.121 C 
ATOM      3  O11 ZIN A   1      -7.361  -3.941   0.050  0.00  0.00    -0.191 OA
ENDROOT
BRANCH   2   4
ATOM      4  C12 ZIN A   1      -6.274  -6.136   0.040  0.00  0.00     0.001 A 
ATOM      5  C21 ZIN A   1      -7.509  -6.790   0.048  0.00  0.00     0.015 A 
ATOM      6  C20 ZIN A   1      -7.554  -8.168   0.042  0.00  0.00     0.009 A 
ATOM      7  C15 ZIN A   1      -6.382  -8.903   0.038  0.00  0.00    -0.051 A 
ATOM      8  C14 ZIN A   1      -5.155  -8.261   0.036  0.00  0.00     0.009 A 
ATOM      9  C13 ZIN A   1      -5.094  -6.884   0.037  0.00  0.00     0.015 A 
BRANCH   7  10
ATOM     10  C16 ZIN A   1      -6.440 -10.409   0.037  0.00  0.00    -0.024 C 
ATOM     11  C17 ZIN A   1      -5.737 -10.948   1.284  0.00  0.00     0.019 C 
ATOM     12  C18 ZIN A   1      -7.901 -10.863   0.039  0.00  0.00     0.019 C 
ATOM     13  C19 ZIN A   1      -5.742 -10.945  -1.214  0.00  0.00     0.019 C 
ENDBRANCH   7  10
ENDBRANCH   2   4
BRANCH   1  14
ATOM     14  C7  ZIN A   1      -4.958  -2.617   0.035  0.00  0.00     0.184 C 
ATOM     15  O8  ZIN A   1      -5.989  -1.967   0.043  0.00  0.00    -0.287 OA
BRANCH  14  16
ATOM     16  C6  ZIN A   1      -3.650  -1.928   0.027  0.00  0.00     0.014 A 
ATOM     17  C5  ZIN A   1      -3.594  -0.532   0.028  0.00  0.00     0.018 A 
ATOM     18  C4  ZIN A   1      -2.373   0.106   0.020  0.00  0.00     0.037 A 
ATOM     19  C3  ZIN A   1      -1.199  -0.637   0.010  0.00  0.00     0.068 A 
ATOM     20  C23 ZIN A   1      -1.251  -2.026   0.003  0.00  0.00     0.037 A 
ATOM     21  C22 ZIN A   1      -2.467  -2.671   0.017  0.00  0.00     0.018 A 
BRANCH  19  22
ATOM     22  O2  ZIN A   1       0.002  -0.004   0.002  0.00  0.00    -0.356 OA
ATOM     23  C1  ZIN A   1      -0.017   1.425   0.010  0.00  0.00     0.210 C 
ENDBRANCH  19  22
ENDBRANCH  14  16
ENDBRANCH   1  14
TORSDOF 5
