REMARK  2 active torsions:
REMARK  status: ('A' for Active; 'I' for Inactive)
REMARK    1  A    between atoms: C7_7  and  C8_8 
REMARK    2  A    between atoms: C8_8  and  N9_9 
ROOT
ATOM      1  N9  ZIN A   1       2.815   1.255   1.340  0.00  0.00    -0.063 N 
ATOM      2  H10 ZIN A   1       2.725   2.029   1.981  0.00  0.00     0.280 HD
ATOM      3  C11 ZIN A   1       4.198   0.759   1.365  0.00  0.00     0.240 C 
ATOM      4  C12 ZIN A   1       4.651   0.604   2.822  0.00  0.00     0.074 C 
ATOM      5  C13 ZIN A   1       3.581  -0.172   3.561  0.00  0.00    -0.008 A 
ATOM      6  C14 ZIN A   1       2.335  -0.369   3.084  0.00  0.00    -0.019 A 
ATOM      7  C15 ZIN A   1       1.526  -1.114   3.934  0.00  0.00     0.017 A 
ATOM      8  C16 ZIN A   1       2.093  -1.509   5.071  0.00  0.00     0.051 A 
ATOM      9  S17 ZIN A   1       3.754  -0.938   5.131  0.00  0.00    -0.106 SA
ATOM     10  C18 ZIN A   1       1.892   0.184   1.738  0.00  0.00     0.274 C 
ENDROOT
BRANCH   1  11
ATOM     11  C8  ZIN A   1       2.482   1.705  -0.018  0.00  0.00     0.275 C 
BRANCH  11  12
ATOM     12  C7  ZIN A   1       1.123   2.354  -0.013  0.00  0.00    -0.011 A 
ATOM     13  C2  ZIN A   1       0.971   3.640   0.476  0.00  0.00     0.042 A 
ATOM     14 Cl1  ZIN A   1       2.349   4.507   1.079  0.00  0.00    -0.084 Cl
ATOM     15  C3  ZIN A   1      -0.277   4.236   0.479  0.00  0.00     0.024 A 
ATOM     16  C4  ZIN A   1      -1.374   3.544  -0.001  0.00  0.00     0.002 A 
ATOM     17  C5  ZIN A   1      -1.223   2.258  -0.484  0.00  0.00     0.001 A 
ATOM     18  C6  ZIN A   1       0.025   1.662  -0.488  0.00  0.00     0.010 A 
ENDBRANCH  11  12
ENDBRANCH   1  11
TORSDOF 2
