REMARK  6 active torsions:
REMARK  status: ('A' for Active; 'I' for Inactive)
REMARK    1  A    between atoms: C7_7  and  O9_8 
REMARK    2  A    between atoms: O9_8  and  C10_9 
REMARK    3  A    between atoms: C10_9  and  C12_11 
REMARK    4  A    between atoms: C12_11  and  O13_12 
REMARK    5  A    between atoms: C12_11  and  C14_13 
REMARK    6  A    between atoms: C12_11  and  C20_19 
ROOT
ATOM      1  C12 ZIN A   1       4.526  -0.005   4.149  0.00  0.00     0.201 C 
ENDROOT
BRANCH   1   2
ATOM      2  C10 ZIN A   1       3.385   0.114   3.172  0.00  0.00     0.303 C 
ATOM      3  O11 ZIN A   1       3.274   1.105   2.491  0.00  0.00    -0.261 OA
BRANCH   2   4
ATOM      4  O9  ZIN A   1       2.492  -0.882   3.058  0.00  0.00    -0.311 OA
BRANCH   4   5
ATOM      5  C7  ZIN A   1       1.419  -0.699   2.097  0.00  0.00     0.158 C 
ATOM      6  C6  ZIN A   1       1.854  -1.247   0.735  0.00  0.00     0.036 C 
ATOM      7  C5  ZIN A   1       0.690  -1.119  -0.251  0.00  0.00     0.030 C 
ATOM      8  C4  ZIN A   1      -0.528  -1.857   0.309  0.00  0.00     0.236 C 
ATOM      9  N2  ZIN A   1      -0.911  -1.270   1.598  0.00  0.00    -0.072 N 
ATOM     10  C1  ZIN A   1      -1.173   0.165   1.423  0.00  0.00     0.272 C 
ATOM     11  C26 ZIN A   1       0.174  -1.452   2.570  0.00  0.00     0.268 C 
ATOM     12  C3  ZIN A   1      -2.125  -1.931   2.093  0.00  0.00     0.272 C 
ENDBRANCH   4   5
ENDBRANCH   2   4
ENDBRANCH   1   2
BRANCH   1  13
ATOM     13  O13 ZIN A   1       4.087  -0.711   5.311  0.00  0.00    -0.371 OA
ATOM     14  H39 ZIN A   1       3.355  -0.283   5.778  0.00  0.00     0.212 HD
ENDBRANCH   1  13
BRANCH   1  15
ATOM     15  C14 ZIN A   1       5.663  -0.757   3.505  0.00  0.00    -0.009 A 
ATOM     16  C19 ZIN A   1       6.385  -1.679   4.239  0.00  0.00     0.011 A 
ATOM     17  C18 ZIN A   1       7.425  -2.372   3.647  0.00  0.00     0.001 A 
ATOM     18  C17 ZIN A   1       7.748  -2.136   2.324  0.00  0.00     0.000 A 
ATOM     19  C16 ZIN A   1       7.029  -1.210   1.592  0.00  0.00     0.001 A 
ATOM     20  C15 ZIN A   1       5.986  -0.520   2.182  0.00  0.00     0.011 A 
ENDBRANCH   1  15
BRANCH   1  21
ATOM     21  C20 ZIN A   1       4.995   1.371   4.544  0.00  0.00    -0.009 A 
ATOM     22  C25 ZIN A   1       5.576   2.200   3.603  0.00  0.00     0.011 A 
ATOM     23  C24 ZIN A   1       6.002   3.465   3.965  0.00  0.00     0.001 A 
ATOM     24  C23 ZIN A   1       5.855   3.897   5.270  0.00  0.00     0.000 A 
ATOM     25  C22 ZIN A   1       5.278   3.066   6.212  0.00  0.00     0.001 A 
ATOM     26  C21 ZIN A   1       4.848   1.803   5.849  0.00  0.00     0.011 A 
ENDBRANCH   1  21
TORSDOF 6
