REMARK  3 active torsions:
REMARK  status: ('A' for Active; 'I' for Inactive)
REMARK    1  A    between atoms: C2_2  and  C3_3 
REMARK    2  A    between atoms: C8_8  and  N9_9 
REMARK    3  A    between atoms: C12_12  and  N13_13 
ROOT
ATOM      1  C3  ZIN A   1       0.817  -0.598   1.131  0.00  0.00    -0.036 A 
ATOM      2  C4  ZIN A   1       2.167  -0.803   0.971  0.00  0.00     0.025 A 
ATOM      3  C5  ZIN A   1       2.955  -1.171   2.066  0.00  0.00     0.023 A 
ATOM      4  C6  ZIN A   1       2.383  -1.337   3.327  0.00  0.00    -0.028 A 
ATOM      5  C7  ZIN A   1       1.024  -1.122   3.478  0.00  0.00     0.033 A 
ATOM      6  C8  ZIN A   1       0.242  -0.750   2.391  0.00  0.00     0.017 A 
ATOM      7  C21 ZIN A   1       3.167  -1.752   4.542  0.00  0.00     0.024 C 
ATOM      8  C22 ZIN A   1       2.754  -0.875   5.725  0.00  0.00     0.027 C 
ATOM      9  C23 ZIN A   1       2.843  -3.212   4.868  0.00  0.00     0.027 C 
ATOM     10  C24 ZIN A   1       4.649  -1.618   4.328  0.00  0.00     0.037 A 
ATOM     11  C25 ZIN A   1       5.225  -1.452   3.088  0.00  0.00     0.051 A 
ATOM     12  C26 ZIN A   1       6.658  -1.374   3.285  0.00  0.00     0.007 A 
ATOM     13  C27 ZIN A   1       7.732  -1.216   2.406  0.00  0.00     0.016 A 
ATOM     14  C28 ZIN A   1       8.989  -1.182   2.953  0.00  0.00     0.024 A 
ATOM     15  C29 ZIN A   1       9.197  -1.299   4.331  0.00  0.00     0.046 A 
ATOM     16  C30 ZIN A   1      10.535  -1.255   4.839  0.00  0.00     0.099 C 
ATOM     17  N31 ZIN A   1      11.597  -1.219   5.242  0.00  0.00    -0.191 NA
ATOM     18  C32 ZIN A   1       8.134  -1.459   5.227  0.00  0.00     0.053 A 
ATOM     19  C33 ZIN A   1       6.855  -1.496   4.686  0.00  0.00     0.045 A 
ATOM     20  N34 ZIN A   1       5.624  -1.638   5.269  0.00  0.00    -0.357 N 
ATOM     21  C35 ZIN A   1       4.412  -1.374   1.865  0.00  0.00     0.195 C 
ATOM     22  O36 ZIN A   1       4.904  -1.470   0.755  0.00  0.00    -0.287 OA
ATOM     23  H70 ZIN A   1       5.471  -1.739   6.222  0.00  0.00     0.166 HD
ENDROOT
BRANCH   1  24
ATOM     24  C2  ZIN A   1      -0.035  -0.205  -0.048  0.00  0.00     0.036 C 
ATOM     25  C1  ZIN A   1      -0.171   1.318  -0.094  0.00  0.00     0.010 C 
ENDBRANCH   1  24
BRANCH   6  26
ATOM     26  N9  ZIN A   1      -1.122  -0.538   2.559  0.00  0.00    -0.283 NA
ATOM     27  C20 ZIN A   1      -1.805  -1.782   2.937  0.00  0.00     0.098 C 
ATOM     28  C19 ZIN A   1      -3.316  -1.545   2.971  0.00  0.00     0.050 C 
ATOM     29  C12 ZIN A   1      -3.632  -0.440   3.983  0.00  0.00     0.225 C 
ATOM     30  C11 ZIN A   1      -2.871   0.830   3.594  0.00  0.00     0.050 C 
ATOM     31  C10 ZIN A   1      -1.372   0.524   3.542  0.00  0.00     0.098 C 
BRANCH  29  32
ATOM     32  N13 ZIN A   1      -5.076  -0.168   3.978  0.00  0.00     0.097 N 
ATOM     33  C18 ZIN A   1      -5.824  -1.285   4.572  0.00  0.00     0.299 C 
ATOM     34  C17 ZIN A   1      -7.324  -0.987   4.492  0.00  0.00     0.198 C 
ATOM     35  O16 ZIN A   1      -7.593   0.255   5.149  0.00  0.00    -0.388 OA
ATOM     36  C15 ZIN A   1      -6.881   1.365   4.596  0.00  0.00     0.198 C 
ATOM     37  C14 ZIN A   1      -5.377   1.090   4.676  0.00  0.00     0.299 C 
ENDBRANCH  29  32
ENDBRANCH   6  26
TORSDOF 3
