REMARK  1 active torsions:
REMARK  status: ('A' for Active; 'I' for Inactive)
REMARK    1  A    between atoms: N1_1  and  C2_2 
ROOT
ATOM      1  C2  <0> d   1       0.002  -0.004   0.002  0.00  0.00     0.028 A 
ATOM      2  C3  <0> d   1      -1.185  -0.736   0.004  0.00  0.00     0.046 A 
ATOM      3  C4  <0> d   1      -1.123  -2.113  -0.005  0.00  0.00     0.089 A 
ATOM      4  N5  <0> d   1       0.039  -2.738  -0.014  0.00  0.00    -0.375 N 
ATOM      5  H6  <0> d   1       0.052  -3.708  -0.020  0.00  0.00     0.164 HD
ATOM      6  C7  <0> d   1       1.184  -2.082  -0.016  0.00  0.00     0.089 A 
ATOM      7  C8  <0> d   1       1.209  -0.703  -0.013  0.00  0.00     0.046 A 
ENDROOT
BRANCH   1   8
ATOM      8  N1  <0> d   1      -0.017   1.387   0.010  0.00  0.00    -0.399 N 
ATOM      9  H9  <0> d   1       0.817   1.884   0.004  0.00  0.00     0.156 HD
ATOM     10  H10 <0> d   1      -0.863   1.861   0.016  0.00  0.00     0.156 HD
ENDBRANCH   1   8
TORSDOF 1
