REMARK  9 active torsions:
REMARK  status: ('A' for Active; 'I' for Inactive)
REMARK    1  A    between atoms: O2_2  and  C3_3 
REMARK    2  A    between atoms: C8_8  and  O9_9 
REMARK    3  A    between atoms: C14_13  and  O16_14 
REMARK    4  A    between atoms: O16_14  and  C17_15 
REMARK    5  A    between atoms: C17_15  and  C19_17 
REMARK    6  A    between atoms: C19_17  and  N21_18 
REMARK    7  A    between atoms: C19_17  and  C25_22 
REMARK    8  A    between atoms: C28_25  and  C30_26 
REMARK    9  A    between atoms: C30_26  and  C31_27 
ROOT
ATOM      1  C3  ZIN A   1      -1.197  -0.985  -0.442  0.00  0.00     0.102 A 
ATOM      2  C4  ZIN A   1      -2.348  -0.217  -0.479  0.00  0.00     0.047 A 
ATOM      3  C5  ZIN A   1      -3.593  -0.814  -0.345  0.00  0.00    -0.045 A 
ATOM      4  C6  ZIN A   1      -3.685  -2.179  -0.172  0.00  0.00    -0.018 A 
ATOM      5  C7  ZIN A   1      -2.536  -2.954  -0.139  0.00  0.00     0.049 A 
ATOM      6  C8  ZIN A   1      -1.292  -2.364  -0.277  0.00  0.00     0.102 A 
ATOM      7  C11 ZIN A   1      -5.021  -2.864  -0.007  0.00  0.00     0.224 C 
ATOM      8  C13 ZIN A   1      -5.263  -3.102   1.486  0.00  0.00     0.071 C 
ATOM      9  C14 ZIN A   1      -6.633  -3.755   1.686  0.00  0.00     0.140 C 
ATOM     10  C28 ZIN A   1      -7.708  -2.848   1.078  0.00  0.00     0.041 C 
ATOM     11  C34 ZIN A   1      -7.394  -2.631  -0.404  0.00  0.00     0.243 C 
ATOM     12  N35 ZIN A   1      -6.077  -2.015  -0.561  0.00  0.00    -0.062 N 
ATOM     13  H36 ZIN A   1      -5.897  -1.883  -1.545  0.00  0.00     0.280 HD
ATOM     14  C37 ZIN A   1      -6.030  -0.708   0.107  0.00  0.00     0.240 C 
ATOM     15  C38 ZIN A   1      -4.819   0.063  -0.401  0.00  0.00     0.067 C 
ENDROOT
BRANCH   9  16
ATOM     16  O16 ZIN A   1      -6.886  -3.929   3.105  0.00  0.00    -0.314 OA
BRANCH  16  17
ATOM     17  C17 ZIN A   1      -6.484  -5.084   3.658  0.00  0.00     0.290 C 
ATOM     18  O18 ZIN A   1      -5.937  -5.921   2.980  0.00  0.00    -0.263 OA
BRANCH  17  19
ATOM     19  C19 ZIN A   1      -6.713  -5.336   5.126  0.00  0.00     0.285 C 
BRANCH  19  20
ATOM     20  N21 ZIN A   1      -6.643  -6.779   5.392  0.00  0.00    -0.066 N 
ATOM     21  H22 ZIN A   1      -5.732  -7.125   5.130  0.00  0.00     0.275 HD
ATOM     22  H23 ZIN A   1      -6.796  -6.948   6.375  0.00  0.00     0.275 HD
ATOM     23  H24 ZIN A   1      -7.351  -7.255   4.854  0.00  0.00     0.275 HD
ENDBRANCH  19  20
BRANCH  19  24
ATOM     24  C25 ZIN A   1      -5.638  -4.614   5.942  0.00  0.00     0.018 C 
ATOM     25  C26 ZIN A   1      -5.711  -3.111   5.665  0.00  0.00     0.012 C 
ATOM     26  C27 ZIN A   1      -5.870  -4.870   7.432  0.00  0.00     0.012 C 
ENDBRANCH  19  24
ENDBRANCH  17  19
ENDBRANCH  16  17
ENDBRANCH   9  16
BRANCH  10  27
ATOM     27  C30 ZIN A   1      -9.079  -3.512   1.221  0.00  0.00     0.012 C 
BRANCH  27  28
ATOM     28  C31 ZIN A   1     -10.165  -2.548   0.740  0.00  0.00    -0.022 C 
ATOM     29  C32 ZIN A   1     -11.519  -3.261   0.746  0.00  0.00     0.009 C 
ATOM     30  C33 ZIN A   1     -10.222  -1.337   1.673  0.00  0.00     0.009 C 
ENDBRANCH  27  28
ENDBRANCH  10  27
BRANCH   6  31
ATOM     31  O9  ZIN A   1      -0.166  -3.126  -0.244  0.00  0.00    -0.353 OA
ATOM     32  C10 ZIN A   1      -0.341  -4.533  -0.062  0.00  0.00     0.210 C 
ENDBRANCH   6  31
BRANCH   1  33
ATOM     33  O2  ZIN A   1       0.021  -0.394  -0.571  0.00  0.00    -0.353 OA
ATOM     34  C1  ZIN A   1       0.040   1.025  -0.737  0.00  0.00     0.210 C 
ENDBRANCH   1  33
TORSDOF 9
