REMARK  13 active torsions:
REMARK  status: ('A' for Active; 'I' for Inactive)
REMARK    1  A    between atoms: O2_2  and  C3_3 
REMARK    2  A    between atoms: C6_6  and  C7_7 
REMARK    3  A    between atoms: C7_7  and  C8_8 
REMARK    4  A    between atoms: C8_8  and  N9_9 
REMARK    5  A    between atoms: N9_9  and  C12_12 
REMARK    6  A    between atoms: C12_12  and  C13_13 
REMARK    7  A    between atoms: C13_13  and  C14_14 
REMARK    8  A    between atoms: C14_14  and  C15_15 
REMARK    9  A    between atoms: C15_15  and  C18_18 
REMARK   10  A    between atoms: C15_15  and  C28_28 
REMARK   11  A    between atoms: C21_21  and  O22_22 
REMARK   12  A    between atoms: C24_24  and  O25_25 
REMARK   13  A    between atoms: C32_32  and  O33_33 
ROOT
ATOM      1  C15 ZIN A   1       9.809  -4.261  -7.734  0.00  0.00     0.079 C 
ATOM      2  C16 ZIN A   1       9.868  -5.732  -7.716  0.00  0.00     0.074 C 
ATOM      3  N17 ZIN A   1       9.913  -6.867  -7.702  0.00  0.00    -0.196 NA
ENDROOT
BRANCH   1   4
ATOM      4  C14 ZIN A   1       9.811  -3.733  -6.299  0.00  0.00     0.032 C 
BRANCH   4   5
ATOM      5  C13 ZIN A   1       8.594  -4.282  -5.552  0.00  0.00     0.030 C 
BRANCH   5   6
ATOM      6  C12 ZIN A   1       8.595  -3.754  -4.116  0.00  0.00     0.234 C 
BRANCH   6   7
ATOM      7  N9  ZIN A   1       7.427  -4.281  -3.399  0.00  0.00    -0.075 N 
ATOM      8  H10 ZIN A   1       6.587  -4.054  -3.910  0.00  0.00     0.279 HD
ATOM      9  C11 ZIN A   1       7.545  -5.740  -3.276  0.00  0.00     0.269 C 
BRANCH   7  10
ATOM     10  C8  ZIN A   1       7.362  -3.681  -2.060  0.00  0.00     0.239 C 
BRANCH  10  11
ATOM     11  C7  ZIN A   1       6.079  -4.133  -1.359  0.00  0.00     0.066 C 
BRANCH  11  12
ATOM     12  C6  ZIN A   1       6.013  -3.518   0.014  0.00  0.00    -0.054 A 
ATOM     13  C5  ZIN A   1       5.402  -2.291   0.191  0.00  0.00     0.010 A 
ATOM     14  C4  ZIN A   1       5.338  -1.721   1.450  0.00  0.00     0.040 A 
ATOM     15  C3  ZIN A   1       5.887  -2.381   2.537  0.00  0.00     0.101 A 
ATOM     16  C32 ZIN A   1       6.507  -3.615   2.358  0.00  0.00     0.102 A 
ATOM     17  C31 ZIN A   1       6.563  -4.181   1.095  0.00  0.00     0.046 A 
BRANCH  15  18
ATOM     18  O2  ZIN A   1       5.825  -1.823   3.775  0.00  0.00    -0.353 OA
ATOM     19  C1  ZIN A   1       5.174  -0.555   3.884  0.00  0.00     0.210 C 
ENDBRANCH  15  18
BRANCH  16  20
ATOM     20  O33 ZIN A   1       7.048  -4.266   3.422  0.00  0.00    -0.353 OA
ATOM     21  C34 ZIN A   1       7.659  -5.532   3.166  0.00  0.00     0.210 C 
ENDBRANCH  16  20
ENDBRANCH  11  12
ENDBRANCH  10  11
ENDBRANCH   7  10
ENDBRANCH   6   7
ENDBRANCH   5   6
ENDBRANCH   4   5
ENDBRANCH   1   4
BRANCH   1  22
ATOM     22  C18 ZIN A   1      11.008  -3.720  -8.470  0.00  0.00    -0.032 A 
ATOM     23  C27 ZIN A   1      12.280  -3.949  -7.979  0.00  0.00     0.048 A 
ATOM     24  C24 ZIN A   1      13.384  -3.458  -8.657  0.00  0.00     0.102 A 
ATOM     25  C21 ZIN A   1      13.208  -2.723  -9.826  0.00  0.00     0.101 A 
ATOM     26  C20 ZIN A   1      11.930  -2.492 -10.310  0.00  0.00     0.040 A 
ATOM     27  C19 ZIN A   1      10.834  -2.990  -9.631  0.00  0.00     0.012 A 
BRANCH  24  28
ATOM     28  O25 ZIN A   1      14.636  -3.687  -8.178  0.00  0.00    -0.353 OA
ATOM     29  C26 ZIN A   1      14.740  -4.448  -6.973  0.00  0.00     0.210 C 
ENDBRANCH  24  28
BRANCH  25  30
ATOM     30  O22 ZIN A   1      14.287  -2.233 -10.493  0.00  0.00    -0.353 OA
ATOM     31  C23 ZIN A   1      14.031  -1.489 -11.685  0.00  0.00     0.210 C 
ENDBRANCH  25  30
ENDBRANCH   1  22
BRANCH   1  32
ATOM     32  C28 ZIN A   1       8.530  -3.810  -8.443  0.00  0.00     0.004 C 
ATOM     33  C29 ZIN A   1       8.497  -2.282  -8.511  0.00  0.00     0.011 C 
ATOM     34  C30 ZIN A   1       8.502  -4.385  -9.860  0.00  0.00     0.011 C 
ENDBRANCH   1  32
TORSDOF 13
