REMARK  0 active torsions:
REMARK  status: ('A' for Active; 'I' for Inactive)
ROOT
ATOM      1  O1  ZIN A   1       0.002  -0.004   0.002  0.00  0.00    -0.267 OA
ATOM      2  C2  ZIN A   1      -0.014   1.213   0.009  0.00  0.00     0.262 A 
ATOM      3  N3  ZIN A   1      -1.180   1.900   0.029  0.00  0.00    -0.317 N 
ATOM      4  C4  ZIN A   1      -1.199   3.261   0.036  0.00  0.00     0.212 A 
ATOM      5  N5  ZIN A   1      -0.137   4.004   0.024  0.00  0.00    -0.222 NA
ATOM      6  C6  ZIN A   1       1.111   3.460   0.004  0.00  0.00     0.187 A 
ATOM      7  N7  ZIN A   1       2.333   3.935  -0.012  0.00  0.00    -0.154 NA
ATOM      8  N8  ZIN A   1       3.239   2.868  -0.030  0.00  0.00    -0.286 N 
ATOM      9  C9  ZIN A   1       2.571   1.704  -0.025  0.00  0.00     0.130 A 
ATOM     10  C10 ZIN A   1       1.229   1.993   0.001  0.00  0.00     0.098 A 
ATOM     11  H11 ZIN A   1      -2.019   1.413   0.039  0.00  0.00     0.170 HD
ATOM     12  H13 ZIN A   1       4.205   2.956  -0.044  0.00  0.00     0.188 HD
ENDROOT
TORSDOF 0
