REMARK  2 active torsions:
REMARK  status: ('A' for Active; 'I' for Inactive)
REMARK    1  A    between atoms: C3_3  and  N4_4 
REMARK    2  A    between atoms: N4_4  and  C7_7 
ROOT
ATOM      1  C1  <0> d   1       0.018  -1.178  -0.004  0.00  0.00     0.013 C 
ATOM      2  C2  <0> d   1       0.002  -0.004   0.002  0.00  0.00    -0.090 C 
ATOM      3  C3  <0> d   1      -0.018   1.468   0.010  0.00  0.00     0.325 C 
ENDROOT
BRANCH   3   4
ATOM      4  N4  <0> d   1       1.360   1.976  -0.000  0.00  0.00    -0.057 N 
ATOM      5  H5  <0> d   1       1.848   1.642   0.817  0.00  0.00     0.279 HD
ATOM      6  H6  <0> d   1       1.833   1.651  -0.831  0.00  0.00     0.279 HD
BRANCH   4   7
ATOM      7  C7  <0> d   1       1.340   3.445   0.008  0.00  0.00     0.220 C 
ATOM      8  C16 <0> d   1       0.809   3.956   1.330  0.00  0.00    -0.021 A 
ATOM      9  C11 <0> d   1       1.863   4.376   2.124  0.00  0.00    -0.050 A 
ATOM     10  C15 <0> d   1      -0.487   4.046   1.804  0.00  0.00     0.010 A 
ATOM     11  C10 <0> d   1       3.170   4.176   1.387  0.00  0.00     0.041 C 
ATOM     12  C12 <0> d   1       1.613   4.885   3.387  0.00  0.00     0.007 A 
ATOM     13  C9  <0> d   1       2.777   4.001  -0.095  0.00  0.00     0.042 C 
ATOM     14  C13 <0> d   1       0.317   4.973   3.857  0.00  0.00     0.001 A 
ATOM     15  C14 <0> d   1      -0.734   4.553   3.064  0.00  0.00     0.001 A 
ENDBRANCH   4   7
ENDBRANCH   3   4
TORSDOF 2
