REMARK  8 active torsions:
REMARK  status: ('A' for Active; 'I' for Inactive)
REMARK    1  A    between atoms: O2_2  and  C3_3 
REMARK    2  A    between atoms: C17_16  and  O18_17 
REMARK    3  A    between atoms: C31_29  and  O33_30 
REMARK    4  A    between atoms: C37_33  and  O39_34 
REMARK    5  A    between atoms: C43_37  and  O45_38 
REMARK    6  A    between atoms: O45_38  and  C46_39 
REMARK    7  A    between atoms: C52_44  and  C53_45 
REMARK    8  A    between atoms: N54_46  and  N55_47 
ROOT
ATOM      1  C3  ZIN A   1      -0.840  -0.539  -1.850  0.00  0.00     0.151 C 
ATOM      2  C5  ZIN A   1       0.654  -0.689  -1.763  0.00  0.00     0.029 C 
ATOM      3  C6  ZIN A   1       1.345  -0.167  -0.762  0.00  0.00     0.137 C 
ATOM      4  O7  ZIN A   1       2.703  -0.315  -0.760  0.00  0.00    -0.319 OA
ATOM      5  C8  ZIN A   1       3.243  -1.613  -0.755  0.00  0.00     0.237 C 
ATOM      6  C9  ZIN A   1       3.648  -2.061  -2.171  0.00  0.00     0.089 C 
ATOM      7  O10 ZIN A   1       4.402  -1.776   0.095  0.00  0.00    -0.305 OA
ATOM      8  C11 ZIN A   1       4.451  -3.119   0.357  0.00  0.00     0.097 C 
ATOM      9  C12 ZIN A   1       5.518  -3.954   0.685  0.00  0.00     0.010 C 
ATOM     10  C13 ZIN A   1       6.886  -3.353   0.863  0.00  0.00     0.054 C 
ATOM     11  C14 ZIN A   1       5.367  -5.317   0.835  0.00  0.00     0.130 C 
ATOM     12  O15 ZIN A   1       6.463  -6.057   1.134  0.00  0.00    -0.190 OA
ATOM     13  C16 ZIN A   1       4.113  -5.948   0.697  0.00  0.00     0.051 C 
ATOM     14  C17 ZIN A   1       3.942  -7.349   0.629  0.00  0.00     0.107 C 
ATOM     15  C19 ZIN A   1       2.684  -7.911   0.608  0.00  0.00     0.084 C 
ATOM     16  N20 ZIN A   1       2.434  -9.270   0.416  0.00  0.00    -0.320 N 
ATOM     17  C21 ZIN A   1       1.651  -9.702  -0.562  0.00  0.00     0.251 C 
ATOM     18  O22 ZIN A   1       1.995  -9.430  -1.694  0.00  0.00    -0.268 OA
ATOM     19  C23 ZIN A   1       0.395 -10.404  -0.469  0.00  0.00     0.006 C 
ATOM     20  C24 ZIN A   1      -0.004 -11.068   0.831  0.00  0.00     0.054 C 
ATOM     21  C25 ZIN A   1      -0.460 -10.496  -1.507  0.00  0.00     0.012 C 
ATOM     22  C26 ZIN A   1      -0.204 -10.066  -2.860  0.00  0.00    -0.003 C 
ATOM     23  C27 ZIN A   1      -0.826  -9.125  -3.537  0.00  0.00    -0.020 C 
ATOM     24  C28 ZIN A   1      -1.954  -8.289  -2.967  0.00  0.00     0.033 C 
ATOM     25  C30 ZIN A   1      -3.282  -8.856  -3.466  0.00  0.00     0.017 C 
ATOM     26  C31 ZIN A   1      -1.771  -6.867  -3.497  0.00  0.00     0.131 C 
ATOM     27  C34 ZIN A   1      -2.489  -5.813  -2.647  0.00  0.00     0.040 C 
ATOM     28  C36 ZIN A   1      -1.983  -5.895  -1.204  0.00  0.00     0.015 C 
ATOM     29  C37 ZIN A   1      -2.152  -4.426  -3.200  0.00  0.00     0.130 C 
ATOM     30  C40 ZIN A   1      -3.228  -3.383  -3.002  0.00  0.00     0.041 C 
ATOM     31  C42 ZIN A   1      -4.271  -3.730  -1.950  0.00  0.00     0.015 C 
ATOM     32  C43 ZIN A   1      -2.671  -1.980  -2.766  0.00  0.00     0.144 C 
ATOM     33  C49 ZIN A   1      -1.511  -1.924  -1.785  0.00  0.00     0.044 C 
ATOM     34  C51 ZIN A   1      -2.015  -2.097  -0.344  0.00  0.00     0.015 C 
ATOM     35  C52 ZIN A   1       1.567  -7.055   0.814  0.00  0.00     0.050 C 
ATOM     36  C62 ZIN A   1       1.708  -5.672   0.707  0.00  0.00     0.133 C 
ATOM     37  O63 ZIN A   1       0.613  -4.872   0.800  0.00  0.00    -0.190 OA
ATOM     38  C64 ZIN A   1       2.976  -5.100   0.578  0.00  0.00     0.034 C 
ATOM     39  C65 ZIN A   1       3.161  -3.684   0.260  0.00  0.00     0.064 C 
ATOM     40  C66 ZIN A   1       2.288  -2.651  -0.175  0.00  0.00     0.225 C 
ATOM     41  O67 ZIN A   1       1.079  -2.623  -0.098  0.00  0.00    -0.286 OA
ATOM     42  H80 ZIN A   1       2.857  -9.917   1.020  0.00  0.00     0.169 HD
ENDROOT
BRANCH  35  43
ATOM     43  C53 ZIN A   1       0.240  -7.601   1.153  0.00  0.00     0.155 C 
ATOM     44  N54 ZIN A   1      -0.783  -6.807   1.250  0.00  0.00    -0.189 NA
BRANCH  44  45
ATOM     45  N55 ZIN A   1      -2.015  -7.303   1.697  0.00  0.00    -0.302 N 
ATOM     46  C61 ZIN A   1      -2.667  -6.741   2.890  0.00  0.00     0.174 C 
ATOM     47  C60 ZIN A   1      -3.037  -7.885   3.832  0.00  0.00     0.293 C 
ATOM     48  N58 ZIN A   1      -3.831  -8.882   3.101  0.00  0.00     0.087 N 
ATOM     49  C57 ZIN A   1      -3.055  -9.485   2.010  0.00  0.00     0.293 C 
ATOM     50  C59 ZIN A   1      -4.349  -9.912   4.011  0.00  0.00     0.310 C 
ATOM     51  C56 ZIN A   1      -2.688  -8.403   0.989  0.00  0.00     0.174 C 
ENDBRANCH  44  45
ENDBRANCH  35  43
BRANCH  14  52
ATOM     52  O18 ZIN A   1       5.037  -8.153   0.600  0.00  0.00    -0.357 OA
ATOM     53  H79 ZIN A   1       5.346  -8.428   1.474  0.00  0.00     0.217 HD
ENDBRANCH  14  52
BRANCH  26  54
ATOM     54  O33 ZIN A   1      -0.372  -6.566  -3.532  0.00  0.00    -0.394 OA
ATOM     55  H90 ZIN A   1       0.143  -7.157  -4.098  0.00  0.00     0.210 HD
ENDBRANCH  26  54
BRANCH   1  56
ATOM     56  O2  ZIN A   1      -1.313   0.253  -0.759  0.00  0.00    -0.386 OA
ATOM     57  C1  ZIN A   1      -1.359   1.654  -1.035  0.00  0.00     0.202 C 
ENDBRANCH   1  56
BRANCH  29  58
ATOM     58  O39 ZIN A   1      -1.913  -4.564  -4.616  0.00  0.00    -0.395 OA
ATOM     59  H94 ZIN A   1      -1.185  -5.160  -4.836  0.00  0.00     0.210 HD
ENDBRANCH  29  58
BRANCH  32  60
ATOM     60  O45 ZIN A   1      -2.258  -1.429  -4.052  0.00  0.00    -0.315 OA
BRANCH  60  61
ATOM     61  C46 ZIN A   1      -3.156  -0.678  -4.709  0.00  0.00     0.255 C 
ATOM     62  C47 ZIN A   1      -2.763   0.021  -5.985  0.00  0.00     0.126 C 
ATOM     63  O48 ZIN A   1      -4.278  -0.561  -4.277  0.00  0.00    -0.266 OA
ENDBRANCH  60  61
ENDBRANCH  32  60
TORSDOF 8
