REMARK  6 active torsions:
REMARK  status: ('A' for Active; 'I' for Inactive)
REMARK    1  A    between atoms: C2_2  and  C5_5 
REMARK    2  A    between atoms: C7_7  and  C8_8 
REMARK    3  A    between atoms: C12_12  and  N13_13 
REMARK       I    between atoms: N13_13  and  C14_14 
REMARK    4  A    between atoms: C14_14  and  C16_16 
REMARK    5  A    between atoms: C25_25  and  O26_26 
REMARK    6  A    between atoms: C28_28  and  O29_29 
ROOT
ATOM      1  C5  <0> d   1       0.763  -0.344  -1.196  0.00  0.00    -0.017 A 
ATOM      2  C6  <0> d   1       1.228   0.560  -2.132  0.00  0.00     0.021 A 
ATOM      3  C7  <0> d   1       1.940   0.116  -3.230  0.00  0.00    -0.023 A 
ATOM      4  C12 <0> d   1       2.190  -1.240  -3.395  0.00  0.00     0.044 A 
ATOM      5  C27 <0> d   1       1.723  -2.149  -2.455  0.00  0.00     0.067 A 
ATOM      6  C28 <0> d   1       1.014  -1.700  -1.352  0.00  0.00     0.074 A 
ENDROOT
BRANCH   4   7
ATOM      7  N13 <0> d   1       2.911  -1.689  -4.506  0.00  0.00    -0.322 N 
ATOM      8  C14 <0> d   1       3.255  -2.989  -4.606  0.00  0.00     0.260 C 
ATOM      9  O15 <0> d   1       2.843  -3.791  -3.789  0.00  0.00    -0.267 OA
ATOM     10  H49 <0> d   1       3.164  -1.065  -5.204  0.00  0.00     0.169 HD
BRANCH   8  11
ATOM     11  C16 <0> d   1       4.128  -3.437  -5.704  0.00  0.00     0.083 A 
ATOM     12  C25 <0> d   1       4.489  -4.785  -5.815  0.00  0.00     0.095 A 
ATOM     13  C24 <0> d   1       5.326  -5.157  -6.891  0.00  0.00     0.027 A 
ATOM     14  C19 <0> d   1       5.766  -4.161  -7.796  0.00  0.00     0.069 A 
ATOM     15  C23 <0> d   1       5.727  -6.489  -7.073  0.00  0.00     0.017 A 
ATOM     16  N18 <0> d   1       5.389  -2.886  -7.632  0.00  0.00    -0.259 NA
ATOM     17  C20 <0> d   1       6.602  -4.532  -8.862  0.00  0.00     0.032 A 
ATOM     18  C17 <0> d   1       4.612  -2.516  -6.647  0.00  0.00     0.137 A 
ATOM     19  C21 <0> d   1       6.974  -5.834  -9.010  0.00  0.00     0.002 A 
ATOM     20  C22 <0> d   1       6.539  -6.811  -8.119  0.00  0.00     0.001 A 
BRANCH  12  21
ATOM     21  O26 <0> d   1       4.048  -5.702  -4.924  0.00  0.00    -0.359 OA
ATOM     22  H55 <0> d   1       4.632  -5.823  -4.162  0.00  0.00     0.217 HD
ENDBRANCH  12  21
ENDBRANCH   8  11
ENDBRANCH   4   7
BRANCH   3  23
ATOM     23  C8  <0> d   1       2.446   1.105  -4.249  0.00  0.00    -0.022 C 
ATOM     24  C9  <0> d   1       2.066   2.522  -3.816  0.00  0.00     0.019 C 
ATOM     25  C10 <0> d   1       3.968   0.994  -4.355  0.00  0.00     0.019 C 
ATOM     26  C11 <0> d   1       1.816   0.801  -5.610  0.00  0.00     0.019 C 
ENDBRANCH   3  23
BRANCH   6  27
ATOM     27  O29 <0> d   1       0.557  -2.587  -0.431  0.00  0.00    -0.360 OA
ATOM     28  H57 <0> d   1       1.179  -2.764   0.288  0.00  0.00     0.217 HD
ENDBRANCH   6  27
BRANCH   1  29
ATOM     29  C2  <0> d   1      -0.014   0.144   0.000  0.00  0.00    -0.021 C 
ATOM     30  C1  <0> d   1      -0.150   1.667  -0.067  0.00  0.00     0.019 C 
ATOM     31  C3  <0> d   1       0.726  -0.245   1.282  0.00  0.00     0.019 C 
ATOM     32  C4  <0> d   1      -1.405  -0.493   0.000  0.00  0.00     0.019 C 
ENDBRANCH   1  29
TORSDOF 6
