REMARK  11 active torsions:
REMARK  status: ('A' for Active; 'I' for Inactive)
REMARK    1  A    between atoms: O2_2  and  C3_3 
REMARK    2  A    between atoms: C6_6  and  C7_7 
REMARK    3  A    between atoms: C7_7  and  C8_8 
REMARK    4  A    between atoms: C8_8  and  N11_10 
REMARK    5  A    between atoms: N11_10  and  C14_13 
REMARK    6  A    between atoms: C14_13  and  C15_14 
REMARK    7  A    between atoms: C15_14  and  O17_15 
REMARK    8  A    between atoms: C15_14  and  C18_16 
REMARK    9  A    between atoms: C21_19  and  O22_20 
REMARK   10  A    between atoms: C23_21  and  N24_22 
REMARK   11  A    between atoms: N24_22  and  C25_23 
ROOT
ATOM      1  C14 <0> d   1       6.024  -1.650  -3.476  0.00  0.00     0.269 C 
ENDROOT
BRANCH   1   2
ATOM      2  N11 <0> d   1       4.630  -1.444  -3.889  0.00  0.00    -0.068 N 
ATOM      3  H12 <0> d   1       4.609  -0.966  -4.777  0.00  0.00     0.277 HD
ATOM      4  H13 <0> d   1       4.153  -0.886  -3.196  0.00  0.00     0.277 HD
BRANCH   2   5
ATOM      5  C8  <0> d   1       3.959  -2.745  -4.016  0.00  0.00     0.186 C 
ATOM      6  C10 <0> d   1       4.604  -3.542  -5.152  0.00  0.00     0.040 C 
BRANCH   5   7
ATOM      7  C7  <0> d   1       2.476  -2.526  -4.324  0.00  0.00     0.071 C 
BRANCH   7   8
ATOM      8  C6  <0> d   1       1.814  -1.850  -3.151  0.00  0.00    -0.056 A 
ATOM      9  C5  <0> d   1       1.767  -0.470  -3.087  0.00  0.00     0.010 A 
ATOM     10  C4  <0> d   1       1.160   0.153  -2.013  0.00  0.00     0.037 A 
ATOM     11  C3  <0> d   1       0.599  -0.608  -0.999  0.00  0.00     0.068 A 
ATOM     12  C29 <0> d   1       0.652  -1.993  -1.062  0.00  0.00     0.037 A 
ATOM     13  C28 <0> d   1       1.256  -2.611  -2.141  0.00  0.00     0.010 A 
BRANCH  11  14
ATOM     14  O2  <0> d   1       0.002   0.002   0.059  0.00  0.00    -0.356 OA
ATOM     15  C1  <0> d   1      -0.017   1.431   0.058  0.00  0.00     0.210 C 
ENDBRANCH  11  14
ENDBRANCH   7   8
ENDBRANCH   5   7
ENDBRANCH   2   5
ENDBRANCH   1   2
BRANCH   1  16
ATOM     16  C15 <0> d   1       6.723  -0.295  -3.343  0.00  0.00     0.176 C 
BRANCH  16  17
ATOM     17  O17 <0> d   1       6.693   0.381  -4.601  0.00  0.00    -0.389 OA
ATOM     18  H42 <0> d   1       7.134  -0.099  -5.316  0.00  0.00     0.210 HD
ENDBRANCH  16  17
BRANCH  16  19
ATOM     19  C18 <0> d   1       8.153  -0.507  -2.920  0.00  0.00    -0.026 A 
ATOM     20  C27 <0> d   1       8.493  -0.443  -1.581  0.00  0.00     0.042 A 
ATOM     21  C23 <0> d   1       9.808  -0.643  -1.190  0.00  0.00     0.068 A 
ATOM     22  C21 <0> d   1      10.786  -0.897  -2.149  0.00  0.00     0.092 A 
ATOM     23  C20 <0> d   1      10.438  -0.955  -3.489  0.00  0.00     0.039 A 
ATOM     24  C19 <0> d   1       9.124  -0.760  -3.871  0.00  0.00     0.012 A 
BRANCH  21  25
ATOM     25  N24 <0> d   1      10.154  -0.583   0.167  0.00  0.00    -0.332 N 
ATOM     26  H46 <0> d   1      10.849  -1.163   0.516  0.00  0.00     0.168 HD
BRANCH  25  27
ATOM     27  C25 <0> d   1       9.521   0.279   0.987  0.00  0.00     0.353 C 
ATOM     28  O26 <0> d   1       8.598   0.946   0.569  0.00  0.00    -0.283 OA
ENDBRANCH  25  27
ENDBRANCH  21  25
BRANCH  22  29
ATOM     29  O22 <0> d   1      12.078  -1.088  -1.772  0.00  0.00    -0.358 OA
ATOM     30  H45 <0> d   1      12.602  -0.277  -1.739  0.00  0.00     0.217 HD
ENDBRANCH  22  29
ENDBRANCH  16  19
ENDBRANCH   1  16
TORSDOF 11
