REMARK  8 active torsions:
REMARK  status: ('A' for Active; 'I' for Inactive)
REMARK    1  A    between atoms: C5_5  and  C6_6 
REMARK    2  A    between atoms: N9_9  and  C10_10 
REMARK    3  A    between atoms: N19_17  and  C21_19 
REMARK    4  A    between atoms: C21_19  and  C22_20 
REMARK    5  A    between atoms: C22_20  and  C23_21 
REMARK    6  A    between atoms: C23_21  and  N25_22 
REMARK    7  A    between atoms: C23_21  and  C36_33 
REMARK       I    between atoms: N25_22  and  C26_23 
REMARK    8  A    between atoms: C26_23  and  C28_25 
ROOT
ATOM      1  C22 ZIN A   1       0.251   4.587   1.117  0.00  0.00     0.057 C 
ENDROOT
BRANCH   1   2
ATOM      2  C21 ZIN A   1      -0.648   3.371   0.884  0.00  0.00     0.238 C 
BRANCH   2   3
ATOM      3  N19 ZIN A   1      -0.167   2.623  -0.286  0.00  0.00    -0.062 N 
ATOM      4  C12 ZIN A   1       1.120   1.937   0.004  0.00  0.00     0.190 C 
ATOM      5  C11 ZIN A   1       0.977   1.259   1.376  0.00  0.00     0.059 C 
ATOM      6  C14 ZIN A   1       1.223   0.824  -1.065  0.00  0.00     0.035 C 
ATOM      7  C10 ZIN A   1      -0.106   0.181   1.286  0.00  0.00     0.097 C 
ATOM      8  C18 ZIN A   1      -1.401   0.792   0.742  0.00  0.00     0.059 C 
ATOM      9  C16 ZIN A   1      -1.089   1.479  -0.598  0.00  0.00     0.190 C 
ATOM     10  C15 ZIN A   1      -0.236   0.521  -1.462  0.00  0.00     0.035 C 
ATOM     11  H20 ZIN A   1      -0.075   3.233  -1.084  0.00  0.00     0.280 HD
BRANCH   7  12
ATOM     12  N9  ZIN A   1       0.343  -0.887   0.388  0.00  0.00    -0.315 N 
ATOM     13  C2  ZIN A   1      -0.436  -1.689  -0.377  0.00  0.00     0.126 A 
ATOM     14  C1  ZIN A   1      -1.940  -1.649  -0.471  0.00  0.00     0.093 C 
ATOM     15  N3  ZIN A   1       0.358  -2.500  -1.022  0.00  0.00    -0.135 NA
ATOM     16  N4  ZIN A   1       1.579  -2.255  -0.703  0.00  0.00    -0.134 NA
ATOM     17  C5  ZIN A   1       1.620  -1.277   0.160  0.00  0.00     0.134 A 
BRANCH  17  18
ATOM     18  C6  ZIN A   1       2.859  -0.687   0.784  0.00  0.00     0.049 C 
ATOM     19  C7  ZIN A   1       3.881  -1.797   1.035  0.00  0.00     0.018 C 
ATOM     20  C8  ZIN A   1       3.459   0.356  -0.161  0.00  0.00     0.018 C 
ENDBRANCH  17  18
ENDBRANCH   7  12
ENDBRANCH   2   3
ENDBRANCH   1   2
BRANCH   1  21
ATOM     21  C23 ZIN A   1      -0.250   5.365   2.335  0.00  0.00     0.119 C 
BRANCH  21  22
ATOM     22  N25 ZIN A   1      -1.579   5.914   2.051  0.00  0.00    -0.352 N 
ATOM     23  C26 ZIN A   1      -2.425   6.186   3.063  0.00  0.00     0.222 C 
ATOM     24  O27 ZIN A   1      -2.088   5.978   4.209  0.00  0.00    -0.273 OA
ATOM     25  H65 ZIN A   1      -1.849   6.081   1.134  0.00  0.00     0.163 HD
BRANCH  23  26
ATOM     26  C28 ZIN A   1      -3.792   6.751   2.771  0.00  0.00     0.078 C 
ATOM     27  C35 ZIN A   1      -4.546   6.967   4.085  0.00  0.00     0.020 C 
ATOM     28  C34 ZIN A   1      -5.933   7.540   3.789  0.00  0.00     0.080 C 
ATOM     29  C31 ZIN A   1      -6.712   6.560   2.909  0.00  0.00     0.243 C 
ATOM     30  C30 ZIN A   1      -5.958   6.345   1.595  0.00  0.00     0.080 C 
ATOM     31  F32 ZIN A   1      -7.981   7.084   2.638  0.00  0.00    -0.206 F 
ATOM     32  F33 ZIN A   1      -6.845   5.338   3.576  0.00  0.00    -0.206 F 
ATOM     33  C29 ZIN A   1      -4.571   5.771   1.891  0.00  0.00     0.020 C 
ENDBRANCH  23  26
ENDBRANCH  21  22
BRANCH  21  34
ATOM     34  C36 ZIN A   1       0.704   6.492   2.638  0.00  0.00    -0.035 A 
ATOM     35  C41 ZIN A   1       1.639   6.352   3.647  0.00  0.00     0.009 A 
ATOM     36  C40 ZIN A   1       2.517   7.384   3.922  0.00  0.00     0.001 A 
ATOM     37  C39 ZIN A   1       2.455   8.558   3.195  0.00  0.00     0.000 A 
ATOM     38  C38 ZIN A   1       1.516   8.699   2.190  0.00  0.00     0.001 A 
ATOM     39  C37 ZIN A   1       0.641   7.666   1.911  0.00  0.00     0.009 A 
ENDBRANCH  21  34
ENDBRANCH   1  21
TORSDOF 8
