REMARK  16 active torsions:
REMARK  status: ('A' for Active; 'I' for Inactive)
REMARK    1  A    between atoms: C2_2  and  C4_4 
REMARK    2  A    between atoms: C4_4  and  N5_5 
REMARK    3  A    between atoms: N5_5  and  C6_6 
REMARK    4  A    between atoms: N5_5  and  C25_25 
REMARK    5  A    between atoms: C6_6  and  C7_7 
REMARK    6  A    between atoms: C7_7  and  N8_8 
REMARK    7  A    between atoms: N8_8  and  C10_10 
REMARK    8  A    between atoms: N8_8  and  C21_21 
REMARK    9  A    between atoms: C10_10  and  C11_11 
REMARK   10  A    between atoms: C11_11  and  N12_12 
REMARK   11  A    between atoms: N12_12  and  C13_13 
REMARK   12  A    between atoms: N12_12  and  C17_17 
REMARK   13  A    between atoms: C13_13  and  C14_14 
REMARK   14  A    between atoms: C17_17  and  C18_18 
REMARK   15  A    between atoms: C21_21  and  C22_22 
REMARK   16  A    between atoms: C25_25  and  C26_26 
ROOT
ATOM      1  N8  <0> d   1      -7.092   1.455   0.873  0.00  0.00    -0.058 N 
ATOM      2  H9  <0> d   1      -7.288   2.028   0.065  0.00  0.00     0.280 HD
ENDROOT
BRANCH   1   3
ATOM      3  C7  <0> d   1      -5.893   0.645   0.619  0.00  0.00     0.265 C 
BRANCH   3   4
ATOM      4  C6  <0> d   1      -6.066  -0.126  -0.691  0.00  0.00     0.301 C 
BRANCH   4   5
ATOM      5  N5  <0> d   1      -4.904  -0.999  -0.902  0.00  0.00     0.110 N 
BRANCH   5   6
ATOM      6  C4  <0> d   1      -3.739  -0.225  -1.351  0.00  0.00     0.385 C 
BRANCH   6   7
ATOM      7  C2  <0> d   1      -2.512  -1.101  -1.321  0.00  0.00     0.202 C 
ATOM      8  O1  <0> d   1      -2.601  -2.262  -0.960  0.00  0.00    -0.647 OA
ATOM      9  O3  <0> d   1      -1.433  -0.649  -1.663  0.00  0.00    -0.647 OA
ENDBRANCH   6   7
ENDBRANCH   5   6
BRANCH   5  10
ATOM     10  C25 <0> d   1      -5.219  -2.075  -1.852  0.00  0.00     0.385 C 
BRANCH  10  11
ATOM     11  C26 <0> d   1      -6.115  -3.087  -1.185  0.00  0.00     0.202 C 
ATOM     12  O27 <0> d   1      -6.469  -2.921  -0.031  0.00  0.00    -0.647 OA
ATOM     13  O28 <0> d   1      -6.486  -4.072  -1.801  0.00  0.00    -0.647 OA
ENDBRANCH  10  11
ENDBRANCH   5  10
ENDBRANCH   4   5
ENDBRANCH   3   4
ENDBRANCH   1   3
BRANCH   1  14
ATOM     14  C10 <0> d   1      -8.235   0.570   1.133  0.00  0.00     0.265 C 
BRANCH  14  15
ATOM     15  C11 <0> d   1      -9.507   1.408   1.274  0.00  0.00     0.301 C 
BRANCH  15  16
ATOM     16  N12 <0> d   1     -10.650   0.522   1.535  0.00  0.00     0.110 N 
BRANCH  16  17
ATOM     17  C13 <0> d   1     -10.519  -0.136   2.842  0.00  0.00     0.385 C 
BRANCH  17  18
ATOM     18  C14 <0> d   1     -10.470   0.908   3.927  0.00  0.00     0.202 C 
ATOM     19  O15 <0> d   1     -10.609   2.087   3.646  0.00  0.00    -0.647 OA
ATOM     20  O16 <0> d   1     -10.293   0.575   5.087  0.00  0.00    -0.647 OA
ENDBRANCH  17  18
ENDBRANCH  16  17
BRANCH  16  21
ATOM     21  C17 <0> d   1     -11.918   1.258   1.441  0.00  0.00     0.385 C 
BRANCH  21  22
ATOM     22  C18 <0> d   1     -13.057   0.280   1.301  0.00  0.00     0.202 C 
ATOM     23  O19 <0> d   1     -12.833  -0.918   1.289  0.00  0.00    -0.647 OA
ATOM     24  O20 <0> d   1     -14.201   0.688   1.200  0.00  0.00    -0.647 OA
ENDBRANCH  21  22
ENDBRANCH  16  21
ENDBRANCH  15  16
ENDBRANCH  14  15
ENDBRANCH   1  14
BRANCH   1  25
ATOM     25  C21 <0> d   1      -6.863   2.317   2.041  0.00  0.00     0.347 C 
BRANCH  25  26
ATOM     26  C22 <0> d   1      -5.803   3.337   1.713  0.00  0.00     0.199 C 
ATOM     27  O23 <0> d   1      -5.373   3.424   0.575  0.00  0.00    -0.647 OA
ATOM     28  O24 <0> d   1      -5.377   4.074   2.584  0.00  0.00    -0.647 OA
ENDBRANCH  25  26
ENDBRANCH   1  25
TORSDOF 16
