REMARK  4 active torsions:
REMARK  status: ('A' for Active; 'I' for Inactive)
REMARK    1  A    between atoms: C2_2  and  C3_3 
REMARK    2  A    between atoms: C6_6  and  N7_7 
REMARK    3  A    between atoms: C9_9  and  N10_10 
REMARK    4  A    between atoms: C11_11  and  C12_12 
ROOT
ATOM      1  C3  ZIN A   1      -1.412  -0.526   0.013  0.00  0.00     0.041 A 
ATOM      2  N4  ZIN A   1      -1.997  -0.852   1.154  0.00  0.00    -0.193 N 
ATOM      3  H5  ZIN A   1      -1.509  -0.753   1.986  0.00  0.00     0.184 HD
ATOM      4  C6  ZIN A   1      -3.240  -1.311   1.177  0.00  0.00     0.700 A 
ATOM      5  N8  ZIN A   1      -3.952  -1.465   0.071  0.00  0.00    -0.047 NA
ATOM      6  C9  ZIN A   1      -3.437  -1.161  -1.115  0.00  0.00     0.153 A 
ATOM      7  C11 ZIN A   1      -2.122  -0.665  -1.178  0.00  0.00     0.043 A 
ENDROOT
BRANCH   7   8
ATOM      8  C12 ZIN A   1      -1.503  -0.312  -2.478  0.00  0.00    -0.020 A 
ATOM      9  C18 ZIN A   1      -2.019   0.739  -3.236  0.00  0.00     0.014 A 
ATOM     10  C17 ZIN A   1      -1.437   1.067  -4.443  0.00  0.00     0.024 A 
ATOM     11  C15 ZIN A   1      -0.348   0.348  -4.907  0.00  0.00     0.034 A 
ATOM     12  C14 ZIN A   1       0.165  -0.700  -4.162  0.00  0.00     0.024 A 
ATOM     13 Cl16 ZIN A   1       0.375   0.761  -6.430  0.00  0.00    -0.084 Cl
ATOM     14  C13 ZIN A   1      -0.407  -1.032  -2.951  0.00  0.00     0.014 A 
ENDBRANCH   7   8
BRANCH   1  15
ATOM     15  C2  ZIN A   1       0.002  -0.004   0.002  0.00  0.00     0.054 C 
ATOM     16  C1  ZIN A   1      -0.019   1.526   0.010  0.00  0.00     0.011 C 
ENDBRANCH   1  15
BRANCH   6  17
ATOM     17  N10 ZIN A   1      -4.183  -1.323  -2.268  0.00  0.00    -0.383 N 
ATOM     18  H26 ZIN A   1      -5.091  -1.662  -2.215  0.00  0.00     0.157 HD
ATOM     19  H27 ZIN A   1      -3.799  -1.099  -3.130  0.00  0.00     0.157 HD
ENDBRANCH   6  17
BRANCH   4  20
ATOM     20  N7  ZIN A   1      -3.812  -1.638   2.394  0.00  0.00    -0.233 N 
ATOM     21  H24 ZIN A   1      -3.304  -1.531   3.213  0.00  0.00     0.174 HD
ATOM     22  H25 ZIN A   1      -4.721  -1.976   2.428  0.00  0.00     0.174 HD
ENDBRANCH   4  20
TORSDOF 4
