REMARK  7 active torsions:
REMARK  status: ('A' for Active; 'I' for Inactive)
REMARK    1  A    between atoms: C2_2  and  C3_3 
REMARK    2  A    between atoms: C3_3  and  N4_4 
REMARK    3  A    between atoms: N4_4  and  C6_6 
REMARK    4  A    between atoms: N4_4  and  C13_13 
REMARK    5  A    between atoms: C6_6  and  C7_7 
REMARK    6  A    between atoms: C7_7  and  C8_8 
REMARK    7  A    between atoms: C18_17  and  O19_18 
ROOT
ATOM      1  C13 ZIN A   1      -0.510  -2.474  -1.454  0.00  0.00     0.192 C 
ATOM      2  C15 ZIN A   1      -1.009  -1.980  -2.817  0.00  0.00     0.038 C 
ATOM      3  C16 ZIN A   1      -2.492  -2.325  -2.940  0.00  0.00     0.044 C 
ATOM      4  C17 ZIN A   1      -2.725  -3.779  -2.624  0.00  0.00    -0.019 A 
ATOM      5  C18 ZIN A   1      -3.925  -4.351  -3.045  0.00  0.00     0.072 A 
ATOM      6  C20 ZIN A   1      -4.199  -5.682  -2.779  0.00  0.00     0.037 A 
ATOM      7  C21 ZIN A   1      -3.277  -6.446  -2.091  0.00  0.00     0.003 A 
ATOM      8  C22 ZIN A   1      -2.089  -5.881  -1.677  0.00  0.00     0.008 A 
ATOM      9  C23 ZIN A   1      -1.808  -4.547  -1.944  0.00  0.00    -0.047 A 
ATOM     10  C24 ZIN A   1      -0.485  -4.001  -1.473  0.00  0.00     0.072 C 
ENDROOT
BRANCH   1  11
ATOM     11  N4  ZIN A   1       0.844  -1.960  -1.207  0.00  0.00    -0.066 N 
ATOM     12  H5  ZIN A   1       1.216  -2.381  -0.369  0.00  0.00     0.280 HD
BRANCH  11  13
ATOM     13  C3  ZIN A   1       0.791  -0.502  -1.040  0.00  0.00     0.235 C 
BRANCH  13  14
ATOM     14  C2  ZIN A   1      -0.029  -0.160   0.206  0.00  0.00     0.023 C 
ATOM     15  C1  ZIN A   1       0.026   1.348   0.455  0.00  0.00     0.007 C 
ENDBRANCH  13  14
ENDBRANCH  11  13
BRANCH  11  16
ATOM     16  C6  ZIN A   1       1.709  -2.292  -2.347  0.00  0.00     0.240 C 
BRANCH  16  17
ATOM     17  C7  ZIN A   1       3.147  -1.874  -2.035  0.00  0.00     0.074 C 
BRANCH  17  18
ATOM     18  C8  ZIN A   1       4.034  -2.214  -3.205  0.00  0.00    -0.016 A 
ATOM     19  S12 ZIN A   1       4.885  -3.738  -3.423  0.00  0.00    -0.106 SA
ATOM     20  C11 ZIN A   1       5.565  -3.175  -4.944  0.00  0.00     0.050 A 
ATOM     21  C10 ZIN A   1       5.144  -1.933  -5.190  0.00  0.00     0.008 A 
ATOM     22  C9  ZIN A   1       4.299  -1.403  -4.230  0.00  0.00     0.015 A 
ENDBRANCH  17  18
ENDBRANCH  16  17
ENDBRANCH  11  16
ENDBRANCH   1  11
BRANCH   5  23
ATOM     23  O19 ZIN A   1      -4.831  -3.597  -3.722  0.00  0.00    -0.360 OA
ATOM     24  H43 ZIN A   1      -4.715  -3.610  -4.682  0.00  0.00     0.217 HD
ENDBRANCH   5  23
TORSDOF 7
