REMARK  0 active torsions:
REMARK  status: ('A' for Active; 'I' for Inactive)
ROOT
ATOM      1  C1  ZIN A   1      -0.018   1.465   0.010  0.00  0.00     0.309 C 
ATOM      2  N2  ZIN A   1       0.002  -0.004   0.002  0.00  0.00     0.085 N 
ATOM      3  C3  ZIN A   1      -1.377  -0.555  -0.006  0.00  0.00     0.282 C 
ATOM      4  C4  ZIN A   1      -1.489  -1.430   1.244  0.00  0.00     0.060 C 
ATOM      5  C6  ZIN A   1      -2.405  -2.584   1.160  0.00  0.00    -0.018 A 
ATOM      6  C7  ZIN A   1      -3.036  -2.954  -0.010  0.00  0.00     0.010 A 
ATOM      7  C8  ZIN A   1      -3.857  -4.067  -0.030  0.00  0.00     0.001 A 
ATOM      8  C9  ZIN A   1      -4.045  -4.815   1.117  0.00  0.00     0.003 A 
ATOM      9  C10 ZIN A   1      -3.425  -4.442   2.296  0.00  0.00     0.038 A 
ATOM     10  C11 ZIN A   1      -2.618  -3.318   2.321  0.00  0.00     0.082 A 
ATOM     11  O12 ZIN A   1      -2.067  -2.864   3.464  0.00  0.00    -0.310 OA
ATOM     12  C13 ZIN A   1      -0.749  -2.860   3.742  0.00  0.00     0.083 A 
ATOM     13  C14 ZIN A   1      -0.378  -3.359   4.992  0.00  0.00     0.039 A 
ATOM     14  C15 ZIN A   1       0.945  -3.421   5.369  0.00  0.00     0.026 A 
ATOM     15  C16 ZIN A   1       1.922  -2.984   4.492  0.00  0.00     0.034 A 
ATOM     16 Cl17 ZIN A   1       3.596  -3.067   4.943  0.00  0.00    -0.084 Cl
ATOM     17  C18 ZIN A   1       1.562  -2.483   3.261  0.00  0.00     0.034 A 
ATOM     18  C19 ZIN A   1       0.226  -2.403   2.870  0.00  0.00    -0.016 A 
ATOM     19  C20 ZIN A   1      -0.055  -1.815   1.541  0.00  0.00     0.060 C 
ATOM     20  C22 ZIN A   1       0.716  -0.534   1.196  0.00  0.00     0.282 C 
ENDROOT
TORSDOF 0
