REMARK  6 active torsions:
REMARK  status: ('A' for Active; 'I' for Inactive)
REMARK    1  A    between atoms: N1_1  and  C5_5 
REMARK    2  A    between atoms: C5_5  and  C7_6 
REMARK    3  A    between atoms: C5_5  and  C23_22 
REMARK    4  A    between atoms: C7_6  and  C8_7 
REMARK       I    between atoms: C8_7  and  N10_9 
REMARK    5  A    between atoms: C17_16  and  C18_17 
REMARK    6  A    between atoms: C23_22  and  C24_23 
ROOT
ATOM      1  C7  ZIN A   1      -2.135   0.949   1.227  0.00  0.00     0.136 C 
ENDROOT
BRANCH   1   2
ATOM      2  C5  ZIN A   1      -0.699   1.479   1.216  0.00  0.00     0.196 C 
BRANCH   2   3
ATOM      3  N1  ZIN A   1      -0.012   1.005   0.008  0.00  0.00    -0.074 N 
ATOM      4  H2  ZIN A   1       0.002  -0.004   0.002  0.00  0.00     0.274 HD
ATOM      5  H3  ZIN A   1       0.935   1.354   0.000  0.00  0.00     0.274 HD
ATOM      6  H4  ZIN A   1      -0.500   1.339  -0.810  0.00  0.00     0.274 HD
ENDBRANCH   2   3
BRANCH   2   7
ATOM      7  C23 ZIN A   1       0.041   0.972   2.456  0.00  0.00     0.075 C 
BRANCH   7   8
ATOM      8  C24 ZIN A   1       1.414   1.591   2.509  0.00  0.00    -0.015 A 
ATOM      9  C31 ZIN A   1       1.587   2.841   3.080  0.00  0.00     0.125 A 
ATOM     10  C30 ZIN A   1       2.849   3.408   3.135  0.00  0.00     0.088 A 
ATOM     11  F32 ZIN A   1       0.526   3.502   3.592  0.00  0.00    -0.205 F 
ATOM     12  C28 ZIN A   1       3.935   2.730   2.609  0.00  0.00     0.157 A 
ATOM     13  C26 ZIN A   1       3.759   1.481   2.033  0.00  0.00     0.155 A 
ATOM     14  F29 ZIN A   1       5.165   3.285   2.658  0.00  0.00    -0.203 F 
ATOM     15  C25 ZIN A   1       2.498   0.914   1.984  0.00  0.00     0.055 A 
ATOM     16  F27 ZIN A   1       4.819   0.819   1.520  0.00  0.00    -0.203 F 
ENDBRANCH   7   8
ENDBRANCH   2   7
ENDBRANCH   1   2
BRANCH   1  17
ATOM     17  C8  ZIN A   1      -2.899   1.546   0.074  0.00  0.00     0.222 C 
ATOM     18  O9  ZIN A   1      -2.350   2.319  -0.683  0.00  0.00    -0.273 OA
ATOM     19  N10 ZIN A   1      -4.193   1.221  -0.117  0.00  0.00    -0.343 N 
ATOM     20  C22 ZIN A   1      -4.881   0.283   0.789  0.00  0.00     0.206 C 
ATOM     21  C11 ZIN A   1      -4.957   1.786  -1.240  0.00  0.00     0.146 C 
ATOM     22  C14 ZIN A   1      -5.698  -0.646  -0.069  0.00  0.00     0.148 A 
ATOM     23  N13 ZIN A   1      -5.911  -0.456  -1.395  0.00  0.00    -0.310 N 
ATOM     24  N15 ZIN A   1      -6.315  -1.735   0.274  0.00  0.00    -0.133 NA
ATOM     25  C12 ZIN A   1      -5.380   0.655  -2.184  0.00  0.00     0.152 C 
ATOM     26  C17 ZIN A   1      -6.686  -1.481  -1.802  0.00  0.00     0.237 A 
ATOM     27  N16 ZIN A   1      -6.907  -2.235  -0.756  0.00  0.00    -0.125 NA
BRANCH  26  28
ATOM     28  C18 ZIN A   1      -7.203  -1.714  -3.198  0.00  0.00     0.453 C 
ATOM     29  F19 ZIN A   1      -8.230  -2.662  -3.163  0.00  0.00    -0.163 F 
ATOM     30  F20 ZIN A   1      -7.695  -0.512  -3.720  0.00  0.00    -0.163 F 
ATOM     31  F21 ZIN A   1      -6.163  -2.183  -4.008  0.00  0.00    -0.163 F 
ENDBRANCH  26  28
ENDBRANCH   1  17
TORSDOF 6
