REMARK  11 active torsions:
REMARK  status: ('A' for Active; 'I' for Inactive)
REMARK    1  A    between atoms: O2_2  and  C3_3 
REMARK    2  A    between atoms: C8_8  and  O9_9 
REMARK    3  A    between atoms: O9_9  and  C10_10 
REMARK    4  A    between atoms: C10_10  and  C11_11 
REMARK    5  A    between atoms: C11_11  and  N12_12 
REMARK    6  A    between atoms: N12_12  and  C15_15 
REMARK    7  A    between atoms: C15_15  and  C16_16 
REMARK    8  A    between atoms: C16_16  and  O18_17 
REMARK    9  A    between atoms: C16_16  and  C19_18 
REMARK   10  A    between atoms: C19_18  and  O20_19 
REMARK   11  A    between atoms: O20_19  and  C21_20 
ROOT
ATOM      1  C16 ZIN A   1       3.914  -4.766   2.525  0.00  0.00     0.168 C 
ENDROOT
BRANCH   1   2
ATOM      2  C15 ZIN A   1       3.182  -5.109   1.226  0.00  0.00     0.266 C 
BRANCH   2   3
ATOM      3  N12 ZIN A   1       1.849  -4.492   1.236  0.00  0.00    -0.071 N 
ATOM      4  H13 ZIN A   1       1.943  -3.491   1.315  0.00  0.00     0.277 HD
ATOM      5  H14 ZIN A   1       1.322  -4.844   2.022  0.00  0.00     0.277 HD
BRANCH   3   6
ATOM      6  C11 ZIN A   1       1.147  -4.822  -0.011  0.00  0.00     0.259 C 
BRANCH   6   7
ATOM      7  C10 ZIN A   1      -0.242  -4.179   0.000  0.00  0.00     0.203 C 
BRANCH   7   8
ATOM      8  O9  ZIN A   1      -0.108  -2.757  -0.006  0.00  0.00    -0.347 OA
BRANCH   8   9
ATOM      9  C8  ZIN A   1      -1.257  -2.029   0.003  0.00  0.00     0.102 A 
ATOM     10  C3  ZIN A   1      -1.201  -0.638   0.010  0.00  0.00     0.101 A 
ATOM     11  C4  ZIN A   1      -2.374   0.099   0.019  0.00  0.00     0.039 A 
ATOM     12  C5  ZIN A   1      -3.596  -0.547   0.027  0.00  0.00     0.003 A 
ATOM     13  C6  ZIN A   1      -3.652  -1.928   0.026  0.00  0.00     0.003 A 
ATOM     14  C7  ZIN A   1      -2.485  -2.670   0.017  0.00  0.00     0.039 A 
BRANCH  10  15
ATOM     15  O2  ZIN A   1       0.002  -0.004   0.002  0.00  0.00    -0.353 OA
ATOM     16  C1  ZIN A   1      -0.017   1.425   0.010  0.00  0.00     0.210 C 
ENDBRANCH  10  15
ENDBRANCH   8   9
ENDBRANCH   7   8
ENDBRANCH   6   7
ENDBRANCH   3   6
ENDBRANCH   2   3
ENDBRANCH   1   2
BRANCH   1  17
ATOM     17  O18 ZIN A   1       4.046  -3.348   2.636  0.00  0.00    -0.392 OA
ATOM     18  H47 ZIN A   1       4.543  -2.941   1.913  0.00  0.00     0.210 HD
ENDBRANCH   1  17
BRANCH   1  19
ATOM     19  C19 ZIN A   1       5.302  -5.409   2.513  0.00  0.00     0.209 C 
BRANCH  19  20
ATOM     20  O20 ZIN A   1       5.940  -5.187   3.772  0.00  0.00    -0.348 OA
BRANCH  20  21
ATOM     21  C21 ZIN A   1       7.189  -5.697   3.929  0.00  0.00     0.082 A 
ATOM     22  C26 ZIN A   1       7.875  -5.518   5.134  0.00  0.00     0.036 A 
ATOM     23  C25 ZIN A   1       9.161  -6.051   5.295  0.00  0.00     0.046 A 
ATOM     24  C27 ZIN A   1       7.535  -4.852   6.405  0.00  0.00     0.006 A 
ATOM     25  C24 ZIN A   1       9.748  -6.746   4.240  0.00  0.00     0.030 A 
ATOM     26  N33 ZIN A   1       9.606  -5.743   6.568  0.00  0.00    -0.355 N 
ATOM     27  C23 ZIN A   1       9.066  -6.910   3.054  0.00  0.00     0.005 A 
ATOM     28  C22 ZIN A   1       7.792  -6.390   2.895  0.00  0.00     0.038 A 
ATOM     29  C28 ZIN A   1       8.640  -5.026   7.252  0.00  0.00     0.043 A 
ATOM     30  H57 ZIN A   1      10.469  -5.997   6.931  0.00  0.00     0.166 HD
ATOM     31  C29 ZIN A   1       8.603  -4.495   8.538  0.00  0.00     0.030 A 
ATOM     32  C30 ZIN A   1       7.490  -3.806   8.968  0.00  0.00     0.002 A 
ATOM     33  C31 ZIN A   1       6.399  -3.635   8.130  0.00  0.00     0.001 A 
ATOM     34  C32 ZIN A   1       6.417  -4.153   6.853  0.00  0.00     0.014 A 
ENDBRANCH  20  21
ENDBRANCH  19  20
ENDBRANCH   1  19
TORSDOF 11
