REMARK  5 active torsions:
REMARK  status: ('A' for Active; 'I' for Inactive)
REMARK    1  A    between atoms: P2_2  and  C5_5 
REMARK    2  A    between atoms: C5_5  and  O6_6 
REMARK    3  A    between atoms: C5_5  and  C7_7 
REMARK    4  A    between atoms: C5_5  and  P14_14 
REMARK    5  A    between atoms: C7_7  and  C8_8 
ROOT
ATOM      1  C5  ZIN A   1      -0.873   2.150   1.510  0.00  0.00     0.289 C 
ENDROOT
BRANCH   1   2
ATOM      2  P2  ZIN A   1      -0.019   1.562   0.011  0.00  0.00     0.310 P 
ATOM      3  O1  ZIN A   1       0.002  -0.004   0.002  0.00  0.00    -0.637 OA
ATOM      4  O3  ZIN A   1       1.451   2.105  -0.001  0.00  0.00    -0.637 OA
ATOM      5  O4  ZIN A   1      -0.777   2.081  -1.259  0.00  0.00    -0.637 OA
ENDBRANCH   1   2
BRANCH   1   6
ATOM      6  O6  ZIN A   1      -0.892   3.579   1.518  0.00  0.00    -0.365 OA
ATOM      7  H18 ZIN A   1      -1.331   3.962   2.290  0.00  0.00     0.212 HD
ENDBRANCH   1   6
BRANCH   1   8
ATOM      8  C7  ZIN A   1      -2.308   1.621   1.521  0.00  0.00     0.108 C 
BRANCH   8   9
ATOM      9  C8  ZIN A   1      -3.037   2.120   0.300  0.00  0.00    -0.036 A 
ATOM     10  C13 ZIN A   1      -3.024   1.387  -0.871  0.00  0.00     0.123 A 
ATOM     11  N12 ZIN A   1      -3.663   1.815  -1.942  0.00  0.00    -0.273 NA
ATOM     12  C11 ZIN A   1      -4.327   2.954  -1.944  0.00  0.00     0.116 A 
ATOM     13  C10 ZIN A   1      -4.380   3.743  -0.811  0.00  0.00     0.020 A 
ATOM     14  C9  ZIN A   1      -3.724   3.323   0.336  0.00  0.00     0.010 A 
ENDBRANCH   8   9
ENDBRANCH   1   8
BRANCH   1  15
ATOM     15  P14 ZIN A   1       0.009   1.546   2.987  0.00  0.00     0.310 P 
ATOM     16  O15 ZIN A   1       0.142  -0.013   2.915  0.00  0.00    -0.637 OA
ATOM     17  O16 ZIN A   1       1.436   2.190   3.043  0.00  0.00    -0.637 OA
ATOM     18  O17 ZIN A   1      -0.793   1.943   4.273  0.00  0.00    -0.637 OA
ENDBRANCH   1  15
TORSDOF 5
