REMARK  3 active torsions:
REMARK  status: ('A' for Active; 'I' for Inactive)
REMARK    1  A    between atoms: C5_5  and  S6_6 
REMARK    2  A    between atoms: S6_6  and  N9_9 
REMARK       I    between atoms: N9_9  and  C10_10 
REMARK       I    between atoms: C10_10  and  N12_12 
REMARK    3  A    between atoms: N12_12  and  N13_13 
ROOT
ATOM      1  N9  ZIN A   1       0.780  -5.025   1.190  0.00  0.00    -0.101 NA
ATOM      2  C10 ZIN A   1       0.921  -6.336   1.393  0.00  0.00     0.367 C 
ATOM      3  O11 ZIN A   1       0.464  -7.129   0.590  0.00  0.00    -0.243 OA
ATOM      4  N12 ZIN A   1       1.568  -6.783   2.488  0.00  0.00    -0.269 N 
ATOM      5  H27 ZIN A   1       1.670  -7.736   2.636  0.00  0.00     0.185 HD
ENDROOT
BRANCH   1   6
ATOM      6  S6  ZIN A   1       0.063  -4.530  -0.023  0.00  0.00     0.287 S 
ATOM      7  O7  ZIN A   1      -1.317  -5.039  -0.018  0.00  0.00    -0.198 OA
ATOM      8  O8  ZIN A   1       0.757  -5.005  -1.231  0.00  0.00    -0.198 OA
BRANCH   6   9
ATOM      9  C5  ZIN A   1       0.040  -2.768  -0.013  0.00  0.00     0.081 A 
ATOM     10  C4  ZIN A   1       0.025  -2.071  -1.206  0.00  0.00     0.026 A 
ATOM     11  C3  ZIN A   1       0.006  -0.689  -1.199  0.00  0.00     0.008 A 
ATOM     12  C2  ZIN A   1       0.002  -0.004   0.002  0.00  0.00    -0.062 A 
ATOM     13  C1  ZIN A   1      -0.018   1.503   0.010  0.00  0.00     0.048 C 
ATOM     14  C21 ZIN A   1       0.023  -0.702   1.195  0.00  0.00     0.008 A 
ATOM     15  C20 ZIN A   1       0.038  -2.084   1.188  0.00  0.00     0.026 A 
ENDBRANCH   6   9
ENDBRANCH   1   6
BRANCH   4  16
ATOM     16  N13 ZIN A   1       2.080  -5.894   3.389  0.00  0.00    -0.227 NA
ATOM     17  C19 ZIN A   1       3.545  -6.055   3.520  0.00  0.00     0.113 C 
ATOM     18  C18 ZIN A   1       4.115  -5.295   4.687  0.00  0.00     0.016 C 
ATOM     19  C17 ZIN A   1       4.182  -6.242   5.903  0.00  0.00     0.001 C 
ATOM     20  C16 ZIN A   1       2.882  -6.410   6.543  0.00  0.00     0.001 C 
ATOM     21  C15 ZIN A   1       1.837  -7.026   5.589  0.00  0.00     0.016 C 
ATOM     22  C14 ZIN A   1       1.337  -5.947   4.668  0.00  0.00     0.113 C 
ENDBRANCH   4  16
TORSDOF 3
