REMARK  2 active torsions:
REMARK  status: ('A' for Active; 'I' for Inactive)
REMARK    1  A    between atoms: C11_11  and  N12_12 
REMARK    2  A    between atoms: N12_12  and  C13_13 
ROOT
ATOM      1 Br1  <0> d   1       0.061   0.117   0.837  0.00  0.00    -0.046 Br
ATOM      2  C2  <0> d   1       0.004   1.944   0.349  0.00  0.00     0.069 A 
ATOM      3  C3  <0> d   1      -1.216   2.639   0.355  0.00  0.00     0.104 A 
ATOM      4  N4  <0> d   1      -2.355   2.031   0.703  0.00  0.00    -0.256 NA
ATOM      5  C5  <0> d   1      -3.482   2.707   0.701  0.00  0.00     0.136 A 
ATOM      6  C6  <0> d   1      -3.503   4.054   0.338  0.00  0.00     0.136 A 
ATOM      7  N7  <0> d   1      -2.398   4.675  -0.008  0.00  0.00    -0.257 NA
ATOM      8  C8  <0> d   1      -1.238   4.009  -0.013  0.00  0.00     0.086 A 
ATOM      9  C9  <0> d   1      -0.040   4.648  -0.379  0.00  0.00     0.036 A 
ATOM     10  C10 <0> d   1       1.128   3.953  -0.377  0.00  0.00     0.034 A 
ATOM     11  C11 <0> d   1       1.161   2.602  -0.009  0.00  0.00     0.069 A 
ENDROOT
BRANCH  11  12
ATOM     12  N12 <0> d   1       2.377   1.912  -0.016  0.00  0.00    -0.191 N 
ATOM     13  H23 <0> d   1       2.418   1.007  -0.363  0.00  0.00     0.184 HD
BRANCH  12  14
ATOM     14  C13 <0> d   1       3.509   2.513   0.467  0.00  0.00     0.674 A 
ATOM     15  N18 <0> d   1       4.705   1.955   0.385  0.00  0.00    -0.225 N 
ATOM     16  C17 <0> d   1       5.702   2.853   0.989  0.00  0.00     0.158 A 
ATOM     17  H28 <0> d   1       4.896   1.092  -0.015  0.00  0.00     0.177 HD
ATOM     18  C16 <0> d   1       4.861   4.058   1.458  0.00  0.00     0.158 A 
ATOM     19  N14 <0> d   1       3.492   3.697   1.057  0.00  0.00    -0.225 N 
ATOM     20  H15 <0> d   1       2.703   4.241   1.203  0.00  0.00     0.177 HD
ENDBRANCH  12  14
ENDBRANCH  11  12
TORSDOF 2
