REMARK  5 active torsions:
REMARK  status: ('A' for Active; 'I' for Inactive)
REMARK    1  A    between atoms: N2_2  and  C4_4 
REMARK    2  A    between atoms: C7_7  and  O8_8 
REMARK    3  A    between atoms: C17_15  and  N19_16 
REMARK    4  A    between atoms: C25_22  and  C26_23 
REMARK       I    between atoms: C26_23  and  N27_24 
REMARK    5  A    between atoms: C31_28  and  O32_29 
ROOT
ATOM      1  C4  ZIN A   1      -0.197   0.347  -0.349  0.00  0.00     0.017 A 
ATOM      2  C5  ZIN A   1      -0.878   0.705   0.811  0.00  0.00     0.027 A 
ATOM      3  C6  ZIN A   1      -2.065   0.083   1.145  0.00  0.00     0.039 A 
ATOM      4  C7  ZIN A   1      -2.592  -0.901   0.322  0.00  0.00     0.079 A 
ATOM      5  C9  ZIN A   1      -1.920  -1.257  -0.854  0.00  0.00     0.042 A 
ATOM      6  C10 ZIN A   1      -0.713  -0.630  -1.181  0.00  0.00    -0.020 A 
ATOM      7  C11 ZIN A   1       0.028  -1.044  -2.426  0.00  0.00     0.051 C 
ATOM      8  C12 ZIN A   1      -0.971  -1.402  -3.523  0.00  0.00     0.030 C 
ATOM      9  C14 ZIN A   1      -0.230  -1.942  -4.749  0.00  0.00     0.021 C 
ATOM     10  C15 ZIN A   1      -1.273  -2.414  -5.758  0.00  0.00     0.074 C 
ATOM     11  C17 ZIN A   1      -0.676  -2.632  -7.135  0.00  0.00     0.255 C 
ATOM     12  C23 ZIN A   1       0.159  -3.876  -7.202  0.00  0.00     0.135 C 
ATOM     13  O24 ZIN A   1       1.071  -3.992  -8.178  0.00  0.00    -0.193 OA
ATOM     14  C25 ZIN A   1       0.020  -4.899  -6.297  0.00  0.00     0.115 C 
ATOM     15  C29 ZIN A   1      -0.942  -4.792  -5.202  0.00  0.00     0.210 C 
ATOM     16  O30 ZIN A   1      -0.923  -5.585  -4.284  0.00  0.00    -0.288 OA
ATOM     17  C31 ZIN A   1      -1.951  -3.683  -5.243  0.00  0.00     0.194 C 
ATOM     18  C33 ZIN A   1      -2.416  -3.442  -3.831  0.00  0.00     0.201 C 
ATOM     19  O34 ZIN A   1      -3.230  -4.208  -3.354  0.00  0.00    -0.289 OA
ATOM     20  C35 ZIN A   1      -1.948  -2.435  -3.031  0.00  0.00     0.033 C 
ATOM     21  C36 ZIN A   1      -2.457  -2.299  -1.743  0.00  0.00     0.131 C 
ATOM     22  O37 ZIN A   1      -3.459  -3.098  -1.318  0.00  0.00    -0.190 OA
ENDROOT
BRANCH  14  23
ATOM     23  C26 ZIN A   1       0.846  -6.110  -6.431  0.00  0.00     0.255 C 
ATOM     24  N27 ZIN A   1       0.636  -7.162  -5.614  0.00  0.00    -0.366 N 
ATOM     25  H57 ZIN A   1       0.000  -7.091  -4.885  0.00  0.00     0.159 HD
ATOM     26  H58 ZIN A   1       1.122  -7.990  -5.755  0.00  0.00     0.159 HD
ATOM     27  O28 ZIN A   1       1.717  -6.162  -7.278  0.00  0.00    -0.268 OA
ENDBRANCH  14  23
BRANCH  11  28
ATOM     28  N19 ZIN A   1      -1.765  -2.738  -8.115  0.00  0.00    -0.068 N 
ATOM     29  H20 ZIN A   1      -2.350  -3.526  -7.884  0.00  0.00     0.279 HD
ATOM     30  C21 ZIN A   1      -2.568  -1.508  -8.089  0.00  0.00     0.270 C 
ATOM     31  C22 ZIN A   1      -1.199  -2.925  -9.457  0.00  0.00     0.270 C 
ENDBRANCH  11  28
BRANCH  17  32
ATOM     32  O32 ZIN A   1      -3.044  -4.038  -6.091  0.00  0.00    -0.373 OA
ATOM     33  H59 ZIN A   1      -3.518  -4.833  -5.811  0.00  0.00     0.211 HD
ENDBRANCH  17  32
BRANCH   4  34
ATOM     34  O8  ZIN A   1      -3.756  -1.516   0.655  0.00  0.00    -0.360 OA
ATOM     35  H46 ZIN A   1      -4.545  -1.079   0.306  0.00  0.00     0.217 HD
ENDBRANCH   4  34
BRANCH   1  36
ATOM     36  N2  ZIN A   1       1.007   0.979  -0.677  0.00  0.00    -0.291 NA
ATOM     37  C1  ZIN A   1       0.816   2.428  -0.833  0.00  0.00     0.116 C 
ATOM     38  C3  ZIN A   1       2.043   0.691   0.324  0.00  0.00     0.116 C 
ENDBRANCH   1  36
TORSDOF 5
