REMARK  5 active torsions:
REMARK  status: ('A' for Active; 'I' for Inactive)
REMARK    1  A    between atoms: N6_6  and  C7_7 
REMARK    2  A    between atoms: C7_7  and  C8_8 
REMARK    3  A    between atoms: C8_8  and  C9_9 
REMARK    4  A    between atoms: C9_9  and  N10_10 
REMARK    5  A    between atoms: C21_21  and  C22_22 
ROOT
ATOM      1  N10 ZIN A   1       3.303  -6.398  -2.285  0.00  0.00    -0.345 N 
ATOM      2  C11 ZIN A   1       4.674  -6.449  -2.047  0.00  0.00     0.052 A 
ATOM      3  C12 ZIN A   1       5.211  -5.645  -1.048  0.00  0.00     0.031 A 
ATOM      4  C13 ZIN A   1       6.567  -5.673  -0.781  0.00  0.00     0.002 A 
ATOM      5  C14 ZIN A   1       7.400  -6.502  -1.507  0.00  0.00     0.002 A 
ATOM      6  C15 ZIN A   1       6.877  -7.305  -2.505  0.00  0.00     0.021 A 
ATOM      7  C16 ZIN A   1       5.516  -7.281  -2.779  0.00  0.00     0.032 A 
ATOM      8  S17 ZIN A   1       4.877  -8.308  -4.059  0.00  0.00    -0.086 SA
ATOM      9  C18 ZIN A   1       3.301  -7.602  -4.400  0.00  0.00     0.032 A 
ATOM     10  C19 ZIN A   1       2.658  -7.917  -5.589  0.00  0.00     0.022 A 
ATOM     11  C20 ZIN A   1       1.421  -7.372  -5.878  0.00  0.00     0.017 A 
ATOM     12  C21 ZIN A   1       0.821  -6.509  -4.980  0.00  0.00     0.050 A 
ATOM     13  C26 ZIN A   1       1.454  -6.191  -3.793  0.00  0.00     0.047 A 
ATOM     14  C27 ZIN A   1       2.698  -6.740  -3.492  0.00  0.00     0.053 A 
ENDROOT
BRANCH   1  15
ATOM     15  C9  ZIN A   1       2.437  -5.960  -1.188  0.00  0.00     0.131 C 
BRANCH  15  16
ATOM     16  C8  ZIN A   1       2.263  -4.441  -1.251  0.00  0.00     0.050 C 
BRANCH  16  17
ATOM     17  C7  ZIN A   1       1.357  -3.983  -0.105  0.00  0.00     0.274 C 
BRANCH  17  18
ATOM     18  N6  ZIN A   1       1.190  -2.525  -0.166  0.00  0.00     0.091 N 
ATOM     19  C5  ZIN A   1       0.528  -2.020   1.045  0.00  0.00     0.300 C 
ATOM     20  C4  ZIN A   1       0.427  -0.495   0.969  0.00  0.00     0.264 C 
ATOM     21  N2  ZIN A   1      -0.340  -0.114  -0.224  0.00  0.00    -0.072 N 
ATOM     22  C1  ZIN A   1      -0.452   1.350  -0.287  0.00  0.00     0.269 C 
ATOM     23  H3  ZIN A   1      -1.262  -0.520  -0.175  0.00  0.00     0.279 HD
ATOM     24  C29 ZIN A   1       0.347  -0.604  -1.426  0.00  0.00     0.264 C 
ATOM     25  C28 ZIN A   1       0.447  -2.130  -1.371  0.00  0.00     0.300 C 
ENDBRANCH  17  18
ENDBRANCH  16  17
ENDBRANCH  15  16
ENDBRANCH   1  15
BRANCH  12  26
ATOM     26  C22 ZIN A   1      -0.527  -5.915  -5.295  0.00  0.00     0.417 C 
ATOM     27  F23 ZIN A   1      -0.963  -6.381  -6.540  0.00  0.00    -0.166 F 
ATOM     28  F24 ZIN A   1      -1.445  -6.291  -4.309  0.00  0.00    -0.166 F 
ATOM     29  F25 ZIN A   1      -0.425  -4.520  -5.330  0.00  0.00    -0.166 F 
ENDBRANCH  12  26
TORSDOF 5
