REMARK  13 active torsions:
REMARK  status: ('A' for Active; 'I' for Inactive)
REMARK    1  A    between atoms: C2_2  and  O3_3 
REMARK    2  A    between atoms: O3_3  and  C4_4 
REMARK    3  A    between atoms: C10_10  and  C11_11 
REMARK    4  A    between atoms: C11_11  and  O13_13 
REMARK    5  A    between atoms: O13_13  and  C14_14 
REMARK    6  A    between atoms: C14_14  and  O17_16 
REMARK    7  A    between atoms: O17_16  and  C18_17 
REMARK    8  A    between atoms: C18_17  and  O20_19 
REMARK    9  A    between atoms: O20_19  and  C21_20 
REMARK   10  A    between atoms: N28_27  and  C29_28 
REMARK   11  A    between atoms: C29_28  and  C30_29 
REMARK   12  A    between atoms: C33_32  and  C34_33 
REMARK   13  A    between atoms: C39_38  and  C40_39 
ROOT
ATOM      1  C4  ZIN A   1       1.054  -4.165   1.647  0.00  0.00     0.249 A 
ATOM      2  N5  ZIN A   1       1.528  -5.029   2.506  0.00  0.00    -0.206 NA
ATOM      3  C6  ZIN A   1       1.092  -4.713   3.755  0.00  0.00     0.089 A 
ATOM      4  C7  ZIN A   1       1.290  -5.286   5.013  0.00  0.00     0.034 A 
ATOM      5  C8  ZIN A   1       0.702  -4.726   6.129  0.00  0.00     0.003 A 
ATOM      6  C9  ZIN A   1      -0.083  -3.594   6.020  0.00  0.00     0.020 A 
ATOM      7  C10 ZIN A   1      -0.302  -3.007   4.773  0.00  0.00     0.069 A 
ATOM      8  C27 ZIN A   1       0.291  -3.567   3.633  0.00  0.00     0.083 A 
ATOM      9  N28 ZIN A   1       0.284  -3.242   2.294  0.00  0.00    -0.304 N 
ENDROOT
BRANCH   9  10
ATOM     10  C29 ZIN A   1      -0.420  -2.115   1.678  0.00  0.00     0.171 C 
BRANCH  10  11
ATOM     11  C30 ZIN A   1       0.525  -0.950   1.534  0.00  0.00    -0.040 A 
ATOM     12  C46 ZIN A   1       1.218  -0.767   0.351  0.00  0.00     0.010 A 
ATOM     13  C45 ZIN A   1       2.084   0.298   0.214  0.00  0.00     0.013 A 
ATOM     14  C33 ZIN A   1       2.261   1.191   1.271  0.00  0.00    -0.025 A 
ATOM     15  C32 ZIN A   1       1.559   1.001   2.461  0.00  0.00     0.013 A 
ATOM     16  C31 ZIN A   1       0.692  -0.065   2.584  0.00  0.00     0.010 A 
BRANCH  14  17
ATOM     17  C34 ZIN A   1       3.190   2.337   1.129  0.00  0.00    -0.012 A 
ATOM     18  C39 ZIN A   1       2.696   3.653   1.143  0.00  0.00     0.026 A 
ATOM     19  C38 ZIN A   1       3.581   4.721   1.015  0.00  0.00     0.016 A 
ATOM     20  C37 ZIN A   1       4.932   4.484   0.864  0.00  0.00     0.001 A 
ATOM     21  C36 ZIN A   1       5.417   3.187   0.845  0.00  0.00     0.001 A 
ATOM     22  C35 ZIN A   1       4.555   2.116   0.976  0.00  0.00     0.013 A 
BRANCH  18  23
ATOM     23  C40 ZIN A   1       1.247   3.902   1.299  0.00  0.00     0.207 A 
ATOM     24  N44 ZIN A   1       0.653   5.085   1.465  0.00  0.00    -0.106 NA
ATOM     25  N43 ZIN A   1      -0.615   4.872   1.561  0.00  0.00    -0.021 NA
ATOM     26  N42 ZIN A   1      -0.843   3.610   1.462  0.00  0.00    -0.021 NA
ATOM     27  N41 ZIN A   1       0.274   2.987   1.296  0.00  0.00    -0.106 NA
ENDBRANCH  18  23
ENDBRANCH  14  17
ENDBRANCH  10  11
ENDBRANCH   9  10
BRANCH   1  28
ATOM     28  O3  ZIN A   1       1.291  -4.184   0.316  0.00  0.00    -0.321 OA
BRANCH  28  29
ATOM     29  C2  ZIN A   1       2.126  -5.232  -0.180  0.00  0.00     0.174 C 
ATOM     30  C1  ZIN A   1       2.278  -5.089  -1.696  0.00  0.00     0.034 C 
ENDBRANCH  28  29
ENDBRANCH   1  28
BRANCH   7  31
ATOM     31  C11 ZIN A   1      -1.145  -1.804   4.656  0.00  0.00     0.298 C 
ATOM     32  O12 ZIN A   1      -0.775  -0.753   5.144  0.00  0.00    -0.259 OA
BRANCH  31  33
ATOM     33  O13 ZIN A   1      -2.325  -1.867   4.009  0.00  0.00    -0.285 OA
BRANCH  33  34
ATOM     34  C14 ZIN A   1      -3.150  -0.673   4.024  0.00  0.00     0.277 C 
ATOM     35  C16 ZIN A   1      -4.158  -0.736   2.874  0.00  0.00     0.072 C 
BRANCH  34  36
ATOM     36  O17 ZIN A   1      -3.862  -0.592   5.287  0.00  0.00    -0.266 OA
BRANCH  36  37
ATOM     37  C18 ZIN A   1      -3.255   0.071   6.288  0.00  0.00     0.409 C 
ATOM     38  O19 ZIN A   1      -2.220   0.670   6.080  0.00  0.00    -0.229 OA
BRANCH  37  39
ATOM     39  O20 ZIN A   1      -3.796   0.070   7.520  0.00  0.00    -0.293 OA
BRANCH  39  40
ATOM     40  C21 ZIN A   1      -3.153   0.900   8.523  0.00  0.00     0.134 C 
ATOM     41  C26 ZIN A   1      -3.446   0.338   9.915  0.00  0.00     0.032 C 
ATOM     42  C25 ZIN A   1      -2.769   1.213  10.972  0.00  0.00     0.002 C 
ATOM     43  C24 ZIN A   1      -3.309   2.641  10.874  0.00  0.00     0.000 C 
ATOM     44  C23 ZIN A   1      -3.015   3.203   9.481  0.00  0.00     0.002 C 
ATOM     45  C22 ZIN A   1      -3.693   2.328   8.425  0.00  0.00     0.032 C 
ENDBRANCH  39  40
ENDBRANCH  37  39
ENDBRANCH  36  37
ENDBRANCH  34  36
ENDBRANCH  33  34
ENDBRANCH  31  33
ENDBRANCH   7  31
TORSDOF 13
