REMARK  9 active torsions:
REMARK  status: ('A' for Active; 'I' for Inactive)
REMARK    1  A    between atoms: C2_2  and  O3_3 
REMARK    2  A    between atoms: O3_3  and  C4_4 
REMARK    3  A    between atoms: C4_4  and  C6_6 
REMARK    4  A    between atoms: C6_6  and  C7_7 
REMARK    5  A    between atoms: N15_15  and  C17_17 
REMARK    6  A    between atoms: C17_17  and  C18_18 
REMARK    7  A    between atoms: C18_18  and  C19_19 
REMARK    8  A    between atoms: C19_19  and  C22_22 
REMARK    9  A    between atoms: C19_19  and  C28_28 
ROOT
ATOM      1  C19 ZIN A   1      -1.855  -6.521  -5.035  0.00  0.00     0.104 C 
ATOM      2  C20 ZIN A   1      -0.420  -6.206  -5.129  0.00  0.00     0.079 C 
ATOM      3  N21 ZIN A   1       0.687  -5.963  -5.201  0.00  0.00    -0.196 NA
ENDROOT
BRANCH   1   4
ATOM      4  C18 ZIN A   1      -2.408  -5.994  -3.709  0.00  0.00     0.062 C 
BRANCH   4   5
ATOM      5  C17 ZIN A   1      -2.178  -4.484  -3.625  0.00  0.00     0.237 C 
BRANCH   5   6
ATOM      6  N15 ZIN A   1      -2.818  -3.958  -2.412  0.00  0.00    -0.071 N 
ATOM      7  C14 ZIN A   1      -2.700  -2.495  -2.393  0.00  0.00     0.236 C 
ATOM      8  C13 ZIN A   1      -3.433  -1.937  -1.172  0.00  0.00     0.052 C 
ATOM      9  C6  ZIN A   1      -2.810  -2.516   0.101  0.00  0.00     0.078 C 
ATOM     10  C35 ZIN A   1      -2.871  -4.045   0.036  0.00  0.00     0.052 C 
ATOM     11  C34 ZIN A   1      -2.158  -4.526  -1.230  0.00  0.00     0.236 C 
ATOM     12  H16 ZIN A   1      -3.793  -4.217  -2.408  0.00  0.00     0.279 HD
BRANCH   9  13
ATOM     13  C4  ZIN A   1      -1.373  -2.073   0.205  0.00  0.00     0.272 C 
ATOM     14  O5  ZIN A   1      -0.487  -2.895   0.225  0.00  0.00    -0.264 OA
BRANCH  13  15
ATOM     15  O3  ZIN A   1      -1.077  -0.766   0.274  0.00  0.00    -0.321 OA
BRANCH  15  16
ATOM     16  C2  ZIN A   1       0.328  -0.412   0.373  0.00  0.00     0.174 C 
ATOM     17  C1  ZIN A   1       0.467   1.110   0.441  0.00  0.00     0.034 C 
ENDBRANCH  15  16
ENDBRANCH  13  15
ENDBRANCH   9  13
BRANCH   9  18
ATOM     18  C7  ZIN A   1      -3.575  -2.032   1.305  0.00  0.00    -0.040 A 
ATOM     19  C12 ZIN A   1      -3.662  -0.678   1.569  0.00  0.00     0.008 A 
ATOM     20  C11 ZIN A   1      -4.368  -0.233   2.672  0.00  0.00     0.001 A 
ATOM     21  C10 ZIN A   1      -4.978  -1.143   3.515  0.00  0.00     0.000 A 
ATOM     22  C9  ZIN A   1      -4.886  -2.497   3.253  0.00  0.00     0.001 A 
ATOM     23  C8  ZIN A   1      -4.184  -2.941   2.149  0.00  0.00     0.008 A 
ENDBRANCH   9  18
ENDBRANCH   5   6
ENDBRANCH   4   5
ENDBRANCH   1   4
BRANCH   1  24
ATOM     24  C22 ZIN A   1      -2.046  -8.015  -5.101  0.00  0.00    -0.031 A 
ATOM     25  C27 ZIN A   1      -1.558  -8.727  -6.180  0.00  0.00     0.009 A 
ATOM     26  C26 ZIN A   1      -1.729 -10.097  -6.239  0.00  0.00     0.001 A 
ATOM     27  C25 ZIN A   1      -2.398 -10.754  -5.223  0.00  0.00     0.000 A 
ATOM     28  C24 ZIN A   1      -2.891 -10.041  -4.146  0.00  0.00     0.001 A 
ATOM     29  C23 ZIN A   1      -2.716  -8.671  -4.085  0.00  0.00     0.009 A 
ENDBRANCH   1  24
BRANCH   1  30
ATOM     30  C28 ZIN A   1      -2.588  -5.870  -6.179  0.00  0.00    -0.031 A 
ATOM     31  C33 ZIN A   1      -3.936  -6.114  -6.365  0.00  0.00     0.009 A 
ATOM     32  C32 ZIN A   1      -4.609  -5.513  -7.412  0.00  0.00     0.001 A 
ATOM     33  C31 ZIN A   1      -3.933  -4.675  -8.278  0.00  0.00     0.000 A 
ATOM     34  C30 ZIN A   1      -2.584  -4.435  -8.096  0.00  0.00     0.001 A 
ATOM     35  C29 ZIN A   1      -1.911  -5.032  -7.046  0.00  0.00     0.009 A 
ENDBRANCH   1  30
TORSDOF 9
