REMARK  8 active torsions:
REMARK  status: ('A' for Active; 'I' for Inactive)
REMARK    1  A    between atoms: C2_2  and  O3_3 
REMARK    2  A    between atoms: O3_3  and  C4_4 
REMARK    3  A    between atoms: C6_6  and  C7_7 
REMARK    4  A    between atoms: C7_7  and  C9_8 
REMARK    5  A    between atoms: C7_7  and  N14_13 
REMARK    6  A    between atoms: C9_8  and  S10_9 
REMARK    7  A    between atoms: C21_20  and  N22_21 
REMARK       I    between atoms: N22_21  and  C23_22 
REMARK    8  A    between atoms: C31_30  and  O32_31 
ROOT
ATOM      1  C7  ZIN A   1      -0.245  -5.002   0.456  0.00  0.00     0.143 C 
ENDROOT
BRANCH   1   2
ATOM      2  C6  ZIN A   1       0.336  -4.075  -0.580  0.00  0.00    -0.031 A 
ATOM      3  C5  ZIN A   1      -0.500  -3.418  -1.465  0.00  0.00     0.049 A 
ATOM      4  C4  ZIN A   1       0.032  -2.566  -2.418  0.00  0.00     0.102 A 
ATOM      5  C31 ZIN A   1       1.409  -2.376  -2.486  0.00  0.00     0.101 A 
ATOM      6  C30 ZIN A   1       2.241  -3.032  -1.593  0.00  0.00     0.040 A 
ATOM      7  C29 ZIN A   1       1.703  -3.882  -0.644  0.00  0.00     0.012 A 
BRANCH   4   8
ATOM      8  O3  ZIN A   1      -0.789  -1.920  -3.289  0.00  0.00    -0.349 OA
BRANCH   8   9
ATOM      9  C2  ZIN A   1      -2.191  -2.163  -3.160  0.00  0.00     0.171 C 
ATOM     10  C1  ZIN A   1      -2.947  -1.356  -4.218  0.00  0.00     0.034 C 
ENDBRANCH   8   9
ENDBRANCH   4   8
BRANCH   5  11
ATOM     11  O32 ZIN A   1       1.937  -1.539  -3.419  0.00  0.00    -0.353 OA
ATOM     12  C33 ZIN A   1       3.357  -1.384  -3.423  0.00  0.00     0.210 C 
ENDBRANCH   5  11
ENDBRANCH   1   2
BRANCH   1  13
ATOM     13  C9  ZIN A   1      -1.648  -5.433   0.026  0.00  0.00     0.170 C 
BRANCH  13  14
ATOM     14  S10 ZIN A   1      -2.405  -6.428   1.340  0.00  0.00     0.143 S 
ATOM     15  C11 ZIN A   1      -4.026  -6.820   0.627  0.00  0.00     0.161 C 
ATOM     16  O12 ZIN A   1      -1.667  -7.635   1.475  0.00  0.00    -0.228 OA
ATOM     17  O13 ZIN A   1      -2.599  -5.602   2.480  0.00  0.00    -0.228 OA
ENDBRANCH  13  14
ENDBRANCH   1  13
BRANCH   1  18
ATOM     18  N14 ZIN A   1       0.610  -6.184   0.588  0.00  0.00    -0.270 N 
ATOM     19  C27 ZIN A   1       1.151  -6.608   1.744  0.00  0.00     0.264 A 
ATOM     20  C26 ZIN A   1       1.942  -7.823   1.478  0.00  0.00     0.075 A 
ATOM     21  O28 ZIN A   1       1.008  -6.080   2.829  0.00  0.00    -0.267 OA
ATOM     22  C17 ZIN A   1       1.826  -8.064   0.092  0.00  0.00     0.050 A 
ATOM     23  C21 ZIN A   1       2.703  -8.681   2.267  0.00  0.00     0.051 A 
ATOM     24  C15 ZIN A   1       0.963  -6.986  -0.434  0.00  0.00     0.262 A 
ATOM     25  C18 ZIN A   1       2.471  -9.149  -0.475  0.00  0.00     0.018 A 
ATOM     26  O16 ZIN A   1       0.628  -6.847  -1.593  0.00  0.00    -0.267 OA
ATOM     27  C19 ZIN A   1       3.228  -9.998   0.321  0.00  0.00     0.003 A 
ATOM     28  C20 ZIN A   1       3.346  -9.770   1.676  0.00  0.00     0.030 A 
BRANCH  23  29
ATOM     29  N22 ZIN A   1       2.824  -8.454   3.634  0.00  0.00    -0.327 N 
ATOM     30  C23 ZIN A   1       3.978  -8.745   4.266  0.00  0.00     0.218 C 
ATOM     31  C24 ZIN A   1       4.143  -8.408   5.726  0.00  0.00     0.117 C 
ATOM     32  O25 ZIN A   1       4.884  -9.277   3.661  0.00  0.00    -0.274 OA
ATOM     33  H48 ZIN A   1       2.077  -8.086   4.133  0.00  0.00     0.169 HD
ENDBRANCH  23  29
ENDBRANCH   1  18
TORSDOF 8
