REMARK  6 active torsions:
REMARK  status: ('A' for Active; 'I' for Inactive)
REMARK    1  A    between atoms: O2_2  and  C3_3 
REMARK    2  A    between atoms: C3_3  and  C5_5 
REMARK    3  A    between atoms: C14_11  and  C16_12 
REMARK    4  A    between atoms: N23_19  and  C25_21 
REMARK    5  A    between atoms: C25_21  and  C26_22 
REMARK    6  A    between atoms: C26_22  and  C27_23 
ROOT
ATOM      1  C5  ZIN A   1       0.755  -2.463  -0.917  0.00  0.00     0.125 C 
ATOM      2  C7  ZIN A   1       1.404  -2.862  -2.252  0.00  0.00     0.203 C 
ATOM      3  C9  ZIN A   1       0.844  -4.246  -2.654  0.00  0.00     0.036 C 
ATOM      4  C10 ZIN A   1      -0.432  -3.936  -3.465  0.00  0.00     0.035 C 
ATOM      5  C11 ZIN A   1      -0.527  -2.392  -3.478  0.00  0.00     0.189 C 
ATOM      6  C13 ZIN A   1      -1.329  -1.960  -2.241  0.00  0.00     0.043 C 
ATOM      7  C14 ZIN A   1      -0.758  -2.679  -1.014  0.00  0.00     0.036 C 
ATOM      8  N23 ZIN A   1       0.889  -1.928  -3.289  0.00  0.00    -0.062 N 
ATOM      9  H24 ZIN A   1       0.909  -0.974  -2.962  0.00  0.00     0.280 HD
ENDROOT
BRANCH   7  10
ATOM     10  C16 ZIN A   1      -1.432  -2.160   0.230  0.00  0.00    -0.053 A 
ATOM     11  C22 ZIN A   1      -1.739  -3.026   1.263  0.00  0.00     0.009 A 
ATOM     12  C21 ZIN A   1      -2.352  -2.550   2.406  0.00  0.00     0.019 A 
ATOM     13  C19 ZIN A   1      -2.669  -1.208   2.512  0.00  0.00     0.006 A 
ATOM     14  C18 ZIN A   1      -2.368  -0.342   1.477  0.00  0.00     0.019 A 
ATOM     15  I20 ZIN A   1      -3.607  -0.487   4.241  0.00  0.00    -0.045 I 
ATOM     16  C17 ZIN A   1      -1.749  -0.818   0.336  0.00  0.00     0.009 A 
ENDBRANCH   7  10
BRANCH   1  17
ATOM     17  C3  ZIN A   1       1.041  -1.011  -0.631  0.00  0.00     0.265 C 
ATOM     18  O4  ZIN A   1       0.446  -0.148  -1.233  0.00  0.00    -0.265 OA
BRANCH  17  19
ATOM     19  O2  ZIN A   1       1.956  -0.676   0.292  0.00  0.00    -0.326 OA
ATOM     20  C1  ZIN A   1       2.179   0.742   0.514  0.00  0.00     0.213 C 
ENDBRANCH  17  19
ENDBRANCH   1  17
BRANCH   8  21
ATOM     21  C25 ZIN A   1       1.649  -2.063  -4.538  0.00  0.00     0.238 C 
BRANCH  21  22
ATOM     22  C26 ZIN A   1       1.090  -1.095  -5.583  0.00  0.00     0.059 C 
BRANCH  22  23
ATOM     23  C27 ZIN A   1       1.882  -1.235  -6.884  0.00  0.00     0.223 C 
ATOM     24  F28 ZIN A   1       1.370  -0.350  -7.839  0.00  0.00    -0.255 F 
ENDBRANCH  22  23
ENDBRANCH  21  22
ENDBRANCH   8  21
TORSDOF 6
