REMARK  9 active torsions:
REMARK  status: ('A' for Active; 'I' for Inactive)
REMARK    1  A    between atoms: C2_2  and  C3_3 
REMARK       I    between atoms: C3_3  and  N5_5 
REMARK    2  A    between atoms: N5_5  and  C6_6 
REMARK    3  A    between atoms: N5_5  and  C12_12 
REMARK    4  A    between atoms: C12_12  and  C13_13 
REMARK    5  A    between atoms: C13_13  and  O15_15 
REMARK    6  A    between atoms: N19_19  and  C21_21 
REMARK    7  A    between atoms: C21_21  and  C22_22 
REMARK    8  A    between atoms: C22_22  and  C23_23 
REMARK    9  A    between atoms: C23_23  and  O25_25 
ROOT
ATOM      1  C12 <0> d   1      -0.412  -2.717  -0.122  0.00  0.00     0.131 C 
ATOM      2  C17 <0> d   1      -0.443  -3.622  -1.357  0.00  0.00     0.070 C 
ATOM      3  C18 <0> d   1      -0.463  -2.755  -2.617  0.00  0.00     0.238 C 
ATOM      4  N19 <0> d   1       0.738  -1.913  -2.656  0.00  0.00    -0.070 N 
ATOM      5  H20 <0> d   1       1.559  -2.498  -2.615  0.00  0.00     0.279 HD
ATOM      6  C27 <0> d   1       0.738  -0.992  -1.513  0.00  0.00     0.238 C 
ATOM      7  C28 <0> d   1       0.805  -1.791  -0.209  0.00  0.00     0.070 C 
ENDROOT
BRANCH   1   8
ATOM      8  N5  <0> d   1      -1.636  -1.913  -0.073  0.00  0.00    -0.298 N 
ATOM      9  C3  <0> d   1      -2.537  -1.997  -1.071  0.00  0.00     0.225 C 
ATOM     10  O4  <0> d   1      -2.568  -2.981  -1.779  0.00  0.00    -0.273 OA
BRANCH   9  11
ATOM     11  C2  <0> d   1      -3.507  -0.868  -1.308  0.00  0.00     0.099 C 
ATOM     12  C1  <0> d   1      -3.745  -0.707  -2.811  0.00  0.00     0.014 C 
ENDBRANCH   9  11
BRANCH   8  13
ATOM     13  C6  <0> d   1      -1.870  -1.060   1.011  0.00  0.00     0.038 A 
ATOM     14  C11 <0> d   1      -3.094  -0.416   1.139  0.00  0.00     0.030 A 
ATOM     15  C10 <0> d   1      -3.324   0.421   2.213  0.00  0.00     0.002 A 
ATOM     16  C9  <0> d   1      -2.332   0.629   3.154  0.00  0.00     0.000 A 
ATOM     17  C8  <0> d   1      -1.110  -0.005   3.026  0.00  0.00     0.002 A 
ATOM     18  C7  <0> d   1      -0.876  -0.849   1.958  0.00  0.00     0.030 A 
ENDBRANCH   8  13
ENDBRANCH   1   8
BRANCH   1  19
ATOM     19  C13 <0> d   1      -0.314  -3.562   1.122  0.00  0.00     0.287 C 
ATOM     20  O14 <0> d   1       0.767  -3.795   1.610  0.00  0.00    -0.262 OA
BRANCH  19  21
ATOM     21  O15 <0> d   1      -1.426  -4.055   1.688  0.00  0.00    -0.325 OA
ATOM     22  C16 <0> d   1      -1.256  -4.860   2.885  0.00  0.00     0.213 C 
ENDBRANCH  19  21
ENDBRANCH   1  19
BRANCH   4  23
ATOM     23  C21 <0> d   1       0.752  -1.139  -3.904  0.00  0.00     0.244 C 
BRANCH  23  24
ATOM     24  C22 <0> d   1       2.062  -0.355  -4.004  0.00  0.00     0.139 C 
BRANCH  24  25
ATOM     25  C23 <0> d   1       2.075   0.439  -5.285  0.00  0.00     0.260 C 
ATOM     26  O24 <0> d   1       1.134   0.384  -6.040  0.00  0.00    -0.265 OA
BRANCH  25  27
ATOM     27  O25 <0> d   1       3.134   1.208  -5.587  0.00  0.00    -0.326 OA
ATOM     28  C26 <0> d   1       3.078   1.945  -6.837  0.00  0.00     0.213 C 
ENDBRANCH  25  27
ENDBRANCH  24  25
ENDBRANCH  23  24
ENDBRANCH   4  23
TORSDOF 9
