REMARK  9 active torsions:
REMARK  status: ('A' for Active; 'I' for Inactive)
REMARK    1  A    between atoms: O2_2  and  C3_3 
REMARK    2  A    between atoms: C6_6  and  C7_7 
REMARK    3  A    between atoms: C7_7  and  C8_8 
REMARK    4  A    between atoms: C8_8  and  N11_11 
REMARK    5  A    between atoms: N11_11  and  C14_14 
REMARK    6  A    between atoms: C14_14  and  C15_15 
REMARK    7  A    between atoms: C15_15  and  O17_16 
REMARK    8  A    between atoms: C15_15  and  C18_17 
REMARK    9  A    between atoms: C20_19  and  O21_20 
ROOT
ATOM      1  C15 <0> d   1       6.740  -4.264  -6.098  0.00  0.00     0.179 C 
ENDROOT
BRANCH   1   2
ATOM      2  C14 <0> d   1       6.060  -3.585  -4.907  0.00  0.00     0.269 C 
BRANCH   2   3
ATOM      3  N11 <0> d   1       4.638  -3.375  -5.210  0.00  0.00    -0.064 N 
ATOM      4  H12 <0> d   1       4.197  -4.264  -5.387  0.00  0.00     0.278 HD
ATOM      5  H13 <0> d   1       4.551  -2.788  -6.026  0.00  0.00     0.278 HD
BRANCH   3   6
ATOM      6  C8  <0> d   1       3.986  -2.723  -4.066  0.00  0.00     0.122 C 
ATOM      7  C9  <0> d   1       4.655  -1.373  -3.798  0.00  0.00     0.046 C 
ATOM      8  C10 <0> d   1       4.117  -3.612  -2.829  0.00  0.00     0.046 C 
BRANCH   6   9
ATOM      9  C7  <0> d   1       2.505  -2.503  -4.381  0.00  0.00     0.076 C 
BRANCH   9  10
ATOM     10  C6  <0> d   1       1.835  -1.835  -3.209  0.00  0.00    -0.056 A 
ATOM     11  C5  <0> d   1       1.786  -0.455  -3.136  0.00  0.00     0.010 A 
ATOM     12  C4  <0> d   1       1.173   0.161  -2.062  0.00  0.00     0.037 A 
ATOM     13  C3  <0> d   1       0.606  -0.607  -1.056  0.00  0.00     0.068 A 
ATOM     14  C31 <0> d   1       0.661  -1.992  -1.128  0.00  0.00     0.037 A 
ATOM     15  C30 <0> d   1       1.271  -2.602  -2.206  0.00  0.00     0.010 A 
BRANCH  13  16
ATOM     16  O2  <0> d   1       0.002  -0.004   0.002  0.00  0.00    -0.356 OA
ATOM     17  C1  <0> d   1      -0.017   1.425   0.010  0.00  0.00     0.210 C 
ENDBRANCH  13  16
ENDBRANCH   9  10
ENDBRANCH   6   9
ENDBRANCH   3   6
ENDBRANCH   2   3
ENDBRANCH   1   2
BRANCH   1  18
ATOM     18  O17 <0> d   1       6.114  -5.524  -6.348  0.00  0.00    -0.389 OA
ATOM     19  H47 <0> d   1       6.160  -6.141  -5.605  0.00  0.00     0.210 HD
ENDBRANCH   1  18
BRANCH   1  20
ATOM     20  C18 <0> d   1       8.199  -4.480  -5.787  0.00  0.00     0.010 A 
ATOM     21  C24 <0> d   1       9.113  -3.466  -6.014  0.00  0.00     0.105 A 
ATOM     22  C23 <0> d   1      10.461  -3.666  -5.723  0.00  0.00     0.071 A 
ATOM     23  O25 <0> d   1       8.706  -2.266  -6.510  0.00  0.00    -0.339 OA
ATOM     24  C22 <0> d   1      10.887  -4.882  -5.215  0.00  0.00     0.069 A 
ATOM     25  N29 <0> d   1      11.374  -2.627  -5.954  0.00  0.00    -0.323 N 
ATOM     26  C20 <0> d   1       9.968  -5.897  -4.994  0.00  0.00     0.068 A 
ATOM     27  C19 <0> d   1       8.626  -5.694  -5.281  0.00  0.00     0.049 A 
ATOM     28  C27 <0> d   1      10.904  -1.373  -6.137  0.00  0.00     0.246 C 
ATOM     29  H53 <0> d   1      12.327  -2.804  -5.976  0.00  0.00     0.169 HD
ATOM     30  C26 <0> d   1       9.421  -1.111  -6.063  0.00  0.00     0.278 C 
ATOM     31  O28 <0> d   1      11.673  -0.463  -6.364  0.00  0.00    -0.271 OA
BRANCH  26  32
ATOM     32  O21 <0> d   1      10.383  -7.092  -4.495  0.00  0.00    -0.361 OA
ATOM     33  H49 <0> d   1      10.634  -7.735  -5.173  0.00  0.00     0.217 HD
ENDBRANCH  26  32
ENDBRANCH   1  20
TORSDOF 9
