REMARK  5 active torsions:
REMARK  status: ('A' for Active; 'I' for Inactive)
REMARK    1  A    between atoms: C2_2  and  O4_3 
REMARK    2  A    between atoms: C2_2  and  C5_4 
REMARK    3  A    between atoms: C5_4  and  O7_5 
REMARK    4  A    between atoms: C5_4  and  C8_6 
REMARK    5  A    between atoms: C18_15  and  N19_16 
ROOT
ATOM      1  C8  <0> d   1      -1.413  -2.059   0.130  0.00  0.00     0.131 C 
ATOM      2  C10 <0> d   1      -2.852  -2.597   0.161  0.00  0.00     0.149 C 
ATOM      3  N11 <0> d   1      -3.506  -2.089   1.375  0.00  0.00    -0.372 N 
ATOM      4  C12 <0> d   1      -2.826  -2.137   2.576  0.00  0.00     0.149 A 
ATOM      5  C13 <0> d   1      -1.473  -2.313   2.596  0.00  0.00     0.144 A 
ATOM      6  N14 <0> d   1      -0.755  -2.453   1.386  0.00  0.00    -0.373 N 
ATOM      7  C15 <0> d   1      -0.805  -2.353   3.836  0.00  0.00     0.313 A 
ATOM      8  O16 <0> d   1       0.408  -2.507   3.880  0.00  0.00    -0.263 OA
ATOM      9  N17 <0> d   1      -1.512  -2.220   4.970  0.00  0.00    -0.021 NA
ATOM     10  C18 <0> d   1      -2.817  -2.054   4.940  0.00  0.00     0.703 A 
ATOM     11  N20 <0> d   1      -3.499  -2.008   3.763  0.00  0.00    -0.173 N 
ATOM     12  H28 <0> d   1      -4.404  -1.724   1.333  0.00  0.00     0.161 HD
ATOM     13  H29 <0> d   1       0.150  -2.802   1.385  0.00  0.00     0.160 HD
ATOM     14  H32 <0> d   1      -4.461  -1.884   3.765  0.00  0.00     0.186 HD
ENDROOT
BRANCH   1  15
ATOM     15  C5  <0> d   1      -1.433  -0.534   0.013  0.00  0.00     0.170 C 
BRANCH  15  16
ATOM     16  C2  <0> d   1       0.002  -0.004   0.002  0.00  0.00     0.145 C 
ATOM     17  C1  <0> d   1      -0.019   1.526   0.010  0.00  0.00     0.042 C 
BRANCH  16  18
ATOM     18  O4  <0> d   1       0.693  -0.477   1.160  0.00  0.00    -0.393 OA
ATOM     19  H24 <0> d   1       1.611  -0.180   1.219  0.00  0.00     0.210 HD
ENDBRANCH  16  18
ENDBRANCH  15  16
BRANCH  15  20
ATOM     20  O7  <0> d   1      -2.137   0.021   1.126  0.00  0.00    -0.391 OA
ATOM     21  H25 <0> d   1      -1.747  -0.195   1.985  0.00  0.00     0.210 HD
ENDBRANCH  15  20
ENDBRANCH   1  15
BRANCH  10  22
ATOM     22  N19 <0> d   1      -3.504  -1.923   6.120  0.00  0.00    -0.233 N 
ATOM     23  H30 <0> d   1      -3.028  -1.954   6.964  0.00  0.00     0.174 HD
ATOM     24  H31 <0> d   1      -4.466  -1.800   6.109  0.00  0.00     0.174 HD
ENDBRANCH  10  22
TORSDOF 5
