REMARK  5 active torsions:
REMARK  status: ('A' for Active; 'I' for Inactive)
REMARK    1  A    between atoms: C2_2  and  C3_3 
REMARK    2  A    between atoms: C3_3  and  C4_4 
REMARK    3  A    between atoms: C4_4  and  N5_5 
REMARK    4  A    between atoms: C11_11  and  C13_12 
REMARK       I    between atoms: C13_12  and  N15_14 
REMARK    5  A    between atoms: N15_14  and  C16_15 
ROOT
ATOM      1  C13 ZIN A   1       1.855  -4.443  -0.888  0.00  0.00     0.253 C 
ATOM      2  O14 ZIN A   1       1.772  -3.602  -0.018  0.00  0.00    -0.271 OA
ATOM      3  N15 ZIN A   1       2.612  -5.541  -0.693  0.00  0.00    -0.324 N 
ATOM      4  H41 ZIN A   1       2.742  -6.176  -1.415  0.00  0.00     0.169 HD
ENDROOT
BRANCH   1   5
ATOM      5  C11 ZIN A   1       1.113  -4.261  -2.187  0.00  0.00     0.279 C 
ATOM      6  N5  ZIN A   1      -0.101  -3.471  -1.946  0.00  0.00    -0.058 N 
ATOM      7  H6  ZIN A   1       0.156  -2.551  -1.621  0.00  0.00     0.280 HD
ATOM      8  C7  ZIN A   1      -0.871  -3.353  -3.190  0.00  0.00     0.236 C 
ATOM      9  C8  ZIN A   1      -0.051  -2.588  -4.231  0.00  0.00     0.028 C 
ATOM     10  C9  ZIN A   1       1.251  -3.347  -4.505  0.00  0.00     0.004 C 
ATOM     11  C10 ZIN A   1       2.011  -3.530  -3.188  0.00  0.00     0.043 C 
BRANCH   6  12
ATOM     12  C4  ZIN A   1      -0.921  -4.137  -0.925  0.00  0.00     0.236 C 
BRANCH  12  13
ATOM     13  C3  ZIN A   1      -2.115  -3.248  -0.571  0.00  0.00     0.027 C 
BRANCH  13  14
ATOM     14  C2  ZIN A   1      -2.970  -3.941   0.492  0.00  0.00    -0.003 C 
ATOM     15  C1  ZIN A   1      -4.163  -3.052   0.846  0.00  0.00     0.005 C 
ENDBRANCH  13  14
ENDBRANCH  12  13
ENDBRANCH   6  12
ENDBRANCH   1   5
BRANCH   3  16
ATOM     16  C16 ZIN A   1       3.210  -5.767   0.552  0.00  0.00     0.046 A 
ATOM     17  C22 ZIN A   1       2.948  -6.940   1.248  0.00  0.00    -0.035 A 
ATOM     18  C21 ZIN A   1       3.545  -7.163   2.473  0.00  0.00     0.009 A 
ATOM     19  C23 ZIN A   1       2.025  -7.976   0.659  0.00  0.00     0.050 C 
ATOM     20  C20 ZIN A   1       4.392  -6.213   3.014  0.00  0.00     0.001 A 
ATOM     21  C19 ZIN A   1       4.650  -5.041   2.327  0.00  0.00     0.009 A 
ATOM     22  C17 ZIN A   1       4.061  -4.815   1.098  0.00  0.00    -0.035 A 
ATOM     23  C18 ZIN A   1       4.343  -3.537   0.350  0.00  0.00     0.050 C 
ENDBRANCH   3  16
TORSDOF 5
