REMARK  8 active torsions:
REMARK  status: ('A' for Active; 'I' for Inactive)
REMARK    1  A    between atoms: O2_2  and  C3_3 
REMARK    2  A    between atoms: C4_4  and  O5_5 
REMARK    3  A    between atoms: O5_5  and  C6_6 
REMARK    4  A    between atoms: C6_6  and  C7_7 
REMARK    5  A    between atoms: C7_7  and  C8_8 
REMARK    6  A    between atoms: C8_8  and  N9_9 
REMARK    7  A    between atoms: C22_22  and  N23_23 
REMARK    8  A    between atoms: N23_23  and  C24_24 
ROOT
ATOM      1  C3  ZIN A   1      -1.267  -0.632  -0.652  0.00  0.00     0.103 A 
ATOM      2  C4  ZIN A   1      -1.313  -2.033  -0.662  0.00  0.00     0.103 A 
ATOM      3  C15 ZIN A   1      -2.488  -2.694  -0.441  0.00  0.00     0.057 A 
ATOM      4  C16 ZIN A   1      -3.659  -1.966  -0.202  0.00  0.00     0.042 A 
ATOM      5  C17 ZIN A   1      -3.620  -0.549  -0.191  0.00  0.00     0.075 A 
ATOM      6  C18 ZIN A   1      -2.404   0.108  -0.414  0.00  0.00     0.072 A 
ATOM      7  N19 ZIN A   1      -4.757   0.125   0.041  0.00  0.00    -0.241 NA
ATOM      8  C20 ZIN A   1      -5.881  -0.518   0.252  0.00  0.00     0.236 A 
ATOM      9  N21 ZIN A   1      -5.965  -1.839   0.251  0.00  0.00    -0.224 NA
ATOM     10  C22 ZIN A   1      -4.902  -2.601   0.033  0.00  0.00     0.142 A 
ENDROOT
BRANCH   2  11
ATOM     11  O5  ZIN A   1      -0.176  -2.742  -0.893  0.00  0.00    -0.348 OA
BRANCH  11  12
ATOM     12  C6  ZIN A   1      -0.287  -4.166  -0.890  0.00  0.00     0.177 C 
BRANCH  12  13
ATOM     13  C7  ZIN A   1       1.084  -4.786  -1.166  0.00  0.00     0.057 C 
BRANCH  13  14
ATOM     14  C8  ZIN A   1       0.965  -6.311  -1.163  0.00  0.00     0.274 C 
BRANCH  14  15
ATOM     15  N9  ZIN A   1       2.282  -6.906  -1.428  0.00  0.00     0.092 N 
ATOM     16  C14 ZIN A   1       2.168  -8.352  -1.668  0.00  0.00     0.298 C 
ATOM     17  C13 ZIN A   1       3.566  -8.940  -1.879  0.00  0.00     0.198 C 
ATOM     18  O12 ZIN A   1       4.204  -8.260  -2.963  0.00  0.00    -0.388 OA
ATOM     19  C11 ZIN A   1       4.332  -6.850  -2.763  0.00  0.00     0.198 C 
ATOM     20  C10 ZIN A   1       2.942  -6.240  -2.560  0.00  0.00     0.298 C 
ENDBRANCH  14  15
ENDBRANCH  13  14
ENDBRANCH  12  13
ENDBRANCH  11  12
ENDBRANCH   2  11
BRANCH   1  21
ATOM     21  O2  ZIN A   1      -0.086   0.003  -0.875  0.00  0.00    -0.353 OA
ATOM     22  C1  ZIN A   1      -0.103   1.431  -0.846  0.00  0.00     0.210 C 
ENDBRANCH   1  21
BRANCH  10  23
ATOM     23  N23 ZIN A   1      -5.004  -3.978   0.034  0.00  0.00    -0.340 N 
ATOM     24  H52 ZIN A   1      -4.207  -4.524  -0.045  0.00  0.00     0.167 HD
BRANCH  23  25
ATOM     25  C24 ZIN A   1      -6.259  -4.585   0.147  0.00  0.00     0.035 A 
ATOM     26  C31 ZIN A   1      -7.373  -3.994  -0.435  0.00  0.00     0.056 A 
ATOM     27  C29 ZIN A   1      -8.611  -4.599  -0.327  0.00  0.00     0.074 A 
ATOM     28  C27 ZIN A   1      -8.742  -5.789   0.372  0.00  0.00     0.138 A 
ATOM     29 Cl30 ZIN A   1     -10.003  -3.866  -1.060  0.00  0.00    -0.081 Cl
ATOM     30  C26 ZIN A   1      -7.634  -6.376   0.958  0.00  0.00     0.046 A 
ATOM     31  F28 ZIN A   1      -9.954  -6.377   0.482  0.00  0.00    -0.204 F 
ATOM     32  C25 ZIN A   1      -6.394  -5.777   0.847  0.00  0.00     0.032 A 
ENDBRANCH  23  25
ENDBRANCH  10  23
TORSDOF 8
