REMARK  14 active torsions:
REMARK  status: ('A' for Active; 'I' for Inactive)
REMARK    1  A    between atoms: C2_2  and  N5_5 
REMARK       I    between atoms: N5_5  and  C6_6 
REMARK    2  A    between atoms: C6_6  and  C8_8 
REMARK    3  A    between atoms: N20_17  and  C22_19 
REMARK    4  A    between atoms: C22_19  and  C23_20 
REMARK    5  A    between atoms: C23_20  and  O25_21 
REMARK    6  A    between atoms: C23_20  and  C26_22 
REMARK    7  A    between atoms: C26_22  and  C28_23 
REMARK    8  A    between atoms: C26_22  and  N35_30 
REMARK    9  A    between atoms: C28_23  and  C29_24 
REMARK       I    between atoms: N35_30  and  C36_31 
REMARK   10  A    between atoms: C36_31  and  C38_33 
REMARK   11  A    between atoms: C38_33  and  C40_34 
REMARK   12  A    between atoms: C38_33  and  N44_38 
REMARK   13  A    between atoms: C40_34  and  C41_35 
REMARK       I    between atoms: C41_35  and  N42_36 
REMARK       I    between atoms: N44_38  and  C45_39 
REMARK   14  A    between atoms: C45_39  and  C47_41 
ROOT
ATOM      1  C26 ZIN A   1       5.536   3.306  -3.643  0.00  0.00     0.119 C 
ENDROOT
BRANCH   1   2
ATOM      2  C23 ZIN A   1       5.894   1.832  -3.841  0.00  0.00     0.167 C 
BRANCH   2   3
ATOM      3  C22 ZIN A   1       4.614   0.994  -3.865  0.00  0.00     0.269 C 
BRANCH   3   4
ATOM      4  N20 ZIN A   1       4.963  -0.431  -3.934  0.00  0.00    -0.055 N 
ATOM      5  C8  ZIN A   1       3.730  -1.216  -4.073  0.00  0.00     0.279 C 
ATOM      6  C10 ZIN A   1       4.078  -2.699  -4.216  0.00  0.00     0.048 C 
ATOM      7  C11 ZIN A   1       4.848  -3.157  -2.976  0.00  0.00    -0.006 C 
ATOM      8  C17 ZIN A   1       6.097  -2.288  -2.812  0.00  0.00     0.016 C 
ATOM      9  C13 ZIN A   1       5.256  -4.621  -3.130  0.00  0.00     0.005 C 
ATOM     10  C16 ZIN A   1       7.001  -2.448  -4.029  0.00  0.00     0.007 C 
ATOM     11  C19 ZIN A   1       5.662  -0.823  -2.702  0.00  0.00     0.241 C 
ATOM     12  C15 ZIN A   1       7.413  -3.914  -4.169  0.00  0.00     0.000 C 
ATOM     13  C14 ZIN A   1       6.163  -4.777  -4.352  0.00  0.00     0.000 C 
ATOM     14  H21 ZIN A   1       5.566  -0.590  -4.727  0.00  0.00     0.281 HD
BRANCH   5  15
ATOM     15  C6  ZIN A   1       2.869  -1.018  -2.852  0.00  0.00     0.249 C 
ATOM     16  N5  ZIN A   1       1.704  -1.685  -2.735  0.00  0.00    -0.351 N 
ATOM     17  H66 ZIN A   1       1.419  -2.291  -3.436  0.00  0.00     0.163 HD
ATOM     18  O7  ZIN A   1       3.225  -0.259  -1.976  0.00  0.00    -0.271 OA
BRANCH  16  19
ATOM     19  C2  ZIN A   1       0.867  -1.492  -1.548  0.00  0.00     0.022 C 
ATOM     20  C1  ZIN A   1       0.463  -0.020  -1.441  0.00  0.00     0.037 C 
ATOM     21  C3  ZIN A   1       1.652  -1.898  -0.299  0.00  0.00     0.037 C 
ATOM     22  C4  ZIN A   1      -0.389  -2.358  -1.664  0.00  0.00     0.037 C 
ENDBRANCH  16  19
ENDBRANCH   5  15
ENDBRANCH   3   4
ENDBRANCH   2   3
BRANCH   2  23
ATOM     23  O25 ZIN A   1       6.591   1.673  -5.079  0.00  0.00    -0.392 OA
ATOM     24  H81 ZIN A   1       6.083   1.949  -5.854  0.00  0.00     0.210 HD
ENDBRANCH   2  23
ENDBRANCH   1   2
BRANCH   1  25
ATOM     25  C28 ZIN A   1       4.748   3.806  -4.856  0.00  0.00     0.066 C 
BRANCH  25  26
ATOM     26  C29 ZIN A   1       4.289   5.220  -4.608  0.00  0.00    -0.056 A 
ATOM     27  C34 ZIN A   1       5.091   6.282  -4.982  0.00  0.00     0.007 A 
ATOM     28  C33 ZIN A   1       4.669   7.579  -4.759  0.00  0.00     0.001 A 
ATOM     29  C32 ZIN A   1       3.448   7.814  -4.154  0.00  0.00     0.000 A 
ATOM     30  C31 ZIN A   1       2.649   6.752  -3.775  0.00  0.00     0.001 A 
ATOM     31  C30 ZIN A   1       3.069   5.455  -4.002  0.00  0.00     0.007 A 
ENDBRANCH  25  26
ENDBRANCH   1  25
BRANCH   1  32
ATOM     32  N35 ZIN A   1       6.764   4.092  -3.501  0.00  0.00    -0.352 N 
ATOM     33  C36 ZIN A   1       6.740   5.266  -2.839  0.00  0.00     0.241 C 
ATOM     34  O37 ZIN A   1       5.702   5.671  -2.361  0.00  0.00    -0.271 OA
ATOM     35  H89 ZIN A   1       7.595   3.768  -3.884  0.00  0.00     0.163 HD
BRANCH  33  36
ATOM     36  C38 ZIN A   1       8.003   6.075  -2.693  0.00  0.00     0.185 C 
BRANCH  36  37
ATOM     37  C40 ZIN A   1       9.053   5.250  -1.945  0.00  0.00     0.137 C 
BRANCH  37  38
ATOM     38  C41 ZIN A   1       8.546   4.923  -0.564  0.00  0.00     0.217 C 
ATOM     39  N42 ZIN A   1       9.257   4.108   0.239  0.00  0.00    -0.370 N 
ATOM     40  H92 ZIN A   1      10.095   3.731  -0.071  0.00  0.00     0.159 HD
ATOM     41  H93 ZIN A   1       8.930   3.898   1.128  0.00  0.00     0.159 HD
ATOM     42  O43 ZIN A   1       7.498   5.395  -0.176  0.00  0.00    -0.274 OA
ENDBRANCH  37  38
ENDBRANCH  36  37
BRANCH  36  43
ATOM     43  N44 ZIN A   1       7.715   7.298  -1.939  0.00  0.00    -0.342 N 
ATOM     44  C45 ZIN A   1       8.464   8.401  -2.134  0.00  0.00     0.271 C 
ATOM     45  O46 ZIN A   1       9.315   8.412  -3.001  0.00  0.00    -0.266 OA
ATOM     46  H94 ZIN A   1       6.986   7.313  -1.300  0.00  0.00     0.163 HD
BRANCH  44  47
ATOM     47  C47 ZIN A   1       8.249   9.601  -1.290  0.00  0.00     0.125 A 
ATOM     48  N56 ZIN A   1       7.321   9.573  -0.353  0.00  0.00    -0.243 NA
ATOM     49  C55 ZIN A   1       7.096  10.626   0.431  0.00  0.00     0.068 A 
ATOM     50  C50 ZIN A   1       7.856  11.813   0.259  0.00  0.00    -0.007 A 
ATOM     51  C54 ZIN A   1       6.107  10.586   1.433  0.00  0.00     0.032 A 
ATOM     52  C49 ZIN A   1       8.845  11.855  -0.741  0.00  0.00     0.016 A 
ATOM     53  C51 ZIN A   1       7.608  12.920   1.087  0.00  0.00     0.014 A 
ATOM     54  C48 ZIN A   1       9.033  10.743  -1.511  0.00  0.00     0.038 A 
ATOM     55  C52 ZIN A   1       6.643  12.843   2.044  0.00  0.00     0.001 A 
ATOM     56  C53 ZIN A   1       5.896  11.678   2.215  0.00  0.00     0.002 A 
ENDBRANCH  44  47
ENDBRANCH  36  43
ENDBRANCH  33  36
ENDBRANCH   1  32
TORSDOF 14
