REMARK  4 active torsions:
REMARK  status: ('A' for Active; 'I' for Inactive)
REMARK    1  A    between atoms: O2_2  and  C3_3 
REMARK    2  A    between atoms: C8_8  and  O9_9 
REMARK    3  A    between atoms: C16_15  and  C18_16 
REMARK    4  A    between atoms: C18_16  and  C19_17 
ROOT
ATOM      1  C3  ZIN A   1       0.606  -0.608  -1.056  0.00  0.00     0.102 A 
ATOM      2  C4  ZIN A   1       1.173   0.156  -2.062  0.00  0.00     0.047 A 
ATOM      3  C5  ZIN A   1       1.790  -0.456  -3.142  0.00  0.00    -0.045 A 
ATOM      4  C6  ZIN A   1       1.844  -1.831  -3.219  0.00  0.00    -0.018 A 
ATOM      5  C7  ZIN A   1       1.276  -2.601  -2.213  0.00  0.00     0.049 A 
ATOM      6  C8  ZIN A   1       0.663  -1.996  -1.131  0.00  0.00     0.102 A 
ATOM      7  C11 ZIN A   1       2.510  -2.537  -4.370  0.00  0.00     0.228 C 
ATOM      8  C13 ZIN A   1       1.650  -3.735  -4.794  0.00  0.00     0.116 C 
ATOM      9  C14 ZIN A   1       2.295  -4.372  -6.008  0.00  0.00     0.135 C 
ATOM     10  O15 ZIN A   1       2.472  -5.565  -6.068  0.00  0.00    -0.297 OA
ATOM     11  C16 ZIN A   1       2.707  -3.459  -7.144  0.00  0.00     0.081 C 
ATOM     12  C22 ZIN A   1       3.491  -2.283  -6.552  0.00  0.00     0.247 C 
ATOM     13  N23 ZIN A   1       2.667  -1.639  -5.516  0.00  0.00    -0.061 N 
ATOM     14  H24 ZIN A   1       1.765  -1.406  -5.903  0.00  0.00     0.280 HD
ATOM     15  C25 ZIN A   1       3.334  -0.412  -5.057  0.00  0.00     0.240 C 
ATOM     16  C26 ZIN A   1       2.391   0.413  -4.218  0.00  0.00     0.067 C 
ENDROOT
BRANCH  11  17
ATOM     17  C18 ZIN A   1       3.592  -4.228  -8.128  0.00  0.00     0.017 C 
BRANCH  17  18
ATOM     18  C19 ZIN A   1       2.776  -5.343  -8.784  0.00  0.00    -0.022 C 
ATOM     19  C20 ZIN A   1       1.664  -4.727  -9.636  0.00  0.00     0.009 C 
ATOM     20  C21 ZIN A   1       3.690  -6.188  -9.673  0.00  0.00     0.009 C 
ENDBRANCH  17  18
ENDBRANCH  11  17
BRANCH   6  21
ATOM     21  O9  ZIN A   1       0.108  -2.756  -0.149  0.00  0.00    -0.353 OA
ATOM     22  C10 ZIN A   1       0.196  -4.174  -0.298  0.00  0.00     0.210 C 
ENDBRANCH   6  21
BRANCH   1  23
ATOM     23  O2  ZIN A   1       0.002  -0.004   0.002  0.00  0.00    -0.353 OA
ATOM     24  C1  ZIN A   1      -0.017   1.425   0.010  0.00  0.00     0.210 C 
ENDBRANCH   1  23
TORSDOF 4
