REMARK  9 active torsions:
REMARK  status: ('A' for Active; 'I' for Inactive)
REMARK    1  A    between atoms: O1_1  and  C2_2 
REMARK    2  A    between atoms: C2_2  and  C3_3 
REMARK    3  A    between atoms: C3_3  and  O4_4 
REMARK    4  A    between atoms: O4_4  and  C5_5 
REMARK    5  A    between atoms: C5_5  and  C6_6 
REMARK    6  A    between atoms: C6_6  and  N7_7 
REMARK    7  A    between atoms: N10_10  and  C11_11 
REMARK    8  A    between atoms: C11_11  and  C13_12 
REMARK    9  A    between atoms: C11_11  and  C19_18 
ROOT
ATOM      1  C11 ZIN A   1      -1.144  -1.454  -7.293  0.00  0.00     0.289 C 
ENDROOT
BRANCH   1   2
ATOM      2  N10 ZIN A   1      -1.750  -0.851  -6.098  0.00  0.00     0.105 N 
ATOM      3  C9  ZIN A   1      -1.389  -1.603  -4.888  0.00  0.00     0.304 C 
ATOM      4  C8  ZIN A   1      -1.973  -0.900  -3.660  0.00  0.00     0.302 C 
ATOM      5  N7  ZIN A   1      -3.432  -0.805  -3.801  0.00  0.00     0.093 N 
ATOM      6  C27 ZIN A   1      -3.794  -0.053  -5.011  0.00  0.00     0.302 C 
ATOM      7  C26 ZIN A   1      -3.210  -0.756  -6.239  0.00  0.00     0.304 C 
BRANCH   5   8
ATOM      8  C6  ZIN A   1      -4.039  -0.203  -2.607  0.00  0.00     0.298 C 
BRANCH   8   9
ATOM      9  C5  ZIN A   1      -3.266   1.061  -2.224  0.00  0.00     0.198 C 
BRANCH   9  10
ATOM     10  O4  ZIN A   1      -3.414   2.040  -3.254  0.00  0.00    -0.387 OA
BRANCH  10  11
ATOM     11  C3  ZIN A   1      -2.727   3.266  -2.995  0.00  0.00     0.193 C 
BRANCH  11  12
ATOM     12  C2  ZIN A   1      -2.955   4.234  -4.157  0.00  0.00     0.190 C 
BRANCH  12  13
ATOM     13  O1  ZIN A   1      -4.339   4.583  -4.222  0.00  0.00    -0.399 OA
ATOM     14  H28 ZIN A   1      -4.557   5.196  -4.938  0.00  0.00     0.209 HD
ENDBRANCH  12  13
ENDBRANCH  11  12
ENDBRANCH  10  11
ENDBRANCH   9  10
ENDBRANCH   8   9
ENDBRANCH   5   8
ENDBRANCH   1   2
BRANCH   1  15
ATOM     15  C13 ZIN A   1       0.354  -1.489  -7.132  0.00  0.00    -0.021 A 
ATOM     16  C18 ZIN A   1       1.057  -2.636  -7.450  0.00  0.00     0.010 A 
ATOM     17  C17 ZIN A   1       2.431  -2.667  -7.307  0.00  0.00     0.001 A 
ATOM     18  C16 ZIN A   1       3.102  -1.553  -6.838  0.00  0.00     0.000 A 
ATOM     19  C15 ZIN A   1       2.399  -0.408  -6.515  0.00  0.00     0.001 A 
ATOM     20  C14 ZIN A   1       1.025  -0.376  -6.662  0.00  0.00     0.010 A 
ENDBRANCH   1  15
BRANCH   1  21
ATOM     21  C19 ZIN A   1      -1.500  -0.632  -8.505  0.00  0.00    -0.021 A 
ATOM     22  C25 ZIN A   1      -1.913  -1.258  -9.666  0.00  0.00     0.011 A 
ATOM     23  C24 ZIN A   1      -2.245  -0.505 -10.777  0.00  0.00     0.024 A 
ATOM     24  C22 ZIN A   1      -2.154   0.875 -10.729  0.00  0.00     0.034 A 
ATOM     25  C21 ZIN A   1      -1.736   1.500  -9.568  0.00  0.00     0.024 A 
ATOM     26 Cl23 ZIN A   1      -2.564   1.821 -12.126  0.00  0.00    -0.084 Cl
ATOM     27  C20 ZIN A   1      -1.409   0.746  -8.457  0.00  0.00     0.011 A 
ENDBRANCH   1  21
TORSDOF 9
