REMARK  6 active torsions:
REMARK  status: ('A' for Active; 'I' for Inactive)
REMARK    1  A    between atoms: N4_4  and  N5_5 
REMARK    2  A    between atoms: N5_5  and  C6_6 
REMARK    3  A    between atoms: C10_10  and  C11_11 
REMARK    4  A    between atoms: C15_15  and  C16_16 
REMARK    5  A    between atoms: C20_20  and  O21_21 
REMARK    6  A    between atoms: N24_24  and  C25_25 
ROOT
ATOM      1  C6  ZIN A   1      -4.015   1.213   0.025  0.00  0.00     0.113 A 
ATOM      2  C7  ZIN A   1      -5.034   0.257   0.030  0.00  0.00     0.036 A 
ATOM      3  C8  ZIN A   1      -6.356   0.654   0.039  0.00  0.00     0.003 A 
ATOM      4  C9  ZIN A   1      -6.684   1.996   0.041  0.00  0.00     0.015 A 
ATOM      5  C10 ZIN A   1      -5.681   2.964   0.035  0.00  0.00     0.010 A 
ATOM      6  C20 ZIN A   1      -4.340   2.575   0.033  0.00  0.00     0.107 A 
ENDROOT
BRANCH   1   7
ATOM      7  N5  ZIN A   1      -2.706   0.820   0.018  0.00  0.00    -0.147 NA
BRANCH   7   8
ATOM      8  N4  ZIN A   1      -2.409  -0.435   0.010  0.00  0.00    -0.142 NA
ATOM      9  C3  ZIN A   1      -1.106  -0.827   0.003  0.00  0.00     0.174 A 
ATOM     10  C2  ZIN A   1       0.002  -0.004   0.002  0.00  0.00     0.087 A 
ATOM     11  C22 ZIN A   1      -0.603  -2.209  -0.007  0.00  0.00     0.301 A 
ATOM     12  C1  ZIN A   1      -0.018   1.503   0.010  0.00  0.00     0.075 C 
ATOM     13  N33 ZIN A   1       1.113  -0.783  -0.013  0.00  0.00    -0.167 NA
ATOM     14  N24 ZIN A   1       0.744  -2.131  -0.013  0.00  0.00    -0.195 N 
ATOM     15  O23 ZIN A   1      -1.271  -3.226  -0.010  0.00  0.00    -0.263 OA
BRANCH  14  16
ATOM     16  C25 ZIN A   1       1.625  -3.218  -0.023  0.00  0.00     0.062 A 
ATOM     17  C32 ZIN A   1       2.997  -3.002  -0.028  0.00  0.00     0.039 A 
ATOM     18  C30 ZIN A   1       3.863  -4.077  -0.033  0.00  0.00    -0.054 A 
ATOM     19  C28 ZIN A   1       3.366  -5.368  -0.043  0.00  0.00    -0.056 A 
ATOM     20  C31 ZIN A   1       5.352  -3.844  -0.033  0.00  0.00     0.049 C 
ATOM     21  C27 ZIN A   1       2.001  -5.586  -0.043  0.00  0.00     0.009 A 
ATOM     22  C29 ZIN A   1       4.315  -6.539  -0.053  0.00  0.00     0.049 C 
ATOM     23  C26 ZIN A   1       1.129  -4.515  -0.033  0.00  0.00     0.032 A 
ENDBRANCH  14  16
ENDBRANCH   7   8
ENDBRANCH   1   7
BRANCH   6  24
ATOM     24  O21 ZIN A   1      -3.358   3.512   0.028  0.00  0.00    -0.357 OA
ATOM     25  H44 ZIN A   1      -3.071   3.786   0.910  0.00  0.00     0.217 HD
ENDBRANCH   6  24
BRANCH   5  26
ATOM     26  C11 ZIN A   1      -6.038   4.404   0.037  0.00  0.00    -0.022 A 
ATOM     27  C19 ZIN A   1      -6.962   4.894  -0.879  0.00  0.00     0.030 A 
ATOM     28  C15 ZIN A   1      -7.296   6.248  -0.867  0.00  0.00     0.041 A 
ATOM     29  C14 ZIN A   1      -6.692   7.105   0.058  0.00  0.00     0.018 A 
ATOM     30  C13 ZIN A   1      -5.772   6.611   0.960  0.00  0.00     0.002 A 
ATOM     31  C12 ZIN A   1      -5.442   5.269   0.955  0.00  0.00     0.012 A 
BRANCH  28  32
ATOM     32  C16 ZIN A   1      -8.280   6.776  -1.832  0.00  0.00     0.209 C 
ATOM     33  O17 ZIN A   1      -8.568   7.965  -1.823  0.00  0.00    -0.644 OA
ATOM     34  O18 ZIN A   1      -8.807   6.026  -2.640  0.00  0.00    -0.644 OA
ENDBRANCH  28  32
ENDBRANCH   5  26
TORSDOF 6
