REMARK  5 active torsions:
REMARK  status: ('A' for Active; 'I' for Inactive)
REMARK    1  A    between atoms: C2_2  and  C3_3 
REMARK    2  A    between atoms: C3_3  and  C4_4 
REMARK    3  A    between atoms: C4_4  and  N5_5 
REMARK    4  A    between atoms: C11_11  and  C13_12 
REMARK       I    between atoms: C13_12  and  N15_14 
REMARK    5  A    between atoms: N15_14  and  C16_15 
ROOT
ATOM      1  C13 ZIN A   1       2.621  -4.748  -1.701  0.00  0.00     0.253 C 
ATOM      2  O14 ZIN A   1       3.567  -4.218  -1.157  0.00  0.00    -0.271 OA
ATOM      3  N15 ZIN A   1       2.121  -5.900  -1.211  0.00  0.00    -0.324 N 
ATOM      4  H41 ZIN A   1       1.394  -6.348  -1.671  0.00  0.00     0.169 HD
ENDROOT
BRANCH   1   5
ATOM      5  C11 ZIN A   1       2.005  -4.119  -2.924  0.00  0.00     0.279 C 
ATOM      6  N5  ZIN A   1       2.768  -2.922  -3.297  0.00  0.00    -0.058 N 
ATOM      7  H6  ZIN A   1       2.385  -2.531  -4.145  0.00  0.00     0.280 HD
ATOM      8  C7  ZIN A   1       4.175  -3.279  -3.517  0.00  0.00     0.236 C 
ATOM      9  C8  ZIN A   1       4.281  -4.252  -4.694  0.00  0.00     0.028 C 
ATOM     10  C9  ZIN A   1       3.475  -5.515  -4.379  0.00  0.00     0.004 C 
ATOM     11  C10 ZIN A   1       2.026  -5.123  -4.079  0.00  0.00     0.043 C 
BRANCH   6  12
ATOM     12  C4  ZIN A   1       2.679  -1.930  -2.218  0.00  0.00     0.236 C 
BRANCH  12  13
ATOM     13  C3  ZIN A   1       3.365  -0.635  -2.658  0.00  0.00     0.027 C 
BRANCH  13  14
ATOM     14  C2  ZIN A   1       3.272   0.399  -1.534  0.00  0.00    -0.003 C 
ATOM     15  C1  ZIN A   1       3.958   1.694  -1.974  0.00  0.00     0.005 C 
ENDBRANCH  13  14
ENDBRANCH  12  13
ENDBRANCH   6  12
ENDBRANCH   1   5
BRANCH   3  16
ATOM     16  C16 ZIN A   1       2.652  -6.450  -0.039  0.00  0.00     0.046 A 
ATOM     17  C22 ZIN A   1       2.843  -5.651   1.080  0.00  0.00    -0.035 A 
ATOM     18  C21 ZIN A   1       3.361  -6.199   2.238  0.00  0.00     0.009 A 
ATOM     19  C23 ZIN A   1       2.473  -4.191   1.036  0.00  0.00     0.050 C 
ATOM     20  C20 ZIN A   1       3.700  -7.539   2.279  0.00  0.00     0.001 A 
ATOM     21  C19 ZIN A   1       3.517  -8.336   1.164  0.00  0.00     0.009 A 
ATOM     22  C17 ZIN A   1       2.994  -7.796   0.005  0.00  0.00    -0.035 A 
ATOM     23  C18 ZIN A   1       2.794  -8.665  -1.210  0.00  0.00     0.050 C 
ENDBRANCH   3  16
TORSDOF 5
