REMARK  4 active torsions:
REMARK  status: ('A' for Active; 'I' for Inactive)
REMARK    1  A    between atoms: C3_3  and  N4_4 
REMARK    2  A    between atoms: N4_4  and  C7_7 
REMARK    3  A    between atoms: C7_7  and  C10_9 
REMARK    4  A    between atoms: C10_9  and  C11_10 
ROOT
ATOM      1  C1  <0> d   1      -0.582  -1.012   0.511  0.00  0.00     0.013 C 
ATOM      2  C2  <0> d   1      -0.504   0.151   0.371  0.00  0.00    -0.090 C 
ATOM      3  C3  <0> d   1      -0.405   1.609   0.196  0.00  0.00     0.327 C 
ENDROOT
BRANCH   3   4
ATOM      4  N4  <0> d   1       1.009   2.004   0.164  0.00  0.00    -0.061 N 
ATOM      5  H5  <0> d   1       1.487   1.487  -0.559  0.00  0.00     0.281 HD
ATOM      6  C6  <0> d   1       1.628   1.713   1.464  0.00  0.00     0.271 C 
BRANCH   4   7
ATOM      7  C7  <0> d   1       1.110   3.443  -0.115  0.00  0.00     0.189 C 
ATOM      8  C9  <0> d   1       2.574   3.878  -0.029  0.00  0.00     0.040 C 
BRANCH   7   9
ATOM      9  C10 <0> d   1       0.574   3.729  -1.519  0.00  0.00     0.071 C 
BRANCH   9  10
ATOM     10  C11 <0> d   1       0.558   5.217  -1.758  0.00  0.00    -0.056 A 
ATOM     11  C16 <0> d   1       1.617   5.824  -2.407  0.00  0.00     0.007 A 
ATOM     12  C15 <0> d   1       1.601   7.188  -2.630  0.00  0.00     0.001 A 
ATOM     13  C14 <0> d   1       0.530   7.947  -2.195  0.00  0.00     0.000 A 
ATOM     14  C13 <0> d   1      -0.526   7.341  -1.541  0.00  0.00     0.001 A 
ATOM     15  C12 <0> d   1      -0.512   5.976  -1.322  0.00  0.00     0.007 A 
ENDBRANCH   9  10
ENDBRANCH   7   9
ENDBRANCH   4   7
ENDBRANCH   3   4
TORSDOF 4
