REMARK  9 active torsions:
REMARK  status: ('A' for Active; 'I' for Inactive)
REMARK    1  A    between atoms: C2_2  and  O4_3 
REMARK    2  A    between atoms: C2_2  and  C5_4 
REMARK    3  A    between atoms: C5_4  and  N6_5 
REMARK    4  A    between atoms: N9_8  and  C11_10 
REMARK    5  A    between atoms: C11_10  and  C12_11 
REMARK    6  A    between atoms: N17_16  and  C18_17 
REMARK    7  A    between atoms: C18_17  and  C19_18 
REMARK    8  A    between atoms: N24_23  and  C26_25 
REMARK    9  A    between atoms: C26_25  and  C27_26 
ROOT
ATOM      1  N6  ZIN A   1      -1.007  -1.957   0.284  0.00  0.00     0.094 N 
ATOM      2  C7  ZIN A   1      -0.585  -2.365   1.631  0.00  0.00     0.300 C 
ATOM      3  C8  ZIN A   1      -0.472  -1.130   2.526  0.00  0.00     0.265 C 
ATOM      4  N9  ZIN A   1      -1.301  -1.316   3.725  0.00  0.00    -0.058 N 
ATOM      5  H10 ZIN A   1      -1.867  -2.144   3.616  0.00  0.00     0.280 HD
ATOM      6  C15 ZIN A   1      -2.172  -0.147   3.904  0.00  0.00     0.265 C 
ATOM      7  C16 ZIN A   1      -3.624  -0.611   4.047  0.00  0.00     0.300 C 
ATOM      8  N17 ZIN A   1      -4.452   0.051   3.030  0.00  0.00     0.101 N 
ATOM      9  C22 ZIN A   1      -5.234  -0.931   2.267  0.00  0.00     0.300 C 
ATOM     10  C23 ZIN A   1      -5.001  -0.717   0.770  0.00  0.00     0.265 C 
ATOM     11  N24 ZIN A   1      -4.522  -1.967   0.165  0.00  0.00    -0.058 N 
ATOM     12  H25 ZIN A   1      -4.342  -2.644   0.890  0.00  0.00     0.280 HD
ATOM     13  C30 ZIN A   1      -3.284  -1.707  -0.582  0.00  0.00     0.265 C 
ATOM     14  C31 ZIN A   1      -2.204  -2.696  -0.138  0.00  0.00     0.300 C 
ENDROOT
BRANCH   1  15
ATOM     15  C5  ZIN A   1      -1.234  -0.507   0.221  0.00  0.00     0.303 C 
BRANCH  15  16
ATOM     16  C2  ZIN A   1      -1.297  -0.064  -1.242  0.00  0.00     0.142 C 
ATOM     17  C1  ZIN A   1      -1.442   1.457  -1.309  0.00  0.00     0.041 C 
BRANCH  16  18
ATOM     18  O4  ZIN A   1      -0.098  -0.459  -1.912  0.00  0.00    -0.394 OA
ATOM     19  H35 ZIN A   1       0.699  -0.020  -1.583  0.00  0.00     0.210 HD
ENDBRANCH  16  18
ENDBRANCH  15  16
ENDBRANCH   1  15
BRANCH  11  20
ATOM     20  C26 ZIN A   1      -5.545  -2.490  -0.750  0.00  0.00     0.347 C 
BRANCH  20  21
ATOM     21  C27 ZIN A   1      -6.774  -2.872   0.035  0.00  0.00     0.199 C 
ATOM     22  O28 ZIN A   1      -6.795  -2.722   1.244  0.00  0.00    -0.647 OA
ATOM     23  O29 ZIN A   1      -7.746  -3.331  -0.540  0.00  0.00    -0.647 OA
ENDBRANCH  20  21
ENDBRANCH  11  20
BRANCH   4  24
ATOM     24  C11 ZIN A   1      -0.434  -1.465   4.901  0.00  0.00     0.347 C 
BRANCH  24  25
ATOM     25  C12 ZIN A   1      -1.278  -1.779   6.110  0.00  0.00     0.199 C 
ATOM     26  O13 ZIN A   1      -2.489  -1.869   6.001  0.00  0.00    -0.647 OA
ATOM     27  O14 ZIN A   1      -0.749  -1.942   7.197  0.00  0.00    -0.647 OA
ENDBRANCH  24  25
ENDBRANCH   4  24
BRANCH   8  28
ATOM     28  C18 ZIN A   1      -3.628   0.877   2.136  0.00  0.00     0.385 C 
BRANCH  28  29
ATOM     29  C19 ZIN A   1      -3.099   2.065   2.897  0.00  0.00     0.202 C 
ATOM     30  O20 ZIN A   1      -3.381   2.211   4.074  0.00  0.00    -0.647 OA
ATOM     31  O21 ZIN A   1      -2.388   2.881   2.335  0.00  0.00    -0.647 OA
ENDBRANCH  28  29
ENDBRANCH   8  28
TORSDOF 9
