REMARK  1 active torsions:
REMARK  status: ('A' for Active; 'I' for Inactive)
REMARK    1  A    between atoms: C8_8  and  C9_9 
ROOT
ATOM      1  C1  ZIN A   1       0.161   1.669   0.315  0.00  0.00     0.091 C 
ATOM      2  C2  ZIN A   1       0.107   0.169   0.186  0.00  0.00     0.107 A 
ATOM      3  N3  ZIN A   1       0.074  -0.502  -0.936  0.00  0.00    -0.245 NA
ATOM      4  C4  ZIN A   1       0.013  -1.817  -0.667  0.00  0.00     0.145 A 
ATOM      5  C5  ZIN A   1       0.006  -1.966   0.667  0.00  0.00     0.056 A 
ATOM      6  C6  ZIN A   1      -0.106  -3.252   1.445  0.00  0.00     0.208 C 
ATOM      7  N7  ZIN A   1      -1.317  -3.171   2.269  0.00  0.00    -0.282 NA
ATOM      8  C8  ZIN A   1      -1.467  -2.264   3.170  0.00  0.00     0.077 C 
ATOM      9  C16 ZIN A   1      -0.541  -1.184   3.526  0.00  0.00     0.022 A 
ATOM     10  C17 ZIN A   1      -0.356  -0.897   4.888  0.00  0.00     0.040 A 
ATOM     11  C18 ZIN A   1       0.478   0.126   5.280  0.00  0.00     0.035 A 
ATOM     12 Cl19 ZIN A   1       0.698   0.462   6.969  0.00  0.00    -0.084 Cl
ATOM     13  C20 ZIN A   1       1.142   0.887   4.332  0.00  0.00     0.026 A 
ATOM     14  C21 ZIN A   1       0.980   0.611   2.991  0.00  0.00     0.032 A 
ATOM     15  C22 ZIN A   1       0.154  -0.430   2.579  0.00  0.00     0.053 A 
ATOM     16  N23 ZIN A   1       0.090  -0.717   1.214  0.00  0.00    -0.300 N 
ENDROOT
BRANCH   8  17
ATOM     17  C9  ZIN A   1      -2.728  -2.319   3.943  0.00  0.00     0.032 A 
ATOM     18  C14 ZIN A   1      -3.661  -1.284   3.839  0.00  0.00     0.129 A 
ATOM     19  C13 ZIN A   1      -4.839  -1.346   4.560  0.00  0.00     0.043 A 
ATOM     20  F15 ZIN A   1      -3.418  -0.232   3.028  0.00  0.00    -0.205 F 
ATOM     21  C12 ZIN A   1      -5.089  -2.423   5.390  0.00  0.00     0.003 A 
ATOM     22  C11 ZIN A   1      -4.166  -3.448   5.502  0.00  0.00     0.001 A 
ATOM     23  C10 ZIN A   1      -2.989  -3.402   4.783  0.00  0.00     0.017 A 
ENDBRANCH   8  17
TORSDOF 1
