REMARK  7 active torsions:
REMARK  status: ('A' for Active; 'I' for Inactive)
REMARK    1  A    between atoms: C2_2  and  C3_3 
REMARK    2  A    between atoms: C3_3  and  C4_4 
REMARK    3  A    between atoms: C10_10  and  C11_11 
REMARK    4  A    between atoms: N23_23  and  C24_24 
REMARK    5  A    between atoms: C24_24  and  C25_25 
REMARK    6  A    between atoms: C28_28  and  C29_29 
REMARK    7  A    between atoms: C34_34  and  C35_35 
ROOT
ATOM      1  C4  ZIN A   1      -1.942  -3.386   3.534  0.00  0.00     0.107 A 
ATOM      2  N5  ZIN A   1      -1.581  -3.634   2.309  0.00  0.00    -0.233 NA
ATOM      3  C6  ZIN A   1      -1.335  -4.960   2.164  0.00  0.00     0.091 A 
ATOM      4  C7  ZIN A   1      -0.926  -5.749   1.083  0.00  0.00    -0.030 A 
ATOM      5  C8  ZIN A   1      -0.671  -5.114  -0.260  0.00  0.00     0.050 C 
ATOM      6  C9  ZIN A   1      -0.758  -7.092   1.244  0.00  0.00     0.024 A 
ATOM      7  C10 ZIN A   1      -0.991  -7.695   2.486  0.00  0.00     0.013 A 
ATOM      8  C21 ZIN A   1      -1.398  -6.923   3.572  0.00  0.00     0.047 A 
ATOM      9  C22 ZIN A   1      -1.570  -5.559   3.415  0.00  0.00     0.066 A 
ATOM     10  N23 ZIN A   1      -1.948  -4.535   4.262  0.00  0.00    -0.329 N 
ENDROOT
BRANCH  10  11
ATOM     11  C24 ZIN A   1      -2.294  -4.663   5.680  0.00  0.00     0.169 C 
BRANCH  11  12
ATOM     12  C25 ZIN A   1      -3.745  -5.046   5.811  0.00  0.00    -0.040 A 
ATOM     13  C39 ZIN A   1      -4.103  -6.380   5.878  0.00  0.00     0.010 A 
ATOM     14  C38 ZIN A   1      -5.430  -6.737   6.003  0.00  0.00     0.013 A 
ATOM     15  C28 ZIN A   1      -6.413  -5.748   6.051  0.00  0.00    -0.025 A 
ATOM     16  C27 ZIN A   1      -6.047  -4.405   5.977  0.00  0.00     0.013 A 
ATOM     17  C26 ZIN A   1      -4.716  -4.061   5.857  0.00  0.00     0.010 A 
BRANCH  15  18
ATOM     18  C29 ZIN A   1      -7.840  -6.125   6.179  0.00  0.00    -0.009 A 
ATOM     19  C34 ZIN A   1      -8.416  -7.036   5.274  0.00  0.00     0.051 A 
ATOM     20  C33 ZIN A   1      -9.762  -7.385   5.410  0.00  0.00     0.019 A 
ATOM     21  C32 ZIN A   1     -10.518  -6.828   6.421  0.00  0.00     0.001 A 
ATOM     22  C31 ZIN A   1      -9.951  -5.928   7.307  0.00  0.00     0.001 A 
ATOM     23  C30 ZIN A   1      -8.621  -5.575   7.191  0.00  0.00     0.013 A 
BRANCH  19  24
ATOM     24  C35 ZIN A   1      -7.604  -7.626   4.197  0.00  0.00     0.210 C 
ATOM     25  O36 ZIN A   1      -6.989  -6.901   3.427  0.00  0.00    -0.644 OA
ATOM     26  O37 ZIN A   1      -7.543  -8.841   4.072  0.00  0.00    -0.644 OA
ENDBRANCH  19  24
ENDBRANCH  15  18
ENDBRANCH  11  12
ENDBRANCH  10  11
BRANCH   1  27
ATOM     27  C3  ZIN A   1      -2.297  -2.023   4.071  0.00  0.00     0.078 C 
BRANCH  27  28
ATOM     28  C2  ZIN A   1      -1.019  -1.290   4.485  0.00  0.00     0.003 C 
ATOM     29  C1  ZIN A   1      -1.368   0.134   4.922  0.00  0.00     0.005 C 
ENDBRANCH  27  28
ENDBRANCH   1  27
BRANCH   7  30
ATOM     30  C11 ZIN A   1      -0.805  -9.152   2.646  0.00  0.00     0.141 A 
ATOM     31  N19 ZIN A   1      -0.059  -9.946   1.816  0.00  0.00    -0.333 N 
ATOM     32  C18 ZIN A   1      -0.135 -11.236   2.307  0.00  0.00     0.064 A 
ATOM     33  C20 ZIN A   1       0.685  -9.509   0.632  0.00  0.00     0.158 C 
ATOM     34  C13 ZIN A   1      -0.958 -11.174   3.446  0.00  0.00     0.086 A 
ATOM     35  C17 ZIN A   1       0.402 -12.450   1.906  0.00  0.00     0.032 A 
ATOM     36  N12 ZIN A   1      -1.333  -9.880   3.599  0.00  0.00    -0.228 NA
ATOM     37  C14 ZIN A   1      -1.227 -12.343   4.164  0.00  0.00     0.034 A 
ATOM     38  C15 ZIN A   1      -0.686 -13.539   3.750  0.00  0.00     0.002 A 
ATOM     39  C16 ZIN A   1       0.125 -13.594   2.626  0.00  0.00     0.002 A 
ENDBRANCH   7  30
TORSDOF 7
