REMARK  7 active torsions:
REMARK  status: ('A' for Active; 'I' for Inactive)
REMARK    1  A    between atoms: C2_2  and  C5_5 
REMARK    2  A    between atoms: C39_35  and  C41_36 
REMARK       I    between atoms: C41_36  and  N43_38 
REMARK    3  A    between atoms: N43_38  and  C44_39 
REMARK    4  A    between atoms: C44_39  and  C45_40 
REMARK       I    between atoms: C45_40  and  N47_42 
REMARK    5  A    between atoms: N47_42  and  S48_43 
REMARK    6  A    between atoms: S48_43  and  C51_46 
REMARK    7  A    between atoms: C56_51  and  C58_52 
ROOT
ATOM      1  C5  ZIN A   1       0.302   2.349  -4.552  0.00  0.00     0.186 C 
ATOM      2  N7  ZIN A   1      -1.107   2.323  -4.997  0.00  0.00    -0.323 N 
ATOM      3  C8  ZIN A   1      -1.359   2.842  -6.232  0.00  0.00     0.361 C 
ATOM      4  O9  ZIN A   1      -0.453   3.285  -6.910  0.00  0.00    -0.238 OA
ATOM      5  O10 ZIN A   1      -2.625   2.856  -6.690  0.00  0.00    -0.296 OA
ATOM      6  C11 ZIN A   1      -2.835   3.394  -8.022  0.00  0.00     0.162 C 
ATOM      7  C13 ZIN A   1      -3.712   4.649  -7.941  0.00  0.00     0.035 C 
ATOM      8  C14 ZIN A   1      -4.836   4.491  -8.969  0.00  0.00     0.005 C 
ATOM      9  C15 ZIN A   1      -4.756   3.076  -9.549  0.00  0.00     0.035 C 
ATOM     10  C16 ZIN A   1      -3.572   2.365  -8.883  0.00  0.00     0.151 C 
ATOM     11  O18 ZIN A   1      -2.700   1.843  -9.885  0.00  0.00    -0.380 OA
ATOM     12  C19 ZIN A   1      -2.373   0.460  -9.710  0.00  0.00     0.195 C 
ATOM     13  C20 ZIN A   1      -0.917   0.262 -10.037  0.00  0.00     0.001 C 
ATOM     14  C21 ZIN A   1      -0.247  -0.751  -9.544  0.00  0.00     0.056 C 
ATOM     15  C22 ZIN A   1       1.208  -0.897  -9.894  0.00  0.00     0.310 C 
ATOM     16  F23 ZIN A   1       1.355  -0.813 -11.282  0.00  0.00    -0.194 F 
ATOM     17  F24 ZIN A   1       1.928   0.141  -9.294  0.00  0.00    -0.194 F 
ATOM     18  C25 ZIN A   1       1.760  -2.212  -9.421  0.00  0.00     0.163 C 
ATOM     19  C26 ZIN A   1       2.032  -2.416  -8.057  0.00  0.00     0.197 C 
ATOM     20  N27 ZIN A   1       2.658  -3.504  -7.657  0.00  0.00    -0.221 NA
ATOM     21  C28 ZIN A   1       2.988  -4.444  -8.551  0.00  0.00     0.088 A 
ATOM     22  C29 ZIN A   1       3.766  -5.557  -8.190  0.00  0.00     0.034 A 
ATOM     23  C30 ZIN A   1       4.011  -6.535  -9.105  0.00  0.00     0.002 A 
ATOM     24  C31 ZIN A   1       3.506  -6.447 -10.400  0.00  0.00     0.002 A 
ATOM     25  C32 ZIN A   1       2.785  -5.363 -10.798  0.00  0.00     0.034 A 
ATOM     26  C33 ZIN A   1       2.560  -4.309  -9.896  0.00  0.00     0.086 A 
ATOM     27  N34 ZIN A   1       1.985  -3.168 -10.293  0.00  0.00    -0.240 NA
ATOM     28  O35 ZIN A   1       1.620  -1.500  -7.150  0.00  0.00    -0.326 OA
ATOM     29  C36 ZIN A   1       2.537  -1.085  -6.139  0.00  0.00     0.151 C 
ATOM     30  C38 ZIN A   1       2.417  -1.996  -4.904  0.00  0.00     0.069 C 
ATOM     31  C39 ZIN A   1       1.827  -1.125  -3.786  0.00  0.00     0.181 C 
ATOM     32  N61 ZIN A   1       1.456   0.168  -4.371  0.00  0.00    -0.334 N 
ATOM     33  C62 ZIN A   1       2.159   0.326  -5.651  0.00  0.00     0.159 C 
ATOM     34  C63 ZIN A   1       0.611   1.063  -3.830  0.00  0.00     0.244 C 
ATOM     35  O64 ZIN A   1       0.093   0.835  -2.757  0.00  0.00    -0.271 OA
ATOM     36  H74 ZIN A   1      -1.813   1.956  -4.441  0.00  0.00     0.165 HD
ENDROOT
BRANCH  31  37
ATOM     37  C41 ZIN A   1       2.855  -0.918  -2.704  0.00  0.00     0.241 C 
ATOM     38  O42 ZIN A   1       3.197   0.204  -2.398  0.00  0.00    -0.271 OA
ATOM     39  N43 ZIN A   1       3.393  -1.982  -2.074  0.00  0.00    -0.341 N 
ATOM     40  H91 ZIN A   1       3.263  -2.874  -2.432  0.00  0.00     0.163 HD
BRANCH  39  41
ATOM     41  C44 ZIN A   1       4.175  -1.790  -0.850  0.00  0.00     0.126 A 
ATOM     42  C56 ZIN A   1       4.636  -3.043  -0.103  0.00  0.00     0.091 A 
ATOM     43  C55 ZIN A   1       5.649  -2.200  -0.882  0.00  0.00     0.055 A 
BRANCH  42  44
ATOM     44  C58 ZIN A   1       4.688  -2.976   1.425  0.00  0.00     0.360 C 
ATOM     45  F59 ZIN A   1       5.128  -4.204   1.930  0.00  0.00    -0.214 F 
ATOM     46  F60 ZIN A   1       5.572  -1.966   1.817  0.00  0.00    -0.214 F 
ENDBRANCH  42  44
BRANCH  41  47
ATOM     47  C45 ZIN A   1       3.805  -0.585  -0.025  0.00  0.00     0.282 C 
ATOM     48  O46 ZIN A   1       4.505   0.405  -0.050  0.00  0.00    -0.268 OA
ATOM     49  N47 ZIN A   1       2.696  -0.606   0.741  0.00  0.00    -0.124 NA
BRANCH  49  50
ATOM     50  S48 ZIN A   1       2.455   0.569   1.882  0.00  0.00     0.262 S 
ATOM     51  O49 ZIN A   1       3.141   0.089   3.030  0.00  0.00    -0.203 OA
ATOM     52  O50 ZIN A   1       2.856   1.771   1.238  0.00  0.00    -0.203 OA
BRANCH  50  53
ATOM     53  C51 ZIN A   1       0.663   0.565   2.164  0.00  0.00     0.081 A 
ATOM     54  C54 ZIN A   1       0.106   1.562   3.182  0.00  0.00     0.029 A 
ATOM     55  C53 ZIN A   1       0.163   0.072   3.523  0.00  0.00     0.029 A 
ATOM     56  C52 ZIN A   1      -0.197   0.253   0.938  0.00  0.00     0.034 C 
ENDBRANCH  50  53
ENDBRANCH  49  50
ENDBRANCH  41  47
ENDBRANCH  39  41
ENDBRANCH  31  37
BRANCH   1  57
ATOM     57  C2  ZIN A   1       0.519   3.533  -3.606  0.00  0.00    -0.022 C 
ATOM     58  C1  ZIN A   1       1.962   3.521  -3.096  0.00  0.00     0.017 C 
ATOM     59  C3  ZIN A   1      -0.442   3.421  -2.421  0.00  0.00     0.017 C 
ATOM     60  C4  ZIN A   1       0.254   4.840  -4.356  0.00  0.00     0.017 C 
ENDBRANCH   1  57
TORSDOF 7
