REMARK  7 active torsions:
REMARK  status: ('A' for Active; 'I' for Inactive)
REMARK    1  A    between atoms: O2_2  and  C3_3 
REMARK    2  A    between atoms: C8_8  and  C10_9 
REMARK    3  A    between atoms: C10_9  and  O12_11 
REMARK    4  A    between atoms: C10_9  and  C13_12 
REMARK    5  A    between atoms: C23_21  and  O24_22 
REMARK    6  A    between atoms: N30_28  and  C32_30 
REMARK    7  A    between atoms: C32_30  and  C33_31 
ROOT
ATOM      1  C3  <0> d   1      -1.811  -1.015   0.193  0.00  0.00     0.094 C 
ATOM      2  C4  <0> d   1      -2.346  -0.387   1.480  0.00  0.00     0.042 C 
ATOM      3  C5  <0> d   1      -3.512  -1.211   2.025  0.00  0.00     0.016 C 
ATOM      4  C6  <0> d   1      -3.796  -2.389   1.082  0.00  0.00     0.004 C 
ATOM      5  C7  <0> d   1      -2.566  -3.279   1.012  0.00  0.00     0.023 C 
ATOM      6  C8  <0> d   1      -1.384  -2.460   0.478  0.00  0.00     0.058 C 
ATOM      7  C17 <0> d   1      -5.056  -3.111   1.544  0.00  0.00     0.202 C 
ATOM      8  C19 <0> d   1      -6.326  -2.258   1.504  0.00  0.00     0.073 C 
ATOM      9  C20 <0> d   1      -6.177  -0.946   0.814  0.00  0.00    -0.046 C 
ATOM     10  C21 <0> d   1      -7.036   0.133   0.890  0.00  0.00     0.011 C 
ATOM     11  C22 <0> d   1      -6.732   1.310   0.221  0.00  0.00     0.040 C 
ATOM     12  C23 <0> d   1      -5.567   1.502  -0.519  0.00  0.00     0.099 C 
ATOM     13  C25 <0> d   1      -4.688   0.415  -0.609  0.00  0.00     0.110 C 
ATOM     14  C26 <0> d   1      -5.085  -0.761  -0.011  0.00  0.00    -0.003 C 
ATOM     15  C27 <0> d   1      -4.081  -1.822  -0.316  0.00  0.00     0.031 C 
ATOM     16  C28 <0> d   1      -4.564  -2.881  -1.273  0.00  0.00     0.046 C 
ATOM     17  C29 <0> d   1      -5.704  -3.703  -0.667  0.00  0.00     0.236 C 
ATOM     18  N30 <0> d   1      -5.285  -4.249   0.624  0.00  0.00    -0.065 N 
ATOM     19  H31 <0> d   1      -4.428  -4.770   0.513  0.00  0.00     0.280 HD
ATOM     20  C36 <0> d   1      -2.904  -1.014  -0.878  0.00  0.00     0.178 C 
ATOM     21  O38 <0> d   1      -3.442   0.292  -1.107  0.00  0.00    -0.338 OA
ENDROOT
BRANCH   6  22
ATOM     22  C10 <0> d   1      -0.262  -2.457   1.517  0.00  0.00     0.067 C 
ATOM     23  C11 <0> d   1      -0.854  -2.219   2.908  0.00  0.00     0.047 C 
BRANCH  22  24
ATOM     24  O12 <0> d   1       0.668  -1.416   1.211  0.00  0.00    -0.389 OA
ATOM     25  H51 <0> d   1       1.084  -1.503   0.342  0.00  0.00     0.210 HD
ENDBRANCH  22  24
BRANCH  22  26
ATOM     26  C13 <0> d   1       0.458  -3.807   1.494  0.00  0.00    -0.020 C 
ATOM     27  C14 <0> d   1       0.913  -4.118   0.067  0.00  0.00     0.017 C 
ATOM     28  C15 <0> d   1       1.677  -3.751   2.417  0.00  0.00     0.017 C 
ATOM     29  C16 <0> d   1      -0.496  -4.902   1.975  0.00  0.00     0.017 C 
ENDBRANCH  22  26
ENDBRANCH   6  22
BRANCH   1  30
ATOM     30  O2  <0> d   1      -0.686  -0.268  -0.272  0.00  0.00    -0.382 OA
ATOM     31  C1  <0> d   1      -0.979   1.099  -0.568  0.00  0.00     0.202 C 
ENDBRANCH   1  30
BRANCH  18  32
ATOM     32  C32 <0> d   1      -6.335  -5.125   1.159  0.00  0.00     0.240 C 
BRANCH  32  33
ATOM     33  C33 <0> d   1      -6.501  -6.340   0.245  0.00  0.00     0.011 A 
ATOM     34  C35 <0> d   1      -7.633  -7.318   0.568  0.00  0.00     0.007 A 
ATOM     35  C34 <0> d   1      -6.179  -7.716   0.833  0.00  0.00     0.007 A 
ENDBRANCH  32  33
ENDBRANCH  18  32
BRANCH  12  36
ATOM     36  O24 <0> d   1      -5.297   2.689  -1.125  0.00  0.00    -0.358 OA
ATOM     37  H65 <0> d   1      -4.802   3.309  -0.573  0.00  0.00     0.217 HD
ENDBRANCH  12  36
TORSDOF 7
