REMARK  8 active torsions:
REMARK  status: ('A' for Active; 'I' for Inactive)
REMARK    1  A    between atoms: C2_2  and  N4_4 
REMARK    2  A    between atoms: N8_8  and  C9_9 
REMARK    3  A    between atoms: C12_12  and  O13_13 
REMARK    4  A    between atoms: O13_13  and  C14_14 
REMARK    5  A    between atoms: C14_14  and  C15_15 
REMARK    6  A    between atoms: C19_18  and  C20_19 
REMARK    7  A    between atoms: C19_18  and  C26_25 
REMARK    8  A    between atoms: C20_19  and  N21_20 
ROOT
ATOM      1  C15 ZIN A   1     -11.331  -4.257  -2.177  0.00  0.00     0.173 C 
ATOM      2  C17 ZIN A   1     -12.158  -3.933  -3.447  0.00  0.00     0.206 C 
ATOM      3  O18 ZIN A   1     -12.885  -5.168  -3.649  0.00  0.00    -0.347 OA
ATOM      4  C19 ZIN A   1     -11.965  -6.203  -3.261  0.00  0.00     0.213 C 
ATOM      5  O34 ZIN A   1     -11.009  -5.653  -2.341  0.00  0.00    -0.340 OA
ENDROOT
BRANCH   1   6
ATOM      6  C14 ZIN A   1     -10.058  -3.410  -2.130  0.00  0.00     0.209 C 
BRANCH   6   7
ATOM      7  O13 ZIN A   1      -9.348  -3.685  -0.920  0.00  0.00    -0.349 OA
BRANCH   7   8
ATOM      8  C12 ZIN A   1      -8.185  -3.010  -0.720  0.00  0.00     0.069 A 
ATOM      9  C11 ZIN A   1      -7.445  -3.230   0.432  0.00  0.00     0.038 A 
ATOM     10  C10 ZIN A   1      -6.263  -2.545   0.636  0.00  0.00     0.026 A 
ATOM     11  C9  ZIN A   1      -5.816  -1.636  -0.313  0.00  0.00     0.010 A 
ATOM     12  C36 ZIN A   1      -6.559  -1.413  -1.464  0.00  0.00     0.026 A 
ATOM     13  C35 ZIN A   1      -7.738  -2.102  -1.669  0.00  0.00     0.038 A 
BRANCH  11  14
ATOM     14  N8  ZIN A   1      -4.618  -0.941  -0.107  0.00  0.00    -0.280 NA
ATOM     15  C7  ZIN A   1      -3.997  -1.328   1.167  0.00  0.00     0.123 C 
ATOM     16  C6  ZIN A   1      -2.665  -0.593   1.326  0.00  0.00     0.250 C 
ATOM     17  N4  ZIN A   1      -2.899   0.857   1.296  0.00  0.00    -0.065 N 
ATOM     18  H5  ZIN A   1      -3.526   1.112   2.044  0.00  0.00     0.280 HD
ATOM     19  C38 ZIN A   1      -3.497   1.232   0.007  0.00  0.00     0.250 C 
ATOM     20  C37 ZIN A   1      -4.836   0.511  -0.162  0.00  0.00     0.123 C 
BRANCH  17  21
ATOM     21  C2  ZIN A   1      -1.622   1.563   1.467  0.00  0.00     0.180 C 
ATOM     22  C1  ZIN A   1      -1.866   3.073   1.436  0.00  0.00     0.039 C 
ATOM     23  C3  ZIN A   1      -1.000   1.174   2.809  0.00  0.00     0.039 C 
ENDBRANCH  17  21
ENDBRANCH  11  14
ENDBRANCH   7   8
ENDBRANCH   6   7
ENDBRANCH   1   6
BRANCH   4  24
ATOM     24  C20 ZIN A   1     -11.242  -6.739  -4.499  0.00  0.00     0.226 C 
BRANCH  24  25
ATOM     25  N21 ZIN A   1     -10.256  -7.743  -4.092  0.00  0.00    -0.257 N 
ATOM     26  N25 ZIN A   1      -9.232  -7.582  -3.145  0.00  0.00    -0.165 NA
ATOM     27  C24 ZIN A   1      -8.589  -8.718  -3.086  0.00  0.00     0.256 A 
ATOM     28  N23 ZIN A   1      -9.145  -9.574  -3.943  0.00  0.00    -0.234 NA
ATOM     29  C22 ZIN A   1     -10.149  -9.000  -4.555  0.00  0.00     0.230 A 
ENDBRANCH  24  25
ENDBRANCH   4  24
BRANCH   4  30
ATOM     30  C26 ZIN A   1     -12.717  -7.323  -2.590  0.00  0.00     0.027 A 
ATOM     31  C32 ZIN A   1     -13.355  -7.102  -1.382  0.00  0.00     0.047 A 
ATOM     32  C31 ZIN A   1     -14.050  -8.128  -0.769  0.00  0.00     0.048 A 
ATOM     33 Cl33 ZIN A   1     -13.294  -5.532  -0.643  0.00  0.00    -0.084 Cl
ATOM     34  C29 ZIN A   1     -14.098  -9.379  -1.358  0.00  0.00     0.035 A 
ATOM     35  C28 ZIN A   1     -13.456  -9.601  -2.563  0.00  0.00     0.024 A 
ATOM     36 Cl30 ZIN A   1     -14.965 -10.670  -0.586  0.00  0.00    -0.084 Cl
ATOM     37  C27 ZIN A   1     -12.765  -8.573  -3.178  0.00  0.00     0.016 A 
ENDBRANCH   4  30
TORSDOF 8
