REMARK  8 active torsions:
REMARK  status: ('A' for Active; 'I' for Inactive)
REMARK    1  A    between atoms: C2_2  and  N4_4 
REMARK    2  A    between atoms: C2_2  and  C35_33 
REMARK       I    between atoms: N4_4  and  C5_5 
REMARK    3  A    between atoms: C5_5  and  C7_7 
REMARK    4  A    between atoms: C9_9  and  O10_10 
REMARK    5  A    between atoms: C17_16  and  O18_17 
REMARK    6  A    between atoms: N29_27  and  C31_29 
REMARK    7  A    between atoms: C31_29  and  C32_30 
REMARK    8  A    between atoms: C37_35  and  C38_36 
ROOT
ATOM      1  C7  ZIN A   1      -3.698  -0.707   0.899  0.00  0.00     0.153 C 
ATOM      2  C8  ZIN A   1      -4.365  -0.228   2.189  0.00  0.00     0.063 C 
ATOM      3  C9  ZIN A   1      -5.815  -0.710   2.200  0.00  0.00     0.102 C 
ATOM      4  C11 ZIN A   1      -6.503  -0.274   3.496  0.00  0.00     0.227 C 
ATOM      5  C13 ZIN A   1      -6.493   1.226   3.737  0.00  0.00     0.075 C 
ATOM      6  C14 ZIN A   1      -6.548   2.032   2.480  0.00  0.00    -0.046 A 
ATOM      7  C15 ZIN A   1      -6.572   1.385   1.266  0.00  0.00    -0.001 A 
ATOM      8  C16 ZIN A   1      -6.495   1.996   0.023  0.00  0.00     0.110 A 
ATOM      9  C17 ZIN A   1      -6.492   3.394  -0.020  0.00  0.00     0.099 A 
ATOM     10  C19 ZIN A   1      -6.543   4.064   1.201  0.00  0.00     0.040 A 
ATOM     11  C20 ZIN A   1      -6.563   3.415   2.424  0.00  0.00     0.011 A 
ATOM     12  O21 ZIN A   1      -6.389   1.064  -0.949  0.00  0.00    -0.334 OA
ATOM     13  C22 ZIN A   1      -5.981  -0.202  -0.347  0.00  0.00     0.215 C 
ATOM     14  C24 ZIN A   1      -4.463  -0.211  -0.291  0.00  0.00     0.170 C 
ATOM     15  O25 ZIN A   1      -3.849   0.185  -1.252  0.00  0.00    -0.294 OA
ATOM     16  C26 ZIN A   1      -6.582  -0.089   1.044  0.00  0.00     0.058 C 
ATOM     17  C27 ZIN A   1      -8.028  -0.578   1.086  0.00  0.00     0.048 C 
ATOM     18  C28 ZIN A   1      -8.637  -0.169   2.432  0.00  0.00     0.236 C 
ATOM     19  N29 ZIN A   1      -7.884  -0.770   3.503  0.00  0.00    -0.063 N 
ATOM     20  H30 ZIN A   1      -8.303  -0.519   4.386  0.00  0.00     0.280 HD
ENDROOT
BRANCH   1  21
ATOM     21  C5  ZIN A   1      -2.287  -0.181   0.840  0.00  0.00     0.230 C 
ATOM     22  N4  ZIN A   1      -1.497  -0.486  -0.208  0.00  0.00    -0.344 N 
ATOM     23  H52 ZIN A   1      -1.836  -1.045  -0.925  0.00  0.00     0.163 HD
ATOM     24  O6  ZIN A   1      -1.863   0.518   1.736  0.00  0.00    -0.273 OA
BRANCH  22  25
ATOM     25  C2  ZIN A   1      -0.125   0.026  -0.265  0.00  0.00     0.095 C 
ATOM     26  C1  ZIN A   1      -0.151   1.556  -0.255  0.00  0.00     0.047 C 
ATOM     27  C3  ZIN A   1       0.659  -0.479   0.948  0.00  0.00     0.047 C 
BRANCH  25  28
ATOM     28  C35 ZIN A   1       0.539  -0.457  -1.529  0.00  0.00     0.200 A 
ATOM     29  O45 ZIN A   1      -0.011  -1.232  -2.469  0.00  0.00    -0.193 OA
ATOM     30  N44 ZIN A   1       0.788  -1.437  -3.358  0.00  0.00    -0.105 NA
ATOM     31  C37 ZIN A   1       1.919  -0.837  -3.093  0.00  0.00     0.189 A 
ATOM     32  N36 ZIN A   1       1.766  -0.201  -1.910  0.00  0.00    -0.201 NA
BRANCH  31  33
ATOM     33  C38 ZIN A   1       3.143  -0.852  -3.933  0.00  0.00     0.014 A 
ATOM     34  C43 ZIN A   1       3.156  -1.555  -5.136  0.00  0.00     0.015 A 
ATOM     35  C42 ZIN A   1       4.294  -1.561  -5.916  0.00  0.00     0.001 A 
ATOM     36  C41 ZIN A   1       5.425  -0.881  -5.500  0.00  0.00     0.000 A 
ATOM     37  C40 ZIN A   1       5.419  -0.186  -4.304  0.00  0.00     0.001 A 
ATOM     38  C39 ZIN A   1       4.284  -0.169  -3.519  0.00  0.00     0.015 A 
ENDBRANCH  31  33
ENDBRANCH  25  28
ENDBRANCH  22  25
ENDBRANCH   1  21
BRANCH   3  39
ATOM     39  O10 ZIN A   1      -5.847  -2.134   2.086  0.00  0.00    -0.386 OA
ATOM     40  H56 ZIN A   1      -5.389  -2.596   2.801  0.00  0.00     0.210 HD
ENDBRANCH   3  39
BRANCH  19  41
ATOM     41  C31 ZIN A   1      -7.912  -2.231   3.353  0.00  0.00     0.240 C 
BRANCH  41  42
ATOM     42  C32 ZIN A   1      -9.332  -2.742   3.605  0.00  0.00     0.011 A 
ATOM     43  C34 ZIN A   1      -9.546  -4.257   3.611  0.00  0.00     0.007 A 
ATOM     44  C33 ZIN A   1     -10.057  -3.417   2.439  0.00  0.00     0.007 A 
ENDBRANCH  41  42
ENDBRANCH  19  41
BRANCH   9  45
ATOM     45  O18 ZIN A   1      -6.443   4.069  -1.200  0.00  0.00    -0.358 OA
ATOM     46  H59 ZIN A   1      -7.311   4.264  -1.577  0.00  0.00     0.217 HD
ENDBRANCH   9  45
TORSDOF 8
