REMARK  6 active torsions:
REMARK  status: ('A' for Active; 'I' for Inactive)
REMARK    1  A    between atoms: C11_9  and  O13_10 
REMARK    2  A    between atoms: O13_10  and  C14_11 
REMARK    3  A    between atoms: C14_11  and  C16_13 
REMARK    4  A    between atoms: C16_13  and  C18_14 
REMARK    5  A    between atoms: C16_13  and  C20_16 
REMARK    6  A    between atoms: C18_14  and  O19_15 
ROOT
ATOM      1  C14 ZIN A   1       4.454  -1.632  -0.949  0.00  0.00     0.270 C 
ATOM      2  O15 ZIN A   1       5.058  -0.740  -1.496  0.00  0.00    -0.264 OA
ENDROOT
BRANCH   1   3
ATOM      3  O13 ZIN A   1       3.333  -1.361  -0.262  0.00  0.00    -0.315 OA
BRANCH   3   4
ATOM      4  C11 ZIN A   1       2.907   0.026  -0.218  0.00  0.00     0.136 C 
ATOM      5  C10 ZIN A   1       2.164   0.290   1.096  0.00  0.00     0.065 C 
ATOM      6  C8  ZIN A   1       0.859  -0.522   1.101  0.00  0.00     0.190 C 
ATOM      7  N2  ZIN A   1       0.002  -0.004   0.002  0.00  0.00    -0.066 N 
ATOM      8  C7  ZIN A   1       1.200  -1.968   0.667  0.00  0.00     0.035 C 
ATOM      9  C1  ZIN A   1      -0.018   1.465   0.010  0.00  0.00     0.270 C 
ATOM     10  H3  ZIN A   1      -0.934  -0.372   0.078  0.00  0.00     0.280 HD
ATOM     11  C4  ZIN A   1       0.666  -0.512  -1.228  0.00  0.00     0.190 C 
ATOM     12  C26 ZIN A   1       1.948   0.312  -1.427  0.00  0.00     0.065 C 
ATOM     13  C6  ZIN A   1       1.070  -1.961  -0.871  0.00  0.00     0.035 C 
ENDBRANCH   3   4
ENDBRANCH   1   3
BRANCH   1  14
ATOM     14  C16 ZIN A   1       4.958  -3.050  -1.039  0.00  0.00     0.142 C 
BRANCH  14  15
ATOM     15  C18 ZIN A   1       5.251  -3.577   0.367  0.00  0.00     0.183 C 
BRANCH  15  16
ATOM     16  O19 ZIN A   1       4.032  -3.655   1.110  0.00  0.00    -0.400 OA
ATOM     17  H38 ZIN A   1       4.142  -3.982   2.013  0.00  0.00     0.209 HD
ENDBRANCH  15  16
ENDBRANCH  14  15
BRANCH  14  18
ATOM     18  C20 ZIN A   1       6.221  -3.083  -1.860  0.00  0.00    -0.043 A 
ATOM     19  C25 ZIN A   1       6.273  -3.836  -3.018  0.00  0.00     0.008 A 
ATOM     20  C24 ZIN A   1       7.430  -3.863  -3.774  0.00  0.00     0.001 A 
ATOM     21  C23 ZIN A   1       8.538  -3.143  -3.368  0.00  0.00     0.000 A 
ATOM     22  C22 ZIN A   1       8.488  -2.394  -2.207  0.00  0.00     0.001 A 
ATOM     23  C21 ZIN A   1       7.329  -2.364  -1.453  0.00  0.00     0.008 A 
ENDBRANCH  14  18
ENDBRANCH   1  14
TORSDOF 6
