REMARK  9 active torsions:
REMARK  status: ('A' for Active; 'I' for Inactive)
REMARK    1  A    between atoms: O2_2  and  C3_3 
REMARK    2  A    between atoms: C5_5  and  N6_6 
REMARK    3  A    between atoms: N6_6  and  C7_7 
REMARK    4  A    between atoms: C10_10  and  O11_11 
REMARK    5  A    between atoms: C13_13  and  O14_14 
REMARK    6  A    between atoms: O14_14  and  C15_15 
REMARK    7  A    between atoms: C15_15  and  C16_16 
REMARK    8  A    between atoms: C16_16  and  C17_17 
REMARK    9  A    between atoms: C17_17  and  N18_18 
ROOT
ATOM      1  C7  ZIN A   1      -4.636   1.721  -0.237  0.00  0.00     0.068 A 
ATOM      2  C8  ZIN A   1      -5.779   2.524  -0.017  0.00  0.00     0.024 A 
ATOM      3  C9  ZIN A   1      -6.986   1.959   0.422  0.00  0.00     0.055 A 
ATOM      4  C10 ZIN A   1      -8.074   2.758   0.628  0.00  0.00     0.102 A 
ATOM      5  C13 ZIN A   1      -7.997   4.140   0.406  0.00  0.00     0.104 A 
ATOM      6  C26 ZIN A   1      -6.824   4.719  -0.024  0.00  0.00     0.072 A 
ATOM      7  C27 ZIN A   1      -5.692   3.919  -0.243  0.00  0.00     0.071 A 
ATOM      8  N28 ZIN A   1      -4.541   4.465  -0.661  0.00  0.00    -0.259 NA
ATOM      9  C29 ZIN A   1      -3.469   3.745  -0.875  0.00  0.00     0.142 A 
ATOM     10  C30 ZIN A   1      -3.462   2.357  -0.669  0.00  0.00     0.089 A 
ATOM     11  C31 ZIN A   1      -2.274   1.595  -0.911  0.00  0.00     0.103 C 
ATOM     12  N32 ZIN A   1      -1.331   0.991  -1.102  0.00  0.00    -0.191 NA
ENDROOT
BRANCH   1  13
ATOM     13  N6  ZIN A   1      -4.673   0.356  -0.029  0.00  0.00    -0.353 N 
ATOM     14  H42 ZIN A   1      -5.520  -0.116  -0.055  0.00  0.00     0.166 HD
BRANCH  13  15
ATOM     15  C5  ZIN A   1      -3.489  -0.345   0.217  0.00  0.00     0.057 A 
ATOM     16  C4  ZIN A   1      -3.018  -1.262  -0.713  0.00  0.00     0.069 A 
ATOM     17  C3  ZIN A   1      -1.844  -1.956  -0.465  0.00  0.00     0.092 A 
ATOM     18  C36 ZIN A   1      -1.145  -1.738   0.715  0.00  0.00     0.069 A 
ATOM     19  C35 ZIN A   1      -1.613  -0.821   1.638  0.00  0.00     0.052 A 
ATOM     20 Cl37 ZIN A   1       0.325  -2.608   1.025  0.00  0.00    -0.081 Cl
ATOM     21  C33 ZIN A   1      -2.783  -0.127   1.394  0.00  0.00     0.062 A 
ATOM     22 Cl34 ZIN A   1      -3.371   1.018   2.559  0.00  0.00    -0.082 Cl
BRANCH  17  23
ATOM     23  O2  ZIN A   1      -1.381  -2.854  -1.374  0.00  0.00    -0.354 OA
ATOM     24  C1  ZIN A   1      -2.085  -2.945  -2.614  0.00  0.00     0.210 C 
ENDBRANCH  17  23
ENDBRANCH  13  15
ENDBRANCH   1  13
BRANCH   4  25
ATOM     25  O11 ZIN A   1      -9.242   2.208   1.052  0.00  0.00    -0.353 OA
ATOM     26  C12 ZIN A   1      -9.256   0.794   1.261  0.00  0.00     0.210 C 
ENDBRANCH   4  25
BRANCH   5  27
ATOM     27  O14 ZIN A   1      -9.091   4.917   0.617  0.00  0.00    -0.348 OA
BRANCH  27  28
ATOM     28  C15 ZIN A   1      -8.950   6.317   0.373  0.00  0.00     0.177 C 
BRANCH  28  29
ATOM     29  C16 ZIN A   1     -10.276   7.022   0.664  0.00  0.00     0.054 C 
BRANCH  29  30
ATOM     30  C17 ZIN A   1     -10.125   8.522   0.403  0.00  0.00     0.237 C 
BRANCH  30  31
ATOM     31  N18 ZIN A   1     -11.399   9.199   0.682  0.00  0.00    -0.068 N 
ATOM     32  H19 ZIN A   1     -12.133   8.768   0.141  0.00  0.00     0.280 HD
ATOM     33  C25 ZIN A   1     -11.712   9.082   2.112  0.00  0.00     0.265 C 
ATOM     34  C24 ZIN A   1     -13.048   9.770   2.400  0.00  0.00     0.299 C 
ATOM     35  N22 ZIN A   1     -12.960  11.186   2.014  0.00  0.00     0.087 N 
ATOM     36  C21 ZIN A   1     -12.622  11.319   0.590  0.00  0.00     0.299 C 
ATOM     37  C23 ZIN A   1     -14.207  11.896   2.328  0.00  0.00     0.310 C 
ATOM     38  C20 ZIN A   1     -11.289  10.617   0.317  0.00  0.00     0.265 C 
ENDBRANCH  30  31
ENDBRANCH  29  30
ENDBRANCH  28  29
ENDBRANCH  27  28
ENDBRANCH   5  27
TORSDOF 9
