REMARK  6 active torsions:
REMARK  status: ('A' for Active; 'I' for Inactive)
REMARK    1  A    between atoms: C3_3  and  C4_4 
REMARK    2  A    between atoms: C4_4  and  C19_18 
REMARK    3  A    between atoms: C5_5  and  C6_6 
REMARK    4  A    between atoms: C6_6  and  C7_7 
REMARK    5  A    between atoms: C7_7  and  N8_8 
REMARK    6  A    between atoms: C13_13  and  C15_14 
ROOT
ATOM      1  C4  ZIN A   1      -0.005  -0.879  -2.401  0.00  0.00    -0.005 C 
ATOM      2  C5  ZIN A   1      -0.309   0.427  -2.491  0.00  0.00    -0.011 C 
ENDROOT
BRANCH   1   3
ATOM      3  C3  ZIN A   1       0.272  -1.484  -1.082  0.00  0.00     0.022 A 
ATOM      4  C2  ZIN A   1      -0.591  -2.241  -0.375  0.00  0.00    -0.044 A 
ATOM      5  C1  ZIN A   1      -1.979  -2.565  -0.867  0.00  0.00     0.049 C 
ATOM      6  C27 ZIN A   1      -0.107  -2.691   0.835  0.00  0.00     0.015 A 
ATOM      7  C26 ZIN A   1       1.145  -2.318   1.118  0.00  0.00     0.051 A 
ATOM      8  S25 ZIN A   1       1.780  -1.329  -0.191  0.00  0.00    -0.101 SA
ENDBRANCH   1   3
BRANCH   1   9
ATOM      9  C19 ZIN A   1       0.051  -1.710  -3.622  0.00  0.00     0.022 A 
ATOM     10  S24 ZIN A   1      -0.424  -1.184  -5.232  0.00  0.00    -0.101 SA
ATOM     11  C23 ZIN A   1      -0.012  -2.757  -5.902  0.00  0.00     0.051 A 
ATOM     12  C22 ZIN A   1       0.431  -3.560  -4.930  0.00  0.00     0.015 A 
ATOM     13  C20 ZIN A   1       0.469  -2.991  -3.674  0.00  0.00    -0.044 A 
ATOM     14  C21 ZIN A   1       0.939  -3.743  -2.455  0.00  0.00     0.049 C 
ENDBRANCH   1   9
BRANCH   2  15
ATOM     15  C6  ZIN A   1      -0.253   1.300  -1.264  0.00  0.00     0.056 C 
BRANCH  15  16
ATOM     16  C7  ZIN A   1       0.748   2.434  -1.490  0.00  0.00     0.238 C 
BRANCH  16  17
ATOM     17  N8  ZIN A   1       0.897   3.210  -0.251  0.00  0.00    -0.070 N 
ATOM     18  H9  ZIN A   1       1.159   2.592   0.502  0.00  0.00     0.279 HD
ATOM     19  C18 ZIN A   1       1.942   4.225  -0.434  0.00  0.00     0.250 C 
ATOM     20  C13 ZIN A   1       1.591   5.116  -1.626  0.00  0.00     0.112 C 
ATOM     21  C12 ZIN A   1       0.250   5.806  -1.363  0.00  0.00     0.019 C 
ATOM     22  C11 ZIN A   1      -0.818   4.740  -1.101  0.00  0.00     0.029 C 
ATOM     23  C10 ZIN A   1      -0.377   3.862   0.073  0.00  0.00     0.235 C 
BRANCH  20  24
ATOM     24  C15 ZIN A   1       2.665   6.157  -1.811  0.00  0.00     0.178 C 
ATOM     25  O16 ZIN A   1       2.384   7.342  -1.738  0.00  0.00    -0.648 OA
ATOM     26  O17 ZIN A   1       3.814   5.816  -2.032  0.00  0.00    -0.648 OA
ENDBRANCH  20  24
ENDBRANCH  16  17
ENDBRANCH  15  16
ENDBRANCH   2  15
TORSDOF 6
