REMARK  10 active torsions:
REMARK  status: ('A' for Active; 'I' for Inactive)
REMARK    1  A    between atoms: O2_2  and  C3_3 
REMARK    2  A    between atoms: C8_8  and  O9_9 
REMARK    3  A    between atoms: O9_9  and  C10_10 
REMARK    4  A    between atoms: C10_10  and  C11_11 
REMARK    5  A    between atoms: C11_11  and  O13_12 
REMARK    6  A    between atoms: C11_11  and  C14_13 
REMARK    7  A    between atoms: C14_13  and  N15_14 
REMARK    8  A    between atoms: N18_17  and  C19_18 
REMARK    9  A    between atoms: C19_18  and  C20_19 
REMARK       I    between atoms: C20_19  and  N22_21 
REMARK   10  A    between atoms: N22_21  and  C23_22 
ROOT
ATOM      1  N15 ZIN A   1       0.718  -7.610  -5.050  0.00  0.00     0.094 N 
ATOM      2  C16 ZIN A   1      -0.370  -7.037  -4.244  0.00  0.00     0.302 C 
ATOM      3  C17 ZIN A   1      -1.714  -7.539  -4.777  0.00  0.00     0.303 C 
ATOM      4  N18 ZIN A   1      -1.742  -9.007  -4.725  0.00  0.00     0.100 N 
ATOM      5  C31 ZIN A   1      -0.654  -9.580  -5.531  0.00  0.00     0.303 C 
ATOM      6  C32 ZIN A   1       0.690  -9.078  -4.998  0.00  0.00     0.302 C 
ENDROOT
BRANCH   1   7
ATOM      7  C14 ZIN A   1       2.022  -7.092  -4.617  0.00  0.00     0.306 C 
BRANCH   7   8
ATOM      8  C11 ZIN A   1       2.127  -7.183  -3.093  0.00  0.00     0.170 C 
BRANCH   8   9
ATOM      9  C10 ZIN A   1       3.420  -6.508  -2.630  0.00  0.00     0.209 C 
BRANCH   9  10
ATOM     10  O9  ZIN A   1       3.462  -6.489  -1.202  0.00  0.00    -0.346 OA
BRANCH  10  11
ATOM     11  C8  ZIN A   1       4.553  -5.920  -0.623  0.00  0.00     0.102 A 
ATOM     12  C3  ZIN A   1       4.654  -5.857   0.764  0.00  0.00     0.101 A 
ATOM     13  C4  ZIN A   1       5.767  -5.275   1.348  0.00  0.00     0.039 A 
ATOM     14  C5  ZIN A   1       6.772  -4.754   0.554  0.00  0.00     0.003 A 
ATOM     15  C6  ZIN A   1       6.669  -4.812  -0.823  0.00  0.00     0.003 A 
ATOM     16  C7  ZIN A   1       5.560  -5.391  -1.413  0.00  0.00     0.039 A 
BRANCH  12  17
ATOM     17  O2  ZIN A   1       3.665  -6.370   1.543  0.00  0.00    -0.353 OA
ATOM     18  C1  ZIN A   1       3.837  -6.270   2.958  0.00  0.00     0.210 C 
ENDBRANCH  12  17
ENDBRANCH  10  11
ENDBRANCH   9  10
ENDBRANCH   8   9
BRANCH   8  19
ATOM     19  O13 ZIN A   1       2.139  -8.556  -2.698  0.00  0.00    -0.392 OA
ATOM     20  H42 ZIN A   1       2.874  -9.065  -3.065  0.00  0.00     0.210 HD
ENDBRANCH   8  19
ENDBRANCH   7   8
ENDBRANCH   1   7
BRANCH   4  21
ATOM     21  C19 ZIN A   1      -3.046  -9.525  -5.158  0.00  0.00     0.375 C 
BRANCH  21  22
ATOM     22  C20 ZIN A   1      -3.124 -11.001  -4.862  0.00  0.00     0.250 C 
ATOM     23  O21 ZIN A   1      -2.185 -11.566  -4.343  0.00  0.00    -0.271 OA
ATOM     24  N22 ZIN A   1      -4.237 -11.693  -5.176  0.00  0.00    -0.325 N 
ATOM     25  H51 ZIN A   1      -4.968 -11.253  -5.639  0.00  0.00     0.169 HD
BRANCH  24  26
ATOM     26  C23 ZIN A   1      -4.339 -13.046  -4.834  0.00  0.00     0.046 A 
ATOM     27  C29 ZIN A   1      -4.150 -13.447  -3.518  0.00  0.00    -0.035 A 
ATOM     28  C28 ZIN A   1      -4.258 -14.782  -3.182  0.00  0.00     0.009 A 
ATOM     29  C30 ZIN A   1      -3.841 -12.425  -2.455  0.00  0.00     0.050 C 
ATOM     30  C27 ZIN A   1      -4.542 -15.721  -4.157  0.00  0.00     0.001 A 
ATOM     31  C26 ZIN A   1      -4.725 -15.326  -5.469  0.00  0.00     0.009 A 
ATOM     32  C24 ZIN A   1      -4.625 -13.991  -5.811  0.00  0.00    -0.035 A 
ATOM     33  C25 ZIN A   1      -4.824 -13.561  -7.241  0.00  0.00     0.050 C 
ENDBRANCH  24  26
ENDBRANCH  21  22
ENDBRANCH   4  21
TORSDOF 10
