REMARK  1 active torsions:
REMARK  status: ('A' for Active; 'I' for Inactive)
REMARK    1  A    between atoms: O2_2  and  C3_3 
ROOT
ATOM      1  C3  ZIN A   1      -0.143  -0.707  -2.021  0.00  0.00     0.102 A 
ATOM      2  C4  ZIN A   1       0.410  -0.077  -3.133  0.00  0.00     0.040 A 
ATOM      3  C5  ZIN A   1       1.189  -0.736  -4.072  0.00  0.00     0.011 A 
ATOM      4  C6  ZIN A   1       1.465  -2.083  -3.925  0.00  0.00    -0.046 A 
ATOM      5  C7  ZIN A   1       2.196  -2.921  -4.923  0.00  0.00     0.072 C 
ATOM      6  C8  ZIN A   1       2.355  -4.372  -4.499  0.00  0.00     0.197 C 
ATOM      7  C10 ZIN A   1       1.207  -4.912  -3.642  0.00  0.00     0.033 C 
ATOM      8  C12 ZIN A   1      -0.118  -4.769  -4.388  0.00  0.00     0.015 C 
ATOM      9  C13 ZIN A   1      -1.236  -5.348  -3.519  0.00  0.00     0.081 C 
ATOM     10  C14 ZIN A   1      -1.262  -4.659  -2.188  0.00  0.00     0.157 C 
ATOM     11  O15 ZIN A   1      -2.334  -4.387  -1.702  0.00  0.00    -0.295 OA
ATOM     12  C16 ZIN A   1      -0.020  -4.289  -1.432  0.00  0.00     0.212 C 
ATOM     13  O18 ZIN A   1      -0.216  -2.941  -0.908  0.00  0.00    -0.334 OA
ATOM     14  C19 ZIN A   1       0.135  -2.069  -1.857  0.00  0.00     0.111 A 
ATOM     15  C20 ZIN A   1       0.957  -2.678  -2.793  0.00  0.00    -0.003 A 
ATOM     16  C21 ZIN A   1       1.181  -4.106  -2.353  0.00  0.00     0.031 C 
ATOM     17  C22 ZIN A   1       2.513  -4.215  -1.615  0.00  0.00     0.045 C 
ATOM     18  C23 ZIN A   1       3.627  -3.728  -2.548  0.00  0.00     0.236 C 
ATOM     19  N24 ZIN A   1       3.612  -4.555  -3.765  0.00  0.00    -0.070 N 
ATOM     20  H25 ZIN A   1       3.752  -5.521  -3.511  0.00  0.00     0.279 HD
ATOM     21  C26 ZIN A   1       4.700  -4.126  -4.654  0.00  0.00     0.270 C 
ENDROOT
BRANCH   1  22
ATOM     22  O2  ZIN A   1      -0.915  -0.027  -1.130  0.00  0.00    -0.353 OA
ATOM     23  C1  ZIN A   1      -1.137   1.360  -1.391  0.00  0.00     0.210 C 
ENDBRANCH   1  22
TORSDOF 1
