REMARK  7 active torsions:
REMARK  status: ('A' for Active; 'I' for Inactive)
REMARK    1  A    between atoms: C5_5  and  C6_6 
REMARK    2  A    between atoms: C6_6  and  C7_7 
REMARK    3  A    between atoms: C7_7  and  C8_8 
REMARK    4  A    between atoms: C8_8  and  C10_9 
REMARK    5  A    between atoms: C8_8  and  S16_15 
REMARK    6  A    between atoms: C10_9  and  N11_10 
REMARK    7  A    between atoms: S16_15  and  C17_16 
ROOT
ATOM      1  C8  ZIN A   1      -0.126   7.937   1.023  0.00  0.00     0.071 C 
ENDROOT
BRANCH   1   2
ATOM      2  C7  ZIN A   1      -0.177   6.439   0.717  0.00  0.00     0.022 C 
BRANCH   2   3
ATOM      3  C6  ZIN A   1       0.114   6.212  -0.768  0.00  0.00     0.040 C 
BRANCH   3   4
ATOM      4  C5  ZIN A   1       0.063   4.736  -1.070  0.00  0.00    -0.058 A 
ATOM      5  C4  ZIN A   1      -1.130   4.150  -1.451  0.00  0.00     0.009 A 
ATOM      6  C3  ZIN A   1      -1.177   2.797  -1.729  0.00  0.00     0.024 A 
ATOM      7  C2  ZIN A   1      -0.030   2.029  -1.625  0.00  0.00     0.034 A 
ATOM      8 Cl1  ZIN A   1      -0.089   0.330  -1.974  0.00  0.00    -0.084 Cl
ATOM      9  C26 ZIN A   1       1.161   2.615  -1.237  0.00  0.00     0.024 A 
ATOM     10  C25 ZIN A   1       1.208   3.970  -0.966  0.00  0.00     0.009 A 
ENDBRANCH   3   4
ENDBRANCH   2   3
ENDBRANCH   1   2
BRANCH   1  11
ATOM     11  C10 ZIN A   1      -0.538   8.174   2.478  0.00  0.00     0.144 C 
BRANCH  11  12
ATOM     12  N11 ZIN A   1      -1.935   7.774   2.660  0.00  0.00    -0.349 N 
ATOM     13  C15 ZIN A   1      -2.374   6.582   3.121  0.00  0.00     0.209 A 
ATOM     14  N14 ZIN A   1      -3.678   6.599   3.147  0.00  0.00    -0.255 NA
ATOM     15  C13 ZIN A   1      -4.115   7.786   2.701  0.00  0.00     0.135 A 
ATOM     16  C12 ZIN A   1      -3.040   8.536   2.391  0.00  0.00     0.111 A 
ENDBRANCH  11  12
ENDBRANCH   1  11
BRANCH   1  17
ATOM     17  S16 ZIN A   1       1.563   8.549   0.766  0.00  0.00    -0.120 SA
BRANCH  17  18
ATOM     18  C17 ZIN A   1       1.383  10.293   0.942  0.00  0.00     0.044 A 
ATOM     19  C23 ZIN A   1       1.662  10.903   2.159  0.00  0.00     0.052 A 
ATOM     20  C22 ZIN A   1       1.526  12.272   2.291  0.00  0.00     0.025 A 
ATOM     21 Cl24 ZIN A   1       2.196   9.949   3.507  0.00  0.00    -0.083 Cl
ATOM     22  C21 ZIN A   1       1.101  13.033   1.218  0.00  0.00     0.003 A 
ATOM     23  C20 ZIN A   1       0.816  12.429   0.007  0.00  0.00     0.025 A 
ATOM     24  C18 ZIN A   1       0.956  11.062  -0.135  0.00  0.00     0.052 A 
ATOM     25 Cl19 ZIN A   1       0.598  10.304  -1.656  0.00  0.00    -0.083 Cl
ENDBRANCH  17  18
ENDBRANCH   1  17
TORSDOF 7
