REMARK  12 active torsions:
REMARK  status: ('A' for Active; 'I' for Inactive)
REMARK    1  A    between atoms: O2_2  and  C3_3 
REMARK    2  A    between atoms: C8_8  and  O9_9 
REMARK    3  A    between atoms: O9_9  and  C10_10 
REMARK    4  A    between atoms: C11_11  and  N12_12 
REMARK    5  A    between atoms: N12_12  and  S13_13 
REMARK    6  A    between atoms: S13_13  and  C16_16 
REMARK    7  A    between atoms: C19_19  and  C20_20 
REMARK    8  A    between atoms: C27_27  and  C28_28 
REMARK    9  A    between atoms: C35_35  and  O36_36 
REMARK   10  A    between atoms: O36_36  and  C37_37 
REMARK   11  A    between atoms: C37_37  and  C38_38 
REMARK   12  A    between atoms: C38_38  and  O39_39 
ROOT
ATOM      1  C10 ZIN A   1       0.177  -4.106  -0.263  0.00  0.00     0.177 A 
ATOM      2  C11 ZIN A   1      -0.828  -4.821  -0.921  0.00  0.00     0.203 A 
ATOM      3  N26 ZIN A   1      -0.724  -6.141  -1.017  0.00  0.00    -0.202 NA
ATOM      4  C27 ZIN A   1       0.316  -6.779  -0.499  0.00  0.00     0.202 A 
ATOM      5  N34 ZIN A   1       1.288  -6.136   0.131  0.00  0.00    -0.198 NA
ATOM      6  C35 ZIN A   1       1.257  -4.815   0.263  0.00  0.00     0.205 A 
ENDROOT
BRANCH   2   7
ATOM      7  N12 ZIN A   1      -1.920  -4.159  -1.467  0.00  0.00    -0.137 NA
BRANCH   7   8
ATOM      8  S13 ZIN A   1      -3.105  -5.017  -2.243  0.00  0.00     0.285 S 
ATOM      9  O14 ZIN A   1      -2.506  -5.561  -3.412  0.00  0.00    -0.198 OA
ATOM     10  O15 ZIN A   1      -3.739  -5.814  -1.252  0.00  0.00    -0.198 OA
BRANCH   8  11
ATOM     11  C16 ZIN A   1      -4.311  -3.858  -2.796  0.00  0.00     0.081 A 
ATOM     12  C25 ZIN A   1      -4.194  -3.282  -4.047  0.00  0.00     0.026 A 
ATOM     13  C24 ZIN A   1      -5.143  -2.375  -4.482  0.00  0.00     0.009 A 
ATOM     14  C19 ZIN A   1      -6.204  -2.039  -3.663  0.00  0.00    -0.051 A 
ATOM     15  C18 ZIN A   1      -6.318  -2.611  -2.410  0.00  0.00     0.009 A 
ATOM     16  C17 ZIN A   1      -5.372  -3.520  -1.976  0.00  0.00     0.026 A 
BRANCH  14  17
ATOM     17  C20 ZIN A   1      -7.236  -1.048  -4.136  0.00  0.00    -0.024 C 
ATOM     18  C21 ZIN A   1      -7.267   0.150  -3.184  0.00  0.00     0.019 C 
ATOM     19  C22 ZIN A   1      -6.878  -0.571  -5.545  0.00  0.00     0.019 C 
ATOM     20  C23 ZIN A   1      -8.612  -1.716  -4.159  0.00  0.00     0.019 C 
ENDBRANCH  14  17
ENDBRANCH   8  11
ENDBRANCH   7   8
ENDBRANCH   2   7
BRANCH   1  21
ATOM     21  O9  ZIN A   1       0.108  -2.753  -0.145  0.00  0.00    -0.299 OA
BRANCH  21  22
ATOM     22  C8  ZIN A   1       0.662  -1.997  -1.129  0.00  0.00     0.109 A 
ATOM     23  C3  ZIN A   1       0.606  -0.608  -1.056  0.00  0.00     0.102 A 
ATOM     24  C4  ZIN A   1       1.173   0.159  -2.062  0.00  0.00     0.039 A 
ATOM     25  C5  ZIN A   1       1.787  -0.457  -3.137  0.00  0.00     0.003 A 
ATOM     26  C6  ZIN A   1       1.837  -1.836  -3.212  0.00  0.00     0.003 A 
ATOM     27  C7  ZIN A   1       1.274  -2.607  -2.212  0.00  0.00     0.040 A 
BRANCH  23  28
ATOM     28  O2  ZIN A   1       0.002  -0.004   0.002  0.00  0.00    -0.353 OA
ATOM     29  C1  ZIN A   1      -0.017   1.425   0.010  0.00  0.00     0.210 C 
ENDBRANCH  23  28
ENDBRANCH  21  22
ENDBRANCH   1  21
BRANCH   6  30
ATOM     30  O36 ZIN A   1       2.257  -4.165   0.909  0.00  0.00    -0.330 OA
BRANCH  30  31
ATOM     31  C37 ZIN A   1       3.322  -4.965   1.427  0.00  0.00     0.203 C 
BRANCH  31  32
ATOM     32  C38 ZIN A   1       4.348  -4.063   2.117  0.00  0.00     0.191 C 
BRANCH  32  33
ATOM     33  O39 ZIN A   1       3.749  -3.445   3.257  0.00  0.00    -0.399 OA
ATOM     34  H67 ZIN A   1       4.343  -2.858   3.744  0.00  0.00     0.209 HD
ENDBRANCH  32  33
ENDBRANCH  31  32
ENDBRANCH  30  31
ENDBRANCH   6  30
BRANCH   4  35
ATOM     35  C28 ZIN A   1       0.394  -8.256  -0.628  0.00  0.00     0.197 A 
ATOM     36  N33 ZIN A   1      -0.577  -8.902  -1.258  0.00  0.00    -0.238 NA
ATOM     37  C32 ZIN A   1      -0.536 -10.216  -1.394  0.00  0.00     0.120 A 
ATOM     38  C31 ZIN A   1       0.534 -10.919  -0.860  0.00  0.00     0.038 A 
ATOM     39  C30 ZIN A   1       1.529 -10.212  -0.203  0.00  0.00     0.120 A 
ATOM     40  N29 ZIN A   1       1.430  -8.897  -0.106  0.00  0.00    -0.238 NA
ENDBRANCH   4  35
TORSDOF 12
