REMARK  3 active torsions:
REMARK  status: ('A' for Active; 'I' for Inactive)
REMARK    1  A    between atoms: O2_2  and  C3_3 
REMARK    2  A    between atoms: C6_6  and  C7_7 
REMARK    3  A    between atoms: C21_21  and  O22_22 
ROOT
ATOM      1  C7  <0> d   1      -4.962  -2.613   0.036  0.00  0.00     0.090 A 
ATOM      2  C8  <0> d   1      -6.094  -1.860   0.040  0.00  0.00     0.094 A 
ATOM      3  C9  <0> d   1      -7.357  -2.498   0.048  0.00  0.00     0.190 A 
ATOM      4  O10 <0> d   1      -8.393  -1.854   0.051  0.00  0.00    -0.287 OA
ATOM      5  C11 <0> d   1      -7.372  -3.971   0.052  0.00  0.00     0.085 A 
ATOM      6  C12 <0> d   1      -8.575  -4.686   0.060  0.00  0.00     0.127 A 
ATOM      7  O13 <0> d   1      -9.762  -4.027   0.064  0.00  0.00    -0.191 OA
ATOM      8  C14 <0> d   1      -8.546  -6.069   0.064  0.00  0.00     0.081 A 
ATOM      9  C15 <0> d   1      -7.330  -6.742   0.059  0.00  0.00     0.112 A 
ATOM     10  O16 <0> d   1      -7.312  -8.099   0.062  0.00  0.00    -0.192 OA
ATOM     11  C17 <0> d   1      -6.134  -6.040   0.052  0.00  0.00     0.078 A 
ATOM     12  C18 <0> d   1      -6.143  -4.654   0.048  0.00  0.00     0.096 A 
ATOM     13  O19 <0> d   1      -4.988  -3.955   0.035  0.00  0.00    -0.309 OA
ENDROOT
BRANCH   1  14
ATOM     14  C6  <0> d   1      -3.655  -1.929   0.027  0.00  0.00     0.001 A 
ATOM     15  C5  <0> d   1      -3.595  -0.533   0.028  0.00  0.00     0.017 A 
ATOM     16  C4  <0> d   1      -2.373   0.104   0.019  0.00  0.00     0.040 A 
ATOM     17  C3  <0> d   1      -1.200  -0.637   0.010  0.00  0.00     0.101 A 
ATOM     18  C21 <0> d   1      -1.252  -2.030   0.003  0.00  0.00     0.099 A 
ATOM     19  C20 <0> d   1      -2.473  -2.676   0.017  0.00  0.00     0.053 A 
BRANCH  17  20
ATOM     20  O2  <0> d   1       0.002  -0.004   0.002  0.00  0.00    -0.353 OA
ATOM     21  C1  <0> d   1      -0.017   1.425   0.010  0.00  0.00     0.210 C 
ENDBRANCH  17  20
BRANCH  18  22
ATOM     22  O22 <0> d   1      -0.101  -2.754  -0.007  0.00  0.00    -0.358 OA
ATOM     23  H32 <0> d   1       0.224  -2.965  -0.893  0.00  0.00     0.217 HD
ENDBRANCH  18  22
ENDBRANCH   1  14
TORSDOF 3
