REMARK  1 active torsions:
REMARK  status: ('A' for Active; 'I' for Inactive)
REMARK    1  A    between atoms: C4_3  and  C6_4 
ROOT
ATOM      1  C1  ZIN A   1      -0.019   1.526   0.010  0.00  0.00     0.046 C 
ATOM      2  C2  ZIN A   1       0.002  -0.004   0.002  0.00  0.00     0.251 C 
ATOM      3  C4  ZIN A   1      -1.434  -0.535   0.015  0.00  0.00     0.187 C 
ATOM      4  O12 ZIN A   1      -2.075  -0.132   1.228  0.00  0.00    -0.377 OA
ATOM      5  C13 ZIN A   1      -1.412  -0.590   2.410  0.00  0.00     0.199 C 
ATOM      6  C14 ZIN A   1       0.024  -0.060   2.421  0.00  0.00     0.298 C 
ATOM      7  N15 ZIN A   1       0.711  -0.492   1.194  0.00  0.00     0.093 N 
ATOM      8  C16 ZIN A   1       2.112  -0.051   1.192  0.00  0.00     0.310 C 
ENDROOT
BRANCH   3   9
ATOM      9  C6  ZIN A   1      -2.188   0.025  -1.164  0.00  0.00    -0.027 A 
ATOM     10  C11 ZIN A   1      -2.369  -0.745  -2.297  0.00  0.00     0.010 A 
ATOM     11  C10 ZIN A   1      -3.064  -0.233  -3.377  0.00  0.00     0.001 A 
ATOM     12  C9  ZIN A   1      -3.571   1.052  -3.326  0.00  0.00     0.000 A 
ATOM     13  C8  ZIN A   1      -3.386   1.823  -2.194  0.00  0.00     0.001 A 
ATOM     14  C7  ZIN A   1      -2.694   1.310  -1.113  0.00  0.00     0.010 A 
ENDBRANCH   3   9
TORSDOF 1
