REMARK  2 active torsions:
REMARK  status: ('A' for Active; 'I' for Inactive)
REMARK    1  A    between atoms: N2_2  and  C3_3 
REMARK    2  A    between atoms: C12_12  and  C13_13 
ROOT
ATOM      1  C3  ZIN A   1       0.689  -0.539  -1.122  0.00  0.00     0.120 C 
ATOM      2  N4  ZIN A   1       1.204   0.095  -2.077  0.00  0.00    -0.234 NA
ATOM      3  C5  ZIN A   1       1.661  -0.129  -3.320  0.00  0.00     0.067 A 
ATOM      4  C6  ZIN A   1       2.031   1.028  -4.040  0.00  0.00     0.034 A 
ATOM      5  C7  ZIN A   1       2.480   0.951  -5.335  0.00  0.00     0.026 A 
ATOM      6  C8  ZIN A   1       2.574  -0.281  -5.959  0.00  0.00     0.034 A 
ATOM      7 Cl9  ZIN A   1       3.119  -0.390  -7.604  0.00  0.00    -0.084 Cl
ATOM      8  C10 ZIN A   1       2.232  -1.422  -5.263  0.00  0.00     0.035 A 
ATOM      9  C11 ZIN A   1       1.794  -1.361  -3.945  0.00  0.00     0.002 A 
ATOM     10  C12 ZIN A   1       1.534  -2.677  -3.274  0.00  0.00     0.180 C 
ATOM     11  N19 ZIN A   1       0.481  -2.646  -2.295  0.00  0.00    -0.240 N 
ATOM     12  O20 ZIN A   1      -0.586  -3.163  -2.573  0.00  0.00    -0.090 OA
ATOM     13  C21 ZIN A   1       0.633  -2.026  -0.987  0.00  0.00     0.232 C 
ENDROOT
BRANCH  10  14
ATOM     14  C13 ZIN A   1       2.803  -3.129  -2.598  0.00  0.00    -0.029 A 
ATOM     15  C18 ZIN A   1       3.397  -2.330  -1.639  0.00  0.00     0.009 A 
ATOM     16  C17 ZIN A   1       4.558  -2.746  -1.016  0.00  0.00     0.001 A 
ATOM     17  C16 ZIN A   1       5.131  -3.957  -1.358  0.00  0.00     0.000 A 
ATOM     18  C15 ZIN A   1       4.540  -4.753  -2.321  0.00  0.00     0.001 A 
ATOM     19  C14 ZIN A   1       3.376  -4.339  -2.941  0.00  0.00     0.009 A 
ENDBRANCH  10  14
BRANCH   1  20
ATOM     20  N2  ZIN A   1       0.135   0.199  -0.112  0.00  0.00    -0.381 N 
ATOM     21  C1  ZIN A   1       0.154   1.662  -0.178  0.00  0.00     0.147 C 
ATOM     22  H25 ZIN A   1      -0.271  -0.247   0.648  0.00  0.00     0.160 HD
ENDBRANCH   1  20
TORSDOF 2
