REMARK  2 active torsions:
REMARK  status: ('A' for Active; 'I' for Inactive)
REMARK    1  A    between atoms: O2_2  and  C3_3 
REMARK    2  A    between atoms: C25_23  and  O26_24 
ROOT
ATOM      1  C3  ZIN A   1      -1.015  -0.642  -1.192  0.00  0.00     0.102 A 
ATOM      2  C4  ZIN A   1      -2.158   0.076  -0.847  0.00  0.00     0.040 A 
ATOM      3  C5  ZIN A   1      -3.338  -0.524  -0.440  0.00  0.00     0.011 A 
ATOM      4  C6  ZIN A   1      -3.432  -1.902  -0.375  0.00  0.00    -0.046 A 
ATOM      5  C7  ZIN A   1      -4.608  -2.654   0.162  0.00  0.00     0.075 C 
ATOM      6  C8  ZIN A   1      -4.441  -4.162   0.099  0.00  0.00     0.227 C 
ATOM      7  N10 ZIN A   1      -4.956  -4.686  -1.171  0.00  0.00    -0.067 N 
ATOM      8  H11 ZIN A   1      -5.919  -4.406  -1.279  0.00  0.00     0.280 HD
ATOM      9  C12 ZIN A   1      -4.879  -6.153  -1.154  0.00  0.00     0.270 C 
ATOM     10  C13 ZIN A   1      -4.176  -4.178  -2.304  0.00  0.00     0.236 C 
ATOM     11  C14 ZIN A   1      -2.714  -4.622  -2.177  0.00  0.00     0.048 C 
ATOM     12  C15 ZIN A   1      -2.169  -4.100  -0.849  0.00  0.00     0.058 C 
ATOM     13  C16 ZIN A   1      -2.323  -2.600  -0.795  0.00  0.00    -0.001 A 
ATOM     14  C17 ZIN A   1      -1.106  -2.038  -1.151  0.00  0.00     0.111 A 
ATOM     15  O18 ZIN A   1      -0.188  -3.006  -1.364  0.00  0.00    -0.334 OA
ATOM     16  C19 ZIN A   1      -0.658  -4.247  -0.750  0.00  0.00     0.214 C 
ATOM     17  C21 ZIN A   1      -0.153  -4.262   0.662  0.00  0.00     0.157 C 
ATOM     18  O22 ZIN A   1       0.987  -3.923   0.870  0.00  0.00    -0.295 OA
ATOM     19  C23 ZIN A   1      -0.997  -4.677   1.830  0.00  0.00     0.084 C 
ATOM     20  C24 ZIN A   1      -2.417  -4.129   1.668  0.00  0.00     0.048 C 
ATOM     21  C25 ZIN A   1      -2.999  -4.644   0.278  0.00  0.00     0.102 C 
ENDROOT
BRANCH   1  22
ATOM     22  O2  ZIN A   1       0.134  -0.015  -1.559  0.00  0.00    -0.353 OA
ATOM     23  C1  ZIN A   1       0.120   1.414  -1.568  0.00  0.00     0.210 C 
ENDBRANCH   1  22
BRANCH  21  24
ATOM     24  O26 ZIN A   1      -2.973  -6.073   0.249  0.00  0.00    -0.386 OA
ATOM     25  H45 ZIN A   1      -3.495  -6.490   0.948  0.00  0.00     0.210 HD
ENDBRANCH  21  24
TORSDOF 2
