REMARK  10 active torsions:
REMARK  status: ('A' for Active; 'I' for Inactive)
REMARK    1  A    between atoms: C2_2  and  C3_3 
REMARK    2  A    between atoms: N5_5  and  C6_6 
REMARK    3  A    between atoms: C6_6  and  C7_7 
REMARK    4  A    between atoms: C7_7  and  C8_8 
REMARK    5  A    between atoms: C8_8  and  N9_9 
REMARK    6  A    between atoms: N12_12  and  C13_13 
REMARK    7  A    between atoms: N24_24  and  C25_25 
REMARK    8  A    between atoms: C25_25  and  C26_26 
REMARK    9  A    between atoms: C26_26  and  O27_27 
REMARK   10  A    between atoms: O27_27  and  C28_28 
ROOT
ATOM      1  C3  ZIN A   1      -1.412  -0.526   0.013  0.00  0.00     0.130 A 
ATOM      2  N4  ZIN A   1      -2.482   0.201   0.021  0.00  0.00    -0.154 NA
ATOM      3  N5  ZIN A   1      -3.591  -0.656   0.029  0.00  0.00    -0.218 N 
ATOM      4  C22 ZIN A   1      -3.121  -1.921   0.025  0.00  0.00     0.346 A 
ATOM      5  O23 ZIN A   1      -3.790  -2.939   0.030  0.00  0.00    -0.245 OA
ATOM      6  N24 ZIN A   1      -1.775  -1.850   0.009  0.00  0.00    -0.282 N 
ENDROOT
BRANCH   3   7
ATOM      7  C6  ZIN A   1      -5.000  -0.253   0.040  0.00  0.00     0.158 C 
BRANCH   7   8
ATOM      8  C7  ZIN A   1      -5.480  -0.114   1.486  0.00  0.00     0.052 C 
BRANCH   8   9
ATOM      9  C8  ZIN A   1      -6.951   0.307   1.497  0.00  0.00     0.274 C 
BRANCH   9  10
ATOM     10  N9  ZIN A   1      -7.411   0.441   2.886  0.00  0.00     0.090 N 
ATOM     11  C21 ZIN A   1      -8.870   0.610   2.943  0.00  0.00     0.287 C 
ATOM     12  C20 ZIN A   1      -9.300   0.825   4.396  0.00  0.00     0.126 C 
ATOM     13  N12 ZIN A   1      -8.874  -0.325   5.205  0.00  0.00    -0.280 NA
ATOM     14  C11 ZIN A   1      -7.415  -0.495   5.148  0.00  0.00     0.126 C 
ATOM     15  C10 ZIN A   1      -6.986  -0.710   3.695  0.00  0.00     0.287 C 
BRANCH  13  16
ATOM     16  C13 ZIN A   1      -9.312  -0.198   6.525  0.00  0.00     0.012 A 
ATOM     17  C19 ZIN A   1     -10.663  -0.028   6.797  0.00  0.00     0.047 A 
ATOM     18  C17 ZIN A   1     -11.094   0.092   8.105  0.00  0.00     0.035 A 
ATOM     19  C16 ZIN A   1     -10.178   0.055   9.142  0.00  0.00     0.024 A 
ATOM     20 Cl18 ZIN A   1     -12.784   0.296   8.447  0.00  0.00    -0.084 Cl
ATOM     21  C15 ZIN A   1      -8.832  -0.108   8.874  0.00  0.00     0.003 A 
ATOM     22  C14 ZIN A   1      -8.396  -0.235   7.569  0.00  0.00     0.024 A 
ENDBRANCH  13  16
ENDBRANCH   9  10
ENDBRANCH   8   9
ENDBRANCH   7   8
ENDBRANCH   3   7
BRANCH   1  23
ATOM     23  C2  ZIN A   1       0.002  -0.004   0.002  0.00  0.00     0.076 C 
ATOM     24  C1  ZIN A   1      -0.019   1.526   0.010  0.00  0.00     0.013 C 
ENDBRANCH   1  23
BRANCH   6  25
ATOM     25  C25 ZIN A   1      -0.856  -2.991  -0.001  0.00  0.00     0.162 C 
BRANCH  25  26
ATOM     26  C26 ZIN A   1      -0.554  -3.391  -1.446  0.00  0.00     0.196 C 
BRANCH  26  27
ATOM     27  O27 ZIN A   1       0.152  -2.332  -2.096  0.00  0.00    -0.350 OA
BRANCH  27  28
ATOM     28  C28 ZIN A   1       0.498  -2.527  -3.395  0.00  0.00     0.068 A 
ATOM     29  C33 ZIN A   1       1.185  -1.540  -4.087  0.00  0.00     0.037 A 
ATOM     30  C32 ZIN A   1       1.542  -1.744  -5.406  0.00  0.00     0.003 A 
ATOM     31  C31 ZIN A   1       1.204  -2.925  -6.040  0.00  0.00     0.000 A 
ATOM     32  C30 ZIN A   1       0.514  -3.908  -5.355  0.00  0.00     0.003 A 
ATOM     33  C29 ZIN A   1       0.161  -3.712  -4.034  0.00  0.00     0.037 A 
ENDBRANCH  27  28
ENDBRANCH  26  27
ENDBRANCH  25  26
ENDBRANCH   6  25
TORSDOF 10
