REMARK  8 active torsions:
REMARK  status: ('A' for Active; 'I' for Inactive)
REMARK    1  A    between atoms: C5_5  and  C6_6 
REMARK    2  A    between atoms: N9_9  and  C10_10 
REMARK    3  A    between atoms: N20_17  and  C22_19 
REMARK    4  A    between atoms: C22_19  and  C23_20 
REMARK    5  A    between atoms: C23_20  and  C24_21 
REMARK    6  A    between atoms: C24_21  and  N26_22 
REMARK    7  A    between atoms: C24_21  and  C37_33 
REMARK       I    between atoms: N26_22  and  C27_23 
REMARK    8  A    between atoms: C27_23  and  C29_25 
ROOT
ATOM      1  C23 ZIN A   1      -1.076   3.796   3.433  0.00  0.00     0.057 C 
ENDROOT
BRANCH   1   2
ATOM      2  C22 ZIN A   1       0.036   2.795   3.113  0.00  0.00     0.238 C 
BRANCH   2   3
ATOM      3  N20 ZIN A   1       0.234   1.900   4.261  0.00  0.00    -0.062 N 
ATOM      4  C13 ZIN A   1      -0.937   1.002   4.454  0.00  0.00     0.190 C 
ATOM      5  C12 ZIN A   1      -1.319   0.449   3.072  0.00  0.00     0.059 C 
ATOM      6  C15 ZIN A   1      -0.397  -0.173   5.301  0.00  0.00     0.035 C 
ATOM      7  C10 ZIN A   1      -0.166  -0.409   2.545  0.00  0.00     0.097 C 
ATOM      8  C19 ZIN A   1       1.133   0.402   2.566  0.00  0.00     0.059 C 
ATOM      9  C17 ZIN A   1       1.351   0.933   3.992  0.00  0.00     0.190 C 
ATOM     10  C16 ZIN A   1       1.115  -0.219   4.995  0.00  0.00     0.035 C 
ATOM     11  H21 ZIN A   1       0.418   2.432   5.098  0.00  0.00     0.280 HD
BRANCH   7  12
ATOM     12  N9  ZIN A   1      -0.458  -0.827   1.171  0.00  0.00    -0.315 N 
ATOM     13  C2  ZIN A   1      -0.649  -0.022   0.098  0.00  0.00     0.126 A 
ATOM     14  C1  ZIN A   1      -0.595   1.484   0.090  0.00  0.00     0.093 C 
ATOM     15  N3  ZIN A   1      -0.882  -0.794  -0.929  0.00  0.00    -0.135 NA
ATOM     16  N4  ZIN A   1      -0.852  -2.025  -0.561  0.00  0.00    -0.134 NA
ATOM     17  C5  ZIN A   1      -0.599  -2.096   0.718  0.00  0.00     0.134 A 
BRANCH  17  18
ATOM     18  C6  ZIN A   1      -0.481  -3.355   1.537  0.00  0.00     0.049 C 
ATOM     19  C7  ZIN A   1      -1.797  -4.133   1.470  0.00  0.00     0.018 C 
ATOM     20  C8  ZIN A   1       0.651  -4.221   0.980  0.00  0.00     0.018 C 
ENDBRANCH  17  18
ENDBRANCH   7  12
ENDBRANCH   2   3
ENDBRANCH   1   2
BRANCH   1  21
ATOM     21  C24 ZIN A   1      -1.282   4.729   2.237  0.00  0.00     0.119 C 
BRANCH  21  22
ATOM     22  N26 ZIN A   1      -0.077   5.538   2.036  0.00  0.00    -0.352 N 
ATOM     23  C27 ZIN A   1       0.200   6.041   0.817  0.00  0.00     0.222 C 
ATOM     24  O28 ZIN A   1      -0.547   5.824  -0.113  0.00  0.00    -0.273 OA
ATOM     25  H65 ZIN A   1       0.521   5.711   2.780  0.00  0.00     0.163 HD
BRANCH  23  26
ATOM     26  C29 ZIN A   1       1.439   6.873   0.610  0.00  0.00     0.078 C 
ATOM     27  C36 ZIN A   1       1.517   7.317  -0.852  0.00  0.00     0.020 C 
ATOM     28  C35 ZIN A   1       2.775   8.162  -1.063  0.00  0.00     0.080 C 
ATOM     29  C32 ZIN A   1       4.012   7.331  -0.716  0.00  0.00     0.243 C 
ATOM     30  C31 ZIN A   1       3.934   6.887   0.747  0.00  0.00     0.080 C 
ATOM     31  F33 ZIN A   1       5.162   8.104  -0.908  0.00  0.00    -0.206 F 
ATOM     32  F34 ZIN A   1       4.063   6.204  -1.543  0.00  0.00    -0.206 F 
ATOM     33  C30 ZIN A   1       2.676   6.042   0.957  0.00  0.00     0.020 C 
ENDBRANCH  23  26
ENDBRANCH  21  22
BRANCH  21  34
ATOM     34  C37 ZIN A   1      -2.457   5.634   2.503  0.00  0.00    -0.035 A 
ATOM     35  C42 ZIN A   1      -3.689   5.348   1.947  0.00  0.00     0.009 A 
ATOM     36  C41 ZIN A   1      -4.768   6.176   2.194  0.00  0.00     0.001 A 
ATOM     37  C40 ZIN A   1      -4.612   7.296   2.990  0.00  0.00     0.000 A 
ATOM     38  C39 ZIN A   1      -3.378   7.585   3.542  0.00  0.00     0.001 A 
ATOM     39  C38 ZIN A   1      -2.300   6.754   3.299  0.00  0.00     0.009 A 
ENDBRANCH  21  34
ENDBRANCH   1  21
TORSDOF 8
