REMARK  7 active torsions:
REMARK  status: ('A' for Active; 'I' for Inactive)
REMARK       I    between atoms: N1_1  and  C2_2 
REMARK    1  A    between atoms: C2_2  and  C4_4 
REMARK    2  A    between atoms: C4_4  and  C5_5 
REMARK    3  A    between atoms: C4_4  and  C11_11 
REMARK    4  A    between atoms: C4_4  and  C17_17 
REMARK    5  A    between atoms: N21_20  and  C23_22 
REMARK    6  A    between atoms: C23_22  and  C24_23 
REMARK    7  A    between atoms: C24_23  and  C25_24 
ROOT
ATOM      1  C4  ZIN A   1      -1.194  -0.763   0.067  0.00  0.00     0.100 C 
ENDROOT
BRANCH   1   2
ATOM      2  C2  ZIN A   1      -1.255  -2.228   0.417  0.00  0.00     0.233 C 
ATOM      3  N1  ZIN A   1      -0.295  -3.066  -0.023  0.00  0.00    -0.369 N 
ATOM      4  H35 ZIN A   1      -0.293  -3.993   0.262  0.00  0.00     0.159 HD
ATOM      5  H36 ZIN A   1       0.391  -2.743  -0.628  0.00  0.00     0.159 HD
ATOM      6  O3  ZIN A   1      -2.166  -2.652   1.095  0.00  0.00    -0.272 OA
ENDBRANCH   1   2
BRANCH   1   7
ATOM      7  C5  ZIN A   1      -2.280  -0.025   0.807  0.00  0.00    -0.035 A 
ATOM      8  C10 ZIN A   1      -3.598  -0.419   0.675  0.00  0.00     0.009 A 
ATOM      9  C9  ZIN A   1      -4.593   0.256   1.358  0.00  0.00     0.001 A 
ATOM     10  C8  ZIN A   1      -4.270   1.330   2.165  0.00  0.00     0.000 A 
ATOM     11  C7  ZIN A   1      -2.952   1.728   2.293  0.00  0.00     0.001 A 
ATOM     12  C6  ZIN A   1      -1.957   1.050   1.614  0.00  0.00     0.009 A 
ENDBRANCH   1   7
BRANCH   1  13
ATOM     13  C11 ZIN A   1       0.150  -0.207   0.460  0.00  0.00    -0.035 A 
ATOM     14  C16 ZIN A   1       0.618  -0.378   1.750  0.00  0.00     0.009 A 
ATOM     15  C15 ZIN A   1       1.853   0.129   2.109  0.00  0.00     0.001 A 
ATOM     16  C14 ZIN A   1       2.616   0.812   1.182  0.00  0.00     0.000 A 
ATOM     17  C13 ZIN A   1       2.146   0.987  -0.106  0.00  0.00     0.001 A 
ATOM     18  C12 ZIN A   1       0.913   0.477  -0.467  0.00  0.00     0.009 A 
ENDBRANCH   1  13
BRANCH   1  19
ATOM     19  C17 ZIN A   1      -1.397  -0.591  -1.440  0.00  0.00     0.040 C 
ATOM     20  C34 ZIN A   1      -1.377   0.907  -1.834  0.00  0.00     0.241 C 
ATOM     21  N21 ZIN A   1      -0.968   0.918  -3.255  0.00  0.00    -0.070 N 
ATOM     22  C20 ZIN A   1      -0.215  -0.318  -3.537  0.00  0.00     0.235 C 
ATOM     23  H22 ZIN A   1      -1.786   0.958  -3.844  0.00  0.00     0.279 HD
ATOM     24  C19 ZIN A   1      -0.180  -1.139  -2.231  0.00  0.00     0.036 C 
BRANCH  21  25
ATOM     25  C23 ZIN A   1      -0.115   2.086  -3.513  0.00  0.00     0.239 C 
BRANCH  25  26
ATOM     26  C24 ZIN A   1       0.195   2.172  -5.008  0.00  0.00     0.066 C 
BRANCH  26  27
ATOM     27  C25 ZIN A   1       1.070   3.370  -5.272  0.00  0.00    -0.056 A 
ATOM     28  C33 ZIN A   1       2.448   3.246  -5.231  0.00  0.00     0.017 A 
ATOM     29  C32 ZIN A   1       3.245   4.341  -5.478  0.00  0.00    -0.022 A 
ATOM     30  C28 ZIN A   1       2.683   5.579  -5.766  0.00  0.00     0.075 A 
ATOM     31  C31 ZIN A   1       4.751   4.520  -5.502  0.00  0.00     0.068 C 
ATOM     32  C27 ZIN A   1       1.296   5.697  -5.797  0.00  0.00     0.038 A 
ATOM     33  O29 ZIN A   1       3.645   6.515  -5.994  0.00  0.00    -0.350 OA
ATOM     34  C26 ZIN A   1       0.500   4.598  -5.551  0.00  0.00     0.010 A 
ATOM     35  C30 ZIN A   1       4.891   6.059  -5.440  0.00  0.00     0.180 C 
ENDBRANCH  26  27
ENDBRANCH  25  26
ENDBRANCH  21  25
ENDBRANCH   1  19
TORSDOF 7
