REMARK  2 active torsions:
REMARK  status: ('A' for Active; 'I' for Inactive)
REMARK    1  A    between atoms: N6_6  and  C7_7 
REMARK    2  A    between atoms: C7_7  and  C8_8 
ROOT
ATOM      1  C8  <0> d   1      -1.663  -0.231   2.858  0.00  0.00     0.079 C 
ATOM      2  C10 <0> d   1      -1.781   0.253   4.303  0.00  0.00     0.020 C 
ATOM      3  C11 <0> d   1      -3.254   0.342   4.719  0.00  0.00     0.059 C 
ATOM      4  C12 <0> d   1      -3.966   1.241   3.736  0.00  0.00     0.026 A 
ATOM      5  C13 <0> d   1      -3.519   1.402   2.429  0.00  0.00     0.045 A 
ATOM      6  C14 <0> d   1      -4.435   2.333   1.792  0.00  0.00     0.007 A 
ATOM      7  C15 <0> d   1      -4.501   2.875   0.509  0.00  0.00     0.015 A 
ATOM      8  C16 <0> d   1      -5.540   3.753   0.253  0.00  0.00     0.001 A 
ATOM      9  C17 <0> d   1      -6.474   4.082   1.221  0.00  0.00     0.002 A 
ATOM     10  C18 <0> d   1      -6.426   3.555   2.500  0.00  0.00     0.030 A 
ATOM     11  C19 <0> d   1      -5.390   2.669   2.784  0.00  0.00     0.045 A 
ATOM     12  N20 <0> d   1      -5.066   1.987   3.928  0.00  0.00    -0.353 N 
ATOM     13  C21 <0> d   1      -5.817   2.061   5.184  0.00  0.00     0.156 C 
ATOM     14  C22 <0> d   1      -2.378   0.728   1.932  0.00  0.00     0.168 C 
ATOM     15  O23 <0> d   1      -1.987   0.911   0.797  0.00  0.00    -0.292 OA
ENDROOT
BRANCH   1  16
ATOM     16  C7  <0> d   1      -0.186  -0.308   2.467  0.00  0.00     0.142 C 
BRANCH  16  17
ATOM     17  N6  <0> d   1      -0.061  -0.929   1.147  0.00  0.00    -0.343 N 
ATOM     18  C2  <0> d   1      -0.170  -2.246   0.867  0.00  0.00     0.101 A 
ATOM     19  C1  <0> d   1      -0.447  -3.337   1.870  0.00  0.00     0.091 C 
ATOM     20  N3  <0> d   1      -0.001  -2.417  -0.415  0.00  0.00    -0.246 NA
ATOM     21  C4  <0> d   1       0.225  -1.229  -0.994  0.00  0.00     0.136 A 
ATOM     22  C5  <0> d   1       0.195  -0.285  -0.034  0.00  0.00     0.111 A 
ENDBRANCH  16  17
ENDBRANCH   1  16
TORSDOF 2
