REMARK  4 active torsions:
REMARK  status: ('A' for Active; 'I' for Inactive)
REMARK    1  A    between atoms: C6_6  and  C7_7 
REMARK    2  A    between atoms: C7_7  and  C8_8 
REMARK    3  A    between atoms: C8_8  and  N9_9 
REMARK    4  A    between atoms: N12_12  and  C13_13 
ROOT
ATOM      1  N9  ZIN A   1      -1.746   9.126   1.502  0.00  0.00     0.091 N 
ATOM      2  C10 ZIN A   1      -1.257   9.957   0.392  0.00  0.00     0.287 C 
ATOM      3  C11 ZIN A   1      -1.994  11.298   0.399  0.00  0.00     0.127 C 
ATOM      4  N12 ZIN A   1      -1.777  11.967   1.689  0.00  0.00    -0.263 NA
ATOM      5  C22 ZIN A   1      -2.267  11.137   2.798  0.00  0.00     0.127 C 
ATOM      6  C23 ZIN A   1      -1.529   9.796   2.792  0.00  0.00     0.287 C 
ENDROOT
BRANCH   1   7
ATOM      7  C8  ZIN A   1      -1.116   7.800   1.484  0.00  0.00     0.277 C 
BRANCH   7   8
ATOM      8  C7  ZIN A   1      -1.145   7.240   0.061  0.00  0.00     0.070 C 
BRANCH   8   9
ATOM      9  C6  ZIN A   1      -0.498   5.879   0.043  0.00  0.00    -0.034 A 
ATOM     10  C5  ZIN A   1      -1.282   4.738   0.048  0.00  0.00     0.018 A 
ATOM     11  C4  ZIN A   1      -0.688   3.497   0.032  0.00  0.00    -0.022 A 
ATOM     12  C3  ZIN A   1      -1.244   2.091   0.032  0.00  0.00     0.144 A 
ATOM     13  C27 ZIN A   1       0.695   3.369   0.011  0.00  0.00     0.043 A 
ATOM     14  C2  ZIN A   1      -0.014   1.209   0.009  0.00  0.00     0.226 A 
ATOM     15  O1  ZIN A   1       0.002  -0.004   0.002  0.00  0.00    -0.273 OA
ATOM     16  N28 ZIN A   1       1.056   2.021   0.003  0.00  0.00    -0.326 N 
ATOM     17  H49 ZIN A   1       1.973   1.707  -0.007  0.00  0.00     0.169 HD
ATOM     18  C26 ZIN A   1       1.479   4.521   0.006  0.00  0.00     0.054 A 
ATOM     19  C24 ZIN A   1       0.881   5.766   0.022  0.00  0.00     0.042 A 
ATOM     20 Cl25 ZIN A   1       1.864   7.197   0.017  0.00  0.00    -0.084 Cl
ENDBRANCH   8   9
ENDBRANCH   7   8
ENDBRANCH   1   7
BRANCH   4  21
ATOM     21  C13 ZIN A   1      -2.376  13.228   1.705  0.00  0.00     0.125 A 
ATOM     22  C21 ZIN A   1      -2.297  14.084   2.879  0.00  0.00     0.024 A 
ATOM     23  C16 ZIN A   1      -2.965  15.306   2.672  0.00  0.00     0.037 A 
ATOM     24  C20 ZIN A   1      -1.664  13.879   4.122  0.00  0.00     0.016 A 
ATOM     25  S15 ZIN A   1      -3.617  15.220   1.035  0.00  0.00     0.013 SA
ATOM     26  C17 ZIN A   1      -3.007  16.272   3.668  0.00  0.00     0.021 A 
ATOM     27  N14 ZIN A   1      -3.024  13.674   0.681  0.00  0.00    -0.198 NA
ATOM     28  C18 ZIN A   1      -2.384  16.037   4.873  0.00  0.00     0.001 A 
ATOM     29  C19 ZIN A   1      -1.716  14.837   5.087  0.00  0.00     0.001 A 
ENDBRANCH   4  21
TORSDOF 4
