REMARK  14 active torsions:
REMARK  status: ('A' for Active; 'I' for Inactive)
REMARK    1  A    between atoms: C2_2  and  N5_5 
REMARK       I    between atoms: N5_5  and  C6_6 
REMARK    2  A    between atoms: C6_6  and  C8_8 
REMARK    3  A    between atoms: N20_17  and  C22_19 
REMARK    4  A    between atoms: C22_19  and  C23_20 
REMARK    5  A    between atoms: C23_20  and  O25_21 
REMARK    6  A    between atoms: C23_20  and  C26_22 
REMARK    7  A    between atoms: C26_22  and  C28_23 
REMARK    8  A    between atoms: C26_22  and  N35_30 
REMARK    9  A    between atoms: C28_23  and  C29_24 
REMARK       I    between atoms: N35_30  and  C36_31 
REMARK   10  A    between atoms: C36_31  and  C38_33 
REMARK   11  A    between atoms: C38_33  and  C40_34 
REMARK   12  A    between atoms: C38_33  and  N44_38 
REMARK   13  A    between atoms: C40_34  and  C41_35 
REMARK       I    between atoms: C41_35  and  N42_36 
REMARK       I    between atoms: N44_38  and  C45_39 
REMARK   14  A    between atoms: C45_39  and  C47_41 
ROOT
ATOM      1  C26 ZIN A   1       7.004  -0.311  -4.981  0.00  0.00     0.119 C 
ENDROOT
BRANCH   1   2
ATOM      2  C23 ZIN A   1       6.466   0.077  -3.602  0.00  0.00     0.167 C 
BRANCH   2   3
ATOM      3  C22 ZIN A   1       5.103  -0.582  -3.382  0.00  0.00     0.269 C 
BRANCH   3   4
ATOM      4  N20 ZIN A   1       4.571  -0.182  -2.073  0.00  0.00    -0.055 N 
ATOM      5  C8  ZIN A   1       4.306   1.261  -2.076  0.00  0.00     0.279 C 
ATOM      6  C10 ZIN A   1       3.331   1.606  -3.205  0.00  0.00     0.048 C 
ATOM      7  C11 ZIN A   1       2.025   0.840  -2.988  0.00  0.00    -0.006 C 
ATOM      8  C17 ZIN A   1       2.332  -0.660  -2.930  0.00  0.00     0.016 C 
ATOM      9  C13 ZIN A   1       1.057   1.112  -4.140  0.00  0.00     0.005 C 
ATOM     10  C16 ZIN A   1       1.036  -1.429  -2.675  0.00  0.00     0.007 C 
ATOM     11  C19 ZIN A   1       3.332  -0.923  -1.804  0.00  0.00     0.241 C 
ATOM     12  C15 ZIN A   1       0.055  -1.158  -3.819  0.00  0.00     0.000 C 
ATOM     13  C14 ZIN A   1      -0.242   0.340  -3.899  0.00  0.00     0.000 C 
ATOM     14  H21 ZIN A   1       5.250  -0.394  -1.357  0.00  0.00     0.281 HD
BRANCH   5  15
ATOM     15  C6  ZIN A   1       3.704   1.662  -0.754  0.00  0.00     0.249 C 
ATOM     16  N5  ZIN A   1       3.253   2.920  -0.573  0.00  0.00    -0.351 N 
ATOM     17  H66 ZIN A   1       3.317   3.566  -1.294  0.00  0.00     0.163 HD
ATOM     18  O7  ZIN A   1       3.624   0.854   0.146  0.00  0.00    -0.271 OA
BRANCH  16  19
ATOM     19  C2  ZIN A   1       2.668   3.310   0.712  0.00  0.00     0.022 C 
ATOM     20  C1  ZIN A   1       3.705   3.125   1.821  0.00  0.00     0.037 C 
ATOM     21  C3  ZIN A   1       1.447   2.435   1.003  0.00  0.00     0.037 C 
ATOM     22  C4  ZIN A   1       2.240   4.778   0.652  0.00  0.00     0.037 C 
ENDBRANCH  16  19
ENDBRANCH   5  15
ENDBRANCH   3   4
ENDBRANCH   2   3
BRANCH   2  23
ATOM     23  O25 ZIN A   1       7.377  -0.366  -2.593  0.00  0.00    -0.392 OA
ATOM     24  H81 ZIN A   1       7.520  -1.323  -2.585  0.00  0.00     0.210 HD
ENDBRANCH   2  23
ENDBRANCH   1   2
BRANCH   1  25
ATOM     25  C28 ZIN A   1       7.272  -1.817  -5.019  0.00  0.00     0.066 C 
BRANCH  25  26
ATOM     26  C29 ZIN A   1       7.684  -2.218  -6.412  0.00  0.00    -0.056 A 
ATOM     27  C34 ZIN A   1       9.020  -2.206  -6.768  0.00  0.00     0.007 A 
ATOM     28  C33 ZIN A   1       9.399  -2.578  -8.044  0.00  0.00     0.001 A 
ATOM     29  C32 ZIN A   1       8.441  -2.954  -8.967  0.00  0.00     0.000 A 
ATOM     30  C31 ZIN A   1       7.105  -2.962  -8.613  0.00  0.00     0.001 A 
ATOM     31  C30 ZIN A   1       6.726  -2.593  -7.335  0.00  0.00     0.007 A 
ENDBRANCH  25  26
ENDBRANCH   1  25
BRANCH   1  32
ATOM     32  N35 ZIN A   1       8.251   0.413  -5.239  0.00  0.00    -0.352 N 
ATOM     33  C36 ZIN A   1       8.645   0.646  -6.507  0.00  0.00     0.241 C 
ATOM     34  O37 ZIN A   1       7.966   0.257  -7.434  0.00  0.00    -0.271 OA
ATOM     35  H89 ZIN A   1       8.794   0.725  -4.498  0.00  0.00     0.163 HD
BRANCH  33  36
ATOM     36  C38 ZIN A   1       9.927   1.391  -6.774  0.00  0.00     0.185 C 
BRANCH  36  37
ATOM     37  C40 ZIN A   1       9.846   2.786  -6.149  0.00  0.00     0.137 C 
BRANCH  37  38
ATOM     38  C41 ZIN A   1       8.732   3.564  -6.802  0.00  0.00     0.217 C 
ATOM     39  N42 ZIN A   1       8.529   4.855  -6.472  0.00  0.00    -0.370 N 
ATOM     40  H92 ZIN A   1       9.100   5.283  -5.814  0.00  0.00     0.159 HD
ATOM     41  H93 ZIN A   1       7.812   5.356  -6.891  0.00  0.00     0.159 HD
ATOM     42  O43 ZIN A   1       8.019   3.029  -7.623  0.00  0.00    -0.274 OA
ENDBRANCH  37  38
ENDBRANCH  36  37
BRANCH  36  43
ATOM     43  N44 ZIN A   1      10.129   1.514  -8.219  0.00  0.00    -0.342 N 
ATOM     44  C45 ZIN A   1      11.377   1.612  -8.719  0.00  0.00     0.271 C 
ATOM     45  O46 ZIN A   1      12.337   1.504  -7.982  0.00  0.00    -0.266 OA
ATOM     46  H94 ZIN A   1       9.365   1.526  -8.817  0.00  0.00     0.163 HD
BRANCH  44  47
ATOM     47  C47 ZIN A   1      11.578   1.851 -10.169  0.00  0.00     0.125 A 
ATOM     48  N56 ZIN A   1      10.526   1.966 -10.955  0.00  0.00    -0.243 NA
ATOM     49  C55 ZIN A   1      10.659   2.186 -12.262  0.00  0.00     0.068 A 
ATOM     50  C50 ZIN A   1      11.953   2.290 -12.835  0.00  0.00    -0.007 A 
ATOM     51  C54 ZIN A   1       9.530   2.313 -13.095  0.00  0.00     0.032 A 
ATOM     52  C49 ZIN A   1      13.083   2.164 -12.006  0.00  0.00     0.016 A 
ATOM     53  C51 ZIN A   1      12.084   2.517 -14.215  0.00  0.00     0.014 A 
ATOM     54  C48 ZIN A   1      12.884   1.944 -10.673  0.00  0.00     0.038 A 
ATOM     55  C52 ZIN A   1      10.969   2.634 -14.987  0.00  0.00     0.001 A 
ATOM     56  C53 ZIN A   1       9.696   2.532 -14.427  0.00  0.00     0.002 A 
ENDBRANCH  44  47
ENDBRANCH  36  43
ENDBRANCH  33  36
ENDBRANCH   1  32
TORSDOF 14
