REMARK  6 active torsions:
REMARK  status: ('A' for Active; 'I' for Inactive)
REMARK    1  A    between atoms: C2_2  and  C3_3 
REMARK       I    between atoms: C3_3  and  N5_5 
REMARK    2  A    between atoms: C9_9  and  N11_10 
REMARK    3  A    between atoms: C13_12  and  C14_13 
REMARK    4  A    between atoms: C17_16  and  O18_17 
REMARK    5  A    between atoms: O18_17  and  C19_18 
REMARK    6  A    between atoms: C28_27  and  N29_28 
ROOT
ATOM      1  N11 ZIN A   1       4.349  -5.008   2.592  0.00  0.00    -0.244 N 
ATOM      2  N12 ZIN A   1       4.768  -6.109   1.838  0.00  0.00    -0.169 NA
ATOM      3  C13 ZIN A   1       6.029  -6.368   2.088  0.00  0.00     0.105 A 
ATOM      4  C27 ZIN A   1       6.491  -5.386   3.069  0.00  0.00     0.086 A 
ATOM      5  C28 ZIN A   1       7.706  -5.133   3.725  0.00  0.00     0.116 A 
ATOM      6  N30 ZIN A   1       7.761  -4.118   4.583  0.00  0.00    -0.337 N 
ATOM      7  H31 ZIN A   1       8.592  -3.929   5.045  0.00  0.00     0.168 HD
ATOM      8  C32 ZIN A   1       6.702  -3.363   4.816  0.00  0.00     0.211 A 
ATOM      9  N33 ZIN A   1       5.544  -3.563   4.225  0.00  0.00    -0.224 NA
ATOM     10  C34 ZIN A   1       5.391  -4.552   3.345  0.00  0.00     0.164 A 
ENDROOT
BRANCH   3  11
ATOM     11  C14 ZIN A   1       6.838  -7.456   1.488  0.00  0.00    -0.004 A 
ATOM     12  C26 ZIN A   1       7.656  -8.246   2.296  0.00  0.00     0.016 A 
ATOM     13  C25 ZIN A   1       8.402  -9.261   1.735  0.00  0.00     0.038 A 
ATOM     14  C17 ZIN A   1       8.349  -9.489   0.366  0.00  0.00     0.076 A 
ATOM     15  C16 ZIN A   1       7.541  -8.700  -0.442  0.00  0.00     0.038 A 
ATOM     16  C15 ZIN A   1       6.787  -7.687   0.114  0.00  0.00     0.016 A 
BRANCH  14  17
ATOM     17  O18 ZIN A   1       9.090 -10.486  -0.184  0.00  0.00    -0.311 OA
BRANCH  17  18
ATOM     18  C19 ZIN A   1      10.239 -10.147  -0.826  0.00  0.00     0.076 A 
ATOM     19  C24 ZIN A   1      11.000 -11.124  -1.451  0.00  0.00     0.037 A 
ATOM     20  C23 ZIN A   1      12.165 -10.776  -2.107  0.00  0.00     0.003 A 
ATOM     21  C22 ZIN A   1      12.578  -9.457  -2.133  0.00  0.00     0.000 A 
ATOM     22  C21 ZIN A   1      11.824  -8.482  -1.506  0.00  0.00     0.003 A 
ATOM     23  C20 ZIN A   1      10.656  -8.823  -0.853  0.00  0.00     0.037 A 
ENDBRANCH  17  18
ENDBRANCH  14  17
ENDBRANCH   3  11
BRANCH   1  24
ATOM     24  C9  ZIN A   1       3.003  -4.430   2.572  0.00  0.00     0.130 C 
ATOM     25  C8  ZIN A   1       1.988  -5.486   3.016  0.00  0.00     0.030 C 
ATOM     26  C7  ZIN A   1       0.585  -4.874   3.027  0.00  0.00     0.022 C 
ATOM     27  C6  ZIN A   1       0.220  -4.417   1.612  0.00  0.00     0.126 C 
ATOM     28  N5  ZIN A   1       1.269  -3.512   1.122  0.00  0.00    -0.347 N 
ATOM     29  C3  ZIN A   1       0.956  -2.288   0.653  0.00  0.00     0.242 C 
ATOM     30  C35 ZIN A   1       2.665  -3.970   1.146  0.00  0.00     0.153 C 
ATOM     31  O4  ZIN A   1       1.818  -1.588   0.157  0.00  0.00    -0.268 OA
BRANCH  29  32
ATOM     32  C2  ZIN A   1      -0.428  -1.798   0.743  0.00  0.00     0.064 C 
ATOM     33  C1  ZIN A   1      -0.717  -0.552   0.377  0.00  0.00     0.017 C 
ENDBRANCH  29  32
ENDBRANCH   1  24
BRANCH   5  34
ATOM     34  N29 ZIN A   1       8.817  -5.918   3.485  0.00  0.00    -0.385 N 
ATOM     35  H54 ZIN A   1       8.843  -6.497   2.708  0.00  0.00     0.157 HD
ATOM     36  H55 ZIN A   1       9.571  -5.890   4.095  0.00  0.00     0.157 HD
ENDBRANCH   5  34
TORSDOF 6
