REMARK  2 active torsions:
REMARK  status: ('A' for Active; 'I' for Inactive)
REMARK    1  A    between atoms: C8_8  and  N9_9 
REMARK       I    between atoms: N9_9  and  C10_10 
REMARK    2  A    between atoms: C10_10  and  C12_12 
ROOT
ATOM      1  N9  <0> d   1       0.231  -0.012   2.406  0.00  0.00    -0.324 N 
ATOM      2  C10 <0> d   1       0.421   1.322   2.406  0.00  0.00     0.255 C 
ATOM      3  O11 <0> d   1       0.412   1.936   1.360  0.00  0.00    -0.271 OA
ATOM      4  H29 <0> d   1       0.161  -0.492   3.247  0.00  0.00     0.169 HD
ENDROOT
BRANCH   1   5
ATOM      5  C8  <0> d   1       0.134  -0.705   1.195  0.00  0.00     0.046 A 
ATOM      6  C2  <0> d   1      -0.950  -0.487   0.353  0.00  0.00    -0.035 A 
ATOM      7  C1  <0> d   1      -2.020   0.500   0.742  0.00  0.00     0.050 C 
ATOM      8  C3  <0> d   1      -1.042  -1.172  -0.842  0.00  0.00     0.009 A 
ATOM      9  C4  <0> d   1      -0.060  -2.079  -1.199  0.00  0.00     0.001 A 
ATOM     10  C5  <0> d   1       1.017  -2.302  -0.361  0.00  0.00     0.009 A 
ATOM     11  C6  <0> d   1       1.115  -1.620   0.836  0.00  0.00    -0.035 A 
ATOM     12  C7  <0> d   1       2.289  -1.863   1.748  0.00  0.00     0.050 C 
ENDBRANCH   1   5
BRANCH   2  13
ATOM     13  C12 <0> d   1       0.644   2.052   3.706  0.00  0.00     0.314 C 
ATOM     14  N18 <0> d   1       1.285   3.345   3.437  0.00  0.00     0.098 N 
ATOM     15  C17 <0> d   1       1.559   4.072   4.684  0.00  0.00     0.273 C 
ATOM     16  C19 <0> d   1       2.513   3.171   2.649  0.00  0.00     0.310 C 
ATOM     17  C16 <0> d   1       0.242   4.362   5.406  0.00  0.00     0.030 C 
ATOM     18  C15 <0> d   1      -0.470   3.041   5.709  0.00  0.00     0.004 C 
ATOM     19  C14 <0> d   1      -0.700   2.282   4.399  0.00  0.00     0.046 C 
ENDBRANCH   2  13
TORSDOF 2
