REMARK  2 active torsions:
REMARK  status: ('A' for Active; 'I' for Inactive)
REMARK    1  A    between atoms: C5_4  and  P7_5 
REMARK    2  A    between atoms: P7_5  and  O10_8 
ROOT
ATOM      1  P7  ZIN A   1       1.390   0.318   2.500  0.00  0.00     0.279 P 
ATOM      2  O8  ZIN A   1       0.295   1.238   3.087  0.00  0.00    -0.645 OA
ATOM      3  O9  ZIN A   1       2.529   1.182   1.915  0.00  0.00    -0.645 OA
ENDROOT
BRANCH   1   4
ATOM      4  C5  ZIN A   1       0.672  -0.715   1.180  0.00  0.00     0.270 A 
ATOM      5  C2  ZIN A   1       0.002  -0.004   0.002  0.00  0.00     0.160 A 
ATOM      6  C1  ZIN A   1      -0.019   1.526   0.010  0.00  0.00     0.043 C 
ATOM      7  O4  ZIN A   1      -0.748  -0.686   1.009  0.00  0.00    -0.362 OA
ENDBRANCH   1   4
BRANCH   1   8
ATOM      8  O10 ZIN A   1       1.976  -0.628   3.663  0.00  0.00    -0.321 OA
ATOM      9  H14 ZIN A   1       2.374  -0.145   4.400  0.00  0.00     0.221 HD
ENDBRANCH   1   8
TORSDOF 2
