REMARK  3 active torsions:
REMARK  status: ('A' for Active; 'I' for Inactive)
REMARK    1  A    between atoms: C2_2  and  C3_3 
REMARK    2  A    between atoms: C11_11  and  C13_12 
REMARK    3  A    between atoms: C13_12  and  N14_13 
ROOT
ATOM      1  C3  ZIN A   1       0.731  -0.503   1.223  0.00  0.00    -0.021 A 
ATOM      2  C4  ZIN A   1       2.052  -0.751   1.336  0.00  0.00     0.012 A 
ATOM      3  C5  ZIN A   1       3.070  -0.571   0.239  0.00  0.00     0.068 C 
ATOM      4  N6  ZIN A   1       2.322  -1.192   2.604  0.00  0.00    -0.362 N 
ATOM      5  C7  ZIN A   1       1.201  -1.240   3.330  0.00  0.00     0.024 A 
ATOM      6  C8  ZIN A   1       0.156  -0.810   2.521  0.00  0.00     0.041 A 
ATOM      7  C9  ZIN A   1      -1.225  -0.734   3.010  0.00  0.00     0.168 C 
ATOM      8  O10 ZIN A   1      -2.169  -0.555   2.269  0.00  0.00    -0.292 OA
ATOM      9  C11 ZIN A   1      -1.386  -0.896   4.514  0.00  0.00     0.089 C 
ATOM     10  C20 ZIN A   1      -0.470  -2.033   4.978  0.00  0.00     0.020 C 
ATOM     11  C21 ZIN A   1       1.002  -1.663   4.763  0.00  0.00     0.059 C 
ATOM     12  H30 ZIN A   1       3.203  -1.435   2.929  0.00  0.00     0.165 HD
ENDROOT
BRANCH   9  13
ATOM     13  C13 ZIN A   1      -2.840  -1.238   4.843  0.00  0.00     0.285 C 
BRANCH  13  14
ATOM     14  N14 ZIN A   1      -3.703  -0.105   4.482  0.00  0.00     0.093 N 
ATOM     15  C19 ZIN A   1      -5.067  -0.297   4.997  0.00  0.00     0.298 C 
ATOM     16  C18 ZIN A   1      -5.945   0.875   4.549  0.00  0.00     0.198 C 
ATOM     17  O17 ZIN A   1      -5.363   2.100   5.001  0.00  0.00    -0.388 OA
ATOM     18  C16 ZIN A   1      -4.035   2.320   4.518  0.00  0.00     0.198 C 
ATOM     19  C15 ZIN A   1      -3.138   1.163   4.966  0.00  0.00     0.298 C 
ENDBRANCH  13  14
ENDBRANCH   9  13
BRANCH   1  20
ATOM     20  C2  ZIN A   1       0.002  -0.004   0.002  0.00  0.00     0.037 C 
ATOM     21  C1  ZIN A   1      -0.019   1.526   0.010  0.00  0.00     0.010 C 
ENDBRANCH   1  20
TORSDOF 3
