REMARK  6 active torsions:
REMARK  status: ('A' for Active; 'I' for Inactive)
REMARK    1  A    between atoms: N2_2  and  C5_5 
REMARK    2  A    between atoms: C5_5  and  C6_6 
REMARK    3  A    between atoms: C6_6  and  O7_7 
REMARK    4  A    between atoms: O7_7  and  C8_8 
REMARK    5  A    between atoms: C8_8  and  C10_10 
REMARK    6  A    between atoms: C8_8  and  C16_16 
ROOT
ATOM      1  C8  ZIN A   1       4.216  -0.473  -0.001  0.00  0.00     0.128 C 
ATOM      2  C9  ZIN A   1       4.761   0.956  -0.046  0.00  0.00     0.058 C 
ENDROOT
BRANCH   1   3
ATOM      3  O7  ZIN A   1       2.816  -0.440   0.282  0.00  0.00    -0.368 OA
BRANCH   3   4
ATOM      4  C6  ZIN A   1       2.046   0.292  -0.674  0.00  0.00     0.197 C 
BRANCH   4   5
ATOM      5  C5  ZIN A   1       0.558   0.151  -0.347  0.00  0.00     0.260 C 
BRANCH   5   6
ATOM      6  N2  ZIN A   1       0.279   0.788   0.947  0.00  0.00    -0.077 N 
ATOM      7  C1  ZIN A   1       0.518   2.233   0.843  0.00  0.00     0.269 C 
ATOM      8  H3  ZIN A   1       0.884   0.396   1.652  0.00  0.00     0.279 HD
ATOM      9  C4  ZIN A   1      -1.123   0.549   1.317  0.00  0.00     0.269 C 
ENDBRANCH   5   6
ENDBRANCH   4   5
ENDBRANCH   3   4
ENDBRANCH   1   3
BRANCH   1  10
ATOM     10  C10 ZIN A   1       4.928  -1.249   1.077  0.00  0.00    -0.018 A 
ATOM     11  C15 ZIN A   1       4.229  -1.701   2.181  0.00  0.00     0.010 A 
ATOM     12  C14 ZIN A   1       4.881  -2.416   3.168  0.00  0.00     0.001 A 
ATOM     13  C13 ZIN A   1       6.235  -2.671   3.055  0.00  0.00     0.000 A 
ATOM     14  C12 ZIN A   1       6.936  -2.215   1.955  0.00  0.00     0.001 A 
ATOM     15  C11 ZIN A   1       6.282  -1.503   0.966  0.00  0.00     0.010 A 
ENDBRANCH   1  10
BRANCH   1  16
ATOM     16  C16 ZIN A   1       4.444  -1.140  -1.333  0.00  0.00     0.073 A 
ATOM     17  N21 ZIN A   1       5.117  -0.505  -2.273  0.00  0.00    -0.262 NA
ATOM     18  C20 ZIN A   1       5.344  -1.051  -3.451  0.00  0.00     0.117 A 
ATOM     19  C19 ZIN A   1       4.871  -2.315  -3.748  0.00  0.00     0.019 A 
ATOM     20  C18 ZIN A   1       4.155  -3.011  -2.787  0.00  0.00     0.003 A 
ATOM     21  C17 ZIN A   1       3.940  -2.407  -1.558  0.00  0.00     0.031 A 
ENDBRANCH   1  16
TORSDOF 6
