REMARK  0 active torsions:
REMARK  status: ('A' for Active; 'I' for Inactive)
ROOT
ATOM      1  C1  ZIN A   1      -0.018   1.465   0.010  0.00  0.00     0.269 C 
ATOM      2  N2  ZIN A   1       0.002  -0.004   0.002  0.00  0.00    -0.074 N 
ATOM      3  H3  ZIN A   1       0.462  -0.334  -0.833  0.00  0.00     0.279 HD
ATOM      4  C4  ZIN A   1      -1.391  -0.524   0.045  0.00  0.00     0.244 C 
ATOM      5  C5  ZIN A   1      -1.292  -1.772   0.938  0.00  0.00     0.057 C 
ATOM      6  C7  ZIN A   1      -2.564  -2.241   1.526  0.00  0.00    -0.018 A 
ATOM      7  C8  ZIN A   1      -3.759  -1.577   1.339  0.00  0.00     0.010 A 
ATOM      8  C9  ZIN A   1      -4.912  -2.047   1.942  0.00  0.00     0.001 A 
ATOM      9  C10 ZIN A   1      -4.872  -3.178   2.735  0.00  0.00     0.003 A 
ATOM     10  C11 ZIN A   1      -3.679  -3.855   2.915  0.00  0.00     0.038 A 
ATOM     11  C12 ZIN A   1      -2.529  -3.396   2.297  0.00  0.00     0.082 A 
ATOM     12  O13 ZIN A   1      -1.367  -4.074   2.369  0.00  0.00    -0.310 OA
ATOM     13  C14 ZIN A   1      -0.261  -3.650   3.009  0.00  0.00     0.083 A 
ATOM     14  C15 ZIN A   1       0.361  -4.571   3.853  0.00  0.00     0.039 A 
ATOM     15  C16 ZIN A   1       1.485  -4.232   4.572  0.00  0.00     0.026 A 
ATOM     16  C17 ZIN A   1       2.005  -2.955   4.457  0.00  0.00     0.034 A 
ATOM     17 Cl18 ZIN A   1       3.414  -2.503   5.364  0.00  0.00    -0.084 Cl
ATOM     18  C19 ZIN A   1       1.402  -2.043   3.619  0.00  0.00     0.034 A 
ATOM     19  C20 ZIN A   1       0.270  -2.376   2.875  0.00  0.00    -0.016 A 
ATOM     20  C21 ZIN A   1      -0.282  -1.338   1.981  0.00  0.00     0.057 C 
ATOM     21  C23 ZIN A   1       0.725  -0.501   1.200  0.00  0.00     0.244 C 
ENDROOT
TORSDOF 0
