REMARK  11 active torsions:
REMARK  status: ('A' for Active; 'I' for Inactive)
REMARK    1  A    between atoms: C2_2  and  C3_3 
REMARK    2  A    between atoms: C3_3  and  N4_4 
REMARK    3  A    between atoms: N4_4  and  S5_5 
REMARK    4  A    between atoms: S5_5  and  N8_8 
REMARK    5  A    between atoms: N8_8  and  C9_9 
REMARK    6  A    between atoms: C13_13  and  O14_14 
REMARK    7  A    between atoms: O14_14  and  C15_15 
REMARK    8  A    between atoms: C15_15  and  C16_16 
REMARK    9  A    between atoms: C16_16  and  O17_17 
REMARK   10  A    between atoms: O17_17  and  C18_18 
REMARK   11  A    between atoms: C25_25  and  C26_26 
ROOT
ATOM      1  C9  ZIN A   1      -3.676  -2.928  -2.095  0.00  0.00     0.155 A 
ATOM      2  N10 ZIN A   1      -2.564  -3.585  -2.415  0.00  0.00    -0.223 NA
ATOM      3  C11 ZIN A   1      -2.340  -3.975  -3.653  0.00  0.00     0.238 A 
ATOM      4  N12 ZIN A   1      -3.193  -3.739  -4.629  0.00  0.00    -0.217 NA
ATOM      5  C13 ZIN A   1      -4.330  -3.089  -4.403  0.00  0.00     0.180 A 
ATOM      6  C25 ZIN A   1      -4.617  -2.659  -3.102  0.00  0.00     0.074 A 
ENDROOT
BRANCH   5   7
ATOM      7  O14 ZIN A   1      -5.200  -2.851  -5.414  0.00  0.00    -0.332 OA
BRANCH   7   8
ATOM      8  C15 ZIN A   1      -4.835  -3.329  -6.710  0.00  0.00     0.204 C 
BRANCH   8   9
ATOM      9  C16 ZIN A   1      -5.932  -2.970  -7.714  0.00  0.00     0.205 C 
BRANCH   9  10
ATOM     10  O17 ZIN A   1      -6.013  -1.549  -7.844  0.00  0.00    -0.317 OA
BRANCH  10  11
ATOM     11  C18 ZIN A   1      -6.942  -1.061  -8.701  0.00  0.00     0.268 A 
ATOM     12  N24 ZIN A   1      -7.054   0.248  -8.854  0.00  0.00    -0.218 NA
ATOM     13  C23 ZIN A   1      -7.947   0.758  -9.687  0.00  0.00     0.141 A 
ATOM     14  C21 ZIN A   1      -8.777  -0.098 -10.394  0.00  0.00     0.046 A 
ATOM     15  C20 ZIN A   1      -8.635  -1.464 -10.205  0.00  0.00     0.141 A 
ATOM     16 Br22 ZIN A   1     -10.074   0.583 -11.590  0.00  0.00    -0.048 Br
ATOM     17  N19 ZIN A   1      -7.718  -1.906  -9.360  0.00  0.00    -0.218 NA
ENDBRANCH  10  11
ENDBRANCH   9  10
ENDBRANCH   8   9
ENDBRANCH   7   8
ENDBRANCH   5   7
BRANCH   6  18
ATOM     18  C26 ZIN A   1      -5.872  -1.930  -2.798  0.00  0.00    -0.018 A 
ATOM     19  C32 ZIN A   1      -7.103  -2.568  -2.941  0.00  0.00     0.014 A 
ATOM     20  C31 ZIN A   1      -8.268  -1.887  -2.651  0.00  0.00     0.020 A 
ATOM     21  C29 ZIN A   1      -8.215  -0.569  -2.230  0.00  0.00     0.011 A 
ATOM     22  C28 ZIN A   1      -6.995   0.070  -2.092  0.00  0.00     0.020 A 
ATOM     23 Br30 ZIN A   1      -9.816   0.361  -1.842  0.00  0.00    -0.051 Br
ATOM     24  C27 ZIN A   1      -5.824  -0.603  -2.373  0.00  0.00     0.014 A 
ENDBRANCH   6  18
BRANCH   1  25
ATOM     25  N8  ZIN A   1      -3.903  -2.522  -0.791  0.00  0.00    -0.251 N 
ATOM     26  H41 ZIN A   1      -4.719  -2.047  -0.567  0.00  0.00     0.182 HD
BRANCH  25  27
ATOM     27  S5  ZIN A   1      -2.784  -2.847   0.385  0.00  0.00     0.320 S 
ATOM     28  O6  ZIN A   1      -2.453  -4.223   0.254  0.00  0.00    -0.182 OA
ATOM     29  O7  ZIN A   1      -3.287  -2.280   1.586  0.00  0.00    -0.182 OA
BRANCH  27  30
ATOM     30  N4  ZIN A   1      -1.413  -1.998   0.005  0.00  0.00    -0.303 N 
ATOM     31  H40 ZIN A   1      -0.598  -2.471  -0.223  0.00  0.00     0.173 HD
BRANCH  30  32
ATOM     32  C3  ZIN A   1      -1.433  -0.534   0.013  0.00  0.00     0.133 C 
BRANCH  32  33
ATOM     33  C2  ZIN A   1       0.002  -0.004   0.002  0.00  0.00     0.016 C 
ATOM     34  C1  ZIN A   1      -0.019   1.526   0.010  0.00  0.00     0.006 C 
ENDBRANCH  32  33
ENDBRANCH  30  32
ENDBRANCH  27  30
ENDBRANCH  25  27
ENDBRANCH   1  25
TORSDOF 11
