REMARK  5 active torsions:
REMARK  status: ('A' for Active; 'I' for Inactive)
REMARK    1  A    between atoms: C2_2  and  C4_4 
REMARK    2  A    between atoms: C10_10  and  N11_11 
REMARK    3  A    between atoms: N11_11  and  C12_12 
REMARK    4  A    between atoms: C15_15  and  N16_16 
REMARK    5  A    between atoms: N28_28  and  C29_29 
ROOT
ATOM      1  C4  <0> d   1       0.276  -1.039  -1.308  0.00  0.00     0.084 A 
ATOM      2  C5  <0> d   1      -0.081  -2.382  -1.246  0.00  0.00    -0.027 A 
ATOM      3  C6  <0> d   1      -0.089  -3.114   0.071  0.00  0.00     0.050 C 
ATOM      4  C7  <0> d   1      -0.436  -3.045  -2.436  0.00  0.00     0.036 A 
ATOM      5  C8  <0> d   1      -0.806  -4.401  -2.430  0.00  0.00     0.152 A 
ATOM      6  N9  <0> d   1      -1.129  -4.972  -3.574  0.00  0.00    -0.074 NA
ATOM      7  C10 <0> d   1      -1.108  -4.289  -4.714  0.00  0.00     0.730 A 
ATOM      8  N26 <0> d   1      -0.767  -3.010  -4.771  0.00  0.00    -0.044 NA
ATOM      9  C27 <0> d   1      -0.426  -2.352  -3.669  0.00  0.00     0.164 A 
ATOM     10  N28 <0> d   1      -0.073  -1.029  -3.724  0.00  0.00    -0.292 N 
ATOM     11  C34 <0> d   1       0.267  -0.356  -2.607  0.00  0.00     0.264 A 
ATOM     12  O35 <0> d   1       0.577   0.819  -2.678  0.00  0.00    -0.267 OA
ENDROOT
BRANCH   7  13
ATOM     13  N11 <0> d   1      -1.456  -4.936  -5.882  0.00  0.00    -0.171 N 
ATOM     14  H43 <0> d   1      -1.521  -4.438  -6.712  0.00  0.00     0.186 HD
BRANCH  13  15
ATOM     15  C12 <0> d   1      -1.715  -6.306  -5.870  0.00  0.00     0.142 A 
ATOM     16  N25 <0> d   1      -1.720  -6.961  -4.720  0.00  0.00    -0.241 NA
ATOM     17  C24 <0> d   1      -1.964  -8.256  -4.660  0.00  0.00     0.148 A 
ATOM     18  C15 <0> d   1      -2.216  -8.984  -5.814  0.00  0.00     0.048 A 
ATOM     19  C14 <0> d   1      -2.213  -8.330  -7.044  0.00  0.00     0.034 A 
ATOM     20  C13 <0> d   1      -1.958  -6.971  -7.067  0.00  0.00     0.053 A 
BRANCH  18  21
ATOM     21  N16 <0> d   1      -2.469 -10.359  -5.742  0.00  0.00    -0.377 N 
ATOM     22  C23 <0> d   1      -2.599 -11.038  -4.444  0.00  0.00     0.150 C 
ATOM     23  C22 <0> d   1      -1.691 -12.267  -4.441  0.00  0.00     0.252 C 
ATOM     24  N19 <0> d   1      -2.004 -13.111  -5.601  0.00  0.00    -0.072 N 
ATOM     25  C18 <0> d   1      -1.692 -12.391  -6.842  0.00  0.00     0.252 C 
ATOM     26  H20 <0> d   1      -2.985 -13.348  -5.588  0.00  0.00     0.277 HD
ATOM     27  H21 <0> d   1      -1.455 -13.957  -5.557  0.00  0.00     0.277 HD
ATOM     28  C17 <0> d   1      -2.606 -11.167  -6.964  0.00  0.00     0.150 C 
ENDBRANCH  18  21
ENDBRANCH  13  15
ENDBRANCH   7  13
BRANCH  10  29
ATOM     29  C29 <0> d   1      -0.072  -0.334  -5.013  0.00  0.00     0.095 C 
ATOM     30  C33 <0> d   1       1.273   0.385  -5.223  0.00  0.00     0.026 C 
ATOM     31  C32 <0> d   1       0.953   1.888  -5.358  0.00  0.00     0.002 C 
ATOM     32  C31 <0> d   1      -0.407   2.052  -4.635  0.00  0.00     0.002 C 
ATOM     33  C30 <0> d   1      -1.162   0.758  -5.027  0.00  0.00     0.026 C 
ENDBRANCH  10  29
BRANCH   1  34
ATOM     34  C2  <0> d   1       0.651  -0.315  -0.093  0.00  0.00     0.161 C 
ATOM     35  C1  <0> d   1      -0.213   0.813   0.409  0.00  0.00     0.097 C 
ATOM     36  O3  <0> d   1       1.658  -0.623   0.511  0.00  0.00    -0.293 OA
ENDBRANCH   1  34
TORSDOF 5
