REMARK  3 active torsions:
REMARK  status: ('A' for Active; 'I' for Inactive)
REMARK       I    between atoms: N1_1  and  C2_2 
REMARK       I    between atoms: C2_2  and  N3_3 
REMARK       I    between atoms: N4_4  and  C5_5 
REMARK    1  A    between atoms: C5_5  and  C7_7 
REMARK    2  A    between atoms: C11_11  and  N12_12 
REMARK    3  A    between atoms: C14_14  and  N15_15 
ROOT
ATOM      1  C7  <0> d   1      -3.597  -0.843   0.316  0.00  0.00     0.174 A 
ATOM      2  N8  <0> d   1      -3.579  -2.171   0.417  0.00  0.00    -0.223 NA
ATOM      3  C9  <0> d   1      -4.699  -2.834   0.612  0.00  0.00     0.172 A 
ATOM      4 Cl10 <0> d   1      -4.669  -4.564   0.743  0.00  0.00    -0.058 Cl
ATOM      5  C11 <0> d   1      -5.914  -2.147   0.714  0.00  0.00     0.164 A 
ATOM      6  N13 <0> d   1      -5.941  -0.824   0.615  0.00  0.00    -0.209 NA
ATOM      7  C14 <0> d   1      -4.813  -0.151   0.424  0.00  0.00     0.158 A 
ENDROOT
BRANCH   1   8
ATOM      8  C5  <0> d   1      -2.340  -0.100   0.098  0.00  0.00     0.316 C 
ATOM      9  N4  <0> d   1      -1.167  -0.750   0.108  0.00  0.00    -0.022 NA
ATOM     10  C2  <0> d   1      -0.221  -0.394   0.963  0.00  0.00     0.695 C 
ATOM     11  N1  <0> d   1      -0.477   0.557   1.907  0.00  0.00    -0.233 N 
ATOM     12  N3  <0> d   1       1.010  -0.978   0.901  0.00  0.00    -0.233 N 
ATOM     13  H16 <0> d   1       0.191   0.767   2.578  0.00  0.00     0.174 HD
ATOM     14  H17 <0> d   1      -1.326   1.027   1.904  0.00  0.00     0.174 HD
ATOM     15  H18 <0> d   1       1.703  -0.718   1.527  0.00  0.00     0.174 HD
ATOM     16  H19 <0> d   1       1.192  -1.655   0.230  0.00  0.00     0.174 HD
ATOM     17  O6  <0> d   1      -2.368   1.103  -0.093  0.00  0.00    -0.263 OA
ENDBRANCH   1   8
BRANCH   7  18
ATOM     18  N15 <0> d   1      -4.838   1.229   0.320  0.00  0.00    -0.382 N 
ATOM     19  H22 <0> d   1      -5.667   1.712   0.465  0.00  0.00     0.157 HD
ATOM     20  H23 <0> d   1      -4.026   1.713   0.102  0.00  0.00     0.157 HD
ENDBRANCH   7  18
BRANCH   5  21
ATOM     21  N12 <0> d   1      -7.090  -2.849   0.920  0.00  0.00    -0.381 N 
ATOM     22  H20 <0> d   1      -7.071  -3.816   0.993  0.00  0.00     0.157 HD
ATOM     23  H21 <0> d   1      -7.932  -2.374   0.991  0.00  0.00     0.157 HD
ENDBRANCH   5  21
TORSDOF 3
