REMARK  4 active torsions:
REMARK  status: ('A' for Active; 'I' for Inactive)
REMARK    1  A    between atoms: O1_1  and  C2_2 
REMARK    2  A    between atoms: N9_8  and  C11_10 
REMARK    3  A    between atoms: C11_10  and  C12_11 
REMARK    4  A    between atoms: C23_22  and  O24_23 
ROOT
ATOM      1  C2  ZIN A   1       0.124   0.038   0.013  0.00  0.00     0.066 A 
ATOM      2  C3  ZIN A   1       0.083  -0.658  -1.187  0.00  0.00     0.037 A 
ATOM      3  C4  ZIN A   1       0.051  -2.036  -1.180  0.00  0.00     0.010 A 
ATOM      4  C5  ZIN A   1       0.057  -2.738   0.020  0.00  0.00    -0.049 A 
ATOM      5  C6  ZIN A   1      -0.025  -4.239  -0.048  0.00  0.00     0.075 C 
ATOM      6  C7  ZIN A   1       0.240  -4.893   1.296  0.00  0.00     0.227 C 
ATOM      7  N9  ZIN A   1       1.660  -5.000   1.599  0.00  0.00    -0.063 N 
ATOM      8  H10 ZIN A   1       2.122  -5.476   0.839  0.00  0.00     0.280 HD
ATOM      9  C16 ZIN A   1       2.284  -3.689   1.791  0.00  0.00     0.236 C 
ATOM     10  C17 ZIN A   1       1.587  -2.947   2.938  0.00  0.00     0.045 C 
ATOM     11  C18 ZIN A   1       0.114  -2.764   2.544  0.00  0.00     0.022 C 
ATOM     12  C19 ZIN A   1      -0.622  -1.958   3.606  0.00  0.00     0.017 C 
ATOM     13  C20 ZIN A   1      -2.095  -1.816   3.215  0.00  0.00     0.001 C 
ATOM     14  C21 ZIN A   1      -2.723  -3.205   3.085  0.00  0.00     0.003 C 
ATOM     15  C22 ZIN A   1      -1.986  -4.002   2.006  0.00  0.00     0.041 C 
ATOM     16  C23 ZIN A   1      -0.497  -4.137   2.402  0.00  0.00     0.098 C 
ATOM     17  C25 ZIN A   1       0.115  -2.047   1.210  0.00  0.00    -0.037 A 
ATOM     18  C26 ZIN A   1       0.147  -0.661   1.208  0.00  0.00     0.045 A 
ENDROOT
BRANCH   7  19
ATOM     19  C11 ZIN A   1       1.827  -5.790   2.827  0.00  0.00     0.240 C 
BRANCH  19  20
ATOM     20  C12 ZIN A   1       3.313  -6.078   3.050  0.00  0.00     0.011 C 
ATOM     21  C15 ZIN A   1       3.589  -7.004   4.246  0.00  0.00     0.006 C 
ATOM     22  C14 ZIN A   1       4.793  -6.103   4.566  0.00  0.00     0.001 C 
ATOM     23  C13 ZIN A   1       4.043  -4.976   3.836  0.00  0.00     0.006 C 
ENDBRANCH  19  20
ENDBRANCH   7  19
BRANCH  16  24
ATOM     24  O24 ZIN A   1      -0.389  -4.856   3.632  0.00  0.00    -0.387 OA
ATOM     25  H53 ZIN A   1      -0.756  -5.750   3.599  0.00  0.00     0.210 HD
ENDBRANCH  16  24
BRANCH   1  26
ATOM     26  O1  ZIN A   1       0.147   1.397   0.014  0.00  0.00    -0.361 OA
ATOM     27  H27 ZIN A   1       1.037   1.775  -0.011  0.00  0.00     0.217 HD
ENDBRANCH   1  26
TORSDOF 4
