REMARK  1 active torsions:
REMARK  status: ('A' for Active; 'I' for Inactive)
REMARK    1  A    between atoms: C3_3  and  C4_4 
ROOT
ATOM      1  C1  ZIN A   1      -0.018   1.503   0.010  0.00  0.00     0.069 C 
ATOM      2  C2  ZIN A   1       0.002  -0.004   0.002  0.00  0.00     0.019 A 
ATOM      3  C3  ZIN A   1      -1.190  -0.692   0.004  0.00  0.00    -0.002 A 
ATOM      4  C10 ZIN A   1      -1.199  -2.098  -0.004  0.00  0.00     0.042 A 
ATOM      5  C11 ZIN A   1       0.016  -2.774  -0.014  0.00  0.00     0.113 A 
ATOM      6  C12 ZIN A   1       0.057  -4.206  -0.022  0.00  0.00     0.105 C 
ATOM      7  N13 ZIN A   1       0.089  -5.341  -0.029  0.00  0.00    -0.191 NA
ATOM      8  C14 ZIN A   1       1.252  -1.990  -0.015  0.00  0.00     0.266 A 
ATOM      9  O15 ZIN A   1       2.334  -2.551  -0.023  0.00  0.00    -0.267 OA
ATOM     10  N16 ZIN A   1       1.187  -0.645  -0.013  0.00  0.00    -0.326 N 
ATOM     11  H25 ZIN A   1       2.007  -0.128  -0.014  0.00  0.00     0.169 HD
ENDROOT
BRANCH   3  12
ATOM     12  C4  ZIN A   1      -2.473   0.054   0.014  0.00  0.00    -0.021 A 
ATOM     13  C9  ZIN A   1      -3.354  -0.017  -1.069  0.00  0.00     0.031 A 
ATOM     14  C8  ZIN A   1      -4.537   0.689  -1.016  0.00  0.00     0.117 A 
ATOM     15  N7  ZIN A   1      -4.838   1.431   0.033  0.00  0.00    -0.273 NA
ATOM     16  C6  ZIN A   1      -4.032   1.529   1.073  0.00  0.00     0.117 A 
ATOM     17  C5  ZIN A   1      -2.831   0.852   1.105  0.00  0.00     0.031 A 
ENDBRANCH   3  12
TORSDOF 1
