REMARK  10 active torsions:
REMARK  status: ('A' for Active; 'I' for Inactive)
REMARK    1  A    between atoms: O2_2  and  C3_3 
REMARK    2  A    between atoms: C8_8  and  O9_9 
REMARK    3  A    between atoms: O9_9  and  C10_10 
REMARK    4  A    between atoms: C10_10  and  C11_11 
REMARK    5  A    between atoms: C11_11  and  O13_12 
REMARK    6  A    between atoms: C11_11  and  C14_13 
REMARK    7  A    between atoms: C14_13  and  N15_14 
REMARK    8  A    between atoms: N18_17  and  C19_18 
REMARK    9  A    between atoms: C19_18  and  C20_19 
REMARK       I    between atoms: C20_19  and  N22_21 
REMARK   10  A    between atoms: N22_21  and  C23_22 
ROOT
ATOM      1  N15 ZIN A   1       0.346  -7.737  -4.479  0.00  0.00     0.094 N 
ATOM      2  C16 ZIN A   1      -0.747  -6.944  -3.899  0.00  0.00     0.302 C 
ATOM      3  C17 ZIN A   1      -2.068  -7.337  -4.565  0.00  0.00     0.303 C 
ATOM      4  N18 ZIN A   1      -2.303  -8.774  -4.371  0.00  0.00     0.100 N 
ATOM      5  C31 ZIN A   1      -1.210  -9.567  -4.952  0.00  0.00     0.303 C 
ATOM      6  C32 ZIN A   1       0.111  -9.174  -4.286  0.00  0.00     0.302 C 
ENDROOT
BRANCH   1   7
ATOM      7  C14 ZIN A   1       1.643  -7.335  -3.918  0.00  0.00     0.306 C 
BRANCH   7   8
ATOM      8  C11 ZIN A   1       1.746  -5.809  -3.912  0.00  0.00     0.170 C 
BRANCH   8   9
ATOM      9  C10 ZIN A   1       3.096  -5.390  -3.328  0.00  0.00     0.209 C 
BRANCH   9  10
ATOM     10  O9  ZIN A   1       3.146  -3.967  -3.214  0.00  0.00    -0.346 OA
BRANCH  10  11
ATOM     11  C8  ZIN A   1       4.287  -3.427  -2.708  0.00  0.00     0.102 A 
ATOM     12  C3  ZIN A   1       4.409  -2.046  -2.581  0.00  0.00     0.101 A 
ATOM     13  C4  ZIN A   1       5.574  -1.502  -2.065  0.00  0.00     0.039 A 
ATOM     14  C5  ZIN A   1       6.614  -2.329  -1.684  0.00  0.00     0.003 A 
ATOM     15  C6  ZIN A   1       6.495  -3.700  -1.816  0.00  0.00     0.003 A 
ATOM     16  C7  ZIN A   1       5.336  -4.250  -2.330  0.00  0.00     0.039 A 
BRANCH  12  17
ATOM     17  O2  ZIN A   1       3.385  -1.234  -2.956  0.00  0.00    -0.353 OA
ATOM     18  C1  ZIN A   1       3.580   0.172  -2.796  0.00  0.00     0.210 C 
ENDBRANCH  12  17
ENDBRANCH  10  11
ENDBRANCH   9  10
ENDBRANCH   8   9
BRANCH   8  19
ATOM     19  O13 ZIN A   1       1.633  -5.318  -5.250  0.00  0.00    -0.392 OA
ATOM     20  H42 ZIN A   1       2.317  -5.648  -5.849  0.00  0.00     0.210 HD
ENDBRANCH   8  19
ENDBRANCH   7   8
ENDBRANCH   1   7
BRANCH   4  21
ATOM     21  C19 ZIN A   1      -3.600  -9.176  -4.932  0.00  0.00     0.375 C 
BRANCH  21  22
ATOM     22  C20 ZIN A   1      -3.917 -10.586  -4.505  0.00  0.00     0.250 C 
ATOM     23  O21 ZIN A   1      -3.139 -11.196  -3.802  0.00  0.00    -0.271 OA
ATOM     24  N22 ZIN A   1      -5.065 -11.169  -4.904  0.00  0.00    -0.325 N 
ATOM     25  H51 ZIN A   1      -5.718 -10.659  -5.408  0.00  0.00     0.169 HD
BRANCH  24  26
ATOM     26  C23 ZIN A   1      -5.315 -12.509  -4.590  0.00  0.00     0.046 A 
ATOM     27  C29 ZIN A   1      -5.325 -12.923  -3.264  0.00  0.00    -0.035 A 
ATOM     28  C28 ZIN A   1      -5.578 -14.246  -2.958  0.00  0.00     0.009 A 
ATOM     29  C30 ZIN A   1      -5.073 -11.928  -2.161  0.00  0.00     0.050 C 
ATOM     30  C27 ZIN A   1      -5.809 -15.160  -3.970  0.00  0.00     0.001 A 
ATOM     31  C26 ZIN A   1      -5.794 -14.752  -5.291  0.00  0.00     0.009 A 
ATOM     32  C24 ZIN A   1      -5.548 -13.429  -5.604  0.00  0.00    -0.035 A 
ATOM     33  C25 ZIN A   1      -5.531 -12.985  -7.044  0.00  0.00     0.050 C 
ENDBRANCH  24  26
ENDBRANCH  21  22
ENDBRANCH   4  21
TORSDOF 10
