REMARK  3 active torsions:
REMARK  status: ('A' for Active; 'I' for Inactive)
REMARK    1  A    between atoms: C4_4  and  C5_5 
REMARK    2  A    between atoms: C12_12  and  C13_13 
REMARK    3  A    between atoms: C13_13  and  C14_14 
ROOT
ATOM      1  C1  ZIN A   1      -0.018   1.503   0.010  0.00  0.00     0.049 C 
ATOM      2  C2  ZIN A   1       0.002  -0.004   0.002  0.00  0.00    -0.054 A 
ATOM      3  C3  ZIN A   1       0.006  -0.689  -1.199  0.00  0.00     0.015 A 
ATOM      4  C4  ZIN A   1       0.025  -2.071  -1.206  0.00  0.00    -0.050 A 
ATOM      5  C9  ZIN A   1       0.041  -2.768  -0.013  0.00  0.00     0.015 A 
ATOM      6  C10 ZIN A   1       0.037  -2.084   1.188  0.00  0.00    -0.054 A 
ATOM      7  C11 ZIN A   1       0.054  -2.844   2.489  0.00  0.00     0.049 C 
ATOM      8  C12 ZIN A   1       0.023  -0.702   1.195  0.00  0.00    -0.039 A 
ENDROOT
BRANCH   8   9
ATOM      9  C13 ZIN A   1       0.019   0.045   2.505  0.00  0.00     0.115 C 
BRANCH   9  10
ATOM     10  C14 ZIN A   1       1.439   0.308   2.936  0.00  0.00     0.077 A 
ATOM     11  N19 ZIN A   1       2.091   1.393   2.590  0.00  0.00    -0.378 N 
ATOM     12  C18 ZIN A   1       3.443   1.354   3.169  0.00  0.00     0.140 A 
ATOM     13  H43 ZIN A   1       1.735   2.111   2.042  0.00  0.00     0.160 HD
ATOM     14  C17 ZIN A   1       3.462   0.010   3.927  0.00  0.00     0.140 A 
ATOM     15  N15 ZIN A   1       2.116  -0.533   3.682  0.00  0.00    -0.378 N 
ATOM     16  H16 ZIN A   1       1.783  -1.379   4.018  0.00  0.00     0.160 HD
ENDBRANCH   9  10
ENDBRANCH   8   9
BRANCH   4  17
ATOM     17  C5  ZIN A   1       0.028  -2.817  -2.516  0.00  0.00    -0.024 C 
ATOM     18  C6  ZIN A   1       1.268  -2.426  -3.322  0.00  0.00     0.019 C 
ATOM     19  C7  ZIN A   1       0.050  -4.323  -2.244  0.00  0.00     0.019 C 
ATOM     20  C8  ZIN A   1      -1.230  -2.460  -3.310  0.00  0.00     0.019 C 
ENDBRANCH   4  17
TORSDOF 3
