REMARK  10 active torsions:
REMARK  status: ('A' for Active; 'I' for Inactive)
REMARK    1  A    between atoms: C2_2  and  C4_4 
REMARK    2  A    between atoms: C4_4  and  N6_5 
REMARK    3  A    between atoms: C4_4  and  C10_9 
REMARK    4  A    between atoms: C10_9  and  O12_11 
REMARK    5  A    between atoms: O12_11  and  C13_12 
REMARK    6  A    between atoms: C13_12  and  C14_13 
REMARK    7  A    between atoms: C14_13  and  O15_14 
REMARK    8  A    between atoms: O15_14  and  C16_15 
REMARK    9  A    between atoms: C16_15  and  N17_16 
REMARK   10  A    between atoms: C23_22  and  N24_23 
ROOT
ATOM      1  C16 ZIN A   1       0.669  -4.852  -4.225  0.00  0.00     0.301 C 
ENDROOT
BRANCH   1   2
ATOM      2  O15 ZIN A   1       0.342  -4.363  -2.923  0.00  0.00    -0.369 OA
BRANCH   2   3
ATOM      3  C14 ZIN A   1      -0.966  -4.727  -2.477  0.00  0.00     0.196 C 
BRANCH   3   4
ATOM      4  C13 ZIN A   1      -1.206  -4.153  -1.079  0.00  0.00     0.205 C 
BRANCH   4   5
ATOM      5  O12 ZIN A   1      -1.213  -2.703  -1.146  0.00  0.00    -0.318 OA
BRANCH   5   6
ATOM      6  C10 ZIN A   1      -1.413  -2.041   0.005  0.00  0.00     0.290 C 
ATOM      7  O11 ZIN A   1      -1.577  -2.653   1.033  0.00  0.00    -0.263 OA
BRANCH   6   8
ATOM      8  C4  ZIN A   1      -1.433  -0.534   0.013  0.00  0.00     0.285 C 
BRANCH   8   9
ATOM      9  C2  ZIN A   1       0.002  -0.004   0.002  0.00  0.00     0.018 C 
ATOM     10  C1  ZIN A   1      -0.019   1.526   0.010  0.00  0.00     0.012 C 
ATOM     11  C3  ZIN A   1       0.742  -0.511   1.242  0.00  0.00     0.012 C 
ENDBRANCH   8   9
BRANCH   8  12
ATOM     12  N6  ZIN A   1      -2.121  -0.060   1.222  0.00  0.00    -0.066 N 
ATOM     13  H7  ZIN A   1      -3.067  -0.409   1.229  0.00  0.00     0.275 HD
ATOM     14  H8  ZIN A   1      -1.633  -0.394   2.039  0.00  0.00     0.275 HD
ATOM     15  H9  ZIN A   1      -2.135   0.949   1.227  0.00  0.00     0.275 HD
ENDBRANCH   8  12
ENDBRANCH   6   8
ENDBRANCH   5   6
ENDBRANCH   4   5
ENDBRANCH   3   4
ENDBRANCH   2   3
ENDBRANCH   1   2
BRANCH   1  16
ATOM     16  N17 ZIN A   1       2.024  -4.423  -4.582  0.00  0.00    -0.301 N 
ATOM     17  C21 ZIN A   1       2.679  -4.700  -5.751  0.00  0.00     0.186 A 
ATOM     18  C20 ZIN A   1       3.933  -4.088  -5.648  0.00  0.00     0.173 A 
ATOM     19  N22 ZIN A   1       2.360  -5.376  -6.861  0.00  0.00    -0.044 NA
ATOM     20  N19 ZIN A   1       3.987  -3.483  -4.436  0.00  0.00    -0.234 NA
ATOM     21  C26 ZIN A   1       4.836  -4.207  -6.730  0.00  0.00     0.292 A 
ATOM     22  C18 ZIN A   1       2.865  -3.678  -3.807  0.00  0.00     0.214 A 
ATOM     23  N25 ZIN A   1       4.442  -4.902  -7.821  0.00  0.00    -0.152 N 
ATOM     24  O27 ZIN A   1       5.939  -3.690  -6.684  0.00  0.00    -0.265 OA
ATOM     25  C23 ZIN A   1       3.207  -5.476  -7.862  0.00  0.00     0.703 A 
ATOM     26  H44 ZIN A   1       5.043  -4.995  -8.576  0.00  0.00     0.187 HD
BRANCH  25  27
ATOM     27  N24 ZIN A   1       2.835  -6.179  -8.981  0.00  0.00    -0.233 N 
ATOM     28  H42 ZIN A   1       1.959  -6.593  -9.025  0.00  0.00     0.174 HD
ATOM     29  H43 ZIN A   1       3.449  -6.261  -9.727  0.00  0.00     0.174 HD
ENDBRANCH  25  27
ENDBRANCH   1  16
TORSDOF 10
