REMARK  5 active torsions:
REMARK  status: ('A' for Active; 'I' for Inactive)
REMARK    1  A    between atoms: C4_4  and  C5_5 
REMARK    2  A    between atoms: C12_12  and  N13_13 
REMARK    3  A    between atoms: N13_13  and  C14_14 
REMARK    4  A    between atoms: C18_18  and  N19_19 
REMARK    5  A    between atoms: N19_19  and  C20_20 
ROOT
ATOM      1  C5  ZIN A   1      -4.944  -2.213   1.507  0.00  0.00     0.022 C 
ATOM      2  C6  ZIN A   1      -5.966  -1.497   2.022  0.00  0.00     0.094 C 
ATOM      3  C7  ZIN A   1      -7.188  -2.151   2.383  0.00  0.00     0.087 C 
ATOM      4  N8  ZIN A   1      -8.157  -2.670   2.670  0.00  0.00    -0.192 NA
ENDROOT
BRANCH   1   5
ATOM      5  C4  ZIN A   1      -3.690  -1.541   1.137  0.00  0.00    -0.035 A 
ATOM      6  C3  ZIN A   1      -3.554  -0.160   1.317  0.00  0.00     0.020 A 
ATOM      7  C2  ZIN A   1      -2.376   0.464   0.973  0.00  0.00    -0.034 A 
ATOM      8  C1  ZIN A   1      -2.226   1.950   1.172  0.00  0.00     0.050 C 
ATOM      9  C12 ZIN A   1      -1.325  -0.275   0.437  0.00  0.00     0.045 A 
ATOM     10  C10 ZIN A   1      -1.457  -1.649   0.257  0.00  0.00    -0.034 A 
ATOM     11  C9  ZIN A   1      -2.629  -2.281   0.603  0.00  0.00     0.020 A 
ATOM     12  C11 ZIN A   1      -0.314  -2.444  -0.319  0.00  0.00     0.050 C 
BRANCH   9  13
ATOM     13  N13 ZIN A   1      -0.137   0.362   0.085  0.00  0.00    -0.340 N 
ATOM     14  H39 ZIN A   1       0.653   0.254   0.637  0.00  0.00     0.167 HD
BRANCH  13  15
ATOM     15  C14 ZIN A   1      -0.083   1.150  -1.054  0.00  0.00     0.148 A 
ATOM     16  N28 ZIN A   1       1.074   1.651  -1.474  0.00  0.00    -0.045 NA
ATOM     17  C18 ZIN A   1       1.128   2.405  -2.562  0.00  0.00     0.728 A 
ATOM     18  N17 ZIN A   1       0.042   2.686  -3.267  0.00  0.00    -0.075 NA
ATOM     19  C16 ZIN A   1      -1.144   2.219  -2.907  0.00  0.00     0.140 A 
ATOM     20  C15 ZIN A   1      -1.244   1.424  -1.781  0.00  0.00     0.071 A 
BRANCH  17  21
ATOM     21  N19 ZIN A   1       2.350   2.912  -2.972  0.00  0.00    -0.188 N 
ATOM     22  H42 ZIN A   1       3.144   2.758  -2.436  0.00  0.00     0.184 HD
BRANCH  21  23
ATOM     23  C20 ZIN A   1       2.440   3.642  -4.156  0.00  0.00     0.049 A 
ATOM     24  C27 ZIN A   1       1.624   3.318  -5.235  0.00  0.00     0.031 A 
ATOM     25  C26 ZIN A   1       1.710   4.037  -6.406  0.00  0.00     0.025 A 
ATOM     26  C23 ZIN A   1       2.617   5.095  -6.509  0.00  0.00     0.044 A 
ATOM     27  C22 ZIN A   1       3.435   5.419  -5.422  0.00  0.00     0.025 A 
ATOM     28  C24 ZIN A   1       2.709   5.846  -7.725  0.00  0.00     0.099 C 
ATOM     29  C21 ZIN A   1       3.340   4.699  -4.253  0.00  0.00     0.031 A 
ATOM     30  N25 ZIN A   1       2.781   6.442  -8.689  0.00  0.00    -0.191 NA
ENDBRANCH  21  23
ENDBRANCH  17  21
ENDBRANCH  13  15
ENDBRANCH   9  13
ENDBRANCH   1   5
TORSDOF 5
