REMARK  7 active torsions:
REMARK  status: ('A' for Active; 'I' for Inactive)
REMARK    1  A    between atoms: C8_8  and  O9_9 
REMARK    2  A    between atoms: O9_9  and  C10_10 
REMARK    3  A    between atoms: C10_10  and  C11_11 
REMARK    4  A    between atoms: C11_11  and  C12_12 
REMARK    5  A    between atoms: C12_12  and  C13_13 
REMARK    6  A    between atoms: C13_13  and  N14_14 
REMARK    7  A    between atoms: N18_18  and  C19_19 
ROOT
ATOM      1  C13 ZIN A   1       6.226  10.141  -0.030  0.00  0.00     0.235 C 
ENDROOT
BRANCH   1   2
ATOM      2  C12 ZIN A   1       4.812   9.558  -0.013  0.00  0.00     0.030 C 
BRANCH   2   3
ATOM      3  C11 ZIN A   1       4.890   8.030  -0.023  0.00  0.00     0.028 C 
BRANCH   3   4
ATOM      4  C10 ZIN A   1       3.476   7.447  -0.006  0.00  0.00     0.175 C 
BRANCH   4   5
ATOM      5  O9  ZIN A   1       3.549   6.020  -0.015  0.00  0.00    -0.351 OA
BRANCH   5   6
ATOM      6  C8  ZIN A   1       2.373   5.342  -0.003  0.00  0.00     0.070 A 
ATOM      7  C7  ZIN A   1       1.170   6.046   0.018  0.00  0.00     0.038 A 
ATOM      8  C6  ZIN A   1      -0.022   5.382   0.032  0.00  0.00     0.016 A 
ATOM      9  C5  ZIN A   1      -0.038   3.982   0.024  0.00  0.00    -0.009 A 
ATOM     10  C4  ZIN A   1      -1.299   3.241   0.038  0.00  0.00     0.019 A 
ATOM     11  C31 ZIN A   1       1.175   3.265   0.003  0.00  0.00     0.048 A 
ATOM     12  C3  ZIN A   1      -1.255   1.885   0.030  0.00  0.00     0.075 A 
ATOM     13  C2  ZIN A   1      -0.015   1.215   0.009  0.00  0.00     0.245 A 
ATOM     14  O1  ZIN A   1       0.002  -0.004   0.002  0.00  0.00    -0.268 OA
ATOM     15  N32 ZIN A   1       1.151   1.886   0.001  0.00  0.00    -0.323 N 
ATOM     16  H59 ZIN A   1       1.986   1.393  -0.009  0.00  0.00     0.169 HD
ATOM     17  C30 ZIN A   1       2.378   3.958  -0.010  0.00  0.00     0.067 A 
ENDBRANCH   5   6
ENDBRANCH   4   5
ENDBRANCH   3   4
ENDBRANCH   2   3
ENDBRANCH   1   2
BRANCH   1  18
ATOM     18  N14 ZIN A   1       6.151  11.608  -0.020  0.00  0.00    -0.069 N 
ATOM     19  H15 ZIN A   1       5.578  11.921  -0.790  0.00  0.00     0.280 HD
ATOM     20  C29 ZIN A   1       5.559  12.060   1.246  0.00  0.00     0.249 C 
ATOM     21  C28 ZIN A   1       5.462  13.587   1.248  0.00  0.00     0.123 C 
ATOM     22  N18 ZIN A   1       6.806  14.160   1.085  0.00  0.00    -0.280 NA
ATOM     23  C17 ZIN A   1       7.422  13.697  -0.167  0.00  0.00     0.123 C 
ATOM     24  C16 ZIN A   1       7.502  12.168  -0.158  0.00  0.00     0.249 C 
BRANCH  22  25
ATOM     25  C19 ZIN A   1       6.765  15.554   1.136  0.00  0.00     0.022 A 
ATOM     26  C27 ZIN A   1       6.077  16.257   0.171  0.00  0.00     0.024 A 
ATOM     27  C26 ZIN A   1       6.025  17.643   0.216  0.00  0.00     0.003 A 
ATOM     28  C25 ZIN A   1       6.670  18.328   1.219  0.00  0.00     0.020 A 
ATOM     29  C24 ZIN A   1       7.381  17.637   2.207  0.00  0.00     0.016 A 
ATOM     30  C20 ZIN A   1       7.436  16.242   2.177  0.00  0.00     0.003 A 
ATOM     31  S23 ZIN A   1       8.290  18.236   3.589  0.00  0.00    -0.101 SA
ATOM     32  C21 ZIN A   1       8.217  15.707   3.280  0.00  0.00     0.021 A 
ATOM     33  C22 ZIN A   1       8.722  16.614   4.093  0.00  0.00     0.051 A 
ENDBRANCH  22  25
ENDBRANCH   1  18
TORSDOF 7
