REMARK  4 active torsions:
REMARK  status: ('A' for Active; 'I' for Inactive)
REMARK    1  A    between atoms: S2_2  and  C3_3 
REMARK    2  A    between atoms: N14_14  and  C15_15 
REMARK    3  A    between atoms: C15_15  and  C16_16 
REMARK    4  A    between atoms: C16_16  and  C17_17 
ROOT
ATOM      1  C3  <0> d   1       2.949  -5.472  -6.171  0.00  0.00     0.002 A 
ATOM      2  C4  <0> d   1       2.433  -4.760  -7.246  0.00  0.00     0.020 A 
ATOM      3  C5  <0> d   1       1.710  -3.604  -7.022  0.00  0.00     0.022 A 
ATOM      4  C6  <0> d   1       1.496  -3.150  -5.728  0.00  0.00     0.032 A 
ATOM      5  S7  <0> d   1       0.580  -1.668  -5.476  0.00  0.00    -0.086 SA
ATOM      6  C8  <0> d   1       0.993  -1.206  -3.828  0.00  0.00     0.032 A 
ATOM      7  C9  <0> d   1       0.750   0.094  -3.405  0.00  0.00     0.021 A 
ATOM      8  C10 <0> d   1       1.069   0.476  -2.115  0.00  0.00     0.002 A 
ATOM      9  C11 <0> d   1       1.631  -0.437  -1.243  0.00  0.00     0.002 A 
ATOM     10  C12 <0> d   1       1.875  -1.733  -1.657  0.00  0.00     0.031 A 
ATOM     11  C13 <0> d   1       1.556  -2.129  -2.951  0.00  0.00     0.052 A 
ATOM     12  N14 <0> d   1       1.809  -3.445  -3.332  0.00  0.00    -0.345 N 
ATOM     13  C26 <0> d   1       2.007  -3.861  -4.646  0.00  0.00     0.053 A 
ATOM     14  C27 <0> d   1       2.731  -5.026  -4.875  0.00  0.00     0.049 A 
ENDROOT
BRANCH  12  15
ATOM     15  C15 <0> d   1       1.871  -4.460  -2.277  0.00  0.00     0.131 C 
BRANCH  15  16
ATOM     16  C16 <0> d   1       3.310  -4.585  -1.774  0.00  0.00     0.053 C 
BRANCH  16  17
ATOM     17  C17 <0> d   1       3.391  -5.705  -0.735  0.00  0.00     0.189 C 
ATOM     18  N23 <0> d   1       4.754  -5.772  -0.194  0.00  0.00    -0.071 N 
ATOM     19  C22 <0> d   1       4.822  -6.793   0.859  0.00  0.00     0.235 C 
ATOM     20  H24 <0> d   1       5.398  -6.010  -0.933  0.00  0.00     0.279 HD
ATOM     21  C25 <0> d   1       5.117  -4.465   0.369  0.00  0.00     0.270 C 
ATOM     22  C21 <0> d   1       4.521  -8.169   0.260  0.00  0.00     0.028 C 
ATOM     23  C20 <0> d   1       3.118  -8.157  -0.352  0.00  0.00     0.004 C 
ATOM     24  C19 <0> d   1       3.035  -7.039  -1.395  0.00  0.00     0.033 C 
ENDBRANCH  16  17
ENDBRANCH  15  16
ENDBRANCH  12  15
BRANCH   1  25
ATOM     25  S2  <0> d   1       3.874  -6.945  -6.453  0.00  0.00    -0.134 SA
ATOM     26  C1  <0> d   1       3.873  -7.088  -8.261  0.00  0.00     0.095 C 
ENDBRANCH   1  25
TORSDOF 4
