REMARK  8 active torsions:
REMARK  status: ('A' for Active; 'I' for Inactive)
REMARK    1  A    between atoms: C2_2  and  O4_3 
REMARK    2  A    between atoms: C2_2  and  C27_24 
REMARK    3  A    between atoms: O4_3  and  C5_4 
REMARK    4  A    between atoms: N10_8  and  C11_9 
REMARK    5  A    between atoms: C11_9  and  C12_10 
REMARK    6  A    between atoms: C18_16  and  C20_17 
REMARK    7  A    between atoms: C29_26  and  C30_27 
REMARK    8  A    between atoms: C35_32  and  C36_33 
ROOT
ATOM      1  C5  ZIN A   1      -1.871  -0.707   1.322  0.00  0.00     0.298 C 
ATOM      2  O7  ZIN A   1      -2.093   0.557   1.954  0.00  0.00    -0.357 OA
ATOM      3  C8  ZIN A   1      -3.032   1.388   1.266  0.00  0.00     0.201 C 
ATOM      4  C9  ZIN A   1      -4.373   0.656   1.163  0.00  0.00     0.300 C 
ATOM      5  N10 ZIN A   1      -4.171  -0.633   0.486  0.00  0.00     0.111 N 
ATOM      6  C18 ZIN A   1      -3.200  -1.461   1.219  0.00  0.00     0.311 C 
ENDROOT
BRANCH   1   7
ATOM      7  O4  ZIN A   1      -1.339  -0.499   0.012  0.00  0.00    -0.349 OA
BRANCH   7   8
ATOM      8  C2  ZIN A   1       0.002  -0.004   0.002  0.00  0.00     0.153 C 
ATOM      9  C1  ZIN A   1      -0.019   1.526   0.010  0.00  0.00     0.045 C 
BRANCH   8  10
ATOM     10  C27 ZIN A   1       0.707  -0.490  -1.238  0.00  0.00    -0.028 A 
ATOM     11  C40 ZIN A   1       2.026  -0.899  -1.167  0.00  0.00     0.025 A 
ATOM     12  C35 ZIN A   1       2.672  -1.349  -2.304  0.00  0.00     0.049 A 
ATOM     13  C34 ZIN A   1       2.002  -1.381  -3.513  0.00  0.00     0.032 A 
ATOM     14  C29 ZIN A   1       0.685  -0.967  -3.584  0.00  0.00     0.049 A 
ATOM     15  C28 ZIN A   1       0.038  -0.522  -2.447  0.00  0.00     0.025 A 
BRANCH  12  16
ATOM     16  C36 ZIN A   1       4.108  -1.800  -2.226  0.00  0.00     0.417 C 
ATOM     17  F37 ZIN A   1       4.539  -2.203  -3.494  0.00  0.00    -0.166 F 
ATOM     18  F38 ZIN A   1       4.905  -0.742  -1.776  0.00  0.00    -0.166 F 
ATOM     19  F39 ZIN A   1       4.211  -2.874  -1.335  0.00  0.00    -0.166 F 
ENDBRANCH  12  16
BRANCH  14  20
ATOM     20  C30 ZIN A   1      -0.046  -1.002  -4.902  0.00  0.00     0.417 C 
ATOM     21  F31 ZIN A   1       0.129   0.218  -5.564  0.00  0.00    -0.166 F 
ATOM     22  F32 ZIN A   1       0.465  -2.038  -5.691  0.00  0.00    -0.166 F 
ATOM     23  F33 ZIN A   1      -1.409  -1.218  -4.674  0.00  0.00    -0.166 F 
ENDBRANCH  14  20
ENDBRANCH   8  10
ENDBRANCH   7   8
ENDBRANCH   1   7
BRANCH   6  24
ATOM     24  C20 ZIN A   1      -2.989  -2.759   0.484  0.00  0.00    -0.020 A 
ATOM     25  C26 ZIN A   1      -2.870  -3.942   1.190  0.00  0.00     0.012 A 
ATOM     26  C25 ZIN A   1      -2.681  -5.133   0.516  0.00  0.00     0.043 A 
ATOM     27  C23 ZIN A   1      -2.600  -5.141  -0.866  0.00  0.00     0.116 A 
ATOM     28  C22 ZIN A   1      -2.714  -3.956  -1.572  0.00  0.00     0.043 A 
ATOM     29  F24 ZIN A   1      -2.410  -6.305  -1.525  0.00  0.00    -0.206 F 
ATOM     30  C21 ZIN A   1      -2.908  -2.766  -0.896  0.00  0.00     0.012 A 
ENDBRANCH   6  24
BRANCH   5  31
ATOM     31  C11 ZIN A   1      -5.445  -1.344   0.316  0.00  0.00     0.355 C 
BRANCH  31  32
ATOM     32  C12 ZIN A   1      -5.990  -1.730   1.667  0.00  0.00     0.179 A 
ATOM     33  N17 ZIN A   1      -7.163  -2.406   1.892  0.00  0.00    -0.174 NA
ATOM     34  C15 ZIN A   1      -7.310  -2.570   3.222  0.00  0.00     0.364 A 
ATOM     35  N14 ZIN A   1      -6.246  -1.995   3.819  0.00  0.00    -0.225 N 
ATOM     36  O16 ZIN A   1      -8.236  -3.130   3.782  0.00  0.00    -0.243 OA
ATOM     37  N13 ZIN A   1      -5.431  -1.473   2.805  0.00  0.00    -0.153 NA
ATOM     38  H50 ZIN A   1      -6.076  -1.950   4.773  0.00  0.00     0.194 HD
ENDBRANCH  31  32
ENDBRANCH   5  31
TORSDOF 8
