REMARK  2 active torsions:
REMARK  status: ('A' for Active; 'I' for Inactive)
REMARK    1  A    between atoms: C11_11  and  O12_12 
REMARK    2  A    between atoms: C17_16  and  O19_17 
ROOT
ATOM      1  C1  ZIN A   1      -0.018   1.465   0.010  0.00  0.00     0.270 C 
ATOM      2  N2  ZIN A   1       0.002  -0.004   0.002  0.00  0.00    -0.070 N 
ATOM      3  H3  ZIN A   1       0.402  -0.322  -0.868  0.00  0.00     0.279 HD
ATOM      4  C4  ZIN A   1      -1.371  -0.500   0.105  0.00  0.00     0.236 C 
ATOM      5  C5  ZIN A   1      -2.025  -0.049   1.421  0.00  0.00     0.045 C 
ATOM      6  C6  ZIN A   1      -1.145  -0.574   2.559  0.00  0.00     0.030 C 
ATOM      7  C7  ZIN A   1      -1.019  -2.070   2.409  0.00  0.00    -0.003 A 
ATOM      8  C8  ZIN A   1      -0.055  -2.754   1.709  0.00  0.00    -0.046 A 
ATOM      9  C9  ZIN A   1      -0.171  -4.133   1.721  0.00  0.00     0.011 A 
ATOM     10  C10 ZIN A   1      -1.187  -4.739   2.442  0.00  0.00     0.040 A 
ATOM     11  C11 ZIN A   1      -2.122  -4.032   3.195  0.00  0.00     0.099 A 
ATOM     12  C13 ZIN A   1      -2.018  -2.638   3.189  0.00  0.00     0.110 A 
ATOM     13  O14 ZIN A   1      -2.698  -1.669   3.845  0.00  0.00    -0.338 OA
ATOM     14  C15 ZIN A   1      -1.813  -0.492   3.926  0.00  0.00     0.175 C 
ATOM     15  C17 ZIN A   1      -0.845  -0.862   5.056  0.00  0.00     0.171 C 
ATOM     16  C20 ZIN A   1       0.580  -0.543   4.788  0.00  0.00     0.003 C 
ATOM     17  C21 ZIN A   1       1.090  -0.192   3.650  0.00  0.00    -0.020 C 
ATOM     18  C22 ZIN A   1       0.236   0.024   2.417  0.00  0.00     0.055 C 
ATOM     19  C24 ZIN A   1       0.840  -0.478   1.115  0.00  0.00     0.200 C 
ATOM     20  C26 ZIN A   1       1.030  -1.983   1.030  0.00  0.00     0.073 C 
ENDROOT
BRANCH  15  21
ATOM     21  O19 ZIN A   1      -0.951  -2.266   5.299  0.00  0.00    -0.389 OA
ATOM     22  H37 ZIN A   1      -0.370  -2.589   6.001  0.00  0.00     0.210 HD
ENDBRANCH  15  21
BRANCH  11  23
ATOM     23  O12 ZIN A   1      -3.091  -4.670   3.905  0.00  0.00    -0.358 OA
ATOM     24  H36 ZIN A   1      -2.834  -4.890   4.811  0.00  0.00     0.217 HD
ENDBRANCH  11  23
TORSDOF 2
