REMARK  12 active torsions:
REMARK  status: ('A' for Active; 'I' for Inactive)
REMARK    1  A    between atoms: C2_2  and  C3_3 
REMARK    2  A    between atoms: C3_3  and  C4_4 
REMARK    3  A    between atoms: C4_4  and  C5_5 
REMARK    4  A    between atoms: C5_5  and  C6_6 
REMARK    5  A    between atoms: C6_6  and  C7_7 
REMARK    6  A    between atoms: C16_16  and  C17_17 
REMARK    7  A    between atoms: C17_17  and  C19_18 
REMARK    8  A    between atoms: C17_17  and  C21_20 
REMARK    9  A    between atoms: C25_24  and  N26_25 
REMARK   10  A    between atoms: N26_25  and  S27_26 
REMARK   11  A    between atoms: S27_26  and  C30_29 
REMARK   12  A    between atoms: C33_32  and  C34_33 
ROOT
ATOM      1  C17 ZIN A   1      -1.135  -4.402   1.005  0.00  0.00     0.039 C 
ENDROOT
BRANCH   1   2
ATOM      2  C16 ZIN A   1      -0.280  -4.729  -0.221  0.00  0.00     0.163 C 
ATOM      3  C14 ZIN A   1       1.122  -4.179  -0.036  0.00  0.00     0.144 C 
ATOM      4  C13 ZIN A   1       1.310  -2.684  -0.192  0.00  0.00     0.118 C 
ATOM      5  O15 ZIN A   1       2.051  -4.904   0.226  0.00  0.00    -0.297 OA
ATOM      6  C4  ZIN A   1       0.685  -2.254  -1.525  0.00  0.00     0.077 C 
ATOM      7  O43 ZIN A   1      -0.688  -2.731  -1.588  0.00  0.00    -0.309 OA
ATOM      8  C41 ZIN A   1      -0.864  -4.062  -1.450  0.00  0.00     0.271 C 
ATOM      9  O42 ZIN A   1      -1.468  -4.700  -2.279  0.00  0.00    -0.264 OA
BRANCH   6  10
ATOM     10  C3  ZIN A   1       0.700  -0.727  -1.627  0.00  0.00     0.038 C 
BRANCH  10  11
ATOM     11  C2  ZIN A   1       0.006  -0.127  -0.402  0.00  0.00    -0.002 C 
ATOM     12  C1  ZIN A   1       0.021   1.399  -0.505  0.00  0.00     0.005 C 
ENDBRANCH  10  11
ENDBRANCH   6  10
BRANCH   6  13
ATOM     13  C5  ZIN A   1       1.488  -2.851  -2.682  0.00  0.00     0.043 C 
BRANCH  13  14
ATOM     14  C6  ZIN A   1       0.862  -2.423  -4.011  0.00  0.00     0.041 C 
BRANCH  14  15
ATOM     15  C7  ZIN A   1       1.567  -3.120  -5.146  0.00  0.00    -0.058 A 
ATOM     16  C12 ZIN A   1       1.112  -4.347  -5.592  0.00  0.00     0.007 A 
ATOM     17  C11 ZIN A   1       1.756  -4.985  -6.636  0.00  0.00     0.001 A 
ATOM     18  C10 ZIN A   1       2.860  -4.401  -7.227  0.00  0.00     0.000 A 
ATOM     19  C9  ZIN A   1       3.318  -3.176  -6.778  0.00  0.00     0.001 A 
ATOM     20  C8  ZIN A   1       2.672  -2.536  -5.737  0.00  0.00     0.007 A 
ENDBRANCH  14  15
ENDBRANCH  13  14
ENDBRANCH   6  13
ENDBRANCH   1   2
BRANCH   1  21
ATOM     21  C19 ZIN A   1      -0.476  -4.987   2.256  0.00  0.00     0.006 C 
ATOM     22  C20 ZIN A   1      -1.256  -4.547   3.497  0.00  0.00     0.006 C 
ENDBRANCH   1  21
BRANCH   1  23
ATOM     23  C21 ZIN A   1      -2.507  -5.000   0.835  0.00  0.00    -0.051 A 
ATOM     24  C40 ZIN A   1      -3.620  -4.181   0.832  0.00  0.00     0.040 A 
ATOM     25  C25 ZIN A   1      -4.885  -4.732   0.669  0.00  0.00     0.070 A 
ATOM     26  C24 ZIN A   1      -5.027  -6.106   0.521  0.00  0.00     0.032 A 
ATOM     27  C23 ZIN A   1      -3.911  -6.919   0.530  0.00  0.00     0.003 A 
ATOM     28  C22 ZIN A   1      -2.652  -6.367   0.687  0.00  0.00     0.007 A 
BRANCH  25  29
ATOM     29  N26 ZIN A   1      -6.012  -3.907   0.660  0.00  0.00    -0.159 NA
BRANCH  29  30
ATOM     30  S27 ZIN A   1      -7.519  -4.567   0.473  0.00  0.00     0.301 S 
ATOM     31  O28 ZIN A   1      -7.564  -5.099  -0.843  0.00  0.00    -0.197 OA
ATOM     32  O29 ZIN A   1      -7.763  -5.347   1.636  0.00  0.00    -0.197 OA
BRANCH  30  33
ATOM     33  C30 ZIN A   1      -8.678  -3.240   0.512  0.00  0.00     0.173 A 
ATOM     34  N39 ZIN A   1      -9.015  -2.635  -0.611  0.00  0.00    -0.247 NA
ATOM     35  C38 ZIN A   1      -9.881  -1.641  -0.630  0.00  0.00     0.134 A 
ATOM     36  C33 ZIN A   1     -10.462  -1.187   0.538  0.00  0.00     0.065 A 
ATOM     37  C32 ZIN A   1     -10.129  -1.794   1.739  0.00  0.00     0.021 A 
ATOM     38  C31 ZIN A   1      -9.218  -2.840   1.720  0.00  0.00     0.047 A 
BRANCH  36  39
ATOM     39  C34 ZIN A   1     -11.447  -0.046   0.508  0.00  0.00     0.418 C 
ATOM     40  F35 ZIN A   1     -10.762   1.164   0.657  0.00  0.00    -0.166 F 
ATOM     41  F36 ZIN A   1     -12.127  -0.050  -0.715  0.00  0.00    -0.166 F 
ATOM     42  F37 ZIN A   1     -12.365  -0.195   1.553  0.00  0.00    -0.166 F 
ENDBRANCH  36  39
ENDBRANCH  30  33
ENDBRANCH  29  30
ENDBRANCH  25  29
ENDBRANCH   1  23
TORSDOF 12
