REMARK  8 active torsions:
REMARK  status: ('A' for Active; 'I' for Inactive)
REMARK    1  A    between atoms: O1_1  and  C2_2 
REMARK    2  A    between atoms: C2_2  and  C3_3 
REMARK    3  A    between atoms: C3_3  and  N4_4 
REMARK    4  A    between atoms: C7_7  and  O9_8 
REMARK    5  A    between atoms: C10_9  and  O12_10 
REMARK    6  A    between atoms: C13_11  and  O15_12 
REMARK    7  A    between atoms: C16_13  and  C18_14 
REMARK    8  A    between atoms: C18_14  and  O19_15 
ROOT
ATOM      1  N4  <0> d   1      -2.174  -0.008  -1.359  0.00  0.00    -0.058 N 
ATOM      2  H5  <0> d   1      -2.301   0.983  -1.503  0.00  0.00     0.280 HD
ATOM      3  C6  <0> d   1      -1.457  -0.580  -2.505  0.00  0.00     0.269 C 
ATOM      4  C7  <0> d   1      -1.192  -2.066  -2.255  0.00  0.00     0.175 C 
ATOM      5  C10 <0> d   1      -2.527  -2.793  -2.071  0.00  0.00     0.179 C 
ATOM      6  C13 <0> d   1      -3.299  -2.140  -0.921  0.00  0.00     0.182 C 
ATOM      7  C16 <0> d   1      -3.485  -0.653  -1.220  0.00  0.00     0.242 C 
ENDROOT
BRANCH   1   8
ATOM      8  C3  <0> d   1      -1.391  -0.226  -0.135  0.00  0.00     0.261 C 
BRANCH   8   9
ATOM      9  C2  <0> d   1      -0.079   0.555  -0.223  0.00  0.00     0.192 C 
BRANCH   9  10
ATOM     10  O1  <0> d   1      -0.359   1.956  -0.247  0.00  0.00    -0.399 OA
ATOM     11  H20 <0> d   1       0.429   2.514  -0.303  0.00  0.00     0.209 HD
ENDBRANCH   9  10
ENDBRANCH   8   9
ENDBRANCH   1   8
BRANCH   7  12
ATOM     12  C18 <0> d   1      -4.255   0.005  -0.074  0.00  0.00     0.200 C 
BRANCH  12  13
ATOM     13  O19 <0> d   1      -4.466   1.387  -0.372  0.00  0.00    -0.399 OA
ATOM     14  H32 <0> d   1      -4.949   1.868   0.313  0.00  0.00     0.209 HD
ENDBRANCH  12  13
ENDBRANCH   7  12
BRANCH   6  15
ATOM     15  O15 <0> d   1      -4.577  -2.766  -0.788  0.00  0.00    -0.391 OA
ATOM     16  H29 <0> d   1      -4.533  -3.713  -0.600  0.00  0.00     0.210 HD
ENDBRANCH   6  15
BRANCH   4  17
ATOM     17  O9  <0> d   1      -0.496  -2.621  -3.373  0.00  0.00    -0.391 OA
ATOM     18  H27 <0> d   1      -0.294  -3.562  -3.283  0.00  0.00     0.210 HD
ENDBRANCH   4  17
BRANCH   5  19
ATOM     19  O12 <0> d   1      -2.284  -4.168  -1.766  0.00  0.00    -0.390 OA
ATOM     20  H28 <0> d   1      -1.794  -4.642  -2.452  0.00  0.00     0.210 HD
ENDBRANCH   5  19
TORSDOF 8
