REMARK  5 active torsions:
REMARK  status: ('A' for Active; 'I' for Inactive)
REMARK    1  A    between atoms: C2_2  and  O3_3 
REMARK    2  A    between atoms: O3_3  and  C4_4 
REMARK    3  A    between atoms: C4_4  and  C5_5 
REMARK    4  A    between atoms: C5_5  and  N6_6 
REMARK    5  A    between atoms: C14_14  and  N15_15 
ROOT
ATOM      1  N6  ZIN A   1       1.767  -3.717  -2.794  0.00  0.00    -0.318 N 
ATOM      2  C7  ZIN A   1       2.755  -4.438  -2.142  0.00  0.00     0.066 A 
ATOM      3  C8  ZIN A   1       3.925  -4.088  -1.485  0.00  0.00     0.032 A 
ATOM      4  C9  ZIN A   1       4.717  -5.069  -0.925  0.00  0.00     0.002 A 
ATOM      5  C10 ZIN A   1       4.352  -6.404  -1.015  0.00  0.00     0.002 A 
ATOM      6  C11 ZIN A   1       3.194  -6.769  -1.665  0.00  0.00     0.034 A 
ATOM      7  C12 ZIN A   1       2.380  -5.788  -2.236  0.00  0.00     0.087 A 
ATOM      8  N13 ZIN A   1       1.208  -5.831  -2.924  0.00  0.00    -0.218 NA
ATOM      9  C14 ZIN A   1       0.844  -4.615  -3.248  0.00  0.00     0.185 A 
ENDROOT
BRANCH   9  10
ATOM     10  N15 ZIN A   1      -0.297  -4.291  -3.950  0.00  0.00    -0.251 NA
ATOM     11  C23 ZIN A   1      -0.242  -4.790  -5.255  0.00  0.00     0.126 C 
ATOM     12  C22 ZIN A   1      -1.413  -4.297  -6.126  0.00  0.00     0.249 C 
ATOM     13  N19 ZIN A   1      -2.573  -5.109  -5.838  0.00  0.00    -0.074 N 
ATOM     14  C18 ZIN A   1      -3.453  -4.487  -4.823  0.00  0.00     0.235 C 
ATOM     15  H20 ZIN A   1      -2.267  -6.008  -5.499  0.00  0.00     0.279 HD
ATOM     16  C21 ZIN A   1      -3.337  -5.302  -7.078  0.00  0.00     0.269 C 
ATOM     17  C17 ZIN A   1      -2.667  -3.852  -3.665  0.00  0.00     0.042 C 
ATOM     18  C16 ZIN A   1      -1.513  -4.708  -3.210  0.00  0.00     0.100 C 
ENDBRANCH   9  10
BRANCH   1  19
ATOM     19  C5  ZIN A   1       1.718  -2.263  -2.959  0.00  0.00     0.158 C 
BRANCH  19  20
ATOM     20  C4  ZIN A   1       0.982  -1.639  -1.772  0.00  0.00     0.187 C 
BRANCH  20  21
ATOM     21  O3  ZIN A   1       0.998  -0.215  -1.896  0.00  0.00    -0.390 OA
BRANCH  21  22
ATOM     22  C2  ZIN A   1       0.332   0.469  -0.832  0.00  0.00     0.163 C 
ATOM     23  C1  ZIN A   1       0.412   1.978  -1.068  0.00  0.00     0.033 C 
ENDBRANCH  21  22
ENDBRANCH  20  21
ENDBRANCH  19  20
ENDBRANCH   1  19
TORSDOF 5
