REMARK  1 active torsions:
REMARK  status: ('A' for Active; 'I' for Inactive)
REMARK    1  A    between atoms: C3_3  and  O4_4 
ROOT
ATOM      1  C1  ZIN A   1       0.041  -1.188   0.018  0.00  0.00     0.015 C 
ATOM      2  C2  ZIN A   1       0.017  -0.014   0.025  0.00  0.00    -0.078 C 
ATOM      3  C3  ZIN A   1      -0.013   1.458   0.034  0.00  0.00     0.128 C 
ATOM      4  C5  ZIN A   1      -0.694   1.988  -1.252  0.00  0.00     0.052 C 
ATOM      5  C6  ZIN A   1       0.397   2.769  -2.034  0.00  0.00     0.010 C 
ATOM      6  C7  ZIN A   1       1.700   2.148  -1.519  0.00  0.00     0.002 C 
ATOM      7  C9  ZIN A   1       2.946   3.001  -1.679  0.00  0.00    -0.005 C 
ATOM      8  C11 ZIN A   1       3.238   3.216  -3.167  0.00  0.00     0.010 C 
ATOM      9  C12 ZIN A   1       4.454   4.133  -3.311  0.00  0.00     0.035 C 
ATOM     10  C13 ZIN A   1       5.615   3.532  -2.541  0.00  0.00    -0.072 C 
ATOM     11  C14 ZIN A   1       6.790   3.442  -3.162  0.00  0.00     0.053 C 
ATOM     12  C15 ZIN A   1       7.951   2.883  -2.461  0.00  0.00     0.149 C 
ATOM     13  O16 ZIN A   1       8.905   2.434  -3.062  0.00  0.00    -0.293 OA
ATOM     14  C17 ZIN A   1       7.896   2.896  -0.946  0.00  0.00     0.084 C 
ATOM     15  C18 ZIN A   1       6.548   2.308  -0.532  0.00  0.00     0.017 C 
ATOM     16  C19 ZIN A   1       5.389   3.086  -1.129  0.00  0.00     0.019 C 
ATOM     17  C21 ZIN A   1       4.113   2.241  -1.031  0.00  0.00    -0.002 C 
ATOM     18  C23 ZIN A   1       3.845   1.910   0.435  0.00  0.00     0.006 C 
ATOM     19  C24 ZIN A   1       2.512   1.167   0.616  0.00  0.00     0.014 C 
ATOM     20  C25 ZIN A   1       1.405   2.016  -0.001  0.00  0.00     0.003 C 
ATOM     21  C26 ZIN A   1       1.435   3.422   0.601  0.00  0.00     0.020 C 
ENDROOT
BRANCH   3  22
ATOM     22  O4  ZIN A   1      -0.704   1.931   1.192  0.00  0.00    -0.377 OA
ATOM     23  H28 ZIN A   1      -1.618   1.624   1.258  0.00  0.00     0.211 HD
ENDBRANCH   3  22
TORSDOF 1
