REMARK  6 active torsions:
REMARK  status: ('A' for Active; 'I' for Inactive)
REMARK    1  A    between atoms: N2_2  and  C5_5 
REMARK    2  A    between atoms: C5_5  and  C6_6 
REMARK    3  A    between atoms: C6_6  and  C8_7 
REMARK    4  A    between atoms: C6_6  and  C15_14 
REMARK    5  A    between atoms: C11_10  and  O12_11 
REMARK    6  A    between atoms: C15_14  and  O16_15 
ROOT
ATOM      1  C6  ZIN A   1      -2.078  -0.110  -1.286  0.00  0.00     0.079 C 
ENDROOT
BRANCH   1   2
ATOM      2  C5  ZIN A   1      -1.376  -0.512   0.012  0.00  0.00     0.246 C 
BRANCH   2   3
ATOM      3  N2  ZIN A   1       0.002  -0.004   0.002  0.00  0.00    -0.078 N 
ATOM      4  C1  ZIN A   1      -0.018   1.465   0.010  0.00  0.00     0.269 C 
ATOM      5  H3  ZIN A   1       0.474  -0.330  -0.828  0.00  0.00     0.279 HD
ATOM      6  C4  ZIN A   1       0.713  -0.491   1.192  0.00  0.00     0.269 C 
ENDBRANCH   2   3
ENDBRANCH   1   2
BRANCH   1   7
ATOM      7  C8  ZIN A   1      -1.410  -0.794  -2.451  0.00  0.00    -0.049 A 
ATOM      8  C14 ZIN A   1      -0.842  -0.039  -3.461  0.00  0.00     0.010 A 
ATOM      9  C13 ZIN A   1      -0.224  -0.663  -4.527  0.00  0.00     0.037 A 
ATOM     10  C11 ZIN A   1      -0.183  -2.049  -4.590  0.00  0.00     0.065 A 
ATOM     11  C10 ZIN A   1      -0.759  -2.804  -3.578  0.00  0.00     0.037 A 
ATOM     12  C9  ZIN A   1      -1.371  -2.175  -2.511  0.00  0.00     0.010 A 
BRANCH  10  13
ATOM     13  O12 ZIN A   1       0.419  -2.665  -5.641  0.00  0.00    -0.361 OA
ATOM     14  H32 ZIN A   1      -0.174  -2.846  -6.383  0.00  0.00     0.217 HD
ENDBRANCH  10  13
ENDBRANCH   1   7
BRANCH   1  15
ATOM     15  C15 ZIN A   1      -3.548  -0.531  -1.223  0.00  0.00     0.067 C 
ATOM     16  C21 ZIN A   1      -4.250  -0.128  -2.521  0.00  0.00     0.038 C 
ATOM     17  C20 ZIN A   1      -5.719  -0.549  -2.458  0.00  0.00     0.003 C 
ATOM     18  C19 ZIN A   1      -6.398   0.145  -1.275  0.00  0.00     0.000 C 
ATOM     19  C18 ZIN A   1      -5.696  -0.257   0.023  0.00  0.00     0.003 C 
ATOM     20  C17 ZIN A   1      -4.226   0.163  -0.040  0.00  0.00     0.038 C 
BRANCH  15  21
ATOM     21  O16 ZIN A   1      -3.631  -1.947  -1.056  0.00  0.00    -0.389 OA
ATOM     22  H35 ZIN A   1      -4.536  -2.285  -1.007  0.00  0.00     0.210 HD
ENDBRANCH  15  21
ENDBRANCH   1  15
TORSDOF 6
