REMARK  12 active torsions:
REMARK  status: ('A' for Active; 'I' for Inactive)
REMARK    1  A    between atoms: C2_2  and  C3_3 
REMARK    2  A    between atoms: C25_25  and  C26_26 
REMARK    3  A    between atoms: C26_26  and  O28_28 
REMARK    4  A    between atoms: C30_30  and  C32_31 
REMARK    5  A    between atoms: C32_31  and  O34_33 
REMARK    6  A    between atoms: C40_39  and  C41_40 
REMARK    7  A    between atoms: C41_40  and  C42_41 
REMARK    8  A    between atoms: C42_41  and  C43_42 
REMARK    9  A    between atoms: C43_42  and  O45_44 
REMARK   10  A    between atoms: C47_46  and  C48_47 
REMARK   11  A    between atoms: C48_47  and  C49_48 
REMARK   12  A    between atoms: C49_48  and  C50_49 
ROOT
ATOM      1  C3  ZIN A   1       1.289  -0.724  -0.014  0.00  0.00    -0.002 A 
ATOM      2  C4  ZIN A   1       2.376  -0.483  -0.897  0.00  0.00     0.045 A 
ATOM      3  C5  ZIN A   1       2.399   0.521  -1.851  0.00  0.00     0.060 C 
ATOM      4  C6  ZIN A   1       3.474   0.700  -2.719  0.00  0.00     0.041 A 
ATOM      5  N7  ZIN A   1       4.611  -0.069  -2.814  0.00  0.00    -0.355 N 
ATOM      6  C8  ZIN A   1       5.383   0.429  -3.844  0.00  0.00     0.041 A 
ATOM      7  C9  ZIN A   1       6.580  -0.080  -4.324  0.00  0.00     0.062 C 
ATOM      8  C10 ZIN A   1       7.189  -1.218  -3.784  0.00  0.00     0.066 A 
ATOM      9  N11 ZIN A   1       6.856  -1.878  -2.671  0.00  0.00    -0.248 NA
ATOM     10  C12 ZIN A   1       7.753  -2.829  -2.415  0.00  0.00     0.066 A 
ATOM     11  C13 ZIN A   1       7.849  -3.657  -1.289  0.00  0.00     0.060 C 
ATOM     12  C14 ZIN A   1       6.887  -3.761  -0.309  0.00  0.00     0.051 C 
ATOM     13  N15 ZIN A   1       5.699  -3.178  -0.242  0.00  0.00    -0.252 NA
ATOM     14  C16 ZIN A   1       4.935  -3.598   0.765  0.00  0.00     0.067 C 
ATOM     15  C17 ZIN A   1       3.654  -3.166   1.120  0.00  0.00     0.062 C 
ATOM     16  C18 ZIN A   1       2.958  -2.161   0.467  0.00  0.00     0.041 A 
ATOM     17  C19 ZIN A   1       1.661  -1.754   0.831  0.00  0.00    -0.023 A 
ATOM     18  C20 ZIN A   1       0.826  -2.338   1.941  0.00  0.00     0.051 C 
ATOM     19  N21 ZIN A   1       3.365  -1.394  -0.603  0.00  0.00    -0.355 N 
ATOM     20  C22 ZIN A   1       5.645  -4.638   1.500  0.00  0.00    -0.014 C 
ATOM     21  C23 ZIN A   1       5.294  -5.495   2.476  0.00  0.00     0.011 C 
ATOM     22  C24 ZIN A   1       6.237  -6.497   2.819  0.00  0.00     0.015 C 
ATOM     23  C25 ZIN A   1       7.286  -6.777   2.002  0.00  0.00     0.032 C 
ATOM     24  C30 ZIN A   1       7.481  -6.036   0.693  0.00  0.00     0.143 C 
ATOM     25  C36 ZIN A   1       7.059  -4.593   0.938  0.00  0.00     0.047 C 
ATOM     26  C37 ZIN A   1       8.018  -3.905   1.915  0.00  0.00     0.029 C 
ATOM     27  C38 ZIN A   1       8.697  -2.886  -3.541  0.00  0.00    -0.025 A 
ATOM     28  C39 ZIN A   1       9.830  -3.863  -3.719  0.00  0.00     0.051 C 
ATOM     29  C40 ZIN A   1       8.348  -1.889  -4.385  0.00  0.00    -0.021 A 
ATOM     30  C47 ZIN A   1       4.734   1.568  -4.355  0.00  0.00    -0.023 A 
ATOM     31  C53 ZIN A   1       3.566   1.728  -3.674  0.00  0.00    -0.027 A 
ATOM     32  C54 ZIN A   1       2.550   2.816  -3.904  0.00  0.00     0.051 C 
ATOM     33  H59 ZIN A   1       4.832  -0.829  -2.253  0.00  0.00     0.166 HD
ATOM     34  H66 ZIN A   1       4.210  -1.482  -1.071  0.00  0.00     0.166 HD
ENDROOT
BRANCH  29  35
ATOM     35  C41 ZIN A   1       9.018  -1.536  -5.688  0.00  0.00     0.051 C 
BRANCH  35  36
ATOM     36  C42 ZIN A   1       8.281  -2.220  -6.842  0.00  0.00     0.116 C 
BRANCH  36  37
ATOM     37  C43 ZIN A   1       8.951  -1.867  -8.145  0.00  0.00     0.258 C 
ATOM     38  O44 ZIN A   1       9.918  -1.143  -8.150  0.00  0.00    -0.265 OA
BRANCH  37  39
ATOM     39  O45 ZIN A   1       8.473  -2.358  -9.300  0.00  0.00    -0.326 OA
ATOM     40  C46 ZIN A   1       9.168  -1.976 -10.516  0.00  0.00     0.213 C 
ENDBRANCH  37  39
ENDBRANCH  36  37
ENDBRANCH  35  36
ENDBRANCH  29  35
BRANCH  30  41
ATOM     41  C48 ZIN A   1       5.243   2.455  -5.462  0.00  0.00     0.052 C 
BRANCH  41  42
ATOM     42  C49 ZIN A   1       6.194   3.503  -4.880  0.00  0.00     0.118 C 
BRANCH  42  43
ATOM     43  C50 ZIN A   1       6.702   4.391  -5.987  0.00  0.00     0.172 C 
ATOM     44  O51 ZIN A   1       6.338   4.202  -7.135  0.00  0.00    -0.648 OA
ATOM     45  O52 ZIN A   1       7.478   5.297  -5.734  0.00  0.00    -0.648 OA
ENDBRANCH  42  43
ENDBRANCH  41  42
ENDBRANCH  30  41
BRANCH  24  46
ATOM     46  C32 ZIN A   1       6.621  -6.650  -0.381  0.00  0.00     0.268 C 
ATOM     47  O33 ZIN A   1       5.782  -5.983  -0.938  0.00  0.00    -0.264 OA
BRANCH  46  48
ATOM     48  O34 ZIN A   1       6.788  -7.939  -0.720  0.00  0.00    -0.326 OA
ATOM     49  C35 ZIN A   1       5.925  -8.463  -1.762  0.00  0.00     0.213 C 
ENDBRANCH  46  48
ENDBRANCH  24  46
BRANCH  23  50
ATOM     50  C26 ZIN A   1       8.212  -7.779   2.378  0.00  0.00     0.289 C 
ATOM     51  O27 ZIN A   1       8.065  -8.380   3.426  0.00  0.00    -0.260 OA
BRANCH  50  52
ATOM     52  O28 ZIN A   1       9.258  -8.067   1.575  0.00  0.00    -0.323 OA
ATOM     53  C29 ZIN A   1      10.153  -9.089   2.018  0.00  0.00     0.213 C 
ENDBRANCH  50  52
ENDBRANCH  23  50
BRANCH   1  54
ATOM     54  C2  ZIN A   1       0.002  -0.004   0.002  0.00  0.00     0.004 C 
ATOM     55  C1  ZIN A   1      -0.016   1.324   0.009  0.00  0.00     0.012 C 
ENDBRANCH   1  54
TORSDOF 12
