REMARK  6 active torsions:
REMARK  status: ('A' for Active; 'I' for Inactive)
REMARK    1  A    between atoms: C2_2  and  O4_3 
REMARK    2  A    between atoms: C2_2  and  C25_24 
REMARK    3  A    between atoms: O4_3  and  C5_4 
REMARK    4  A    between atoms: C7_6  and  C8_7 
REMARK    5  A    between atoms: N10_9  and  C11_10 
REMARK    6  A    between atoms: C23_22  and  N24_23 
ROOT
ATOM      1  C5  ZIN A   1       2.015  -0.764   1.015  0.00  0.00     0.116 A 
ATOM      2  C6  ZIN A   1       2.665  -0.494  -0.177  0.00  0.00     0.054 A 
ATOM      3  C7  ZIN A   1       4.025  -0.806  -0.279  0.00  0.00    -0.003 A 
ATOM      4  C21 ZIN A   1       4.673  -1.372   0.814  0.00  0.00     0.131 A 
ATOM      5  N22 ZIN A   1       4.020  -1.615   1.934  0.00  0.00    -0.240 NA
ATOM      6  C23 ZIN A   1       2.736  -1.329   2.069  0.00  0.00     0.154 A 
ENDROOT
BRANCH   3   7
ATOM      7  C8  ZIN A   1       4.767  -0.535  -1.536  0.00  0.00     0.012 A 
ATOM      8  C20 ZIN A   1       4.236   0.031  -2.711  0.00  0.00     0.152 A 
ATOM      9  N19 ZIN A   1       5.196   0.113  -3.593  0.00  0.00    -0.184 NA
ATOM     10  N10 ZIN A   1       6.367  -0.404  -3.025  0.00  0.00    -0.276 N 
ATOM     11  C9  ZIN A   1       6.087  -0.796  -1.765  0.00  0.00     0.126 A 
BRANCH  10  12
ATOM     12  C11 ZIN A   1       7.672  -0.501  -3.684  0.00  0.00     0.112 C 
ATOM     13  C18 ZIN A   1       7.833  -1.897  -4.295  0.00  0.00     0.055 C 
ATOM     14  C17 ZIN A   1       9.228  -2.018  -4.913  0.00  0.00     0.234 C 
ATOM     15  N14 ZIN A   1      10.246  -1.816  -3.876  0.00  0.00    -0.075 N 
ATOM     16  C13 ZIN A   1      10.143  -0.455  -3.336  0.00  0.00     0.234 C 
ATOM     17  H15 ZIN A   1      11.163  -1.950  -4.275  0.00  0.00     0.277 HD
ATOM     18  H16 ZIN A   1      10.103  -2.483  -3.132  0.00  0.00     0.277 HD
ATOM     19  C12 ZIN A   1       8.784  -0.273  -2.657  0.00  0.00     0.055 C 
ENDBRANCH  10  12
ENDBRANCH   3   7
BRANCH   1  20
ATOM     20  O4  ZIN A   1       0.693  -0.477   1.160  0.00  0.00    -0.338 OA
BRANCH  20  21
ATOM     21  C2  ZIN A   1       0.001  -0.007   0.002  0.00  0.00     0.161 C 
ATOM     22  C1  ZIN A   1       0.186   1.507  -0.123  0.00  0.00     0.045 C 
BRANCH  21  23
ATOM     23  C25 ZIN A   1      -1.467  -0.324   0.130  0.00  0.00     0.017 A 
ATOM     24  C32 ZIN A   1      -2.156  -0.857  -0.944  0.00  0.00     0.083 A 
ATOM     25  C30 ZIN A   1      -3.504  -1.153  -0.824  0.00  0.00     0.138 A 
ATOM     26 Cl33 ZIN A   1      -1.329  -1.167  -2.439  0.00  0.00    -0.080 Cl
ATOM     27  C29 ZIN A   1      -4.162  -0.904   0.368  0.00  0.00     0.046 A 
ATOM     28  F31 ZIN A   1      -4.177  -1.678  -1.871  0.00  0.00    -0.204 F 
ATOM     29  C28 ZIN A   1      -3.474  -0.367   1.439  0.00  0.00     0.028 A 
ATOM     30  C26 ZIN A   1      -2.126  -0.077   1.321  0.00  0.00     0.044 A 
ATOM     31 Cl27 ZIN A   1      -1.262   0.598   2.667  0.00  0.00    -0.084 Cl
ENDBRANCH  21  23
ENDBRANCH  20  21
ENDBRANCH   1  20
BRANCH   6  32
ATOM     32  N24 ZIN A   1       2.092  -1.605   3.273  0.00  0.00    -0.382 N 
ATOM     33  H50 ZIN A   1       2.585  -2.005   4.006  0.00  0.00     0.157 HD
ATOM     34  H51 ZIN A   1       1.150  -1.397   3.378  0.00  0.00     0.157 HD
ENDBRANCH   6  32
TORSDOF 6
