REMARK  6 active torsions:
REMARK  status: ('A' for Active; 'I' for Inactive)
REMARK    1  A    between atoms: N2_2  and  C4_4 
REMARK    2  A    between atoms: N2_2  and  C13_13 
REMARK    3  A    between atoms: C4_4  and  C5_5 
REMARK    4  A    between atoms: C6_6  and  C7_7 
REMARK    5  A    between atoms: C8_8  and  C9_9 
REMARK    6  A    between atoms: C13_13  and  C14_14 
ROOT
ATOM      1  C1  ZIN A   1       0.277   1.549  -0.016  0.00  0.00     0.270 C 
ATOM      2  N2  ZIN A   1       0.074   0.094  -0.008  0.00  0.00    -0.068 N 
ATOM      3  H3  ZIN A   1      -0.911  -0.108   0.080  0.00  0.00     0.280 HD
ENDROOT
BRANCH   2   4
ATOM      4  C4  ZIN A   1       0.797  -0.495   1.128  0.00  0.00     0.262 C 
BRANCH   4   5
ATOM      5  C5  ZIN A   1       0.194  -0.000   2.417  0.00  0.00     0.009 C 
ATOM      6  C6  ZIN A   1      -0.230  -0.869   3.329  0.00  0.00     0.062 C 
BRANCH   6   7
ATOM      7  C7  ZIN A   1      -0.803  -0.400   4.554  0.00  0.00    -0.078 C 
ATOM      8  C8  ZIN A   1      -1.273  -0.014   5.559  0.00  0.00    -0.093 C 
BRANCH   8   9
ATOM      9  C9  ZIN A   1      -1.861   0.469   6.819  0.00  0.00     0.013 C 
ATOM     10  C10 ZIN A   1      -2.264  -0.727   7.685  0.00  0.00     0.028 C 
ATOM     11  C11 ZIN A   1      -0.834   1.319   7.569  0.00  0.00     0.028 C 
ATOM     12  C12 ZIN A   1      -3.098   1.316   6.512  0.00  0.00     0.028 C 
ENDBRANCH   8   9
ENDBRANCH   6   7
ENDBRANCH   4   5
ENDBRANCH   2   4
BRANCH   2  13
ATOM     13  C13 ZIN A   1       0.582  -0.479  -1.261  0.00  0.00     0.274 C 
BRANCH  13  14
ATOM     14  C14 ZIN A   1      -0.251   0.018  -2.415  0.00  0.00    -0.021 A 
ATOM     15  C23 ZIN A   1       0.241   0.971  -3.253  0.00  0.00     0.010 A 
ATOM     16  C22 ZIN A   1      -0.512   1.439  -4.328  0.00  0.00     0.002 A 
ATOM     17  C21 ZIN A   1      -1.766   0.965  -4.565  0.00  0.00     0.012 A 
ATOM     18  C20 ZIN A   1      -2.310  -0.014  -3.717  0.00  0.00    -0.025 A 
ATOM     19  C15 ZIN A   1      -1.542  -0.494  -2.627  0.00  0.00    -0.018 A 
ATOM     20  C19 ZIN A   1      -3.601  -0.528  -3.929  0.00  0.00     0.012 A 
ATOM     21  C16 ZIN A   1      -2.086  -1.474  -1.778  0.00  0.00     0.013 A 
ATOM     22  C17 ZIN A   1      -3.340  -1.947  -2.014  0.00  0.00     0.001 A 
ATOM     23  C18 ZIN A   1      -4.095  -1.476  -3.087  0.00  0.00     0.001 A 
ENDBRANCH  13  14
ENDBRANCH   2  13
TORSDOF 6
