REMARK  9 active torsions:
REMARK  status: ('A' for Active; 'I' for Inactive)
REMARK    1  A    between atoms: C2_2  and  C3_3 
REMARK    2  A    between atoms: C2_2  and  N18_18 
REMARK    3  A    between atoms: C3_3  and  C4_4 
REMARK    4  A    between atoms: C4_4  and  S5_5 
REMARK    5  A    between atoms: S5_5  and  C6_6 
REMARK    6  A    between atoms: C6_6  and  C7_7 
REMARK    7  A    between atoms: C10_10  and  N11_11 
REMARK       I    between atoms: N11_11  and  C12_12 
REMARK       I    between atoms: C12_12  and  N13_13 
REMARK    8  A    between atoms: N18_18  and  S19_19 
REMARK    9  A    between atoms: S19_19  and  N20_20 
ROOT
ATOM      1  C6  ZIN A   1      -8.519   3.847   0.659  0.00  0.00     0.133 C 
ENDROOT
BRANCH   1   2
ATOM      2  S5  ZIN A   1      -6.781   3.733   0.151  0.00  0.00    -0.163 SA
BRANCH   2   3
ATOM      3  C4  ZIN A   1      -6.181   5.432   0.364  0.00  0.00     0.082 C 
BRANCH   3   4
ATOM      4  C3  ZIN A   1      -4.705   5.505  -0.029  0.00  0.00     0.089 C 
BRANCH   4   5
ATOM      5  C2  ZIN A   1      -4.207   6.916   0.147  0.00  0.00     0.107 C 
ATOM      6  N1  ZIN A   1      -5.008   7.836   0.576  0.00  0.00    -0.287 NA
ATOM      7  H23 ZIN A   1      -4.688   8.744   0.689  0.00  0.00     0.188 HD
BRANCH   5   8
ATOM      8  N18 ZIN A   1      -2.904   7.224  -0.145  0.00  0.00    -0.256 N 
ATOM      9  H34 ZIN A   1      -2.303   6.534  -0.466  0.00  0.00     0.181 HD
BRANCH   8  10
ATOM     10  S19 ZIN A   1      -2.357   8.775   0.049  0.00  0.00     0.318 S 
ATOM     11  O21 ZIN A   1      -0.979   8.761  -0.299  0.00  0.00    -0.183 OA
ATOM     12  O22 ZIN A   1      -3.309   9.619  -0.582  0.00  0.00    -0.183 OA
BRANCH  10  13
ATOM     13  N20 ZIN A   1      -2.426   9.120   1.667  0.00  0.00    -0.311 N 
ATOM     14  H35 ZIN A   1      -1.793   9.743   2.058  0.00  0.00     0.170 HD
ATOM     15  H36 ZIN A   1      -3.099   8.699   2.225  0.00  0.00     0.170 HD
ENDBRANCH  10  13
ENDBRANCH   8  10
ENDBRANCH   5   8
ENDBRANCH   4   5
ENDBRANCH   3   4
ENDBRANCH   2   3
ENDBRANCH   1   2
BRANCH   1  16
ATOM     16  C7  ZIN A   1      -9.168   2.493   0.537  0.00  0.00     0.053 A 
ATOM     17  N17 ZIN A   1      -9.185   1.617   1.525  0.00  0.00    -0.227 NA
ATOM     18  C10 ZIN A   1      -9.778   0.488   1.298  0.00  0.00     0.185 A 
ATOM     19  S9  ZIN A   1     -10.387   0.454  -0.299  0.00  0.00    -0.061 SA
ATOM     20  C8  ZIN A   1      -9.768   2.079  -0.581  0.00  0.00     0.081 A 
BRANCH  18  21
ATOM     21  N11 ZIN A   1      -9.897  -0.548   2.217  0.00  0.00    -0.169 N 
ATOM     22  C12 ZIN A   1     -10.560  -1.697   1.873  0.00  0.00     0.671 C 
ATOM     23  N13 ZIN A   1     -10.974  -1.878   0.620  0.00  0.00    -0.235 N 
ATOM     24  N14 ZIN A   1     -10.791  -2.633   2.792  0.00  0.00    -0.235 N 
ATOM     25  H32 ZIN A   1     -10.356  -1.754  -0.117  0.00  0.00     0.174 HD
ATOM     26  H33 ZIN A   1     -11.893  -2.132   0.445  0.00  0.00     0.174 HD
ATOM     27  H15 ZIN A   1     -11.260  -3.447   2.548  0.00  0.00     0.174 HD
ATOM     28  H16 ZIN A   1     -10.490  -2.502   3.704  0.00  0.00     0.174 HD
ATOM     29  H31 ZIN A   1      -9.510  -0.458   3.102  0.00  0.00     0.186 HD
ENDBRANCH  18  21
ENDBRANCH   1  16
TORSDOF 9
