REMARK  6 active torsions:
REMARK  status: ('A' for Active; 'I' for Inactive)
REMARK    1  A    between atoms: C2_2  and  C4_4 
REMARK    2  A    between atoms: C4_4  and  C5_5 
REMARK    3  A    between atoms: C15_13  and  O16_14 
REMARK    4  A    between atoms: C18_16  and  N19_17 
REMARK    5  A    between atoms: C18_16  and  C42_38 
REMARK       I    between atoms: N19_17  and  C20_18 
REMARK    6  A    between atoms: C20_18  and  C22_20 
ROOT
ATOM      1  C5  ZIN A   1       0.364   0.279   3.206  0.00  0.00     0.185 C 
ATOM      2  C7  ZIN A   1       1.101   0.173   4.515  0.00  0.00     0.243 C 
ATOM      3  O8  ZIN A   1       1.204  -0.909   5.054  0.00  0.00    -0.271 OA
ATOM      4  N9  ZIN A   1       1.645   1.252   5.093  0.00  0.00    -0.338 N 
ATOM      5  C10 ZIN A   1       2.571   1.241   6.241  0.00  0.00     0.127 C 
ATOM      6  C11 ZIN A   1       3.430   2.517   6.137  0.00  0.00     0.022 C 
ATOM      7  C12 ZIN A   1       2.903   3.254   4.882  0.00  0.00     0.034 C 
ATOM      8  C13 ZIN A   1       1.487   2.661   4.709  0.00  0.00     0.173 C 
ATOM      9  C15 ZIN A   1       1.014   2.818   3.277  0.00  0.00     0.276 C 
ATOM     10  O17 ZIN A   1       0.251   4.026   3.125  0.00  0.00    -0.295 OA
ATOM     11  C18 ZIN A   1      -0.711   3.710   2.100  0.00  0.00     0.227 C 
ATOM     12  C45 ZIN A   1      -0.903   2.211   2.189  0.00  0.00     0.281 C 
ATOM     13  O46 ZIN A   1      -1.828   1.577   1.727  0.00  0.00    -0.268 OA
ATOM     14  N47 ZIN A   1       0.152   1.692   2.882  0.00  0.00    -0.277 N 
ENDROOT
BRANCH  11  15
ATOM     15  N19 ZIN A   1      -0.188   4.078   0.781  0.00  0.00    -0.320 N 
ATOM     16  C20 ZIN A   1       0.396   5.279   0.599  0.00  0.00     0.229 C 
ATOM     17  O21 ZIN A   1       0.585   6.011   1.548  0.00  0.00    -0.273 OA
ATOM     18  H64 ZIN A   1      -0.263   3.458   0.040  0.00  0.00     0.166 HD
BRANCH  16  19
ATOM     19  C22 ZIN A   1       0.813   5.712  -0.782  0.00  0.00     0.129 C 
ATOM     20  C41 ZIN A   1       1.459   7.101  -0.715  0.00  0.00     0.290 C 
ATOM     21  N39 ZIN A   1       1.944   7.452  -2.053  0.00  0.00     0.094 N 
ATOM     22  C37 ZIN A   1       3.014   6.578  -2.518  0.00  0.00     0.260 C 
ATOM     23  C40 ZIN A   1       2.353   8.861  -2.111  0.00  0.00     0.310 C 
ATOM     24  C25 ZIN A   1       2.814   5.141  -2.113  0.00  0.00    -0.017 C 
ATOM     25  C36 ZIN A   1       3.214   6.765  -4.028  0.00  0.00     0.083 C 
ATOM     26  C24 ZIN A   1       1.824   4.744  -1.333  0.00  0.00    -0.001 C 
ATOM     27  C26 ZIN A   1       3.781   4.145  -2.614  0.00  0.00    -0.015 A 
ATOM     28  C31 ZIN A   1       4.130   2.914  -2.107  0.00  0.00     0.013 A 
ATOM     29  C27 ZIN A   1       4.446   4.529  -3.797  0.00  0.00     0.011 A 
ATOM     30  C30 ZIN A   1       5.091   2.146  -2.760  0.00  0.00     0.003 A 
ATOM     31  C29 ZIN A   1       5.749   2.536  -3.921  0.00  0.00     0.030 A 
ATOM     32  C28 ZIN A   1       5.418   3.776  -4.463  0.00  0.00     0.044 A 
ATOM     33  N32 ZIN A   1       5.790   4.536  -5.532  0.00  0.00    -0.349 N 
ATOM     34  C33 ZIN A   1       5.075   5.723  -5.554  0.00  0.00     0.087 A 
ATOM     35  H69 ZIN A   1       6.460   4.281  -6.186  0.00  0.00     0.166 HD
ATOM     36 Br34 ZIN A   1       5.264   7.075  -6.862  0.00  0.00    -0.031 Br
ATOM     37  C35 ZIN A   1       4.236   5.776  -4.523  0.00  0.00    -0.008 A 
ENDBRANCH  16  19
ENDBRANCH  11  15
BRANCH  11  38
ATOM     38  C42 ZIN A   1      -2.031   4.434   2.368  0.00  0.00     0.043 C 
ATOM     39  C43 ZIN A   1      -1.769   5.934   2.520  0.00  0.00     0.015 C 
ATOM     40  C44 ZIN A   1      -2.989   4.199   1.198  0.00  0.00     0.015 C 
ENDBRANCH  11  38
BRANCH   9  41
ATOM     41  O16 ZIN A   1       2.144   2.878   2.405  0.00  0.00    -0.347 OA
ATOM     42  H63 ZIN A   1       1.915   2.979   1.471  0.00  0.00     0.215 HD
ENDBRANCH   9  41
BRANCH   1  43
ATOM     43  C4  ZIN A   1       1.190  -0.380   2.100  0.00  0.00     0.039 C 
BRANCH  43  44
ATOM     44  C2  ZIN A   1       1.286  -1.884   2.363  0.00  0.00    -0.020 C 
ATOM     45  C1  ZIN A   1      -0.109  -2.507   2.279  0.00  0.00     0.009 C 
ATOM     46  C3  ZIN A   1       2.195  -2.528   1.314  0.00  0.00     0.009 C 
ENDBRANCH  43  44
ENDBRANCH   1  43
TORSDOF 6
