REMARK  4 active torsions:
REMARK  status: ('A' for Active; 'I' for Inactive)
REMARK    1  A    between atoms: N1_1  and  C2_2 
REMARK    2  A    between atoms: C5_5  and  S6_6 
REMARK    3  A    between atoms: S6_6  and  N9_9 
REMARK    4  A    between atoms: N9_9  and  C10_10 
ROOT
ATOM      1  S6  ZIN A   1       0.064  -4.533  -0.024  0.00  0.00     0.298 S 
ATOM      2  O7  ZIN A   1       1.321  -4.920   0.512  0.00  0.00    -0.198 OA
ATOM      3  O8  ZIN A   1      -1.178  -4.954   0.524  0.00  0.00    -0.198 OA
ENDROOT
BRANCH   1   4
ATOM      4  C5  ZIN A   1       0.040  -2.771  -0.014  0.00  0.00     0.082 A 
ATOM      5  C4  ZIN A   1      -1.168  -2.097  -0.004  0.00  0.00     0.027 A 
ATOM      6  C3  ZIN A   1      -1.190  -0.716   0.004  0.00  0.00     0.030 A 
ATOM      7  C2  ZIN A   1       0.002  -0.004   0.002  0.00  0.00     0.025 A 
ATOM      8  C17 ZIN A   1       1.214  -0.684  -0.013  0.00  0.00     0.030 A 
ATOM      9  C16 ZIN A   1       1.229  -2.065  -0.015  0.00  0.00     0.027 A 
BRANCH   7  10
ATOM     10  N1  ZIN A   1      -0.017   1.393   0.010  0.00  0.00    -0.399 N 
ATOM     11  H18 ZIN A   1       0.817   1.889   0.004  0.00  0.00     0.156 HD
ATOM     12  H19 ZIN A   1      -0.863   1.866   0.016  0.00  0.00     0.156 HD
ENDBRANCH   7  10
ENDBRANCH   1   4
BRANCH   1  13
ATOM     13  N9  ZIN A   1       0.063  -5.014  -1.609  0.00  0.00     0.034 NA
BRANCH  13  14
ATOM     14  C10 ZIN A   1       0.080  -6.361  -1.923  0.00  0.00     0.759 A 
ATOM     15  N15 ZIN A   1       0.079  -6.729  -3.196  0.00  0.00    -0.073 NA
ATOM     16  C14 ZIN A   1       0.100  -8.009  -3.530  0.00  0.00     0.138 A 
ATOM     17  C13 ZIN A   1       0.112  -8.969  -2.530  0.00  0.00     0.040 A 
ATOM     18  C12 ZIN A   1       0.107  -8.549  -1.209  0.00  0.00     0.138 A 
ATOM     19  N11 ZIN A   1       0.091  -7.254  -0.943  0.00  0.00    -0.073 NA
ENDBRANCH  13  14
ENDBRANCH   1  13
TORSDOF 4
