REMARK  9 active torsions:
REMARK  status: ('A' for Active; 'I' for Inactive)
REMARK    1  A    between atoms: O2_2  and  C3_3 
REMARK    2  A    between atoms: C17_16  and  O18_17 
REMARK    3  A    between atoms: C31_29  and  O33_30 
REMARK    4  A    between atoms: C37_33  and  O39_34 
REMARK    5  A    between atoms: C43_37  and  O45_38 
REMARK    6  A    between atoms: O45_38  and  C46_39 
REMARK    7  A    between atoms: C52_44  and  C53_45 
REMARK    8  A    between atoms: N54_46  and  N55_47 
REMARK    9  A    between atoms: C62_54  and  O63_55 
ROOT
ATOM      1  C3  ZIN A   1       0.787  -1.173   1.267  0.00  0.00     0.151 C 
ATOM      2  C5  ZIN A   1      -0.443  -1.650   1.998  0.00  0.00     0.029 C 
ATOM      3  C6  ZIN A   1      -1.649  -1.221   1.675  0.00  0.00     0.137 C 
ATOM      4  O7  ZIN A   1      -2.731  -1.630   2.393  0.00  0.00    -0.319 OA
ATOM      5  C8  ZIN A   1      -2.898  -2.995   2.687  0.00  0.00     0.237 C 
ATOM      6  C9  ZIN A   1      -2.338  -3.347   4.070  0.00  0.00     0.089 C 
ATOM      7  O10 ZIN A   1      -4.275  -3.447   2.650  0.00  0.00    -0.305 OA
ATOM      8  C11 ZIN A   1      -4.172  -4.805   2.495  0.00  0.00     0.097 C 
ATOM      9  C12 ZIN A   1      -5.037  -5.828   2.873  0.00  0.00     0.010 C 
ATOM     10  C13 ZIN A   1      -6.364  -5.481   3.493  0.00  0.00     0.054 C 
ATOM     11  C14 ZIN A   1      -4.704  -7.161   2.719  0.00  0.00     0.130 C 
ATOM     12  O15 ZIN A   1      -5.586  -8.099   3.143  0.00  0.00    -0.190 OA
ATOM     13  C16 ZIN A   1      -3.492  -7.554   2.114  0.00  0.00     0.051 C 
ATOM     14  C17 ZIN A   1      -3.019  -8.887   2.120  0.00  0.00     0.107 C 
ATOM     15  C19 ZIN A   1      -1.878  -9.234   1.426  0.00  0.00     0.084 C 
ATOM     16  N20 ZIN A   1      -1.303 -10.499   1.489  0.00  0.00    -0.320 N 
ATOM     17  C21 ZIN A   1      -0.035 -10.700   1.792  0.00  0.00     0.251 C 
ATOM     18  O22 ZIN A   1       0.310 -10.456   2.932  0.00  0.00    -0.268 OA
ATOM     19  C23 ZIN A   1       1.037 -11.157   0.944  0.00  0.00     0.006 C 
ATOM     20  C24 ZIN A   1       0.740 -11.918  -0.327  0.00  0.00     0.054 C 
ATOM     21  C25 ZIN A   1       2.333 -10.914   1.243  0.00  0.00     0.012 C 
ATOM     22  C26 ZIN A   1       2.823 -10.370   2.486  0.00  0.00    -0.003 C 
ATOM     23  C27 ZIN A   1       3.545  -9.285   2.656  0.00  0.00    -0.020 C 
ATOM     24  C28 ZIN A   1       3.950  -8.353   1.540  0.00  0.00     0.033 C 
ATOM     25  C30 ZIN A   1       5.406  -8.649   1.157  0.00  0.00     0.017 C 
ATOM     26  C31 ZIN A   1       3.845  -6.921   2.064  0.00  0.00     0.131 C 
ATOM     27  C34 ZIN A   1       3.664  -5.883   0.949  0.00  0.00     0.040 C 
ATOM     28  C36 ZIN A   1       2.415  -6.238   0.134  0.00  0.00     0.015 C 
ATOM     29  C37 ZIN A   1       3.465  -4.510   1.597  0.00  0.00     0.130 C 
ATOM     30  C40 ZIN A   1       3.966  -3.345   0.768  0.00  0.00     0.041 C 
ATOM     31  C42 ZIN A   1       4.226  -3.676  -0.697  0.00  0.00     0.015 C 
ATOM     32  C43 ZIN A   1       3.080  -2.110   0.900  0.00  0.00     0.144 C 
ATOM     33  C49 ZIN A   1       1.590  -2.392   0.775  0.00  0.00     0.044 C 
ATOM     34  C51 ZIN A   1       1.210  -2.618  -0.695  0.00  0.00     0.015 C 
ATOM     35  C52 ZIN A   1      -1.278  -8.260   0.582  0.00  0.00     0.047 C 
ATOM     36  C62 ZIN A   1      -1.630  -6.918   0.704  0.00  0.00     0.092 C 
ATOM     37  C64 ZIN A   1      -2.693  -6.536   1.523  0.00  0.00     0.031 C 
ATOM     38  C65 ZIN A   1      -2.966  -5.131   1.840  0.00  0.00     0.064 C 
ATOM     39  C66 ZIN A   1      -2.261  -3.913   1.644  0.00  0.00     0.225 C 
ATOM     40  O67 ZIN A   1      -1.394  -3.666   0.844  0.00  0.00    -0.286 OA
ATOM     41  H80 ZIN A   1      -1.872 -11.276   1.294  0.00  0.00     0.169 HD
ENDROOT
BRANCH  35  42
ATOM     42  C53 ZIN A   1      -0.284  -8.633  -0.435  0.00  0.00     0.155 C 
ATOM     43  N54 ZIN A   1       0.307  -7.712  -1.134  0.00  0.00    -0.189 NA
BRANCH  43  44
ATOM     44  N55 ZIN A   1       1.160  -8.069  -2.186  0.00  0.00    -0.302 N 
ATOM     45  C61 ZIN A   1       0.895  -7.616  -3.560  0.00  0.00     0.174 C 
ATOM     46  C60 ZIN A   1       0.932  -8.826  -4.492  0.00  0.00     0.293 C 
ATOM     47  N58 ZIN A   1       2.199  -9.546  -4.309  0.00  0.00     0.087 N 
ATOM     48  C57 ZIN A   1       2.318 -10.076  -2.944  0.00  0.00     0.293 C 
ATOM     49  C59 ZIN A   1       2.346 -10.616  -5.304  0.00  0.00     0.310 C 
ATOM     50  C56 ZIN A   1       2.341  -8.913  -1.947  0.00  0.00     0.174 C 
ENDBRANCH  43  44
ENDBRANCH  35  42
BRANCH  36  51
ATOM     51  O63 ZIN A   1      -0.974  -5.996  -0.047  0.00  0.00    -0.359 OA
ATOM     52 6H11 ZIN A   1      -1.382  -5.828  -0.908  0.00  0.00     0.217 HD
ENDBRANCH  36  51
BRANCH  14  53
ATOM     53  O18 ZIN A   1      -3.703  -9.842   2.803  0.00  0.00    -0.357 OA
ATOM     54  H79 ZIN A   1      -4.380 -10.292   2.279  0.00  0.00     0.217 HD
ENDBRANCH  14  53
BRANCH  26  55
ATOM     55  O33 ZIN A   1       2.745  -6.830   2.975  0.00  0.00    -0.394 OA
ATOM     56  H90 ZIN A   1       2.821  -7.411   3.744  0.00  0.00     0.210 HD
ENDBRANCH  26  55
BRANCH   1  57
ATOM     57  O2  ZIN A   1       0.403  -0.388   0.137  0.00  0.00    -0.386 OA
ATOM     58  C1  ZIN A   1       0.264   1.006   0.417  0.00  0.00     0.202 C 
ENDBRANCH   1  57
BRANCH  29  59
ATOM     59  O39 ZIN A   1       4.163  -4.492   2.861  0.00  0.00    -0.395 OA
ATOM     60  H94 ZIN A   1       3.855  -5.159   3.490  0.00  0.00     0.210 HD
ENDBRANCH  29  59
BRANCH  32  61
ATOM     61  O45 ZIN A   1       3.344  -1.498   2.200  0.00  0.00    -0.315 OA
BRANCH  61  62
ATOM     62  C46 ZIN A   1       4.299  -0.556   2.248  0.00  0.00     0.255 C 
ATOM     63  C47 ZIN A   1       4.627   0.120   3.554  0.00  0.00     0.126 C 
ATOM     64  O48 ZIN A   1       4.897  -0.250   1.243  0.00  0.00    -0.266 OA
ENDBRANCH  61  62
ENDBRANCH  32  61
TORSDOF 9
