REMARK  15 active torsions:
REMARK  status: ('A' for Active; 'I' for Inactive)
REMARK    1  A    between atoms: C2_2  and  C3_3 
REMARK    2  A    between atoms: C3_3  and  C4_4 
REMARK    3  A    between atoms: C4_4  and  C5_5 
REMARK    4  A    between atoms: C5_5  and  C6_6 
REMARK    5  A    between atoms: C6_6  and  C7_7 
REMARK    6  A    between atoms: C7_7  and  N8_8 
REMARK    7  A    between atoms: N8_8  and  C10_10 
REMARK    8  A    between atoms: N8_8  and  C12_12 
REMARK    9  A    between atoms: C12_12  and  C13_13 
REMARK   10  A    between atoms: C13_13  and  C14_14 
REMARK   11  A    between atoms: C14_14  and  C15_15 
REMARK   12  A    between atoms: C15_15  and  O17_16 
REMARK   13  A    between atoms: C15_15  and  C18_17 
REMARK   14  A    between atoms: C21_20  and  N22_21 
REMARK   15  A    between atoms: N22_21  and  S23_22 
ROOT
ATOM      1  C15 ZIN A   1      -6.728  -9.884   0.094  0.00  0.00     0.151 C 
ENDROOT
BRANCH   1   2
ATOM      2  C14 ZIN A   1      -6.705  -8.387  -0.218  0.00  0.00     0.038 C 
BRANCH   2   3
ATOM      3  C13 ZIN A   1      -5.256  -7.919  -0.369  0.00  0.00     0.030 C 
BRANCH   3   4
ATOM      4  C12 ZIN A   1      -5.233  -6.421  -0.681  0.00  0.00     0.235 C 
BRANCH   4   5
ATOM      5  N8  ZIN A   1      -3.842  -5.973  -0.826  0.00  0.00    -0.071 N 
ATOM      6  H9  ZIN A   1      -3.321  -6.219   0.003  0.00  0.00     0.279 HD
BRANCH   5   7
ATOM      7  C7  ZIN A   1      -3.814  -4.515  -1.007  0.00  0.00     0.234 C 
BRANCH   7   8
ATOM      8  C6  ZIN A   1      -4.311  -3.833   0.270  0.00  0.00     0.028 C 
BRANCH   8   9
ATOM      9  C5  ZIN A   1      -4.157  -2.317   0.131  0.00  0.00     0.002 C 
BRANCH   9  10
ATOM     10  C4  ZIN A   1      -4.654  -1.635   1.407  0.00  0.00     0.000 C 
BRANCH  10  11
ATOM     11  C3  ZIN A   1      -4.501  -0.119   1.268  0.00  0.00    -0.000 C 
BRANCH  11  12
ATOM     12  C2  ZIN A   1      -4.997   0.562   2.545  0.00  0.00    -0.005 C 
ATOM     13  C1  ZIN A   1      -4.844   2.079   2.406  0.00  0.00     0.005 C 
ENDBRANCH  11  12
ENDBRANCH  10  11
ENDBRANCH   9  10
ENDBRANCH   8   9
ENDBRANCH   7   8
ENDBRANCH   5   7
BRANCH   5  14
ATOM     14  C10 ZIN A   1      -3.237  -6.623  -1.996  0.00  0.00     0.230 C 
ATOM     15  C11 ZIN A   1      -1.750  -6.268  -2.065  0.00  0.00     0.034 C 
ENDBRANCH   5  14
ENDBRANCH   4   5
ENDBRANCH   3   4
ENDBRANCH   2   3
ENDBRANCH   1   2
BRANCH   1  16
ATOM     16  O17 ZIN A   1      -6.122 -10.114   1.367  0.00  0.00    -0.391 OA
ATOM     17  H55 ZIN A   1      -6.564  -9.663   2.100  0.00  0.00     0.210 HD
ENDBRANCH   1  16
BRANCH   1  18
ATOM     18  C18 ZIN A   1      -8.154 -10.370   0.121  0.00  0.00    -0.029 A 
ATOM     19  C28 ZIN A   1      -8.681 -11.026  -0.977  0.00  0.00     0.012 A 
ATOM     20  C27 ZIN A   1      -9.986 -11.478  -0.953  0.00  0.00     0.031 A 
ATOM     21  C21 ZIN A   1     -10.773 -11.262   0.171  0.00  0.00     0.042 A 
ATOM     22  C20 ZIN A   1     -10.243 -10.597   1.269  0.00  0.00     0.031 A 
ATOM     23  C19 ZIN A   1      -8.936 -10.153   1.241  0.00  0.00     0.012 A 
BRANCH  21  24
ATOM     24  N22 ZIN A   1     -12.095 -11.712   0.195  0.00  0.00    -0.285 N 
ATOM     25  H58 ZIN A   1     -12.432 -12.185   0.972  0.00  0.00     0.178 HD
BRANCH  24  26
ATOM     26  S23 ZIN A   1     -13.088 -11.437  -1.101  0.00  0.00     0.227 S 
ATOM     27  C24 ZIN A   1     -13.172  -9.630  -1.232  0.00  0.00     0.186 C 
ATOM     28  O25 ZIN A   1     -12.381 -11.984  -2.206  0.00  0.00    -0.206 OA
ATOM     29  O26 ZIN A   1     -14.344 -11.967  -0.700  0.00  0.00    -0.206 OA
ENDBRANCH  24  26
ENDBRANCH  21  24
ENDBRANCH   1  18
TORSDOF 15
