REMARK  20 active torsions:
REMARK  status: ('A' for Active; 'I' for Inactive)
REMARK    1  A    between atoms: C2_2  and  O3_3 
REMARK    2  A    between atoms: O3_3  and  C4_4 
REMARK    3  A    between atoms: C7_7  and  C8_8 
REMARK    4  A    between atoms: C8_8  and  C9_9 
REMARK    5  A    between atoms: C9_9  and  C11_10 
REMARK    6  A    between atoms: C9_9  and  N29_28 
REMARK    7  A    between atoms: C11_10  and  N12_11 
REMARK    8  A    between atoms: N12_11  and  C13_12 
REMARK    9  A    between atoms: N12_11  and  C25_24 
REMARK   10  A    between atoms: C13_12  and  C14_13 
REMARK   11  A    between atoms: C14_13  and  N15_14 
REMARK   12  A    between atoms: N15_14  and  C17_16 
REMARK   13  A    between atoms: N15_14  and  C21_20 
REMARK   14  A    between atoms: C17_16  and  C18_17 
REMARK   15  A    between atoms: C21_20  and  C22_21 
REMARK   16  A    between atoms: C25_24  and  C26_25 
REMARK   17  A    between atoms: N29_28  and  C31_30 
REMARK   18  A    between atoms: N29_28  and  C35_34 
REMARK   19  A    between atoms: C31_30  and  C32_31 
REMARK   20  A    between atoms: C35_34  and  C36_35 
ROOT
ATOM      1  C9  ZIN A   1      -0.605  -7.396   0.340  0.00  0.00     0.222 C 
ENDROOT
BRANCH   1   2
ATOM      2  C8  ZIN A   1       0.449  -7.503  -0.764  0.00  0.00     0.073 C 
BRANCH   2   3
ATOM      3  C7  ZIN A   1       0.537  -6.193  -1.503  0.00  0.00    -0.056 A 
ATOM      4  C6  ZIN A   1       1.436  -5.227  -1.091  0.00  0.00     0.010 A 
ATOM      5  C5  ZIN A   1       1.519  -4.025  -1.767  0.00  0.00     0.037 A 
ATOM      6  C4  ZIN A   1       0.699  -3.787  -2.860  0.00  0.00     0.068 A 
ATOM      7  C40 ZIN A   1      -0.206  -4.756  -3.269  0.00  0.00     0.037 A 
ATOM      8  C39 ZIN A   1      -0.282  -5.958  -2.593  0.00  0.00     0.010 A 
BRANCH   6   9
ATOM      9  O3  ZIN A   1       0.779  -2.606  -3.526  0.00  0.00    -0.352 OA
BRANCH   9  10
ATOM     10  C2  ZIN A   1       1.734  -1.655  -3.050  0.00  0.00     0.171 C 
ATOM     11  C1  ZIN A   1       1.679  -0.397  -3.919  0.00  0.00     0.034 C 
ENDBRANCH   9  10
ENDBRANCH   6   9
ENDBRANCH   2   3
ENDBRANCH   1   2
BRANCH   1  12
ATOM     12  C11 ZIN A   1      -0.699  -8.728   1.086  0.00  0.00     0.306 C 
BRANCH  12  13
ATOM     13  N12 ZIN A   1      -1.251  -9.754   0.191  0.00  0.00     0.102 N 
BRANCH  13  14
ATOM     14  C13 ZIN A   1      -1.217 -11.079   0.825  0.00  0.00     0.300 C 
BRANCH  14  15
ATOM     15  C14 ZIN A   1      -1.409 -12.159  -0.242  0.00  0.00     0.266 C 
BRANCH  15  16
ATOM     16  N15 ZIN A   1      -1.474 -13.477   0.402  0.00  0.00    -0.050 N 
ATOM     17  H16 ZIN A   1      -0.659 -13.608   0.983  0.00  0.00     0.281 HD
BRANCH  16  18
ATOM     18  C17 ZIN A   1      -2.684 -13.558   1.231  0.00  0.00     0.348 C 
BRANCH  18  19
ATOM     19  C18 ZIN A   1      -3.903 -13.438   0.352  0.00  0.00     0.199 C 
ATOM     20  O19 ZIN A   1      -3.776 -13.198  -0.836  0.00  0.00    -0.647 OA
ATOM     21  O20 ZIN A   1      -5.015 -13.581   0.831  0.00  0.00    -0.647 OA
ENDBRANCH  18  19
ENDBRANCH  16  18
BRANCH  16  22
ATOM     22  C21 ZIN A   1      -1.514 -14.524  -0.628  0.00  0.00     0.348 C 
BRANCH  22  23
ATOM     23  C22 ZIN A   1      -1.397 -15.877   0.026  0.00  0.00     0.199 C 
ATOM     24  O23 ZIN A   1      -1.322 -15.963   1.240  0.00  0.00    -0.647 OA
ATOM     25  O24 ZIN A   1      -1.375 -16.885  -0.659  0.00  0.00    -0.647 OA
ENDBRANCH  22  23
ENDBRANCH  16  22
ENDBRANCH  15  16
ENDBRANCH  14  15
ENDBRANCH  13  14
BRANCH  13  26
ATOM     26  C25 ZIN A   1      -2.615  -9.406  -0.229  0.00  0.00     0.385 C 
BRANCH  26  27
ATOM     27  C26 ZIN A   1      -3.495  -9.268   0.986  0.00  0.00     0.202 C 
ATOM     28  O27 ZIN A   1      -3.058  -9.543   2.090  0.00  0.00    -0.647 OA
ATOM     29  O28 ZIN A   1      -4.645  -8.880   0.865  0.00  0.00    -0.647 OA
ENDBRANCH  26  27
ENDBRANCH  13  26
ENDBRANCH  12  13
ENDBRANCH   1  12
BRANCH   1  30
ATOM     30  N29 ZIN A   1      -0.224  -6.333   1.279  0.00  0.00    -0.046 N 
ATOM     31  H30 ZIN A   1      -0.726  -6.454   2.146  0.00  0.00     0.281 HD
BRANCH  30  32
ATOM     32  C31 ZIN A   1       1.221  -6.403   1.537  0.00  0.00     0.348 C 
BRANCH  32  33
ATOM     33  C32 ZIN A   1       1.493  -7.445   2.592  0.00  0.00     0.199 C 
ATOM     34  O33 ZIN A   1       0.566  -7.971   3.183  0.00  0.00    -0.647 OA
ATOM     35  O34 ZIN A   1       2.641  -7.762   2.853  0.00  0.00    -0.647 OA
ENDBRANCH  32  33
ENDBRANCH  30  32
BRANCH  30  36
ATOM     36  C35 ZIN A   1      -0.555  -5.025   0.700  0.00  0.00     0.348 C 
BRANCH  36  37
ATOM     37  C36 ZIN A   1      -2.050  -4.841   0.697  0.00  0.00     0.199 C 
ATOM     38  O37 ZIN A   1      -2.768  -5.669   1.233  0.00  0.00    -0.647 OA
ATOM     39  O38 ZIN A   1      -2.543  -3.864   0.160  0.00  0.00    -0.647 OA
ENDBRANCH  36  37
ENDBRANCH  30  36
ENDBRANCH   1  30
TORSDOF 20
