REMARK  15 active torsions:
REMARK  status: ('A' for Active; 'I' for Inactive)
REMARK       I    between atoms: N1_1  and  C2_2 
REMARK       I    between atoms: C2_2  and  N4_4 
REMARK    1  A    between atoms: N4_4  and  C5_5 
REMARK    2  A    between atoms: C10_10  and  C12_11 
REMARK    3  A    between atoms: C12_11  and  N13_12 
REMARK       I    between atoms: N13_12  and  C14_13 
REMARK    4  A    between atoms: C14_13  and  C16_15 
REMARK    5  A    between atoms: C16_15  and  C17_16 
REMARK    6  A    between atoms: C17_16  and  N19_17 
REMARK    7  A    between atoms: C17_16  and  C23_21 
REMARK    8  A    between atoms: C23_21  and  C24_22 
REMARK    9  A    between atoms: C24_22  and  C25_23 
REMARK   10  A    between atoms: C25_23  and  N26_24 
REMARK   11  A    between atoms: C33_31  and  C35_32 
REMARK   12  A    between atoms: C35_32  and  O36_33 
REMARK   13  A    between atoms: C40_37  and  N42_38 
REMARK   14  A    between atoms: C47_43  and  C49_44 
REMARK   15  A    between atoms: C55_49  and  N56_50 
ROOT
ATOM      1  C5  ZIN A   1      -1.549  -2.069  -0.204  0.00  0.00     0.128 C 
ATOM      2  C6  ZIN A   1      -2.657  -2.822  -0.305  0.00  0.00     0.118 C 
ATOM      3  N7  ZIN A   1      -3.955  -2.280  -0.491  0.00  0.00    -0.320 N 
ATOM      4  C8  ZIN A   1      -4.163  -0.945  -0.543  0.00  0.00     0.246 C 
ATOM      5  O9  ZIN A   1      -3.377  -0.129  -0.102  0.00  0.00    -0.271 OA
ATOM      6  C10 ZIN A   1      -5.433  -0.436  -1.197  0.00  0.00     0.194 C 
ATOM      7  N30 ZIN A   1      -5.749  -1.262  -2.374  0.00  0.00    -0.344 N 
ATOM      8  C31 ZIN A   1      -6.325  -2.488  -2.220  0.00  0.00     0.243 C 
ATOM      9  O32 ZIN A   1      -6.627  -2.971  -1.152  0.00  0.00    -0.271 OA
ATOM     10  C33 ZIN A   1      -6.597  -3.292  -3.475  0.00  0.00     0.200 C 
ATOM     11  N37 ZIN A   1      -6.631  -4.724  -3.119  0.00  0.00    -0.344 N 
ATOM     12  C38 ZIN A   1      -5.430  -5.372  -3.075  0.00  0.00     0.253 C 
ATOM     13  O39 ZIN A   1      -4.398  -4.773  -3.288  0.00  0.00    -0.271 OA
ATOM     14  C40 ZIN A   1      -5.412  -6.845  -2.760  0.00  0.00     0.326 C 
ATOM     15  C43 ZIN A   1      -3.969  -7.355  -2.748  0.00  0.00     0.167 C 
ATOM     16  N44 ZIN A   1      -3.376  -7.066  -1.420  0.00  0.00    -0.357 N 
ATOM     17  C45 ZIN A   1      -2.043  -6.798  -1.417  0.00  0.00     0.242 C 
ATOM     18  O46 ZIN A   1      -1.410  -6.893  -2.457  0.00  0.00    -0.271 OA
ATOM     19  C47 ZIN A   1      -1.338  -6.373  -0.157  0.00  0.00     0.200 C 
ATOM     20  N58 ZIN A   1      -1.355  -4.891  -0.066  0.00  0.00    -0.340 N 
ATOM     21  C59 ZIN A   1      -2.563  -4.290  -0.235  0.00  0.00     0.270 C 
ATOM     22  O60 ZIN A   1      -3.595  -4.931  -0.326  0.00  0.00    -0.266 OA
ATOM     23  H65 ZIN A   1      -4.712  -2.902  -0.569  0.00  0.00     0.169 HD
ATOM     24  H77 ZIN A   1      -5.544  -0.932  -3.283  0.00  0.00     0.163 HD
ATOM     25  H81 ZIN A   1      -7.465  -5.183  -2.926  0.00  0.00     0.163 HD
ATOM     26  H86 ZIN A   1      -3.927  -7.076  -0.623  0.00  0.00     0.162 HD
ATOM     27  H94 ZIN A   1      -0.534  -4.392   0.112  0.00  0.00     0.163 HD
ENDROOT
BRANCH   6  28
ATOM     28  C12 ZIN A   1      -6.574  -0.374  -0.188  0.00  0.00     0.157 C 
BRANCH  28  29
ATOM     29  N13 ZIN A   1      -7.812   0.005  -0.873  0.00  0.00    -0.359 N 
ATOM     30  C14 ZIN A   1      -8.959   0.123  -0.176  0.00  0.00     0.219 C 
ATOM     31  O15 ZIN A   1      -8.966  -0.085   1.019  0.00  0.00    -0.274 OA
ATOM     32  H68 ZIN A   1      -7.806   0.172  -1.829  0.00  0.00     0.162 HD
BRANCH  30  33
ATOM     33  C16 ZIN A   1     -10.232   0.514  -0.881  0.00  0.00     0.135 C 
BRANCH  33  34
ATOM     34  C17 ZIN A   1     -11.377   0.576   0.132  0.00  0.00     0.192 C 
BRANCH  34  35
ATOM     35  N19 ZIN A   1     -11.120   1.654   1.096  0.00  0.00    -0.075 N 
ATOM     36  H20 ZIN A   1     -11.876   1.695   1.764  0.00  0.00     0.274 HD
ATOM     37  H21 ZIN A   1     -10.253   1.474   1.579  0.00  0.00     0.274 HD
ATOM     38  H22 ZIN A   1     -11.056   2.534   0.607  0.00  0.00     0.274 HD
ENDBRANCH  34  35
BRANCH  34  39
ATOM     39  C23 ZIN A   1     -12.692   0.850  -0.601  0.00  0.00     0.034 C 
BRANCH  39  40
ATOM     40  C24 ZIN A   1     -13.853   0.788   0.394  0.00  0.00     0.029 C 
BRANCH  40  41
ATOM     41  C25 ZIN A   1     -15.168   1.062  -0.339  0.00  0.00     0.229 C 
BRANCH  41  42
ATOM     42  N26 ZIN A   1     -16.282   1.003   0.616  0.00  0.00    -0.079 N 
ATOM     43  H27 ZIN A   1     -16.147   1.699   1.334  0.00  0.00     0.274 HD
ATOM     44  H28 ZIN A   1     -17.149   1.184   0.133  0.00  0.00     0.274 HD
ATOM     45  H29 ZIN A   1     -16.317   0.087   1.037  0.00  0.00     0.274 HD
ENDBRANCH  41  42
ENDBRANCH  40  41
ENDBRANCH  39  40
ENDBRANCH  34  39
ENDBRANCH  33  34
ENDBRANCH  30  33
ENDBRANCH  28  29
ENDBRANCH   6  28
BRANCH  10  46
ATOM     46  C35 ZIN A   1      -7.949  -2.874  -4.056  0.00  0.00     0.199 C 
BRANCH  46  47
ATOM     47  O36 ZIN A   1      -8.160  -3.543  -5.300  0.00  0.00    -0.398 OA
ATOM     48  H80 ZIN A   1      -9.001  -3.325  -5.727  0.00  0.00     0.209 HD
ENDBRANCH  46  47
ENDBRANCH  10  46
BRANCH   1  49
ATOM     49  N4  ZIN A   1      -0.328  -2.586  -0.580  0.00  0.00    -0.317 N 
ATOM     50  C2  ZIN A   1       0.800  -1.886  -0.349  0.00  0.00     0.317 C 
ATOM     51  N1  ZIN A   1       1.994  -2.391  -0.717  0.00  0.00    -0.352 N 
ATOM     52  O3  ZIN A   1       0.740  -0.798   0.190  0.00  0.00    -0.247 OA
ATOM     53  H61 ZIN A   1       2.806  -1.887  -0.551  0.00  0.00     0.160 HD
ATOM     54  H62 ZIN A   1       2.042  -3.261  -1.143  0.00  0.00     0.160 HD
ATOM     55  H63 ZIN A   1      -0.281  -3.454  -1.010  0.00  0.00     0.170 HD
ENDBRANCH   1  49
BRANCH  19  56
ATOM     56  C49 ZIN A   1      -1.962  -7.004   1.083  0.00  0.00     0.133 C 
ATOM     57  N57 ZIN A   1      -1.292  -6.499   2.292  0.00  0.00    -0.220 N 
ATOM     58  C55 ZIN A   1      -1.429  -7.203   3.465  0.00  0.00     0.667 C 
ATOM     59  H93 ZIN A   1      -0.763  -5.686   2.262  0.00  0.00     0.178 HD
ATOM     60  N53 ZIN A   1      -1.912  -8.402   3.500  0.00  0.00    -0.227 N 
ATOM     61  C52 ZIN A   1      -2.376  -9.122   2.320  0.00  0.00     0.140 C 
ATOM     62  H54 ZIN A   1      -1.968  -8.847   4.359  0.00  0.00     0.177 HD
ATOM     63  C51 ZIN A   1      -1.764  -8.527   1.050  0.00  0.00     0.048 C 
BRANCH  58  64
ATOM     64  N56 ZIN A   1      -1.038  -6.611   4.643  0.00  0.00    -0.235 N 
ATOM     65  H91 ZIN A   1      -1.128  -7.092   5.481  0.00  0.00     0.174 HD
ATOM     66  H92 ZIN A   1      -0.674  -5.712   4.637  0.00  0.00     0.174 HD
ENDBRANCH  58  64
ENDBRANCH  19  56
BRANCH  14  67
ATOM     67  N42 ZIN A   1      -6.177  -7.573  -3.782  0.00  0.00     0.093 N 
ATOM     68  H82 ZIN A   1      -7.136  -7.259  -3.808  0.00  0.00     0.314 HD
ATOM     69  H83 ZIN A   1      -5.743  -7.485  -4.689  0.00  0.00     0.314 HD
ENDBRANCH  14  67
TORSDOF 15
