REMARK  8 active torsions:
REMARK  status: ('A' for Active; 'I' for Inactive)
REMARK    1  A    between atoms: O1_1  and  C2_2 
REMARK    2  A    between atoms: C2_2  and  C3_3 
REMARK    3  A    between atoms: C3_3  and  N4_4 
REMARK    4  A    between atoms: N7_7  and  C8_8 
REMARK    5  A    between atoms: C8_8  and  C9_9 
REMARK    6  A    between atoms: C9_9  and  C10_10 
REMARK    7  A    between atoms: C10_10  and  N11_11 
REMARK    8  A    between atoms: C22_22  and  C23_23 
ROOT
ATOM      1  N11 ZIN A   1      -8.638   1.724  -4.608  0.00  0.00    -0.345 N 
ATOM      2  C12 ZIN A   1      -9.268   2.926  -4.295  0.00  0.00     0.052 A 
ATOM      3  C13 ZIN A   1      -8.502   3.969  -3.785  0.00  0.00     0.031 A 
ATOM      4  C14 ZIN A   1      -9.093   5.178  -3.467  0.00  0.00     0.002 A 
ATOM      5  C15 ZIN A   1     -10.450   5.359  -3.654  0.00  0.00     0.002 A 
ATOM      6  C16 ZIN A   1     -11.220   4.327  -4.159  0.00  0.00     0.021 A 
ATOM      7  C17 ZIN A   1     -10.635   3.110  -4.480  0.00  0.00     0.032 A 
ATOM      8  S18 ZIN A   1     -11.639   1.811  -5.115  0.00  0.00    -0.086 SA
ATOM      9  C19 ZIN A   1     -10.646   0.376  -4.886  0.00  0.00     0.032 A 
ATOM     10  C20 ZIN A   1     -11.240  -0.878  -4.935  0.00  0.00     0.022 A 
ATOM     11  C21 ZIN A   1     -10.477  -2.017  -4.755  0.00  0.00     0.017 A 
ATOM     12  C22 ZIN A   1      -9.119  -1.909  -4.525  0.00  0.00     0.050 A 
ATOM     13  C27 ZIN A   1      -8.520  -0.664  -4.476  0.00  0.00     0.047 A 
ATOM     14  C28 ZIN A   1      -9.279   0.488  -4.661  0.00  0.00     0.053 A 
ENDROOT
BRANCH   1  15
ATOM     15  C10 ZIN A   1      -7.205   1.762  -4.909  0.00  0.00     0.131 C 
BRANCH  15  16
ATOM     16  C9  ZIN A   1      -6.408   1.577  -3.616  0.00  0.00     0.050 C 
BRANCH  16  17
ATOM     17  C8  ZIN A   1      -4.911   1.617  -3.929  0.00  0.00     0.274 C 
BRANCH  17  18
ATOM     18  N7  ZIN A   1      -4.146   1.439  -2.688  0.00  0.00     0.091 N 
ATOM     19  C6  ZIN A   1      -2.717   1.707  -2.906  0.00  0.00     0.302 C 
ATOM     20  C5  ZIN A   1      -1.970   1.588  -1.577  0.00  0.00     0.302 C 
ATOM     21  N4  ZIN A   1      -2.171   0.242  -1.022  0.00  0.00     0.093 N 
ATOM     22  C30 ZIN A   1      -3.600  -0.025  -0.803  0.00  0.00     0.302 C 
ATOM     23  C29 ZIN A   1      -4.348   0.093  -2.133  0.00  0.00     0.302 C 
BRANCH  21  24
ATOM     24  C3  ZIN A   1      -1.406   0.064   0.219  0.00  0.00     0.298 C 
BRANCH  24  25
ATOM     25  C2  ZIN A   1      -1.631   1.270   1.134  0.00  0.00     0.194 C 
BRANCH  25  26
ATOM     26  O1  ZIN A   1      -2.996   1.301   1.555  0.00  0.00    -0.399 OA
ATOM     27  H31 ZIN A   1      -3.211   2.041   2.139  0.00  0.00     0.209 HD
ENDBRANCH  25  26
ENDBRANCH  24  25
ENDBRANCH  21  24
ENDBRANCH  17  18
ENDBRANCH  16  17
ENDBRANCH  15  16
ENDBRANCH   1  15
BRANCH  12  28
ATOM     28  C23 ZIN A   1      -8.289  -3.151  -4.329  0.00  0.00     0.417 C 
ATOM     29  F24 ZIN A   1      -9.110  -4.280  -4.422  0.00  0.00    -0.166 F 
ATOM     30  F25 ZIN A   1      -7.300  -3.212  -5.316  0.00  0.00    -0.166 F 
ATOM     31  F26 ZIN A   1      -7.687  -3.115  -3.067  0.00  0.00    -0.166 F 
ENDBRANCH  12  28
TORSDOF 8
