REMARK  5 active torsions:
REMARK  status: ('A' for Active; 'I' for Inactive)
REMARK    1  A    between atoms: O2_2  and  C3_3 
REMARK    2  A    between atoms: C4_4  and  O5_5 
REMARK    3  A    between atoms: C9_9  and  N10_10 
REMARK    4  A    between atoms: C12_12  and  N13_13 
REMARK       I    between atoms: N16_16  and  C17_17 
REMARK    5  A    between atoms: C17_17  and  C19_19 
ROOT
ATOM      1  N13 ZIN A   1      -7.163   0.424  -0.229  0.00  0.00    -0.248 NA
ATOM      2  C14 ZIN A   1      -7.136   1.250   0.986  0.00  0.00     0.118 C 
ATOM      3  C15 ZIN A   1      -8.371   2.157   1.011  0.00  0.00     0.140 C 
ATOM      4  N16 ZIN A   1      -9.569   1.319   0.855  0.00  0.00    -0.348 N 
ATOM      5  C17 ZIN A   1     -10.602   1.422   1.715  0.00  0.00     0.251 C 
ATOM      6  O18 ZIN A   1     -10.518   2.153   2.679  0.00  0.00    -0.270 OA
ATOM      7  C30 ZIN A   1      -9.611   0.365  -0.264  0.00  0.00     0.140 C 
ATOM      8  C31 ZIN A   1      -8.328  -0.471  -0.239  0.00  0.00     0.118 C 
ENDROOT
BRANCH   1   9
ATOM      9  C12 ZIN A   1      -5.987  -0.290  -0.369  0.00  0.00     0.206 A 
ATOM     10  N11 ZIN A   1      -6.055  -1.614  -0.487  0.00  0.00    -0.200 NA
ATOM     11  C9  ZIN A   1      -4.963  -2.353  -0.624  0.00  0.00     0.137 A 
ATOM     12  C8  ZIN A   1      -3.707  -1.700  -0.642  0.00  0.00     0.041 A 
ATOM     13  C7  ZIN A   1      -2.508  -2.409  -0.783  0.00  0.00     0.057 A 
ATOM     14  C33 ZIN A   1      -3.681  -0.290  -0.513  0.00  0.00     0.077 A 
ATOM     15  C4  ZIN A   1      -1.320  -1.735  -0.794  0.00  0.00     0.102 A 
ATOM     16  C3  ZIN A   1      -1.287  -0.340  -0.666  0.00  0.00     0.103 A 
ATOM     17  C34 ZIN A   1      -2.452   0.381  -0.521  0.00  0.00     0.072 A 
ATOM     18  N32 ZIN A   1      -4.844   0.368  -0.380  0.00  0.00    -0.217 NA
BRANCH  11  19
ATOM     19  N10 ZIN A   1      -5.049  -3.724  -0.746  0.00  0.00    -0.383 N 
ATOM     20  H42 ZIN A   1      -4.243  -4.253  -0.845  0.00  0.00     0.157 HD
ATOM     21  H43 ZIN A   1      -5.916  -4.159  -0.732  0.00  0.00     0.157 HD
ENDBRANCH  11  19
BRANCH  15  22
ATOM     22  O5  ZIN A   1      -0.156  -2.426  -0.930  0.00  0.00    -0.353 OA
ATOM     23  C6  ZIN A   1      -0.255  -3.846  -1.056  0.00  0.00     0.210 C 
ENDBRANCH  15  22
BRANCH  16  24
ATOM     24  O2  ZIN A   1      -0.093   0.308  -0.679  0.00  0.00    -0.353 OA
ATOM     25  C1  ZIN A   1      -0.125   1.730  -0.539  0.00  0.00     0.210 C 
ENDBRANCH  16  24
ENDBRANCH   1   9
BRANCH   5  26
ATOM     26  C19 ZIN A   1     -11.862   0.630   1.478  0.00  0.00     0.245 C 
ATOM     27  O29 ZIN A   1     -12.925   1.163   2.276  0.00  0.00    -0.331 OA
ATOM     28  C28 ZIN A   1     -14.038   0.390   2.406  0.00  0.00     0.103 A 
ATOM     29  C23 ZIN A   1     -14.002  -0.967   2.105  0.00  0.00     0.102 A 
ATOM     30  C27 ZIN A   1     -15.218   0.967   2.849  0.00  0.00     0.040 A 
ATOM     31  O22 ZIN A   1     -12.855  -1.552   1.664  0.00  0.00    -0.345 OA
ATOM     32  C24 ZIN A   1     -15.146  -1.736   2.254  0.00  0.00     0.039 A 
ATOM     33  C21 ZIN A   1     -11.638  -0.832   1.888  0.00  0.00     0.218 C 
ATOM     34  C25 ZIN A   1     -16.319  -1.155   2.698  0.00  0.00     0.003 A 
ATOM     35  C26 ZIN A   1     -16.355   0.194   2.994  0.00  0.00     0.003 A 
ENDBRANCH   5  26
TORSDOF 5
