REMARK  8 active torsions:
REMARK  status: ('A' for Active; 'I' for Inactive)
REMARK    1  A    between atoms: C2_2  and  N4_3 
REMARK    2  A    between atoms: C2_2  and  C20_18 
REMARK    3  A    between atoms: N4_3  and  C7_6 
REMARK    4  A    between atoms: C7_6  and  C9_7 
REMARK    5  A    between atoms: C7_6  and  C17_15 
REMARK    6  A    between atoms: C9_7  and  C10_8 
REMARK    7  A    between atoms: C10_8  and  C11_9 
REMARK       I    between atoms: C20_18  and  N22_20 
REMARK    8  A    between atoms: C26_24  and  C28_25 
ROOT
ATOM      1  N4  ZIN A   1       0.955  -0.605   1.450  0.00  0.00    -0.049 N 
ATOM      2  H5  ZIN A   1       1.108  -1.601   1.396  0.00  0.00     0.279 HD
ATOM      3  H6  ZIN A   1       1.792  -0.154   1.786  0.00  0.00     0.279 HD
ENDROOT
BRANCH   1   4
ATOM      4  C2  ZIN A   1       0.621  -0.088   0.116  0.00  0.00     0.274 C 
ATOM      5  C1  ZIN A   1       1.841  -0.213  -0.799  0.00  0.00     0.050 C 
BRANCH   4   6
ATOM      6  C20 ZIN A   1      -0.523  -0.883  -0.459  0.00  0.00     0.251 C 
ATOM      7  O21 ZIN A   1      -1.012  -1.791   0.179  0.00  0.00    -0.271 OA
ATOM      8  N22 ZIN A   1      -1.002  -0.584  -1.683  0.00  0.00    -0.336 N 
ATOM      9  C26 ZIN A   1      -2.109  -1.275  -2.361  0.00  0.00     0.188 C 
ATOM     10  C23 ZIN A   1      -0.500   0.484  -2.566  0.00  0.00     0.127 C 
ATOM     11  C25 ZIN A   1      -2.322  -0.574  -3.720  0.00  0.00     0.038 C 
ATOM     12  C24 ZIN A   1      -1.693   0.826  -3.493  0.00  0.00     0.022 C 
BRANCH   9  13
ATOM     13  C28 ZIN A   1      -1.762  -2.725  -2.582  0.00  0.00     0.196 C 
ATOM     14  O29 ZIN A   1      -0.599  -3.058  -2.731  0.00  0.00    -0.646 OA
ATOM     15  O30 ZIN A   1      -2.646  -3.565  -2.613  0.00  0.00    -0.646 OA
ENDBRANCH   9  13
ENDBRANCH   4   6
ENDBRANCH   1   4
BRANCH   1  16
ATOM     16  C7  ZIN A   1      -0.154  -0.330   2.373  0.00  0.00     0.287 C 
BRANCH  16  17
ATOM     17  C9  ZIN A   1       0.126  -0.999   3.721  0.00  0.00     0.049 C 
BRANCH  17  18
ATOM     18  C10 ZIN A   1       0.138  -2.519   3.543  0.00  0.00     0.041 C 
BRANCH  18  19
ATOM     19  C11 ZIN A   1       0.414  -3.177   4.870  0.00  0.00    -0.058 A 
ATOM     20  C16 ZIN A   1      -0.634  -3.515   5.706  0.00  0.00     0.007 A 
ATOM     21  C15 ZIN A   1      -0.381  -4.123   6.921  0.00  0.00     0.001 A 
ATOM     22  C14 ZIN A   1       0.921  -4.385   7.305  0.00  0.00     0.000 A 
ATOM     23  C13 ZIN A   1       1.969  -4.043   6.472  0.00  0.00     0.001 A 
ATOM     24  C12 ZIN A   1       1.716  -3.439   5.254  0.00  0.00     0.007 A 
ENDBRANCH  18  19
ENDBRANCH  17  18
ENDBRANCH  16  17
BRANCH  16  25
ATOM     25  C17 ZIN A   1      -0.287   1.158   2.569  0.00  0.00     0.204 C 
ATOM     26  O18 ZIN A   1      -1.321   1.624   3.017  0.00  0.00    -0.646 OA
ATOM     27  O19 ZIN A   1       0.639   1.896   2.281  0.00  0.00    -0.646 OA
ENDBRANCH  16  25
ENDBRANCH   1  16
TORSDOF 8
