REMARK  5 active torsions:
REMARK  status: ('A' for Active; 'I' for Inactive)
REMARK    1  A    between atoms: C4_4  and  C5_5 
REMARK    2  A    between atoms: C4_4  and  C11_11 
REMARK    3  A    between atoms: N19_19  and  C20_20 
REMARK    4  A    between atoms: C20_20  and  O21_21 
REMARK    5  A    between atoms: O21_21  and  P22_22 
ROOT
ATOM      1  O1  <0> d   1       0.625   0.201  -0.168  0.00  0.00    -0.247 OA
ATOM      2  C2  <0> d   1       0.369   1.389  -0.164  0.00  0.00     0.328 A 
ATOM      3  N3  <0> d   1      -0.839   1.893   0.146  0.00  0.00    -0.316 N 
ATOM      4  C4  <0> d   1      -0.727   3.357   0.031  0.00  0.00     0.171 A 
ATOM      5  C17 <0> d   1       0.714   3.573  -0.387  0.00  0.00     0.267 A 
ATOM      6  O18 <0> d   1       1.264   4.632  -0.601  0.00  0.00    -0.269 OA
ATOM      7  N19 <0> d   1       1.259   2.342  -0.463  0.00  0.00    -0.244 N 
ATOM      8  H26 <0> d   1      -1.630   1.390   0.396  0.00  0.00     0.166 HD
ENDROOT
BRANCH   4   9
ATOM      9  C5  <0> d   1      -1.668   3.879  -1.024  0.00  0.00    -0.016 A 
ATOM     10  C10 <0> d   1      -1.461   5.128  -1.579  0.00  0.00     0.010 A 
ATOM     11  C9  <0> d   1      -2.321   5.605  -2.550  0.00  0.00     0.001 A 
ATOM     12  C8  <0> d   1      -3.395   4.837  -2.960  0.00  0.00     0.000 A 
ATOM     13  C7  <0> d   1      -3.606   3.590  -2.401  0.00  0.00     0.001 A 
ATOM     14  C6  <0> d   1      -2.742   3.111  -1.434  0.00  0.00     0.010 A 
ENDBRANCH   4   9
BRANCH   4  15
ATOM     15  C11 <0> d   1      -1.003   4.016   1.357  0.00  0.00    -0.016 A 
ATOM     16  C16 <0> d   1      -1.570   3.288   2.386  0.00  0.00     0.010 A 
ATOM     17  C15 <0> d   1      -1.819   3.891   3.605  0.00  0.00     0.001 A 
ATOM     18  C14 <0> d   1      -1.509   5.225   3.792  0.00  0.00     0.000 A 
ATOM     19  C13 <0> d   1      -0.947   5.955   2.761  0.00  0.00     0.001 A 
ATOM     20  C12 <0> d   1      -0.694   5.350   1.544  0.00  0.00     0.010 A 
ENDBRANCH   4  15
BRANCH   7  21
ATOM     21  C20 <0> d   1       2.651   2.081  -0.836  0.00  0.00     0.321 C 
BRANCH  21  22
ATOM     22  O21 <0> d   1       3.399   1.731   0.330  0.00  0.00    -0.262 OA
BRANCH  22  23
ATOM     23  P22 <0> d   1       4.970   1.377   0.292  0.00  0.00     0.423 P 
ATOM     24  O23 <0> d   1       5.220   0.223  -0.738  0.00  0.00    -0.617 OA
ATOM     25  O24 <0> d   1       5.780   2.647  -0.140  0.00  0.00    -0.617 OA
ATOM     26  O25 <0> d   1       5.437   0.918   1.715  0.00  0.00    -0.617 OA
ENDBRANCH  22  23
ENDBRANCH  21  22
ENDBRANCH   7  21
TORSDOF 5
