REMARK  16 active torsions:
REMARK  status: ('A' for Active; 'I' for Inactive)
REMARK    1  A    between atoms: C2_2  and  C3_3 
REMARK    2  A    between atoms: C3_3  and  C4_4 
REMARK    3  A    between atoms: C4_4  and  C5_5 
REMARK    4  A    between atoms: C5_5  and  O7_7 
REMARK    5  A    between atoms: O7_7  and  C8_8 
REMARK    6  A    between atoms: C8_8  and  C9_9 
REMARK    7  A    between atoms: C9_9  and  C11_11 
REMARK    8  A    between atoms: C11_11  and  O12_12 
REMARK    9  A    between atoms: C15_15  and  O16_16 
REMARK   10  A    between atoms: C22_22  and  O23_23 
REMARK   11  A    between atoms: C31_31  and  O32_32 
REMARK   12  A    between atoms: C34_34  and  O36_35 
REMARK   13  A    between atoms: O36_35  and  C37_36 
REMARK   14  A    between atoms: C40_38  and  N42_39 
REMARK       I    between atoms: N42_39  and  C43_40 
REMARK   15  A    between atoms: C43_40  and  C45_42 
REMARK   16  A    between atoms: C49_46  and  O51_47 
ROOT
ATOM      1  C11 ZIN A   1       2.942  -6.278  -5.415  0.00  0.00     0.127 C 
ATOM      2  C13 ZIN A   1       1.933  -6.682  -6.487  0.00  0.00     0.088 C 
ATOM      3  C14 ZIN A   1       1.077  -7.826  -6.009  0.00  0.00    -0.009 A 
ATOM      4  C15 ZIN A   1      -0.121  -8.064  -6.696  0.00  0.00     0.088 A 
ATOM      5  C17 ZIN A   1      -0.959  -9.108  -6.312  0.00  0.00     0.066 A 
ATOM      6  C18 ZIN A   1      -0.591  -9.928  -5.225  0.00  0.00     0.066 A 
ATOM      7  C19 ZIN A   1      -1.471 -11.040  -4.818  0.00  0.00     0.200 C 
ATOM      8  O20 ZIN A   1      -1.306 -11.595  -3.748  0.00  0.00    -0.286 OA
ATOM      9  C21 ZIN A   1      -2.554 -11.469  -5.723  0.00  0.00     0.062 A 
ATOM     10  C22 ZIN A   1      -3.216 -12.681  -5.515  0.00  0.00     0.083 A 
ATOM     11  C25 ZIN A   1      -4.235 -13.067  -6.383  0.00  0.00     0.038 A 
ATOM     12  C26 ZIN A   1      -4.593 -12.259  -7.443  0.00  0.00     0.004 A 
ATOM     13  C27 ZIN A   1      -3.944 -11.053  -7.660  0.00  0.00     0.017 A 
ATOM     14  C28 ZIN A   1      -2.924 -10.650  -6.808  0.00  0.00     0.032 A 
ATOM     15  C29 ZIN A   1      -2.221  -9.368  -7.029  0.00  0.00     0.197 C 
ATOM     16  O30 ZIN A   1      -2.678  -8.538  -7.791  0.00  0.00    -0.286 OA
ATOM     17  C31 ZIN A   1       0.601  -9.677  -4.551  0.00  0.00     0.090 A 
ATOM     18  C33 ZIN A   1       1.432  -8.620  -4.948  0.00  0.00     0.014 A 
ATOM     19  C34 ZIN A   1       2.699  -8.404  -4.160  0.00  0.00     0.164 C 
ATOM     20  C56 ZIN A   1       3.680  -7.538  -4.946  0.00  0.00     0.083 C 
ENDROOT
BRANCH  19  21
ATOM     21  O36 ZIN A   1       3.304  -9.669  -3.885  0.00  0.00    -0.351 OA
BRANCH  21  22
ATOM     22  C37 ZIN A   1       3.957  -9.738  -2.616  0.00  0.00     0.263 C 
ATOM     23  O55 ZIN A   1       5.172  -8.987  -2.664  0.00  0.00    -0.354 OA
ATOM     24  C52 ZIN A   1       6.095  -9.433  -3.660  0.00  0.00     0.151 C 
ATOM     25  C49 ZIN A   1       6.497 -10.881  -3.369  0.00  0.00     0.169 C 
ATOM     26  C54 ZIN A   1       7.339  -8.543  -3.638  0.00  0.00     0.042 C 
ATOM     27  C40 ZIN A   1       5.240 -11.755  -3.333  0.00  0.00     0.120 C 
ATOM     28  C39 ZIN A   1       4.274 -11.198  -2.283  0.00  0.00     0.088 C 
BRANCH  25  29
ATOM     29  O51 ZIN A   1       7.162 -10.949  -2.106  0.00  0.00    -0.391 OA
ATOM     30  H82 ZIN A   1       7.968 -10.418  -2.057  0.00  0.00     0.210 HD
ENDBRANCH  25  29
BRANCH  27  31
ATOM     31  N42 ZIN A   1       5.606 -13.130  -2.982  0.00  0.00    -0.346 N 
ATOM     32  C43 ZIN A   1       4.814 -14.154  -3.356  0.00  0.00     0.325 C 
ATOM     33  O44 ZIN A   1       3.799 -13.938  -3.983  0.00  0.00    -0.263 OA
ATOM     34  H81 ZIN A   1       6.418 -13.302  -2.481  0.00  0.00     0.163 HD
BRANCH  32  35
ATOM     35  C45 ZIN A   1       5.191 -15.568  -2.995  0.00  0.00     0.472 C 
ATOM     36  F46 ZIN A   1       4.222 -16.449  -3.488  0.00  0.00    -0.162 F 
ATOM     37  F47 ZIN A   1       6.433 -15.878  -3.558  0.00  0.00    -0.162 F 
ATOM     38  F48 ZIN A   1       5.266 -15.690  -1.603  0.00  0.00    -0.162 F 
ENDBRANCH  32  35
ENDBRANCH  27  31
ENDBRANCH  21  22
ENDBRANCH  19  21
BRANCH  17  39
ATOM     39  O32 ZIN A   1       0.960 -10.460  -3.504  0.00  0.00    -0.359 OA
ATOM     40  H78 ZIN A   1       1.541 -11.195  -3.743  0.00  0.00     0.217 HD
ENDBRANCH  17  39
BRANCH   1  41
ATOM     41  C9  ZIN A   1       2.221  -5.649  -4.251  0.00  0.00     0.185 C 
ATOM     42  O10 ZIN A   1       1.054  -5.893  -4.060  0.00  0.00    -0.292 OA
BRANCH  41  43
ATOM     43  C8  ZIN A   1       2.957  -4.716  -3.324  0.00  0.00     0.260 C 
BRANCH  43  44
ATOM     44  O7  ZIN A   1       2.051  -4.246  -2.291  0.00  0.00    -0.314 OA
BRANCH  44  45
ATOM     45  C5  ZIN A   1       2.553  -3.400  -1.378  0.00  0.00     0.259 C 
ATOM     46  O6  ZIN A   1       3.712  -3.063  -1.440  0.00  0.00    -0.265 OA
BRANCH  45  47
ATOM     47  C4  ZIN A   1       1.673  -2.870  -0.276  0.00  0.00     0.111 C 
BRANCH  47  48
ATOM     48  C3  ZIN A   1       2.485  -1.933   0.620  0.00  0.00     0.009 C 
BRANCH  48  49
ATOM     49  C2  ZIN A   1       1.591  -1.396   1.739  0.00  0.00    -0.004 C 
ATOM     50  C1  ZIN A   1       2.403  -0.459   2.636  0.00  0.00     0.005 C 
ENDBRANCH  48  49
ENDBRANCH  47  48
ENDBRANCH  45  47
ENDBRANCH  44  45
ENDBRANCH  43  44
ENDBRANCH  41  43
ENDBRANCH   1  41
BRANCH   1  51
ATOM     51  O12 ZIN A   1       3.879  -5.347  -5.961  0.00  0.00    -0.382 OA
ATOM     52  H68 ZIN A   1       3.477  -4.529  -6.285  0.00  0.00     0.211 HD
ENDBRANCH   1  51
BRANCH   4  53
ATOM     53  O16 ZIN A   1      -0.468  -7.272  -7.740  0.00  0.00    -0.359 OA
ATOM     54  H71 ZIN A   1      -0.144  -7.585  -8.596  0.00  0.00     0.217 HD
ENDBRANCH   4  53
BRANCH  10  55
ATOM     55  O23 ZIN A   1      -2.869 -13.478  -4.474  0.00  0.00    -0.355 OA
ATOM     56  C24 ZIN A   1      -3.591 -14.702  -4.326  0.00  0.00     0.210 C 
ENDBRANCH  10  55
TORSDOF 16
