REMARK  2 active torsions:
REMARK  status: ('A' for Active; 'I' for Inactive)
REMARK    1  A    between atoms: C2_2  and  N4_4 
REMARK       I    between atoms: N4_4  and  C5_5 
REMARK       I    between atoms: C5_5  and  N9_9 
REMARK       I    between atoms: N9_9  and  C10_10 
REMARK       I    between atoms: C10_10  and  N14_14 
REMARK    2  A    between atoms: N14_14  and  C15_15 
ROOT
ATOM      1  N4  ZIN A   1      -1.991  -0.445   1.530  0.00  0.00    -0.222 N 
ATOM      2  C5  ZIN A   1      -1.862  -1.607   0.807  0.00  0.00     0.686 C 
ATOM      3  N6  ZIN A   1      -0.777  -1.831   0.122  0.00  0.00    -0.234 N 
ATOM      4  H7  ZIN A   1      -0.732  -2.590  -0.480  0.00  0.00     0.174 HD
ATOM      5  H8  ZIN A   1      -0.015  -1.238   0.214  0.00  0.00     0.174 HD
ATOM      6  N9  ZIN A   1      -2.882  -2.536   0.807  0.00  0.00    -0.023 N 
ATOM      7  C10 ZIN A   1      -2.695  -3.765   0.209  0.00  0.00     0.690 C 
ATOM      8  N11 ZIN A   1      -1.494  -4.253   0.084  0.00  0.00    -0.234 N 
ATOM      9  H12 ZIN A   1      -1.350  -5.058  -0.438  0.00  0.00     0.174 HD
ATOM     10  H13 ZIN A   1      -0.744  -3.811   0.512  0.00  0.00     0.174 HD
ATOM     11  N14 ZIN A   1      -3.778  -4.475  -0.257  0.00  0.00    -0.192 N 
ATOM     12  H29 ZIN A   1      -2.799  -0.278   2.040  0.00  0.00     0.178 HD
ATOM     13  H30 ZIN A   1      -3.730  -2.325   1.229  0.00  0.00     0.203 HD
ATOM     14  H31 ZIN A   1      -3.646  -5.329  -0.696  0.00  0.00     0.184 HD
ENDROOT
BRANCH  11  15
ATOM     15  C15 ZIN A   1      -5.071  -3.964  -0.097  0.00  0.00     0.049 A 
ATOM     16  C21 ZIN A   1      -6.111  -4.806   0.272  0.00  0.00     0.032 A 
ATOM     17  C20 ZIN A   1      -7.385  -4.298   0.435  0.00  0.00     0.026 A 
ATOM     18  C18 ZIN A   1      -7.628  -2.953   0.220  0.00  0.00     0.034 A 
ATOM     19  C17 ZIN A   1      -6.594  -2.112  -0.154  0.00  0.00     0.026 A 
ATOM     20 Cl19 ZIN A   1      -9.232  -2.319   0.418  0.00  0.00    -0.084 Cl
ATOM     21  C16 ZIN A   1      -5.317  -2.614  -0.312  0.00  0.00     0.032 A 
ENDBRANCH  11  15
BRANCH   1  22
ATOM     22  C2  ZIN A   1      -0.908   0.542   1.530  0.00  0.00     0.091 C 
ATOM     23  C1  ZIN A   1      -1.480   1.927   1.839  0.00  0.00     0.032 C 
ATOM     24  C3  ZIN A   1       0.124   0.167   2.595  0.00  0.00     0.032 C 
ENDBRANCH   1  22
TORSDOF 2
