REMARK  6 active torsions:
REMARK  status: ('A' for Active; 'I' for Inactive)
REMARK    1  A    between atoms: C2_2  and  N4_4 
REMARK    2  A    between atoms: N4_4  and  C5_5 
REMARK    3  A    between atoms: C10_10  and  N11_11 
REMARK       I    between atoms: N14_14  and  C15_15 
REMARK    4  A    between atoms: C15_15  and  C17_17 
REMARK    5  A    between atoms: C21_21  and  N22_22 
REMARK    6  A    between atoms: N22_22  and  S23_23 
ROOT
ATOM      1  N11 ZIN A   1      -3.338  -2.216   1.265  0.00  0.00    -0.263 NA
ATOM      2  C12 ZIN A   1      -3.214  -1.149   2.267  0.00  0.00     0.117 C 
ATOM      3  C13 ZIN A   1      -4.384  -0.171   2.116  0.00  0.00     0.141 C 
ATOM      4  N14 ZIN A   1      -5.640  -0.934   2.173  0.00  0.00    -0.344 N 
ATOM      5  C15 ZIN A   1      -6.633  -0.572   3.010  0.00  0.00     0.270 C 
ATOM      6  O16 ZIN A   1      -6.501   0.406   3.722  0.00  0.00    -0.266 OA
ATOM      7  C31 ZIN A   1      -5.785  -2.104   1.293  0.00  0.00     0.141 C 
ATOM      8  C32 ZIN A   1      -4.559  -3.005   1.477  0.00  0.00     0.117 C 
ENDROOT
BRANCH   5   9
ATOM      9  C17 ZIN A   1      -7.874  -1.358   3.063  0.00  0.00     0.102 A 
ATOM     10  N30 ZIN A   1      -8.371  -2.139   2.038  0.00  0.00    -0.351 N 
ATOM     11  C29 ZIN A   1      -9.546  -2.723   2.456  0.00  0.00     0.043 A 
ATOM     12  H56 ZIN A   1      -7.959  -2.258   1.168  0.00  0.00     0.166 HD
ATOM     13  C19 ZIN A   1      -9.789  -2.284   3.772  0.00  0.00    -0.005 A 
ATOM     14  C28 ZIN A   1     -10.447  -3.589   1.842  0.00  0.00     0.033 A 
ATOM     15  C18 ZIN A   1      -8.719  -1.426   4.125  0.00  0.00     0.049 A 
ATOM     16  C20 ZIN A   1     -10.933  -2.721   4.451  0.00  0.00     0.043 A 
ATOM     17  C21 ZIN A   1     -11.813  -3.580   3.823  0.00  0.00     0.043 A 
ATOM     18  C27 ZIN A   1     -11.568  -4.011   2.520  0.00  0.00     0.032 A 
BRANCH  17  19
ATOM     19  N22 ZIN A   1     -12.958  -4.019   4.498  0.00  0.00    -0.285 N 
ATOM     20  H50 ZIN A   1     -12.891  -4.335   5.413  0.00  0.00     0.178 HD
BRANCH  19  21
ATOM     21  S23 ZIN A   1     -14.428  -4.000   3.735  0.00  0.00     0.227 S 
ATOM     22  C24 ZIN A   1     -14.717  -2.251   3.353  0.00  0.00     0.186 C 
ATOM     23  O25 ZIN A   1     -14.213  -4.742   2.542  0.00  0.00    -0.206 OA
ATOM     24  O26 ZIN A   1     -15.342  -4.452   4.724  0.00  0.00    -0.206 OA
ENDBRANCH  19  21
ENDBRANCH  17  19
ENDBRANCH   5   9
BRANCH   1  25
ATOM     25  C10 ZIN A   1      -2.210  -3.032   1.262  0.00  0.00     0.131 A 
ATOM     26  C5  ZIN A   1      -1.072  -2.638   0.553  0.00  0.00     0.069 A 
ATOM     27  C6  ZIN A   1       0.044  -3.464   0.561  0.00  0.00     0.034 A 
ATOM     28  C7  ZIN A   1      -0.020  -4.656   1.272  0.00  0.00     0.022 A 
ATOM     29  C8  ZIN A   1      -1.180  -4.981   1.944  0.00  0.00     0.118 A 
ATOM     30  N9  ZIN A   1      -2.228  -4.178   1.921  0.00  0.00    -0.246 NA
BRANCH  26  31
ATOM     31  N4  ZIN A   1      -1.055  -1.427  -0.149  0.00  0.00    -0.383 N 
ATOM     32  H40 ZIN A   1      -1.859  -0.888  -0.206  0.00  0.00     0.160 HD
BRANCH  31  33
ATOM     33  C2  ZIN A   1       0.178  -0.974  -0.798  0.00  0.00     0.073 C 
ATOM     34  C1  ZIN A   1      -0.170  -0.037  -1.957  0.00  0.00     0.031 C 
ATOM     35  C3  ZIN A   1       1.045  -0.228   0.218  0.00  0.00     0.031 C 
ENDBRANCH  31  33
ENDBRANCH  26  31
ENDBRANCH   1  25
TORSDOF 6
