REMARK  8 active torsions:
REMARK  status: ('A' for Active; 'I' for Inactive)
REMARK    1  A    between atoms: C2_2  and  C4_4 
REMARK    2  A    between atoms: C4_4  and  O5_5 
REMARK    3  A    between atoms: O5_5  and  C6_6 
REMARK    4  A    between atoms: C9_9  and  C10_10 
REMARK    5  A    between atoms: C10_10  and  N11_11 
REMARK       I    between atoms: N11_11  and  C12_12 
REMARK       I    between atoms: C12_12  and  N14_14 
REMARK    6  A    between atoms: N14_14  and  C15_15 
REMARK    7  A    between atoms: N14_14  and  C23_23 
REMARK    8  A    between atoms: C15_15  and  C16_16 
ROOT
ATOM      1  N11 ZIN A   1      -8.753  -5.919  -0.774  0.00  0.00    -0.339 N 
ATOM      2  C12 ZIN A   1      -8.008  -5.420  -1.781  0.00  0.00     0.319 C 
ATOM      3  O13 ZIN A   1      -6.928  -4.915  -1.546  0.00  0.00    -0.247 OA
ATOM      4  N14 ZIN A   1      -8.462  -5.481  -3.049  0.00  0.00    -0.325 N 
ATOM      5  H46 ZIN A   1      -9.645  -6.255  -0.951  0.00  0.00     0.164 HD
ENDROOT
BRANCH   4   6
ATOM      6  C15 ZIN A   1      -9.810  -5.986  -3.321  0.00  0.00     0.166 C 
BRANCH   6   7
ATOM      7  C16 ZIN A   1     -10.791  -4.841  -3.292  0.00  0.00    -0.040 A 
ATOM      8  C22 ZIN A   1     -11.069  -4.141  -4.450  0.00  0.00     0.012 A 
ATOM      9  C21 ZIN A   1     -11.972  -3.094  -4.426  0.00  0.00     0.043 A 
ATOM     10  C19 ZIN A   1     -12.589  -2.741  -3.238  0.00  0.00     0.116 A 
ATOM     11  C18 ZIN A   1     -12.305  -3.440  -2.077  0.00  0.00     0.043 A 
ATOM     12  F20 ZIN A   1     -13.468  -1.715  -3.212  0.00  0.00    -0.206 F 
ATOM     13  C17 ZIN A   1     -11.406  -4.489  -2.105  0.00  0.00     0.012 A 
ENDBRANCH   6   7
ENDBRANCH   4   6
BRANCH   4  14
ATOM     14  C23 ZIN A   1      -7.607  -5.042  -4.154  0.00  0.00     0.092 C 
ATOM     15  C30 ZIN A   1      -6.306  -5.850  -4.148  0.00  0.00     0.053 C 
ATOM     16  C29 ZIN A   1      -5.386  -5.332  -5.255  0.00  0.00     0.236 C 
ATOM     17  N26 ZIN A   1      -5.084  -3.915  -5.024  0.00  0.00    -0.075 N 
ATOM     18  C25 ZIN A   1      -6.319  -3.124  -5.100  0.00  0.00     0.236 C 
ATOM     19  H27 ZIN A   1      -4.671  -3.805  -4.109  0.00  0.00     0.279 HD
ATOM     20  C28 ZIN A   1      -4.139  -3.445  -6.046  0.00  0.00     0.269 C 
ATOM     21  C24 ZIN A   1      -7.275  -3.556  -3.986  0.00  0.00     0.053 C 
ENDBRANCH   4  14
BRANCH   1  22
ATOM     22  C10 ZIN A   1      -8.214  -5.953   0.588  0.00  0.00     0.162 C 
BRANCH  22  23
ATOM     23  C9  ZIN A   1      -9.237  -6.553   1.518  0.00  0.00    -0.040 A 
ATOM     24  C8  ZIN A   1      -9.253  -7.918   1.737  0.00  0.00     0.011 A 
ATOM     25  C7  ZIN A   1     -10.190  -8.471   2.590  0.00  0.00     0.037 A 
ATOM     26  C6  ZIN A   1     -11.114  -7.655   3.225  0.00  0.00     0.068 A 
ATOM     27  C32 ZIN A   1     -11.099  -6.286   2.999  0.00  0.00     0.037 A 
ATOM     28  C31 ZIN A   1     -10.157  -5.738   2.150  0.00  0.00     0.011 A 
BRANCH  26  29
ATOM     29  O5  ZIN A   1     -12.037  -8.196   4.064  0.00  0.00    -0.351 OA
BRANCH  29  30
ATOM     30  C4  ZIN A   1     -11.993  -9.612   4.250  0.00  0.00     0.179 C 
BRANCH  30  31
ATOM     31  C2  ZIN A   1     -13.098 -10.034   5.219  0.00  0.00     0.002 C 
ATOM     32  C1  ZIN A   1     -13.132 -11.560   5.322  0.00  0.00     0.011 C 
ATOM     33  C3  ZIN A   1     -12.821  -9.435   6.600  0.00  0.00     0.011 C 
ENDBRANCH  30  31
ENDBRANCH  29  30
ENDBRANCH  26  29
ENDBRANCH  22  23
ENDBRANCH   1  22
TORSDOF 8
