REMARK  6 active torsions:
REMARK  status: ('A' for Active; 'I' for Inactive)
REMARK    1  A    between atoms: N5_5  and  C7_7 
REMARK    2  A    between atoms: C7_7  and  C10_9 
REMARK    3  A    between atoms: C10_9  and  O11_10 
REMARK    4  A    between atoms: C10_9  and  C12_11 
REMARK    5  A    between atoms: C10_9  and  C18_17 
REMARK    6  A    between atoms: C12_11  and  N13_12 
ROOT
ATOM      1  C10 ZIN A   1       1.369  -4.553  -1.704  0.00  0.00     0.134 C 
ENDROOT
BRANCH   1   2
ATOM      2  C7  ZIN A   1       0.047  -3.784  -1.669  0.00  0.00     0.225 C 
ATOM      3  C9  ZIN A   1      -1.099  -4.753  -1.368  0.00  0.00     0.044 C 
BRANCH   2   4
ATOM      4  N5  ZIN A   1       0.107  -2.756  -0.620  0.00  0.00    -0.063 N 
ATOM      5  C4  ZIN A   1       0.162  -3.406   0.695  0.00  0.00     0.239 C 
ATOM      6  C3  ZIN A   1       0.394  -2.347   1.778  0.00  0.00     0.061 C 
ATOM      7  C2  ZIN A   1      -0.680  -1.288   1.643  0.00  0.00    -0.086 C 
ATOM      8  C1  ZIN A   1      -1.358  -0.873   2.685  0.00  0.00     0.014 C 
ATOM      9  C27 ZIN A   1      -0.949  -0.731   0.261  0.00  0.00     0.061 C 
ATOM     10  C26 ZIN A   1      -1.082  -1.901  -0.714  0.00  0.00     0.239 C 
ATOM     11  H6  ZIN A   1       0.935  -2.194  -0.750  0.00  0.00     0.280 HD
ENDBRANCH   2   4
ENDBRANCH   1   2
BRANCH   1  12
ATOM     12  O11 ZIN A   1       1.488  -5.351  -0.525  0.00  0.00    -0.381 OA
ATOM     13  H37 ZIN A   1       0.782  -6.003  -0.418  0.00  0.00     0.211 HD
ENDBRANCH   1  12
BRANCH   1  14
ATOM     14  C12 ZIN A   1       2.534  -3.563  -1.770  0.00  0.00     0.197 C 
BRANCH  14  15
ATOM     15  N13 ZIN A   1       3.795  -4.300  -1.889  0.00  0.00    -0.259 N 
ATOM     16  N17 ZIN A   1       4.268  -5.304  -1.029  0.00  0.00    -0.165 NA
ATOM     17  C16 ZIN A   1       5.423  -5.692  -1.500  0.00  0.00     0.256 A 
ATOM     18  N15 ZIN A   1       5.703  -4.986  -2.595  0.00  0.00    -0.234 NA
ATOM     19  C14 ZIN A   1       4.732  -4.145  -2.841  0.00  0.00     0.230 A 
ENDBRANCH  14  15
ENDBRANCH   1  14
BRANCH   1  20
ATOM     20  C18 ZIN A   1       1.399  -5.445  -2.919  0.00  0.00     0.018 A 
ATOM     21  C24 ZIN A   1       1.298  -4.894  -4.185  0.00  0.00     0.128 A 
ATOM     22  C23 ZIN A   1       1.330  -5.712  -5.301  0.00  0.00     0.085 A 
ATOM     23  F25 ZIN A   1       1.179  -3.556  -4.332  0.00  0.00    -0.205 F 
ATOM     24  C21 ZIN A   1       1.452  -7.083  -5.149  0.00  0.00     0.119 A 
ATOM     25  C20 ZIN A   1       1.547  -7.633  -3.881  0.00  0.00     0.043 A 
ATOM     26  F22 ZIN A   1       1.478  -7.884  -6.236  0.00  0.00    -0.206 F 
ATOM     27  C19 ZIN A   1       1.520  -6.813  -2.768  0.00  0.00     0.016 A 
ENDBRANCH   1  20
TORSDOF 6
