REMARK  8 active torsions:
REMARK  status: ('A' for Active; 'I' for Inactive)
REMARK    1  A    between atoms: O2_2  and  C3_3 
REMARK    2  A    between atoms: C6_6  and  O7_7 
REMARK    3  A    between atoms: C9_9  and  C10_10 
REMARK    4  A    between atoms: C10_10  and  O12_11 
REMARK    5  A    between atoms: C10_10  and  C13_12 
REMARK    6  A    between atoms: C13_12  and  N14_13 
REMARK       I    between atoms: N14_13  and  C15_14 
REMARK    7  A    between atoms: C15_14  and  C17_16 
REMARK    8  A    between atoms: C17_16  and  N18_17 
ROOT
ATOM      1  C10 ZIN A   1      -2.535  -4.173   0.014  0.00  0.00     0.171 C 
ENDROOT
BRANCH   1   2
ATOM      2  C9  ZIN A   1      -2.477  -2.668   0.017  0.00  0.00     0.008 A 
ATOM      3  C6  ZIN A   1      -3.650  -1.928   0.027  0.00  0.00     0.077 A 
ATOM      4  C5  ZIN A   1      -3.596  -0.542   0.028  0.00  0.00     0.040 A 
ATOM      5  C4  ZIN A   1      -2.374   0.102   0.019  0.00  0.00     0.039 A 
ATOM      6  C3  ZIN A   1      -1.201  -0.638   0.010  0.00  0.00     0.069 A 
ATOM      7  C22 ZIN A   1      -1.255  -2.024   0.003  0.00  0.00     0.049 A 
BRANCH   3   8
ATOM      8  O7  ZIN A   1      -4.853  -2.562   0.035  0.00  0.00    -0.355 OA
ATOM      9  C8  ZIN A   1      -6.021  -1.738   0.044  0.00  0.00     0.210 C 
ENDBRANCH   3   8
BRANCH   6  10
ATOM     10  O2  ZIN A   1       0.002  -0.004   0.002  0.00  0.00    -0.356 OA
ATOM     11  C1  ZIN A   1      -0.017   1.425   0.010  0.00  0.00     0.210 C 
ENDBRANCH   6  10
ENDBRANCH   1   2
BRANCH   1  12
ATOM     12  O12 ZIN A   1      -1.329  -4.698   0.574  0.00  0.00    -0.389 OA
ATOM     13  H31 ZIN A   1      -0.529  -4.443   0.094  0.00  0.00     0.210 HD
ENDBRANCH   1  12
BRANCH   1  14
ATOM     14  C13 ZIN A   1      -2.691  -4.676  -1.423  0.00  0.00     0.159 C 
BRANCH  14  15
ATOM     15  N14 ZIN A   1      -2.868  -6.130  -1.415  0.00  0.00    -0.357 N 
ATOM     16  C15 ZIN A   1      -3.025  -6.796  -2.576  0.00  0.00     0.243 C 
ATOM     17  O16 ZIN A   1      -3.021  -6.191  -3.627  0.00  0.00    -0.272 OA
ATOM     18  H34 ZIN A   1      -2.871  -6.614  -0.574  0.00  0.00     0.162 HD
BRANCH  16  19
ATOM     19  C17 ZIN A   1      -3.207  -8.292  -2.569  0.00  0.00     0.332 C 
BRANCH  19  20
ATOM     20  N18 ZIN A   1      -3.356  -8.774  -3.948  0.00  0.00    -0.071 N 
ATOM     21  H19 ZIN A   1      -3.478  -9.775  -3.943  0.00  0.00     0.274 HD
ATOM     22  H20 ZIN A   1      -4.163  -8.339  -4.371  0.00  0.00     0.274 HD
ATOM     23  H21 ZIN A   1      -2.531  -8.538  -4.478  0.00  0.00     0.274 HD
ENDBRANCH  19  20
ENDBRANCH  16  19
ENDBRANCH  14  15
ENDBRANCH   1  14
TORSDOF 8
