REMARK  4 active torsions:
REMARK  status: ('A' for Active; 'I' for Inactive)
REMARK    1  A    between atoms: C2_2  and  O3_3 
REMARK    2  A    between atoms: O3_3  and  C4_4 
REMARK    3  A    between atoms: C4_4  and  C6_6 
REMARK    4  A    between atoms: C6_6  and  C7_7 
ROOT
ATOM      1  C6  <0> d   1      -2.902  -2.434   0.017  0.00  0.00     0.078 C 
ATOM      2  C13 <0> d   1      -3.666  -1.975  -1.228  0.00  0.00     0.052 C 
ATOM      3  C14 <0> d   1      -2.958  -2.503  -2.478  0.00  0.00     0.236 C 
ATOM      4  N15 <0> d   1      -2.919  -3.969  -2.440  0.00  0.00    -0.075 N 
ATOM      5  H16 <0> d   1      -3.859  -4.328  -2.361  0.00  0.00     0.279 HD
ATOM      6  C17 <0> d   1      -2.307  -4.474  -3.677  0.00  0.00     0.269 C 
ATOM      7  C18 <0> d   1      -2.127  -4.417  -1.288  0.00  0.00     0.236 C 
ATOM      8  C19 <0> d   1      -2.803  -3.963   0.007  0.00  0.00     0.052 C 
ENDROOT
BRANCH   1   9
ATOM      9  C4  <0> d   1      -1.518  -1.840   0.007  0.00  0.00     0.272 C 
ATOM     10  O5  <0> d   1      -0.550  -2.562  -0.006  0.00  0.00    -0.264 OA
BRANCH   9  11
ATOM     11  O3  <0> d   1      -1.360  -0.507   0.012  0.00  0.00    -0.321 OA
BRANCH  11  12
ATOM     12  C2  <0> d   1       0.002  -0.004   0.002  0.00  0.00     0.174 C 
ATOM     13  C1  <0> d   1      -0.019   1.526   0.010  0.00  0.00     0.034 C 
ENDBRANCH  11  12
ENDBRANCH   9  11
ENDBRANCH   1   9
BRANCH   1  14
ATOM     14  C7  <0> d   1      -3.635  -1.984   1.254  0.00  0.00    -0.040 A 
ATOM     15  C12 <0> d   1      -3.850  -0.637   1.479  0.00  0.00     0.008 A 
ATOM     16  C11 <0> d   1      -4.526  -0.225   2.612  0.00  0.00     0.001 A 
ATOM     17  C10 <0> d   1      -4.979  -1.159   3.525  0.00  0.00     0.000 A 
ATOM     18  C9  <0> d   1      -4.760  -2.506   3.303  0.00  0.00     0.001 A 
ATOM     19  C8  <0> d   1      -4.088  -2.918   2.167  0.00  0.00     0.008 A 
ENDBRANCH   1  14
TORSDOF 4
