REMARK  5 active torsions:
REMARK  status: ('A' for Active; 'I' for Inactive)
REMARK    1  A    between atoms: N2_2  and  C4_4 
REMARK    2  A    between atoms: N2_2  and  C13_13 
REMARK    3  A    between atoms: C4_4  and  C5_5 
REMARK    4  A    between atoms: C6_6  and  C7_7 
REMARK    5  A    between atoms: C13_13  and  C14_14 
ROOT
ATOM      1  C1  <0> d   1       0.174   1.242   0.552  0.00  0.00     0.270 C 
ATOM      2  N2  <0> d   1      -0.211  -0.176   0.546  0.00  0.00    -0.068 N 
ATOM      3  H3  <0> d   1      -1.097  -0.286   1.017  0.00  0.00     0.280 HD
ENDROOT
BRANCH   2   4
ATOM      4  C4  <0> d   1       0.814  -0.966   1.241  0.00  0.00     0.262 C 
BRANCH   4   5
ATOM      5  C5  <0> d   1       0.854  -0.569   2.695  0.00  0.00     0.001 C 
ATOM      6  C6  <0> d   1       0.757  -1.497   3.637  0.00  0.00     0.009 C 
BRANCH   6   7
ATOM      7  C7  <0> d   1       0.799  -2.928   3.273  0.00  0.00    -0.036 A 
ATOM      8  C12 <0> d   1      -0.061  -3.835   3.893  0.00  0.00     0.011 A 
ATOM      9  C11 <0> d   1      -0.021  -5.169   3.544  0.00  0.00     0.001 A 
ATOM     10  C10 <0> d   1       0.877  -5.611   2.589  0.00  0.00     0.000 A 
ATOM     11  C9  <0> d   1       1.737  -4.718   1.974  0.00  0.00     0.001 A 
ATOM     12  C8  <0> d   1       1.702  -3.380   2.310  0.00  0.00     0.011 A 
ENDBRANCH   6   7
ENDBRANCH   4   5
ENDBRANCH   2   4
BRANCH   2  13
ATOM     13  C13 <0> d   1      -0.333  -0.644  -0.841  0.00  0.00     0.274 C 
BRANCH  13  14
ATOM     14  C14 <0> d   1      -1.481   0.065  -1.511  0.00  0.00    -0.021 A 
ATOM     15  C23 <0> d   1      -1.241   1.052  -2.417  0.00  0.00     0.010 A 
ATOM     16  C22 <0> d   1      -2.289   1.715  -3.051  0.00  0.00     0.002 A 
ATOM     17  C21 <0> d   1      -3.585   1.402  -2.776  0.00  0.00     0.012 A 
ATOM     18  C20 <0> d   1      -3.873   0.393  -1.841  0.00  0.00    -0.025 A 
ATOM     19  C15 <0> d   1      -2.806  -0.285  -1.200  0.00  0.00    -0.018 A 
ATOM     20  C19 <0> d   1      -5.198   0.042  -1.531  0.00  0.00     0.012 A 
ATOM     21  C16 <0> d   1      -3.094  -1.295  -0.266  0.00  0.00     0.013 A 
ATOM     22  C17 <0> d   1      -4.389  -1.607   0.011  0.00  0.00     0.001 A 
ATOM     23  C18 <0> d   1      -5.438  -0.941  -0.620  0.00  0.00     0.001 A 
ENDBRANCH  13  14
ENDBRANCH   2  13
TORSDOF 5
