REMARK  7 active torsions:
REMARK  status: ('A' for Active; 'I' for Inactive)
REMARK    1  A    between atoms: N10_10  and  C11_11 
REMARK    2  A    between atoms: N14_14  and  C16_16 
REMARK    3  A    between atoms: C16_16  and  C17_17 
REMARK    4  A    between atoms: C17_17  and  C18_18 
REMARK    5  A    between atoms: C18_18  and  C19_19 
REMARK    6  A    between atoms: C19_19  and  C20_20 
REMARK    7  A    between atoms: C19_19  and  C27_27 
ROOT
ATOM      1  C11 <0> d   1       3.301   2.775  -1.504  0.00  0.00     0.098 C 
ATOM      2  C12 <0> d   1       3.766   2.452  -0.081  0.00  0.00     0.053 C 
ATOM      3  C13 <0> d   1       5.132   1.764  -0.140  0.00  0.00     0.237 C 
ATOM      4  N14 <0> d   1       5.026   0.523  -0.915  0.00  0.00    -0.071 N 
ATOM      5  H15 <0> d   1       4.323  -0.072  -0.502  0.00  0.00     0.279 HD
ATOM      6  C34 <0> d   1       4.650   0.831  -2.300  0.00  0.00     0.237 C 
ATOM      7  C35 <0> d   1       3.265   1.482  -2.324  0.00  0.00     0.053 C 
ENDROOT
BRANCH   4   8
ATOM      8  C16 <0> d   1       6.320  -0.172  -0.905  0.00  0.00     0.235 C 
BRANCH   8   9
ATOM      9  C17 <0> d   1       6.247  -1.400  -1.814  0.00  0.00     0.029 C 
BRANCH   9  10
ATOM     10  C18 <0> d   1       7.596  -2.123  -1.803  0.00  0.00     0.016 C 
BRANCH  10  11
ATOM     11  C19 <0> d   1       7.523  -3.352  -2.712  0.00  0.00     0.051 C 
BRANCH  11  12
ATOM     12  C20 <0> d   1       8.883  -3.994  -2.799  0.00  0.00    -0.049 A 
ATOM     13  C26 <0> d   1       9.571  -4.314  -1.643  0.00  0.00     0.011 A 
ATOM     14  C25 <0> d   1      10.817  -4.907  -1.722  0.00  0.00     0.043 A 
ATOM     15  C23 <0> d   1      11.380  -5.172  -2.958  0.00  0.00     0.116 A 
ATOM     16  C22 <0> d   1      10.693  -4.846  -4.115  0.00  0.00     0.043 A 
ATOM     17  F24 <0> d   1      12.601  -5.747  -3.036  0.00  0.00    -0.206 F 
ATOM     18  C21 <0> d   1       9.445  -4.257  -4.034  0.00  0.00     0.011 A 
ENDBRANCH  11  12
BRANCH  11  19
ATOM     19  C27 <0> d   1       6.537  -4.339  -2.144  0.00  0.00    -0.049 A 
ATOM     20  C33 <0> d   1       5.524  -4.840  -2.940  0.00  0.00     0.011 A 
ATOM     21  C32 <0> d   1       4.621  -5.749  -2.421  0.00  0.00     0.043 A 
ATOM     22  C30 <0> d   1       4.727  -6.151  -1.100  0.00  0.00     0.116 A 
ATOM     23  C29 <0> d   1       5.739  -5.645  -0.302  0.00  0.00     0.043 A 
ATOM     24  F31 <0> d   1       3.842  -7.036  -0.590  0.00  0.00    -0.206 F 
ATOM     25  C28 <0> d   1       6.643  -4.739  -0.825  0.00  0.00     0.011 A 
ENDBRANCH  11  19
ENDBRANCH  10  11
ENDBRANCH   9  10
ENDBRANCH   8   9
ENDBRANCH   4   8
BRANCH   1  26
ATOM     26  N10 <0> d   1       1.960   3.364  -1.459  0.00  0.00    -0.293 N 
ATOM     27  C2  <0> d   1       0.858   2.776  -0.958  0.00  0.00     0.328 A 
ATOM     28  O1  <0> d   1       0.818   1.663  -0.468  0.00  0.00    -0.246 OA
ATOM     29  N3  <0> d   1      -0.194   3.608  -1.077  0.00  0.00    -0.306 N 
ATOM     30  C4  <0> d   1       0.243   4.783  -1.685  0.00  0.00     0.063 A 
ATOM     31  H36 <0> d   1      -1.101   3.421  -0.789  0.00  0.00     0.171 HD
ATOM     32  C9  <0> d   1       1.609   4.626  -1.931  0.00  0.00     0.066 A 
ATOM     33  C5  <0> d   1      -0.393   5.959  -2.049  0.00  0.00     0.032 A 
ATOM     34  C8  <0> d   1       2.323   5.648  -2.538  0.00  0.00     0.032 A 
ATOM     35  C7  <0> d   1       1.680   6.817  -2.896  0.00  0.00     0.002 A 
ATOM     36  C6  <0> d   1       0.327   6.972  -2.652  0.00  0.00     0.002 A 
ENDBRANCH   1  26
TORSDOF 7
