REMARK  5 active torsions:
REMARK  status: ('A' for Active; 'I' for Inactive)
REMARK    1  A    between atoms: O2_2  and  C3_3 
REMARK    2  A    between atoms: C4_4  and  O5_5 
REMARK    3  A    between atoms: C12_12  and  N13_13 
REMARK       I    between atoms: N16_16  and  C17_17 
REMARK    4  A    between atoms: C17_17  and  C19_19 
REMARK    5  A    between atoms: C28_27  and  N29_28 
ROOT
ATOM      1  C3  ZIN A   1       0.626  -0.618   1.041  0.00  0.00     0.103 A 
ATOM      2  C4  ZIN A   1       0.682  -2.018   1.086  0.00  0.00     0.102 A 
ATOM      3  C7  ZIN A   1       1.305  -2.658   2.120  0.00  0.00     0.057 A 
ATOM      4  C8  ZIN A   1       1.892  -1.909   3.147  0.00  0.00     0.041 A 
ATOM      5  C9  ZIN A   1       1.838  -0.494   3.108  0.00  0.00     0.077 A 
ATOM      6  C10 ZIN A   1       1.200   0.142   2.037  0.00  0.00     0.072 A 
ATOM      7  N11 ZIN A   1       2.409   0.202   4.104  0.00  0.00    -0.217 NA
ATOM      8  C12 ZIN A   1       3.009  -0.424   5.098  0.00  0.00     0.206 A 
ATOM      9  N27 ZIN A   1       3.082  -1.750   5.173  0.00  0.00    -0.200 NA
ATOM     10  C28 ZIN A   1       2.549  -2.526   4.240  0.00  0.00     0.137 A 
ENDROOT
BRANCH   8  11
ATOM     11  N13 ZIN A   1       3.585   0.330   6.106  0.00  0.00    -0.248 NA
ATOM     12  C26 ZIN A   1       4.202  -0.534   7.122  0.00  0.00     0.118 C 
ATOM     13  C25 ZIN A   1       4.667   0.325   8.303  0.00  0.00     0.140 C 
ATOM     14  N16 ZIN A   1       5.532   1.398   7.789  0.00  0.00    -0.348 N 
ATOM     15  C15 ZIN A   1       5.035   2.219   6.675  0.00  0.00     0.140 C 
ATOM     16  C17 ZIN A   1       6.748   1.622   8.325  0.00  0.00     0.248 C 
ATOM     17  C14 ZIN A   1       4.556   1.286   5.558  0.00  0.00     0.118 C 
ATOM     18  O18 ZIN A   1       7.448   2.511   7.889  0.00  0.00    -0.270 OA
BRANCH  16  19
ATOM     19  C19 ZIN A   1       7.238   0.768   9.466  0.00  0.00     0.213 C 
ATOM     20  O24 ZIN A   1       8.577   1.140   9.811  0.00  0.00    -0.376 OA
ATOM     21  C23 ZIN A   1       8.616   1.629  11.163  0.00  0.00     0.168 C 
ATOM     22  C22 ZIN A   1       7.393   0.983  11.862  0.00  0.00     0.029 C 
ATOM     23  C21 ZIN A   1       6.353   0.998  10.710  0.00  0.00     0.043 C 
ENDBRANCH  16  19
ENDBRANCH   8  11
BRANCH  10  24
ATOM     24  N29 ZIN A   1       2.633  -3.899   4.330  0.00  0.00    -0.383 N 
ATOM     25  H52 ZIN A   1       3.086  -4.309   5.083  0.00  0.00     0.157 HD
ATOM     26  H53 ZIN A   1       2.239  -4.456   3.640  0.00  0.00     0.157 HD
ENDBRANCH  10  24
BRANCH   1  27
ATOM     27  O2  ZIN A   1       0.002  -0.004   0.002  0.00  0.00    -0.353 OA
ATOM     28  C1  ZIN A   1      -0.017   1.425   0.010  0.00  0.00     0.210 C 
ENDBRANCH   1  27
BRANCH   2  29
ATOM     29  O5  ZIN A   1       0.113  -2.746   0.089  0.00  0.00    -0.353 OA
ATOM     30  C6  ZIN A   1       0.204  -4.169   0.192  0.00  0.00     0.210 C 
ENDBRANCH   2  29
TORSDOF 5
