REMARK  6 active torsions:
REMARK  status: ('A' for Active; 'I' for Inactive)
REMARK    1  A    between atoms: C2_2  and  N3_3 
REMARK    2  A    between atoms: N3_3  and  C5_5 
REMARK    3  A    between atoms: N3_3  and  C7_7 
REMARK    4  A    between atoms: C7_7  and  C8_8 
REMARK    5  A    between atoms: C8_8  and  N9_9 
REMARK    6  A    between atoms: C17_17  and  C18_18 
ROOT
ATOM      1  N9  <0> d   1       2.175  -4.306   2.232  0.00  0.00    -0.314 N 
ATOM      2  C10 <0> d   1       1.257  -5.196   2.770  0.00  0.00     0.050 A 
ATOM      3  C11 <0> d   1      -0.072  -5.070   2.362  0.00  0.00     0.032 A 
ATOM      4  C12 <0> d   1      -1.042  -5.916   2.853  0.00  0.00     0.026 A 
ATOM      5  C13 <0> d   1      -0.704  -6.906   3.763  0.00  0.00     0.035 A 
ATOM      6 Cl14 <0> d   1      -1.927  -7.971   4.381  0.00  0.00    -0.084 Cl
ATOM      7  C15 <0> d   1       0.603  -7.045   4.176  0.00  0.00     0.040 A 
ATOM      8  C16 <0> d   1       1.600  -6.191   3.683  0.00  0.00     0.022 A 
ATOM      9  C17 <0> d   1       2.975  -6.399   4.164  0.00  0.00     0.077 C 
ATOM     10  N25 <0> d   1       4.030  -6.325   3.432  0.00  0.00    -0.279 NA
ATOM     11  C26 <0> d   1       3.959  -6.010   2.006  0.00  0.00     0.252 C 
ATOM     12  C27 <0> d   1       3.406  -4.621   1.836  0.00  0.00     0.244 C 
ATOM     13  O28 <0> d   1       4.102  -3.766   1.332  0.00  0.00    -0.271 OA
ENDROOT
BRANCH   1  14
ATOM     14  C8  <0> d   1       1.755  -2.910   2.084  0.00  0.00     0.160 C 
BRANCH  14  15
ATOM     15  C7  <0> d   1       1.247  -2.679   0.660  0.00  0.00     0.255 C 
BRANCH  15  16
ATOM     16  N3  <0> d   1       0.702  -1.319   0.549  0.00  0.00    -0.070 N 
ATOM     17  H4  <0> d   1      -0.004  -1.181   1.257  0.00  0.00     0.279 HD
BRANCH  16  18
ATOM     18  C2  <0> d   1       1.783  -0.342   0.738  0.00  0.00     0.230 C 
ATOM     19  C1  <0> d   1       1.197   1.071   0.747  0.00  0.00     0.034 C 
ENDBRANCH  16  18
BRANCH  16  20
ATOM     20  C5  <0> d   1       0.104  -1.138  -0.781  0.00  0.00     0.230 C 
ATOM     21  C6  <0> d   1      -1.118  -2.047  -0.918  0.00  0.00     0.034 C 
ENDBRANCH  16  20
ENDBRANCH  15  16
ENDBRANCH  14  15
ENDBRANCH   1  14
BRANCH   9  22
ATOM     22  C18 <0> d   1       3.158  -6.718   5.598  0.00  0.00     0.032 A 
ATOM     23  C23 <0> d   1       2.838  -5.771   6.574  0.00  0.00     0.129 A 
ATOM     24  C22 <0> d   1       3.006  -6.078   7.912  0.00  0.00     0.043 A 
ATOM     25  F24 <0> d   1       2.354  -4.562   6.213  0.00  0.00    -0.205 F 
ATOM     26  C21 <0> d   1       3.501  -7.315   8.282  0.00  0.00     0.003 A 
ATOM     27  C20 <0> d   1       3.825  -8.255   7.319  0.00  0.00     0.001 A 
ATOM     28  C19 <0> d   1       3.656  -7.963   5.981  0.00  0.00     0.017 A 
ENDBRANCH   9  22
TORSDOF 6
