REMARK  8 active torsions:
REMARK  status: ('A' for Active; 'I' for Inactive)
REMARK    1  A    between atoms: C2_2  and  N4_4 
REMARK    2  A    between atoms: C2_2  and  C35_33 
REMARK       I    between atoms: N4_4  and  C5_5 
REMARK    3  A    between atoms: C5_5  and  C7_7 
REMARK    4  A    between atoms: C9_9  and  O10_10 
REMARK    5  A    between atoms: C17_16  and  O18_17 
REMARK    6  A    between atoms: N29_27  and  C31_29 
REMARK    7  A    between atoms: C31_29  and  C32_30 
REMARK    8  A    between atoms: C37_35  and  C38_36 
ROOT
ATOM      1  C7  ZIN A   1      -3.547  -1.060   1.175  0.00  0.00     0.153 C 
ATOM      2  C8  ZIN A   1      -4.244  -0.572   2.446  0.00  0.00     0.063 C 
ATOM      3  C9  ZIN A   1      -5.736  -0.883   2.338  0.00  0.00     0.102 C 
ATOM      4  C11 ZIN A   1      -6.459  -0.436   3.611  0.00  0.00     0.227 C 
ATOM      5  C13 ZIN A   1      -6.299   1.038   3.938  0.00  0.00     0.075 C 
ATOM      6  C14 ZIN A   1      -6.176   1.907   2.729  0.00  0.00    -0.046 A 
ATOM      7  C15 ZIN A   1      -6.189   1.329   1.481  0.00  0.00    -0.001 A 
ATOM      8  C16 ZIN A   1      -5.958   1.988   0.282  0.00  0.00     0.110 A 
ATOM      9  C17 ZIN A   1      -5.797   3.377   0.320  0.00  0.00     0.099 A 
ATOM     10  C19 ZIN A   1      -5.856   3.987   1.572  0.00  0.00     0.040 A 
ATOM     11  C20 ZIN A   1      -6.033   3.284   2.752  0.00  0.00     0.011 A 
ATOM     12  O21 ZIN A   1      -5.891   1.100  -0.733  0.00  0.00    -0.334 OA
ATOM     13  C22 ZIN A   1      -5.669  -0.233  -0.181  0.00  0.00     0.215 C 
ATOM     14  C24 ZIN A   1      -4.169  -0.420  -0.030  0.00  0.00     0.170 C 
ATOM     15  O25 ZIN A   1      -3.450  -0.049  -0.926  0.00  0.00    -0.294 OA
ATOM     16  C26 ZIN A   1      -6.347  -0.121   1.173  0.00  0.00     0.058 C 
ATOM     17  C27 ZIN A   1      -7.838  -0.442   1.096  0.00  0.00     0.048 C 
ATOM     18  C28 ZIN A   1      -8.490  -0.033   2.423  0.00  0.00     0.236 C 
ATOM     19  N29 ZIN A   1      -7.884  -0.770   3.503  0.00  0.00    -0.063 N 
ATOM     20  H30 ZIN A   1      -8.008  -1.758   3.342  0.00  0.00     0.280 HD
ENDROOT
BRANCH   1  21
ATOM     21  C5  ZIN A   1      -2.086  -0.697   1.235  0.00  0.00     0.230 C 
ATOM     22  N4  ZIN A   1      -1.264  -1.038   0.222  0.00  0.00    -0.344 N 
ATOM     23  H52 ZIN A   1      -1.614  -1.517  -0.545  0.00  0.00     0.163 HD
ATOM     24  O6  ZIN A   1      -1.649  -0.097   2.195  0.00  0.00    -0.273 OA
BRANCH  22  25
ATOM     25  C2  ZIN A   1       0.156  -0.685   0.281  0.00  0.00     0.095 C 
ATOM     26  C1  ZIN A   1       0.301   0.835   0.378  0.00  0.00     0.047 C 
ATOM     27  C3  ZIN A   1       0.793  -1.337   1.510  0.00  0.00     0.047 C 
BRANCH  25  28
ATOM     28  C35 ZIN A   1       0.848  -1.177  -0.964  0.00  0.00     0.200 A 
ATOM     29  O45 ZIN A   1       0.281  -1.836  -1.980  0.00  0.00    -0.193 OA
ATOM     30  N44 ZIN A   1       1.111  -2.086  -2.828  0.00  0.00    -0.105 NA
ATOM     31  C37 ZIN A   1       2.281  -1.635  -2.458  0.00  0.00     0.189 A 
ATOM     32  N36 ZIN A   1       2.119  -1.045  -1.252  0.00  0.00    -0.201 NA
BRANCH  31  33
ATOM     33  C38 ZIN A   1       3.550  -1.749  -3.219  0.00  0.00     0.014 A 
ATOM     34  C43 ZIN A   1       3.568  -2.388  -4.457  0.00  0.00     0.015 A 
ATOM     35  C42 ZIN A   1       4.750  -2.486  -5.163  0.00  0.00     0.001 A 
ATOM     36  C41 ZIN A   1       5.918  -1.962  -4.638  0.00  0.00     0.000 A 
ATOM     37  C40 ZIN A   1       5.907  -1.332  -3.407  0.00  0.00     0.001 A 
ATOM     38  C39 ZIN A   1       4.729  -1.223  -2.695  0.00  0.00     0.015 A 
ENDBRANCH  31  33
ENDBRANCH  25  28
ENDBRANCH  22  25
ENDBRANCH   1  21
BRANCH   3  39
ATOM     39  O10 ZIN A   1      -5.919  -2.287   2.140  0.00  0.00    -0.386 OA
ATOM     40  H56 ZIN A   1      -5.566  -2.834   2.855  0.00  0.00     0.210 HD
ENDBRANCH   3  39
BRANCH  19  41
ATOM     41  C31 ZIN A   1      -8.536  -0.401   4.766  0.00  0.00     0.240 C 
BRANCH  41  42
ATOM     42  C32 ZIN A   1      -9.982  -0.900   4.759  0.00  0.00     0.011 A 
ATOM     43  C34 ZIN A   1     -10.870  -0.512   5.942  0.00  0.00     0.007 A 
ATOM     44  C33 ZIN A   1     -10.372  -1.952   5.800  0.00  0.00     0.007 A 
ENDBRANCH  41  42
ENDBRANCH  19  41
BRANCH   9  45
ATOM     45  O18 ZIN A   1      -5.591   4.100  -0.813  0.00  0.00    -0.358 OA
ATOM     46  H59 ZIN A   1      -6.404   4.413  -1.233  0.00  0.00     0.217 HD
ENDBRANCH   9  45
TORSDOF 8
