REMARK  2 active torsions:
REMARK  status: ('A' for Active; 'I' for Inactive)
REMARK       I    between atoms: N1_1  and  C2_2 
REMARK    1  A    between atoms: C2_2  and  C4_4 
REMARK    2  A    between atoms: C9_9  and  O10_10 
ROOT
ATOM      1  C4  ZIN A   1      -1.266  -0.759   0.010  0.00  0.00     0.064 A 
ATOM      2  C5  ZIN A   1      -2.487  -0.081   0.019  0.00  0.00     0.020 A 
ATOM      3  C6  ZIN A   1      -3.667  -0.792   0.026  0.00  0.00     0.001 A 
ATOM      4  C7  ZIN A   1      -3.649  -2.177   0.024  0.00  0.00     0.003 A 
ATOM      5  C8  ZIN A   1      -2.448  -2.860   0.015  0.00  0.00     0.037 A 
ATOM      6  C9  ZIN A   1      -1.251  -2.161   0.002  0.00  0.00     0.081 A 
ENDROOT
BRANCH   1   7
ATOM      7  C2  ZIN A   1       0.002  -0.004   0.002  0.00  0.00     0.252 C 
ATOM      8  N1  ZIN A   1      -0.016   1.344   0.009  0.00  0.00    -0.366 N 
ATOM      9  H11 ZIN A   1       0.817   1.840   0.004  0.00  0.00     0.159 HD
ATOM     10  H12 ZIN A   1      -0.863   1.817   0.016  0.00  0.00     0.159 HD
ATOM     11  O3  ZIN A   1       1.063  -0.598  -0.011  0.00  0.00    -0.268 OA
ENDBRANCH   1   7
BRANCH   6  12
ATOM     12  O10 ZIN A   1      -0.071  -2.830  -0.007  0.00  0.00    -0.360 OA
ATOM     13  H17 ZIN A   1       0.263  -3.026  -0.893  0.00  0.00     0.217 HD
ENDBRANCH   6  12
TORSDOF 2
