REMARK  0 active torsions:
REMARK  status: ('A' for Active; 'I' for Inactive)
ROOT
ATOM      1  C1  ZIN A   1      -0.018   1.465   0.010  0.00  0.00     0.269 C 
ATOM      2  N2  ZIN A   1       0.002  -0.004   0.002  0.00  0.00    -0.074 N 
ATOM      3  H3  ZIN A   1      -0.945  -0.351   0.009  0.00  0.00     0.279 HD
ATOM      4  C4  ZIN A   1       0.706  -0.487   1.196  0.00  0.00     0.238 C 
ATOM      5  C5  ZIN A   1       0.580  -2.013   1.281  0.00  0.00     0.062 C 
ATOM      6  C6  ZIN A   1       1.075  -2.602  -0.024  0.00  0.00    -0.065 C 
ATOM      7  C7  ZIN A   1       1.946  -3.622  -0.038  0.00  0.00    -0.011 C 
ATOM      8  C8  ZIN A   1       2.450  -4.211   1.225  0.00  0.00    -0.015 A 
ATOM      9  C9  ZIN A   1       1.557  -4.753   2.144  0.00  0.00     0.013 A 
ATOM     10  C10 ZIN A   1       2.030  -5.342   3.299  0.00  0.00     0.001 A 
ATOM     11  C11 ZIN A   1       3.391  -5.401   3.547  0.00  0.00     0.001 A 
ATOM     12  C12 ZIN A   1       4.290  -4.854   2.657  0.00  0.00     0.012 A 
ATOM     13  C13 ZIN A   1       3.831  -4.229   1.490  0.00  0.00    -0.025 A 
ATOM     14  C14 ZIN A   1       4.784  -3.574   0.600  0.00  0.00     0.013 C 
ATOM     15  C15 ZIN A   1       4.775  -3.563  -0.717  0.00  0.00     0.013 C 
ATOM     16  C16 ZIN A   1       3.810  -4.204  -1.604  0.00  0.00    -0.025 A 
ATOM     17  C17 ZIN A   1       4.256  -4.839  -2.771  0.00  0.00     0.012 A 
ATOM     18  C18 ZIN A   1       3.349  -5.407  -3.639  0.00  0.00     0.001 A 
ATOM     19  C19 ZIN A   1       1.990  -5.354  -3.372  0.00  0.00     0.001 A 
ATOM     20  C20 ZIN A   1       1.530  -4.749  -2.220  0.00  0.00     0.013 A 
ATOM     21  C21 ZIN A   1       2.426  -4.194  -1.318  0.00  0.00    -0.015 A 
ATOM     22  C22 ZIN A   1       0.552  -1.999  -1.311  0.00  0.00     0.062 C 
ATOM     23  C23 ZIN A   1       0.683  -0.474  -1.210  0.00  0.00     0.238 C 
ENDROOT
TORSDOF 0
