REMARK  2 active torsions:
REMARK  status: ('A' for Active; 'I' for Inactive)
REMARK    1  A    between atoms: C8_8  and  N9_9 
REMARK       I    between atoms: N9_9  and  C10_10 
REMARK    2  A    between atoms: C10_10  and  C12_12 
ROOT
ATOM      1  N9  <0> d   1       0.328  -0.045   2.454  0.00  0.00    -0.324 N 
ATOM      2  C10 <0> d   1       0.433   1.299   2.441  0.00  0.00     0.253 C 
ATOM      3  O11 <0> d   1       0.349   1.903   1.393  0.00  0.00    -0.271 OA
ATOM      4  H30 <0> d   1       0.347  -0.525   3.297  0.00  0.00     0.169 HD
ENDROOT
BRANCH   1   5
ATOM      5  C8  <0> d   1       0.193  -0.748   1.252  0.00  0.00     0.046 A 
ATOM      6  C2  <0> d   1      -0.948  -0.587   0.476  0.00  0.00    -0.035 A 
ATOM      7  C1  <0> d   1      -2.039   0.350   0.925  0.00  0.00     0.050 C 
ATOM      8  C3  <0> d   1      -1.078  -1.282  -0.711  0.00  0.00     0.009 A 
ATOM      9  C4  <0> d   1      -0.077  -2.142  -1.123  0.00  0.00     0.001 A 
ATOM     10  C5  <0> d   1       1.057  -2.309  -0.350  0.00  0.00     0.009 A 
ATOM     11  C6  <0> d   1       1.194  -1.617   0.837  0.00  0.00    -0.035 A 
ATOM     12  C7  <0> d   1       2.431  -1.799   1.678  0.00  0.00     0.050 C 
ENDBRANCH   1   5
BRANCH   2  13
ATOM     13  C12 <0> d   1       0.656   2.050   3.728  0.00  0.00     0.279 C 
ATOM     14  N18 <0> d   1       1.391   3.289   3.450  0.00  0.00    -0.062 N 
ATOM     15  C17 <0> d   1       1.679   3.990   4.707  0.00  0.00     0.235 C 
ATOM     16  H19 <0> d   1       0.834   3.884   2.854  0.00  0.00     0.280 HD
ATOM     17  C20 <0> d   1       2.653   2.964   2.771  0.00  0.00     0.270 C 
ATOM     18  C16 <0> d   1       0.367   4.401   5.378  0.00  0.00     0.028 C 
ATOM     19  C15 <0> d   1      -0.465   3.149   5.669  0.00  0.00     0.004 C 
ATOM     20  C14 <0> d   1      -0.696   2.386   4.362  0.00  0.00     0.043 C 
ENDBRANCH   2  13
TORSDOF 2
