REMARK  4 active torsions:
REMARK  status: ('A' for Active; 'I' for Inactive)
REMARK    1  A    between atoms: N1_1  and  C5_5 
REMARK    2  A    between atoms: C5_5  and  C7_6 
REMARK    3  A    between atoms: C5_5  and  C13_12 
REMARK    4  A    between atoms: C7_6  and  C8_7 
ROOT
ATOM      1  C5  <0> d   1      -0.699   1.479   1.216  0.00  0.00     0.289 C 
ENDROOT
BRANCH   1   2
ATOM      2  N1  <0> d   1      -0.012   1.005   0.008  0.00  0.00    -0.065 N 
ATOM      3  H2  <0> d   1       0.002  -0.004   0.002  0.00  0.00     0.275 HD
ATOM      4  H3  <0> d   1       0.935   1.354   0.000  0.00  0.00     0.275 HD
ATOM      5  H4  <0> d   1      -0.500   1.339  -0.810  0.00  0.00     0.275 HD
ENDBRANCH   1   2
BRANCH   1   6
ATOM      6  C7  <0> d   1       0.041   0.972   2.456  0.00  0.00     0.102 C 
BRANCH   6   7
ATOM      7  C8  <0> d   1      -0.045  -0.532   2.512  0.00  0.00     0.030 A 
ATOM      8  N12 <0> d   1       0.885  -1.420   2.041  0.00  0.00    -0.353 N 
ATOM      9  C11 <0> d   1       0.416  -2.661   2.296  0.00  0.00     0.207 A 
ATOM     10  H20 <0> d   1       1.725  -1.199   1.611  0.00  0.00     0.166 HD
ATOM     11  N10 <0> d   1      -0.744  -2.557   2.884  0.00  0.00    -0.254 NA
ATOM     12  C9  <0> d   1      -1.052  -1.260   3.030  0.00  0.00     0.143 A 
ENDBRANCH   6   7
ENDBRANCH   1   6
BRANCH   1  13
ATOM     13  C13 <0> d   1      -0.720   2.985   1.224  0.00  0.00     0.204 C 
ATOM     14  O14 <0> d   1      -1.399   3.581   2.043  0.00  0.00    -0.646 OA
ATOM     15  O15 <0> d   1      -0.057   3.608   0.413  0.00  0.00    -0.646 OA
ENDBRANCH   1  13
TORSDOF 4
