REMARK  14 active torsions:
REMARK  status: ('A' for Active; 'I' for Inactive)
REMARK    1  A    between atoms: C2_2  and  N5_5 
REMARK       I    between atoms: N5_5  and  C6_6 
REMARK    2  A    between atoms: C6_6  and  C8_8 
REMARK    3  A    between atoms: N20_17  and  C22_19 
REMARK    4  A    between atoms: C22_19  and  C23_20 
REMARK    5  A    between atoms: C23_20  and  O25_21 
REMARK    6  A    between atoms: C23_20  and  C26_22 
REMARK    7  A    between atoms: C26_22  and  C28_23 
REMARK    8  A    between atoms: C26_22  and  N35_30 
REMARK    9  A    between atoms: C28_23  and  C29_24 
REMARK       I    between atoms: N35_30  and  C36_31 
REMARK   10  A    between atoms: C36_31  and  C38_33 
REMARK   11  A    between atoms: C38_33  and  C40_34 
REMARK   12  A    between atoms: C38_33  and  N44_38 
REMARK   13  A    between atoms: C40_34  and  C41_35 
REMARK       I    between atoms: C41_35  and  N42_36 
REMARK       I    between atoms: N44_38  and  C45_39 
REMARK   14  A    between atoms: C45_39  and  C47_41 
ROOT
ATOM      1  C26 ZIN A   1       5.647   3.140  -3.434  0.00  0.00     0.119 C 
ENDROOT
BRANCH   1   2
ATOM      2  C23 ZIN A   1       6.083   1.678  -3.545  0.00  0.00     0.167 C 
BRANCH   2   3
ATOM      3  C22 ZIN A   1       4.847   0.777  -3.558  0.00  0.00     0.269 C 
BRANCH   3   4
ATOM      4  N20 ZIN A   1       5.267  -0.631  -3.545  0.00  0.00    -0.055 N 
ATOM      5  C8  ZIN A   1       4.071  -1.475  -3.648  0.00  0.00     0.279 C 
ATOM      6  C10 ZIN A   1       4.482  -2.948  -3.693  0.00  0.00     0.048 C 
ATOM      7  C11 ZIN A   1       5.243  -3.295  -2.408  0.00  0.00    -0.006 C 
ATOM      8  C17 ZIN A   1       6.451  -2.363  -2.285  0.00  0.00     0.016 C 
ATOM      9  C13 ZIN A   1       4.310  -3.108  -1.210  0.00  0.00     0.005 C 
ATOM     10  C16 ZIN A   1       7.193  -2.647  -0.979  0.00  0.00     0.007 C 
ATOM     11  C19 ZIN A   1       5.942  -0.921  -2.291  0.00  0.00     0.241 C 
ATOM     12  C15 ZIN A   1       6.255  -2.457   0.215  0.00  0.00     0.000 C 
ATOM     13  C14 ZIN A   1       5.067  -3.413   0.083  0.00  0.00     0.000 C 
ATOM     14  H21 ZIN A   1       5.900  -0.799  -4.312  0.00  0.00     0.281 HD
BRANCH   5  15
ATOM     15  C6  ZIN A   1       3.185  -1.237  -2.453  0.00  0.00     0.249 C 
ATOM     16  N5  ZIN A   1       2.083  -1.992  -2.270  0.00  0.00    -0.351 N 
ATOM     17  H66 ZIN A   1       1.860  -2.688  -2.908  0.00  0.00     0.163 HD
ATOM     18  O7  ZIN A   1       3.463  -0.367  -1.655  0.00  0.00    -0.271 OA
BRANCH  16  19
ATOM     19  C2  ZIN A   1       1.222  -1.761  -1.108  0.00  0.00     0.022 C 
ATOM     20  C1  ZIN A   1       0.686  -0.329  -1.146  0.00  0.00     0.037 C 
ATOM     21  C3  ZIN A   1       2.029  -1.970   0.175  0.00  0.00     0.037 C 
ATOM     22  C4  ZIN A   1       0.050  -2.745  -1.138  0.00  0.00     0.037 C 
ENDBRANCH  16  19
ENDBRANCH   5  15
ENDBRANCH   3   4
ENDBRANCH   2   3
BRANCH   2  23
ATOM     23  O25 ZIN A   1       6.821   1.492  -4.755  0.00  0.00    -0.392 OA
ATOM     24  H81 ZIN A   1       6.323   1.703  -5.556  0.00  0.00     0.210 HD
ENDBRANCH   2  23
ENDBRANCH   1   2
BRANCH   1  25
ATOM     25  C28 ZIN A   1       4.870   3.538  -4.690  0.00  0.00     0.066 C 
BRANCH  25  26
ATOM     26  C29 ZIN A   1       4.335   4.938  -4.529  0.00  0.00    -0.056 A 
ATOM     27  C34 ZIN A   1       5.094   6.019  -4.936  0.00  0.00     0.007 A 
ATOM     28  C33 ZIN A   1       4.601   7.302  -4.792  0.00  0.00     0.001 A 
ATOM     29  C32 ZIN A   1       3.354   7.505  -4.231  0.00  0.00     0.000 A 
ATOM     30  C31 ZIN A   1       2.598   6.425  -3.818  0.00  0.00     0.001 A 
ATOM     31  C30 ZIN A   1       3.088   5.141  -3.967  0.00  0.00     0.007 A 
ENDBRANCH  25  26
ENDBRANCH   1  25
BRANCH   1  32
ATOM     32  N35 ZIN A   1       6.830   3.994  -3.301  0.00  0.00    -0.352 N 
ATOM     33  C36 ZIN A   1       6.729   5.197  -2.701  0.00  0.00     0.241 C 
ATOM     34  O37 ZIN A   1       5.659   5.573  -2.272  0.00  0.00    -0.271 OA
ATOM     35  H89 ZIN A   1       7.686   3.694  -3.645  0.00  0.00     0.163 HD
BRANCH  33  36
ATOM     36  C38 ZIN A   1       7.946   6.075  -2.565  0.00  0.00     0.185 C 
BRANCH  36  37
ATOM     37  C40 ZIN A   1       9.014   5.344  -1.749  0.00  0.00     0.137 C 
BRANCH  37  38
ATOM     38  C41 ZIN A   1       8.470   5.027  -0.379  0.00  0.00     0.217 C 
ATOM     39  N42 ZIN A   1       9.192   4.275   0.475  0.00  0.00    -0.370 N 
ATOM     40  H92 ZIN A   1      10.061   3.937   0.208  0.00  0.00     0.159 HD
ATOM     41  H93 ZIN A   1       8.842   4.071   1.356  0.00  0.00     0.159 HD
ATOM     42  O43 ZIN A   1       7.383   5.449  -0.046  0.00  0.00    -0.274 OA
ENDBRANCH  37  38
ENDBRANCH  36  37
BRANCH  36  43
ATOM     43  N44 ZIN A   1       7.577   7.318  -1.883  0.00  0.00    -0.342 N 
ATOM     44  C45 ZIN A   1       8.275   8.448  -2.117  0.00  0.00     0.271 C 
ATOM     45  O46 ZIN A   1       9.151   8.457  -2.959  0.00  0.00    -0.266 OA
ATOM     46  H94 ZIN A   1       6.831   7.329  -1.264  0.00  0.00     0.163 HD
BRANCH  44  47
ATOM     47  C47 ZIN A   1       7.973   9.678  -1.347  0.00  0.00     0.125 A 
ATOM     48  N56 ZIN A   1       7.019   9.651  -0.437  0.00  0.00    -0.243 NA
ATOM     49  C55 ZIN A   1       6.717  10.732   0.282  0.00  0.00     0.068 A 
ATOM     50  C50 ZIN A   1       7.420  11.946   0.067  0.00  0.00    -0.007 A 
ATOM     51  C54 ZIN A   1       5.700  10.694   1.256  0.00  0.00     0.032 A 
ATOM     52  C49 ZIN A   1       8.436  11.986  -0.905  0.00  0.00     0.016 A 
ATOM     53  C51 ZIN A   1       7.091  13.081   0.826  0.00  0.00     0.014 A 
ATOM     54  C48 ZIN A   1       8.705  10.846  -1.607  0.00  0.00     0.038 A 
ATOM     55  C52 ZIN A   1       6.102  13.004   1.758  0.00  0.00     0.001 A 
ATOM     56  C53 ZIN A   1       5.409  11.813   1.971  0.00  0.00     0.002 A 
ENDBRANCH  44  47
ENDBRANCH  36  43
ENDBRANCH  33  36
ENDBRANCH   1  32
TORSDOF 14
