REMARK  3 active torsions:
REMARK  status: ('A' for Active; 'I' for Inactive)
REMARK    1  A    between atoms: C4_4  and  C5_5 
REMARK    2  A    between atoms: C5_5  and  N6_6 
REMARK    3  A    between atoms: C14_14  and  O15_15 
ROOT
ATOM      1  N6  ZIN A   1      -3.264  -0.387  -1.103  0.00  0.00    -0.063 N 
ATOM      2  H7  ZIN A   1      -2.743  -0.268  -1.959  0.00  0.00     0.280 HD
ATOM      3  C8  ZIN A   1      -3.580  -1.807  -0.930  0.00  0.00     0.237 C 
ATOM      4  C9  ZIN A   1      -4.442  -2.289  -2.101  0.00  0.00     0.042 C 
ATOM      5  C10 ZIN A   1      -5.752  -1.480  -2.080  0.00  0.00    -0.009 C 
ATOM      6  C11 ZIN A   1      -6.708  -1.970  -3.170  0.00  0.00     0.021 C 
ATOM      7  C12 ZIN A   1      -6.359  -1.646  -0.706  0.00  0.00    -0.040 A 
ATOM      8  C13 ZIN A   1      -7.200  -2.728  -0.496  0.00  0.00     0.045 A 
ATOM      9  C14 ZIN A   1      -7.774  -2.937   0.748  0.00  0.00     0.066 A 
ATOM     10  C16 ZIN A   1      -7.498  -2.057   1.785  0.00  0.00     0.037 A 
ATOM     11  C17 ZIN A   1      -6.665  -0.981   1.569  0.00  0.00     0.010 A 
ATOM     12  C18 ZIN A   1      -6.096  -0.765   0.318  0.00  0.00    -0.049 A 
ATOM     13  C19 ZIN A   1      -5.228   0.452   0.148  0.00  0.00     0.072 C 
ATOM     14  C20 ZIN A   1      -4.468   0.430  -1.164  0.00  0.00     0.197 C 
ATOM     15  C22 ZIN A   1      -5.393  -0.006  -2.299  0.00  0.00     0.025 C 
ATOM     16  C24 ZIN A   1      -6.663   0.845  -2.287  0.00  0.00     0.013 C 
ENDROOT
BRANCH   1  17
ATOM     17  C5  ZIN A   1      -2.438   0.061   0.026  0.00  0.00     0.263 C 
BRANCH  17  18
ATOM     18  C4  ZIN A   1      -1.123  -0.674   0.009  0.00  0.00     0.003 C 
ATOM     19  C2  ZIN A   1       0.002  -0.004   0.002  0.00  0.00    -0.090 C 
ATOM     20  C1  ZIN A   1      -0.018   1.503   0.010  0.00  0.00     0.042 C 
ATOM     21  C3  ZIN A   1       1.317  -0.740  -0.015  0.00  0.00     0.042 C 
ENDBRANCH  17  18
ENDBRANCH   1  17
BRANCH   9  22
ATOM     22  O15 ZIN A   1      -8.600  -3.996   0.951  0.00  0.00    -0.361 OA
ATOM     23  H42 ZIN A   1      -8.147  -4.798   1.245  0.00  0.00     0.217 HD
ENDBRANCH   9  22
TORSDOF 3
