REMARK  6 active torsions:
REMARK  status: ('A' for Active; 'I' for Inactive)
REMARK    1  A    between atoms: C2_2  and  C3_3 
REMARK    2  A    between atoms: C2_2  and  C22_22 
REMARK    3  A    between atoms: C3_3  and  C4_4 
REMARK    4  A    between atoms: C4_4  and  C5_5 
REMARK    5  A    between atoms: C5_5  and  N6_6 
REMARK    6  A    between atoms: C9_9  and  N10_10 
ROOT
ATOM      1  N6  <0> d   1       4.944   0.893   0.016  0.00  0.00     0.092 N 
ATOM      2  C7  <0> d   1       4.853  -0.057  -1.100  0.00  0.00     0.301 C 
ATOM      3  C8  <0> d   1       6.096  -0.896  -1.172  0.00  0.00     0.029 C 
ATOM      4  C9  <0> d   1       7.213  -0.573  -0.573  0.00  0.00     0.021 C 
ATOM      5  C20 <0> d   1       7.360   0.672   0.257  0.00  0.00     0.087 C 
ATOM      6  C21 <0> d   1       6.213   1.637  -0.052  0.00  0.00     0.279 C 
ENDROOT
BRANCH   1   7
ATOM      7  C5  <0> d   1       3.796   1.810   0.022  0.00  0.00     0.273 C 
BRANCH   7   8
ATOM      8  C4  <0> d   1       2.521   1.028   0.342  0.00  0.00     0.038 C 
BRANCH   8   9
ATOM      9  C3  <0> d   1       1.325   1.982   0.349  0.00  0.00     0.085 C 
BRANCH   9  10
ATOM     10  C2  <0> d   1       0.069   1.211   0.664  0.00  0.00     0.159 C 
ATOM     11  O1  <0> d   1       0.125   0.017   0.863  0.00  0.00    -0.292 OA
BRANCH  10  12
ATOM     12  C22 <0> d   1      -1.224   1.907   0.724  0.00  0.00     0.010 A 
ATOM     13  C28 <0> d   1      -2.394   1.194   1.010  0.00  0.00     0.018 A 
ATOM     14  C27 <0> d   1      -3.602   1.853   1.070  0.00  0.00     0.043 A 
ATOM     15  C25 <0> d   1      -3.663   3.219   0.837  0.00  0.00     0.116 A 
ATOM     16  C24 <0> d   1      -2.508   3.931   0.546  0.00  0.00     0.043 A 
ATOM     17  F26 <0> d   1      -4.851   3.858   0.892  0.00  0.00    -0.206 F 
ATOM     18  C23 <0> d   1      -1.293   3.285   0.488  0.00  0.00     0.018 A 
ENDBRANCH  10  12
ENDBRANCH   9  10
ENDBRANCH   8   9
ENDBRANCH   7   8
ENDBRANCH   1   7
BRANCH   4  19
ATOM     19  N10 <0> d   1       8.312  -1.418  -0.709  0.00  0.00    -0.266 N 
ATOM     20  C19 <0> d   1       9.520  -1.304  -0.022  0.00  0.00     0.070 A 
ATOM     21  C14 <0> d   1      10.333  -2.353  -0.458  0.00  0.00     0.063 A 
ATOM     22  C18 <0> d   1       9.988  -0.421   0.938  0.00  0.00     0.032 A 
ATOM     23  N13 <0> d   1       9.598  -3.065  -1.403  0.00  0.00    -0.306 N 
ATOM     24  C15 <0> d   1      11.610  -2.498   0.061  0.00  0.00     0.032 A 
ATOM     25  C11 <0> d   1       8.392  -2.481  -1.532  0.00  0.00     0.332 A 
ATOM     26  H38 <0> d   1       9.904  -3.849  -1.886  0.00  0.00     0.171 HD
ATOM     27  O12 <0> d   1       7.508  -2.857  -2.279  0.00  0.00    -0.246 OA
ATOM     28  C16 <0> d   1      12.070  -1.609   1.013  0.00  0.00     0.002 A 
ATOM     29  C17 <0> d   1      11.262  -0.574   1.450  0.00  0.00     0.002 A 
ENDBRANCH   4  19
TORSDOF 6
