REMARK  4 active torsions:
REMARK  status: ('A' for Active; 'I' for Inactive)
REMARK    1  A    between atoms: C3_3  and  N4_4 
REMARK    2  A    between atoms: N4_4  and  C7_7 
REMARK    3  A    between atoms: C7_7  and  C10_9 
REMARK    4  A    between atoms: C10_9  and  C11_10 
ROOT
ATOM      1  C1  <0> d   1       0.467  -1.261   0.502  0.00  0.00     0.013 C 
ATOM      2  C2  <0> d   1       0.333  -0.104   0.353  0.00  0.00    -0.090 C 
ATOM      3  C3  <0> d   1       0.164   1.346   0.166  0.00  0.00     0.327 C 
ENDROOT
BRANCH   3   4
ATOM      4  N4  <0> d   1       1.484   1.982   0.056  0.00  0.00    -0.061 N 
ATOM      5  H5  <0> d   1       2.044   1.737   0.858  0.00  0.00     0.281 HD
ATOM      6  C6  <0> d   1       2.150   1.518  -1.168  0.00  0.00     0.271 C 
BRANCH   4   7
ATOM      7  C7  <0> d   1       1.321   3.441   0.000  0.00  0.00     0.189 C 
ATOM      8  C9  <0> d   1       2.683   4.098  -0.235  0.00  0.00     0.040 C 
BRANCH   7   9
ATOM      9  C10 <0> d   1       0.736   3.940   1.324  0.00  0.00     0.071 C 
BRANCH   9  10
ATOM     10  C11 <0> d   1       0.489   5.424   1.236  0.00  0.00    -0.056 A 
ATOM     11  C16 <0> d   1      -0.682   5.897   0.674  0.00  0.00     0.007 A 
ATOM     12  C15 <0> d   1      -0.911   7.258   0.598  0.00  0.00     0.001 A 
ATOM     13  C14 <0> d   1       0.034   8.146   1.075  0.00  0.00     0.000 A 
ATOM     14  C13 <0> d   1       1.208   7.673   1.633  0.00  0.00     0.001 A 
ATOM     15  C12 <0> d   1       1.435   6.312   1.713  0.00  0.00     0.007 A 
ENDBRANCH   9  10
ENDBRANCH   7   9
ENDBRANCH   4   7
ENDBRANCH   3   4
TORSDOF 4
