REMARK  3 active torsions:
REMARK  status: ('A' for Active; 'I' for Inactive)
REMARK    1  A    between atoms: C5_5  and  S6_6 
REMARK    2  A    between atoms: S6_6  and  N9_9 
REMARK       I    between atoms: C10_10  and  N12_12 
REMARK    3  A    between atoms: N12_12  and  N13_13 
ROOT
ATOM      1  N9  ZIN A   1       1.651  -5.000  -0.034  0.00  0.00    -0.114 NA
ATOM      2  C10 ZIN A   1       1.956  -6.264  -0.043  0.00  0.00     0.299 C 
ATOM      3  O11 ZIN A   1       0.977  -7.195  -0.042  0.00  0.00    -0.147 OA
ATOM      4  N12 ZIN A   1       3.273  -6.653  -0.052  0.00  0.00    -0.280 N 
ATOM      5  H27 ZIN A   1       3.500  -7.596  -0.058  0.00  0.00     0.184 HD
ENDROOT
BRANCH   1   6
ATOM      6  S6  ZIN A   1       0.063  -4.530  -0.023  0.00  0.00     0.286 S 
ATOM      7  O7  ZIN A   1      -0.469  -4.946   1.228  0.00  0.00    -0.198 OA
ATOM      8  O8  ZIN A   1      -0.482  -4.932  -1.272  0.00  0.00    -0.198 OA
BRANCH   6   9
ATOM      9  C5  ZIN A   1       0.040  -2.768  -0.013  0.00  0.00     0.081 A 
ATOM     10  C4  ZIN A   1       0.025  -2.071  -1.206  0.00  0.00     0.026 A 
ATOM     11  C3  ZIN A   1       0.006  -0.689  -1.199  0.00  0.00     0.008 A 
ATOM     12  C2  ZIN A   1       0.002  -0.004   0.002  0.00  0.00    -0.062 A 
ATOM     13  C1  ZIN A   1      -0.018   1.503   0.010  0.00  0.00     0.048 C 
ATOM     14  C21 ZIN A   1       0.023  -0.702   1.195  0.00  0.00     0.008 A 
ATOM     15  C20 ZIN A   1       0.038  -2.084   1.188  0.00  0.00     0.026 A 
ENDBRANCH   6   9
ENDBRANCH   1   6
BRANCH   4  16
ATOM     16  N13 ZIN A   1       4.263  -5.712  -0.052  0.00  0.00    -0.228 NA
ATOM     17  C19 ZIN A   1       5.117  -5.841  -1.254  0.00  0.00     0.113 C 
ATOM     18  C18 ZIN A   1       6.372  -5.016  -1.169  0.00  0.00     0.016 C 
ATOM     19  C17 ZIN A   1       7.505  -5.902  -0.611  0.00  0.00     0.001 C 
ATOM     20  C16 ZIN A   1       7.417  -6.062   0.836  0.00  0.00     0.001 C 
ATOM     21  C15 ZIN A   1       6.101  -6.742   1.268  0.00  0.00     0.016 C 
ATOM     22  C14 ZIN A   1       5.000  -5.718   1.232  0.00  0.00     0.113 C 
ENDBRANCH   4  16
TORSDOF 3
