REMARK  4 active torsions:
REMARK  status: ('A' for Active; 'I' for Inactive)
REMARK    1  A    between atoms: N1_1  and  C5_5 
REMARK    2  A    between atoms: C5_5  and  C7_6 
REMARK    3  A    between atoms: C5_5  and  C13_12 
REMARK    4  A    between atoms: C7_6  and  C8_7 
ROOT
ATOM      1  C5  <0> d   1      -0.699   1.479   1.216  0.00  0.00     0.289 C 
ENDROOT
BRANCH   1   2
ATOM      2  N1  <0> d   1      -0.012   1.005   0.008  0.00  0.00    -0.065 N 
ATOM      3  H2  <0> d   1       0.002  -0.004   0.002  0.00  0.00     0.275 HD
ATOM      4  H3  <0> d   1       0.935   1.354   0.000  0.00  0.00     0.275 HD
ATOM      5  H4  <0> d   1      -0.500   1.339  -0.810  0.00  0.00     0.275 HD
ENDBRANCH   1   2
BRANCH   1   6
ATOM      6  C7  <0> d   1      -0.720   3.008   1.225  0.00  0.00     0.104 C 
BRANCH   6   7
ATOM      7  C8  <0> d   1       0.690   3.529   1.338  0.00  0.00     0.053 A 
ATOM      8  N12 <0> d   1       1.573   3.212   2.296  0.00  0.00    -0.247 NA
ATOM      9  C11 <0> d   1       2.692   3.846   2.078  0.00  0.00     0.207 A 
ATOM     10  N10 <0> d   1       2.552   4.601   0.966  0.00  0.00    -0.359 N 
ATOM     11  C9  <0> d   1       1.282   4.399   0.497  0.00  0.00     0.116 A 
ATOM     12  H19 <0> d   1       3.226   5.178   0.574  0.00  0.00     0.166 HD
ENDBRANCH   6   7
ENDBRANCH   1   6
BRANCH   1  13
ATOM     13  C13 <0> d   1      -2.113   0.957   1.227  0.00  0.00     0.204 C 
ATOM     14  O14 <0> d   1      -2.800   1.079   2.226  0.00  0.00    -0.646 OA
ATOM     15  O15 <0> d   1      -2.569   0.412   0.236  0.00  0.00    -0.646 OA
ENDBRANCH   1  13
TORSDOF 4
