REMARK  7 active torsions:
REMARK  status: ('A' for Active; 'I' for Inactive)
REMARK    1  A    between atoms: C2_2  and  C3_3 
REMARK    2  A    between atoms: C6_6  and  O8_7 
REMARK    3  A    between atoms: O8_7  and  C9_8 
REMARK    4  A    between atoms: C9_8  and  C11_10 
REMARK    5  A    between atoms: C11_10  and  S12_11 
REMARK    6  A    between atoms: S12_11  and  C13_12 
REMARK    7  A    between atoms: C42_36  and  O44_37 
ROOT
ATOM      1  C3  ZIN A   1       1.279  -0.271  -0.038  0.00  0.00     0.002 C 
ATOM      2  C4  ZIN A   1       2.346   0.841  -0.011  0.00  0.00     0.022 C 
ATOM      3  C5  ZIN A   1       1.479  -1.108  -1.321  0.00  0.00     0.049 C 
ATOM      4  C6  ZIN A   1       0.441  -2.224  -1.514  0.00  0.00     0.142 C 
ATOM      5  C25 ZIN A   1       0.901  -3.585  -0.998  0.00  0.00    -0.003 C 
ATOM      6  C26 ZIN A   1       1.671  -4.115  -2.220  0.00  0.00     0.019 C 
ATOM      7  C27 ZIN A   1       1.896  -3.651   0.083  0.00  0.00     0.075 C 
ATOM      8  C29 ZIN A   1       2.797  -4.819   0.302  0.00  0.00     0.132 C 
ATOM      9  O30 ZIN A   1       3.127  -5.682  -0.474  0.00  0.00    -0.298 OA
ATOM     10  C31 ZIN A   1       3.249  -4.732   1.762  0.00  0.00     0.079 C 
ATOM     11  C32 ZIN A   1       2.369  -3.642   2.433  0.00  0.00     0.018 C 
ATOM     12  C33 ZIN A   1       1.187  -3.523   1.498  0.00  0.00    -0.023 C 
ATOM     13  C34 ZIN A   1       0.222  -4.695   1.613  0.00  0.00     0.011 C 
ATOM     14  C35 ZIN A   1      -0.851  -4.575   0.528  0.00  0.00     0.006 C 
ATOM     15  C36 ZIN A   1      -0.202  -4.618  -0.856  0.00  0.00    -0.007 C 
ATOM     16  C38 ZIN A   1      -1.277  -4.461  -1.926  0.00  0.00     0.011 C 
ATOM     17  C39 ZIN A   1       0.455  -2.211   1.362  0.00  0.00     0.021 C 
ATOM     18  C41 ZIN A   1      -0.307  -1.928   2.673  0.00  0.00     0.013 C 
ATOM     19  C42 ZIN A   1       1.468  -1.113   1.156  0.00  0.00     0.134 C 
ENDROOT
BRANCH   4  20
ATOM     20  O8  ZIN A   1       0.240  -2.335  -2.962  0.00  0.00    -0.315 OA
BRANCH  20  21
ATOM     21  C9  ZIN A   1      -0.723  -1.573  -3.504  0.00  0.00     0.268 C 
ATOM     22  O10 ZIN A   1      -1.378  -0.839  -2.803  0.00  0.00    -0.264 OA
BRANCH  21  23
ATOM     23  C11 ZIN A   1      -0.987  -1.634  -4.987  0.00  0.00     0.185 C 
BRANCH  23  24
ATOM     24  S12 ZIN A   1      -2.337  -0.498  -5.408  0.00  0.00    -0.154 SA
BRANCH  24  25
ATOM     25  C13 ZIN A   1      -2.503  -0.710  -7.202  0.00  0.00     0.051 C 
ATOM     26  C21 ZIN A   1      -3.535   0.286  -7.738  0.00  0.00     0.048 C 
ATOM     27  C19 ZIN A   1      -4.909  -0.071  -7.147  0.00  0.00     0.189 C 
ATOM     28  C18 ZIN A   1      -4.751  -0.313  -5.628  0.00  0.00     0.035 C 
ATOM     29  N22 ZIN A   1      -5.276  -1.416  -7.705  0.00  0.00    -0.066 N 
ATOM     30  C17 ZIN A   1      -4.402  -1.811  -5.501  0.00  0.00     0.035 C 
ATOM     31  C15 ZIN A   1      -4.381  -2.337  -6.955  0.00  0.00     0.189 C 
ATOM     32  C14 ZIN A   1      -2.959  -2.140  -7.505  0.00  0.00     0.048 C 
ATOM     33  H23 ZIN A   1      -6.244  -1.627  -7.517  0.00  0.00     0.280 HD
ATOM     34  C24 ZIN A   1      -5.006  -1.469  -9.148  0.00  0.00     0.270 C 
ENDBRANCH  24  25
ENDBRANCH  23  24
ENDBRANCH  21  23
ENDBRANCH  20  21
ENDBRANCH   4  20
BRANCH   1  35
ATOM     35  C2  ZIN A   1      -0.075   0.386  -0.027  0.00  0.00    -0.025 C 
ATOM     36  C1  ZIN A   1      -0.170   1.692  -0.034  0.00  0.00     0.008 C 
ENDBRANCH   1  35
BRANCH  19  37
ATOM     37  O44 ZIN A   1       1.423  -0.253   2.307  0.00  0.00    -0.394 OA
ATOM     38  H84 ZIN A   1       2.043   0.488   2.268  0.00  0.00     0.210 HD
ENDBRANCH  19  37
TORSDOF 7
