REMARK  5 active torsions:
REMARK  status: ('A' for Active; 'I' for Inactive)
REMARK    1  A    between atoms: C8_7  and  O9_8 
REMARK    2  A    between atoms: C16_15  and  O17_16 
REMARK    3  A    between atoms: C20_19  and  C21_20 
REMARK       I    between atoms: C21_20  and  N22_21 
REMARK    4  A    between atoms: C26_25  and  N28_26 
REMARK    5  A    between atoms: C34_31  and  O36_32 
ROOT
ATOM      1  C1  ZIN A   1      -0.273   2.543   0.565  0.00  0.00     0.016 C 
ATOM      2  C2  ZIN A   1      -0.353   1.030   0.356  0.00  0.00     0.027 C 
ATOM      3  C4  ZIN A   1       0.100   0.692  -1.041  0.00  0.00    -0.038 A 
ATOM      4  C5  ZIN A   1       0.010   1.625  -2.049  0.00  0.00     0.009 A 
ATOM      5  C6  ZIN A   1       0.417   1.303  -3.335  0.00  0.00     0.003 A 
ATOM      6  C7  ZIN A   1       0.913   0.046  -3.619  0.00  0.00     0.037 A 
ATOM      7  C8  ZIN A   1       1.013  -0.905  -2.614  0.00  0.00     0.079 A 
ATOM      8  C10 ZIN A   1       0.610  -0.583  -1.313  0.00  0.00     0.041 A 
ATOM      9  C11 ZIN A   1       0.688  -1.573  -0.229  0.00  0.00     0.131 C 
ATOM     10  O12 ZIN A   1       0.828  -2.886  -0.513  0.00  0.00    -0.190 OA
ATOM     11  C13 ZIN A   1       0.616  -1.147   1.087  0.00  0.00     0.036 C 
ATOM     12  C14 ZIN A   1       0.600  -2.099   2.099  0.00  0.00     0.201 C 
ATOM     13  O15 ZIN A   1       0.650  -3.273   1.786  0.00  0.00    -0.289 OA
ATOM     14  C16 ZIN A   1       0.523  -1.752   3.562  0.00  0.00     0.196 C 
ATOM     15  C18 ZIN A   1      -0.908  -1.977   4.012  0.00  0.00     0.210 C 
ATOM     16  O19 ZIN A   1      -1.639  -2.725   3.396  0.00  0.00    -0.288 OA
ATOM     17  C20 ZIN A   1      -1.391  -1.276   5.201  0.00  0.00     0.115 C 
ATOM     18  C24 ZIN A   1      -0.654  -0.256   5.750  0.00  0.00     0.135 C 
ATOM     19  O25 ZIN A   1      -1.137   0.386   6.824  0.00  0.00    -0.193 OA
ATOM     20  C26 ZIN A   1       0.672   0.164   5.191  0.00  0.00     0.258 C 
ATOM     21  C32 ZIN A   1       0.852  -0.272   3.751  0.00  0.00     0.103 C 
ATOM     22  C34 ZIN A   1       0.003   0.554   2.791  0.00  0.00     0.137 C 
ATOM     23  C37 ZIN A   1       0.546   0.329   1.371  0.00  0.00     0.063 C 
ENDROOT
BRANCH  17  24
ATOM     24  C21 ZIN A   1      -2.671  -1.666   5.812  0.00  0.00     0.255 C 
ATOM     25  N22 ZIN A   1      -3.342  -2.738   5.345  0.00  0.00    -0.366 N 
ATOM     26  H47 ZIN A   1      -2.948  -3.294   4.654  0.00  0.00     0.159 HD
ATOM     27  H48 ZIN A   1      -4.218  -2.954   5.700  0.00  0.00     0.159 HD
ATOM     28  O23 ZIN A   1      -3.125  -1.022   6.738  0.00  0.00    -0.268 OA
ENDBRANCH  17  24
BRANCH  14  29
ATOM     29  O17 ZIN A   1       1.432  -2.562   4.311  0.00  0.00    -0.373 OA
ATOM     30  H46 ZIN A   1       1.263  -3.511   4.241  0.00  0.00     0.211 HD
ENDBRANCH  14  29
BRANCH  20  31
ATOM     31  N28 ZIN A   1       1.742  -0.428   6.005  0.00  0.00    -0.068 N 
ATOM     32  H29 ZIN A   1       1.667  -1.434   5.977  0.00  0.00     0.279 HD
ATOM     33  C30 ZIN A   1       3.047  -0.018   5.471  0.00  0.00     0.270 C 
ATOM     34  C31 ZIN A   1       1.613   0.033   7.394  0.00  0.00     0.270 C 
ENDBRANCH  20  31
BRANCH  22  35
ATOM     35  O36 ZIN A   1       0.108   1.940   3.124  0.00  0.00    -0.394 OA
ATOM     36  H55 ZIN A   1       0.996   2.306   3.011  0.00  0.00     0.210 HD
ENDBRANCH  22  35
BRANCH   7  37
ATOM     37  O9  ZIN A   1       1.499  -2.141  -2.891  0.00  0.00    -0.360 OA
ATOM     38  H45 ZIN A   1       2.458  -2.219  -2.787  0.00  0.00     0.217 HD
ENDBRANCH   7  37
TORSDOF 5
