REMARK  5 active torsions:
REMARK  status: ('A' for Active; 'I' for Inactive)
REMARK    1  A    between atoms: N1_1  and  C2_2 
REMARK    2  A    between atoms: C2_2  and  C4_3 
REMARK    3  A    between atoms: C2_2  and  C22_19 
REMARK       I    between atoms: C4_3  and  N6_5 
REMARK    4  A    between atoms: N6_5  and  C7_6 
REMARK    5  A    between atoms: C12_10  and  C13_11 
ROOT
ATOM      1  C4  ZIN A   1      -1.407  -0.526   0.111  0.00  0.00     0.256 C 
ATOM      2  O5  ZIN A   1      -2.343   0.191  -0.173  0.00  0.00    -0.271 OA
ATOM      3  N6  ZIN A   1      -1.628  -1.790   0.523  0.00  0.00    -0.343 N 
ATOM      4  H30 ZIN A   1      -0.879  -2.364   0.750  0.00  0.00     0.163 HD
ENDROOT
BRANCH   3   5
ATOM      5  C7  ZIN A   1      -2.998  -2.298   0.628  0.00  0.00     0.210 C 
ATOM      6  C20 ZIN A   1      -3.096  -3.818   0.548  0.00  0.00     0.187 C 
ATOM      7  N11 ZIN A   1      -3.347  -3.760   2.026  0.00  0.00    -0.292 N 
ATOM      8  S19 ZIN A   1      -1.507  -4.694   0.360  0.00  0.00    -0.135 SA
ATOM      9  C9  ZIN A   1      -3.493  -2.424   2.059  0.00  0.00     0.251 C 
ATOM     10  C12 ZIN A   1      -3.244  -4.831   2.933  0.00  0.00     0.134 C 
ATOM     11  O10 ZIN A   1      -3.870  -1.634   2.899  0.00  0.00    -0.271 OA
ATOM     12  C16 ZIN A   1      -2.540  -5.910   2.607  0.00  0.00     0.055 C 
ATOM     13 Cl17 ZIN A   1      -2.428  -7.139   3.828  0.00  0.00    -0.086 Cl
ATOM     14  C18 ZIN A   1      -1.834  -6.201   1.323  0.00  0.00     0.130 C 
BRANCH  10  15
ATOM     15  C13 ZIN A   1      -3.913  -4.756   4.239  0.00  0.00     0.228 C 
ATOM     16  O14 ZIN A   1      -3.822  -5.688   5.027  0.00  0.00    -0.643 OA
ATOM     17  O15 ZIN A   1      -4.561  -3.762   4.538  0.00  0.00    -0.643 OA
ENDBRANCH  10  15
ENDBRANCH   3   5
BRANCH   1  18
ATOM     18  C2  ZIN A   1       0.002  -0.004   0.002  0.00  0.00     0.342 C 
BRANCH  18  19
ATOM     19  N1  ZIN A   1      -0.018   1.465   0.010  0.00  0.00     0.096 N 
ATOM     20  H28 ZIN A   1       0.919   1.839   0.003  0.00  0.00     0.314 HD
ATOM     21  H29 ZIN A   1      -0.556   1.823  -0.764  0.00  0.00     0.314 HD
ENDBRANCH  18  19
BRANCH  18  22
ATOM     22  C22 ZIN A   1       0.621  -0.491  -1.283  0.00  0.00    -0.016 A 
ATOM     23  C27 ZIN A   1       1.479  -1.575  -1.270  0.00  0.00     0.010 A 
ATOM     24  C26 ZIN A   1       2.043  -2.024  -2.450  0.00  0.00     0.001 A 
ATOM     25  C25 ZIN A   1       1.755  -1.384  -3.641  0.00  0.00     0.000 A 
ATOM     26  C24 ZIN A   1       0.901  -0.297  -3.653  0.00  0.00     0.001 A 
ATOM     27  C23 ZIN A   1       0.334   0.149  -2.474  0.00  0.00     0.010 A 
ENDBRANCH  18  22
ENDBRANCH   1  18
TORSDOF 5
