REMARK  1 active torsions:
REMARK  status: ('A' for Active; 'I' for Inactive)
REMARK    1  A    between atoms: C7_7  and  C9_8 
ROOT
ATOM      1  C1  ZIN A   1      -0.018   1.465   0.010  0.00  0.00     0.270 C 
ATOM      2  N2  ZIN A   1       0.002  -0.004   0.002  0.00  0.00    -0.067 N 
ATOM      3  H3  ZIN A   1       0.462  -0.334  -0.833  0.00  0.00     0.280 HD
ATOM      4  C4  ZIN A   1      -1.383  -0.521   0.044  0.00  0.00     0.235 C 
ATOM      5  C5  ZIN A   1      -1.653  -0.806   1.543  0.00  0.00     0.030 C 
ATOM      6  C6  ZIN A   1      -0.274  -1.338   2.014  0.00  0.00     0.040 C 
ATOM      7  C7  ZIN A   1       0.721  -0.497   1.191  0.00  0.00     0.222 C 
ENDROOT
BRANCH   7   8
ATOM      8  C9  ZIN A   1       1.887  -1.352   0.767  0.00  0.00    -0.010 A 
ATOM      9  C14 ZIN A   1       1.765  -2.223  -0.299  0.00  0.00     0.125 A 
ATOM     10  N13 ZIN A   1       2.783  -2.970  -0.679  0.00  0.00    -0.273 NA
ATOM     11  C12 ZIN A   1       3.945  -2.927  -0.058  0.00  0.00     0.116 A 
ATOM     12  C11 ZIN A   1       4.139  -2.085   1.020  0.00  0.00     0.020 A 
ATOM     13  C10 ZIN A   1       3.094  -1.279   1.446  0.00  0.00     0.012 A 
ENDBRANCH   7   8
TORSDOF 1
