REMARK  2 active torsions:
REMARK  status: ('A' for Active; 'I' for Inactive)
REMARK    1  A    between atoms: C5_5  and  C6_6 
REMARK    2  A    between atoms: C10_9  and  C12_10 
ROOT
ATOM      1  O1  ZIN A   1      -0.037  -0.036   0.353  0.00  0.00    -0.283 OA
ATOM      2  C2  ZIN A   1      -0.052   1.175   0.430  0.00  0.00     0.233 A 
ATOM      3  C3  ZIN A   1      -1.338   1.935   0.329  0.00  0.00     0.232 A 
ATOM      4  O4  ZIN A   1      -2.388   1.343   0.167  0.00  0.00    -0.283 OA
ATOM      5  C5  ZIN A   1      -1.324   3.335   0.422  0.00  0.00     0.038 A 
ATOM      6  C21 ZIN A   1      -0.169   4.028   0.603  0.00  0.00     0.129 A 
ATOM      7  O22 ZIN A   1      -0.214   5.375   0.687  0.00  0.00    -0.190 OA
ATOM      8  C23 ZIN A   1       1.131   3.344   0.711  0.00  0.00     0.015 A 
ATOM      9  C24 ZIN A   1       2.302   4.073   0.897  0.00  0.00     0.015 A 
ATOM     10  C25 ZIN A   1       3.517   3.414   0.998  0.00  0.00     0.001 A 
ATOM     11  C26 ZIN A   1       3.579   2.036   0.914  0.00  0.00     0.001 A 
ATOM     12  C27 ZIN A   1       2.423   1.293   0.729  0.00  0.00     0.016 A 
ATOM     13  C28 ZIN A   1       1.197   1.939   0.632  0.00  0.00     0.031 A 
ENDROOT
BRANCH   5  14
ATOM     14  C6  ZIN A   1      -2.624   4.090   0.318  0.00  0.00     0.026 C 
ATOM     15  C20 ZIN A   1      -3.565   3.642   1.439  0.00  0.00     0.010 C 
ATOM     16  C19 ZIN A   1      -4.885   4.408   1.334  0.00  0.00     0.010 C 
ATOM     17  C10 ZIN A   1      -5.534   4.123  -0.022  0.00  0.00     0.018 C 
ATOM     18  C9  ZIN A   1      -4.594   4.571  -1.142  0.00  0.00     0.010 C 
ATOM     19  C8  ZIN A   1      -3.274   3.804  -1.037  0.00  0.00     0.010 C 
BRANCH  17  20
ATOM     20  C12 ZIN A   1      -5.800   2.645  -0.150  0.00  0.00    -0.054 A 
ATOM     21  C18 ZIN A   1      -5.785   2.046  -1.396  0.00  0.00     0.009 A 
ATOM     22  C17 ZIN A   1      -6.023   0.689  -1.514  0.00  0.00     0.024 A 
ATOM     23  C15 ZIN A   1      -6.287  -0.067  -0.386  0.00  0.00     0.034 A 
ATOM     24  C14 ZIN A   1      -6.308   0.534   0.860  0.00  0.00     0.024 A 
ATOM     25 Cl16 ZIN A   1      -6.594  -1.769  -0.534  0.00  0.00    -0.084 Cl
ATOM     26  C13 ZIN A   1      -6.064   1.890   0.977  0.00  0.00     0.009 A 
ENDBRANCH  17  20
ENDBRANCH   5  14
TORSDOF 2
