REMARK  2 active torsions:
REMARK  status: ('A' for Active; 'I' for Inactive)
REMARK    1  A    between atoms: C7_6  and  N8_7 
REMARK    2  A    between atoms: C22_21  and  C23_22 
ROOT
ATOM      1  C1  ZIN A   1      -0.478   1.300   0.127  0.00  0.00     0.035 C 
ATOM      2  C2  ZIN A   1      -0.315  -0.221   0.119  0.00  0.00     0.110 C 
ATOM      3  C4  ZIN A   1       0.374  -0.655  -1.177  0.00  0.00     0.201 C 
ATOM      4  O5  ZIN A   1       0.643  -2.060  -1.106  0.00  0.00    -0.345 OA
ATOM      5  C6  ZIN A   1       1.370  -2.472  -0.030  0.00  0.00     0.121 A 
ATOM      6  C7  ZIN A   1       2.168  -3.603  -0.121  0.00  0.00     0.086 A 
ATOM      7  C15 ZIN A   1       2.920  -4.027   0.977  0.00  0.00     0.141 A 
ATOM      8  F16 ZIN A   1       3.691  -5.132   0.877  0.00  0.00    -0.204 F 
ATOM      9  C17 ZIN A   1       2.880  -3.329   2.150  0.00  0.00     0.062 A 
ATOM     10  C18 ZIN A   1       2.080  -2.188   2.256  0.00  0.00     0.048 A 
ATOM     11  C19 ZIN A   1       1.311  -1.753   1.163  0.00  0.00     0.085 A 
ATOM     12  N20 ZIN A   1       0.506  -0.633   1.268  0.00  0.00    -0.346 N 
ATOM     13  C21 ZIN A   1       0.445   0.096   2.393  0.00  0.00     0.114 A 
ATOM     14  C22 ZIN A   1       1.160  -0.227   3.529  0.00  0.00     0.107 A 
ATOM     15  C26 ZIN A   1       2.027  -1.417   3.510  0.00  0.00     0.203 A 
ATOM     16  O27 ZIN A   1       2.671  -1.751   4.490  0.00  0.00    -0.286 OA
ENDROOT
BRANCH   6  17
ATOM     17  N8  ZIN A   1       2.219  -4.322  -1.316  0.00  0.00    -0.275 NA
ATOM     18  C14 ZIN A   1       3.571  -4.290  -1.892  0.00  0.00     0.126 C 
ATOM     19  C13 ZIN A   1       3.566  -5.020  -3.238  0.00  0.00     0.286 C 
ATOM     20  N11 ZIN A   1       3.113  -6.404  -3.040  0.00  0.00     0.086 N 
ATOM     21  C10 ZIN A   1       1.762  -6.436  -2.464  0.00  0.00     0.286 C 
ATOM     22  C12 ZIN A   1       3.167  -7.161  -4.298  0.00  0.00     0.310 C 
ATOM     23  C9  ZIN A   1       1.766  -5.706  -1.118  0.00  0.00     0.126 C 
ENDBRANCH   6  17
BRANCH  14  24
ATOM     24  C23 ZIN A   1       1.057   0.601   4.734  0.00  0.00     0.214 C 
ATOM     25  O24 ZIN A   1       0.333   1.588   4.739  0.00  0.00    -0.644 OA
ATOM     26  O25 ZIN A   1       1.695   0.305   5.737  0.00  0.00    -0.644 OA
ENDBRANCH  14  24
TORSDOF 2
