REMARK  8 active torsions:
REMARK  status: ('A' for Active; 'I' for Inactive)
REMARK    1  A    between atoms: N2_2  and  C5_5 
REMARK    2  A    between atoms: C5_5  and  C6_6 
REMARK    3  A    between atoms: C7_7  and  C8_8 
REMARK       I    between atoms: C8_8  and  N10_10 
REMARK    4  A    between atoms: N10_10  and  C11_11 
REMARK    5  A    between atoms: C12_12  and  O13_13 
REMARK    6  A    between atoms: O13_13  and  C14_14 
REMARK    7  A    between atoms: C25_24  and  N26_25 
REMARK    8  A    between atoms: N26_25  and  C27_26 
ROOT
ATOM      1  C11 ZIN A   1      -2.931  -6.316   1.257  0.00  0.00     0.069 A 
ATOM      2  C12 ZIN A   1      -3.793  -6.750   2.276  0.00  0.00     0.098 A 
ATOM      3  C20 ZIN A   1      -4.324  -8.020   2.255  0.00  0.00     0.071 A 
ATOM      4  C21 ZIN A   1      -4.001  -8.889   1.206  0.00  0.00     0.075 A 
ATOM      5  N22 ZIN A   1      -4.495 -10.136   1.144  0.00  0.00    -0.241 NA
ATOM      6  C23 ZIN A   1      -4.176 -10.929   0.149  0.00  0.00     0.236 A 
ATOM      7  N24 ZIN A   1      -3.368 -10.563  -0.833  0.00  0.00    -0.224 NA
ATOM      8  C25 ZIN A   1      -2.825  -9.353  -0.869  0.00  0.00     0.142 A 
ATOM      9  C35 ZIN A   1      -3.131  -8.450   0.177  0.00  0.00     0.041 A 
ATOM     10  C36 ZIN A   1      -2.605  -7.154   0.212  0.00  0.00     0.050 A 
ENDROOT
BRANCH   1  11
ATOM     11  N10 ZIN A   1      -2.404  -5.020   1.298  0.00  0.00    -0.321 N 
ATOM     12  C8  ZIN A   1      -2.159  -4.355   0.151  0.00  0.00     0.245 C 
ATOM     13  O9  ZIN A   1      -2.317  -4.911  -0.919  0.00  0.00    -0.268 OA
ATOM     14  H47 ZIN A   1      -2.215  -4.601   2.152  0.00  0.00     0.169 HD
BRANCH  12  15
ATOM     15  C7  ZIN A   1      -1.701  -2.959   0.195  0.00  0.00     0.072 C 
ATOM     16  C6  ZIN A   1      -1.460  -2.303  -0.937  0.00  0.00     0.006 C 
BRANCH  16  17
ATOM     17  C5  ZIN A   1      -0.990  -0.871  -0.893  0.00  0.00     0.261 C 
BRANCH  17  18
ATOM     18  N2  ZIN A   1       0.264  -0.743  -1.647  0.00  0.00    -0.076 N 
ATOM     19  C1  ZIN A   1       0.658   0.670  -1.706  0.00  0.00     0.269 C 
ATOM     20  H3  ZIN A   1       0.129  -1.094  -2.584  0.00  0.00     0.279 HD
ATOM     21  C4  ZIN A   1       1.318  -1.519  -0.981  0.00  0.00     0.269 C 
ENDBRANCH  17  18
ENDBRANCH  16  17
ENDBRANCH  12  15
ENDBRANCH   1  11
BRANCH   2  22
ATOM     22  O13 ZIN A   1      -4.106  -5.907   3.295  0.00  0.00    -0.341 OA
BRANCH  22  23
ATOM     23  C14 ZIN A   1      -4.896  -6.441   4.359  0.00  0.00     0.154 C 
ATOM     24  C19 ZIN A   1      -6.402  -6.324   4.038  0.00  0.00     0.200 C 
ATOM     25  O18 ZIN A   1      -7.070  -5.935   5.249  0.00  0.00    -0.389 OA
ATOM     26  C17 ZIN A   1      -6.122  -5.840   6.324  0.00  0.00     0.170 C 
ATOM     27  C16 ZIN A   1      -4.758  -5.574   5.639  0.00  0.00     0.061 C 
ENDBRANCH  22  23
ENDBRANCH   2  22
BRANCH   8  28
ATOM     28  N26 ZIN A   1      -1.984  -8.985  -1.900  0.00  0.00    -0.340 N 
ATOM     29  H56 ZIN A   1      -1.530  -8.128  -1.872  0.00  0.00     0.167 HD
BRANCH  28  30
ATOM     30  C27 ZIN A   1      -1.786  -9.847  -2.983  0.00  0.00     0.035 A 
ATOM     31  C34 ZIN A   1      -0.575  -9.843  -3.663  0.00  0.00     0.056 A 
ATOM     32  C32 ZIN A   1      -0.380 -10.698  -4.731  0.00  0.00     0.074 A 
ATOM     33  C30 ZIN A   1      -1.396 -11.553  -5.129  0.00  0.00     0.138 A 
ATOM     34 Cl33 ZIN A   1       1.135 -10.698  -5.578  0.00  0.00    -0.081 Cl
ATOM     35  C29 ZIN A   1      -2.605 -11.555  -4.455  0.00  0.00     0.046 A 
ATOM     36  F31 ZIN A   1      -1.206 -12.386  -6.176  0.00  0.00    -0.204 F 
ATOM     37  C28 ZIN A   1      -2.802 -10.704  -3.384  0.00  0.00     0.032 A 
ENDBRANCH  28  30
ENDBRANCH   8  28
TORSDOF 8
