REMARK  8 active torsions:
REMARK  status: ('A' for Active; 'I' for Inactive)
REMARK    1  A    between atoms: C2_2  and  C3_3 
REMARK    2  A    between atoms: C3_3  and  C4_4 
REMARK    3  A    between atoms: C4_4  and  N5_5 
REMARK    4  A    between atoms: C8_8  and  O10_9 
REMARK    5  A    between atoms: C11_10  and  O13_11 
REMARK    6  A    between atoms: C14_12  and  O16_13 
REMARK    7  A    between atoms: C17_14  and  C19_15 
REMARK    8  A    between atoms: C19_15  and  O20_16 
ROOT
ATOM      1  N5  ZIN A   1       1.355  -2.512  -2.431  0.00  0.00    -0.060 N 
ATOM      2  H6  ZIN A   1       2.215  -1.988  -2.497  0.00  0.00     0.280 HD
ATOM      3  C7  ZIN A   1       0.523  -2.234  -3.608  0.00  0.00     0.269 C 
ATOM      4  C8  ZIN A   1       1.303  -2.574  -4.880  0.00  0.00     0.175 C 
ATOM      5  C11 ZIN A   1       1.683  -4.057  -4.860  0.00  0.00     0.179 C 
ATOM      6  C14 ZIN A   1       2.487  -4.351  -3.590  0.00  0.00     0.182 C 
ATOM      7  C17 ZIN A   1       1.661  -3.946  -2.367  0.00  0.00     0.242 C 
ENDROOT
BRANCH   1   8
ATOM      8  C4  ZIN A   1       0.632  -2.112  -1.217  0.00  0.00     0.235 C 
BRANCH   8   9
ATOM      9  C3  ZIN A   1       0.408  -0.599  -1.232  0.00  0.00     0.027 C 
BRANCH   9  10
ATOM     10  C2  ZIN A   1      -0.345  -0.182   0.033  0.00  0.00    -0.003 C 
ATOM     11  C1  ZIN A   1      -0.569   1.332   0.018  0.00  0.00     0.005 C 
ENDBRANCH   9  10
ENDBRANCH   8   9
ENDBRANCH   1   8
BRANCH   7  12
ATOM     12  C19 ZIN A   1       2.460  -4.237  -1.095  0.00  0.00     0.200 C 
BRANCH  12  13
ATOM     13  O20 ZIN A   1       3.714  -3.553  -1.153  0.00  0.00    -0.399 OA
ATOM     14  H37 ZIN A   1       4.274  -3.692  -0.377  0.00  0.00     0.209 HD
ENDBRANCH  12  13
ENDBRANCH   7  12
BRANCH   6  15
ATOM     15  O16 ZIN A   1       2.784  -5.747  -3.526  0.00  0.00    -0.391 OA
ATOM     16  H34 ZIN A   1       3.303  -6.074  -4.273  0.00  0.00     0.210 HD
ENDBRANCH   6  15
BRANCH   4  17
ATOM     17  O10 ZIN A   1       0.491  -2.304  -6.025  0.00  0.00    -0.391 OA
ATOM     18  H32 ZIN A   1       0.923  -2.496  -6.868  0.00  0.00     0.210 HD
ENDBRANCH   4  17
BRANCH   5  19
ATOM     19  O13 ZIN A   1       2.473  -4.364  -6.010  0.00  0.00    -0.390 OA
ATOM     20  H33 ZIN A   1       2.026  -4.197  -6.851  0.00  0.00     0.210 HD
ENDBRANCH   5  19
TORSDOF 8
