REMARK  5 active torsions:
REMARK  status: ('A' for Active; 'I' for Inactive)
REMARK    1  A    between atoms: C5_5  and  C7_6 
REMARK       I    between atoms: C7_6  and  N9_8 
REMARK    2  A    between atoms: N9_8  and  C10_9 
REMARK    3  A    between atoms: C13_12  and  O14_13 
REMARK    4  A    between atoms: C23_21  and  C25_22 
REMARK    5  A    between atoms: C25_22  and  C26_23 
ROOT
ATOM      1  C10 ZIN A   1      -4.918  -3.066  -0.754  0.00  0.00     0.220 C 
ATOM      2  C11 ZIN A   1      -4.866  -4.595  -0.757  0.00  0.00     0.082 C 
ATOM      3  O12 ZIN A   1      -5.618  -2.584  -1.919  0.00  0.00    -0.296 OA
ATOM      4  C13 ZIN A   1      -6.297  -1.405  -1.459  0.00  0.00     0.276 C 
ATOM      5  C15 ZIN A   1      -7.605  -1.218  -2.201  0.00  0.00     0.173 C 
ATOM      6  C17 ZIN A   1      -7.409  -0.311  -3.437  0.00  0.00     0.034 C 
ATOM      7  C18 ZIN A   1      -8.835   0.236  -3.686  0.00  0.00     0.022 C 
ATOM      8  C19 ZIN A   1      -9.567   0.073  -2.339  0.00  0.00     0.127 C 
ATOM      9  N20 ZIN A   1      -8.600  -0.510  -1.383  0.00  0.00    -0.338 N 
ATOM     10  C21 ZIN A   1      -8.630  -0.377  -0.050  0.00  0.00     0.243 C 
ATOM     11  O22 ZIN A   1      -9.604   0.120   0.476  0.00  0.00    -0.271 OA
ATOM     12  C23 ZIN A   1      -7.480  -0.833   0.806  0.00  0.00     0.189 C 
ATOM     13  N32 ZIN A   1      -6.522  -1.571  -0.022  0.00  0.00    -0.277 N 
ATOM     14  C33 ZIN A   1      -5.727  -2.569   0.424  0.00  0.00     0.280 C 
ATOM     15  O34 ZIN A   1      -5.690  -3.006   1.555  0.00  0.00    -0.268 OA
ENDROOT
BRANCH   1  16
ATOM     16  N9  ZIN A   1      -3.562  -2.512  -0.710  0.00  0.00    -0.321 N 
ATOM     17  C7  ZIN A   1      -2.746  -2.642  -1.775  0.00  0.00     0.226 C 
ATOM     18  O8  ZIN A   1      -3.163  -3.134  -2.802  0.00  0.00    -0.273 OA
ATOM     19  H55 ZIN A   1      -3.252  -2.051   0.085  0.00  0.00     0.166 HD
BRANCH  17  20
ATOM     20  C5  ZIN A   1      -1.316  -2.175  -1.690  0.00  0.00     0.104 C 
ATOM     21  C4  ZIN A   1      -0.623  -2.865  -0.512  0.00  0.00     0.249 C 
ATOM     22  N2  ZIN A   1       0.768  -2.405  -0.426  0.00  0.00    -0.069 N 
ATOM     23  C1  ZIN A   1       1.407  -3.004   0.753  0.00  0.00     0.270 C 
ATOM     24  H3  ZIN A   1       0.784  -1.400  -0.341  0.00  0.00     0.280 HD
ATOM     25  C48 ZIN A   1       1.503  -2.804  -1.634  0.00  0.00     0.200 C 
ATOM     26  C36 ZIN A   1       0.890  -2.124  -2.859  0.00  0.00     0.051 C 
ATOM     27  C47 ZIN A   1       2.987  -2.463  -1.420  0.00  0.00     0.075 C 
ATOM     28  C35 ZIN A   1      -0.581  -2.533  -2.984  0.00  0.00     0.027 C 
ATOM     29  C38 ZIN A   1       1.628  -2.527  -4.100  0.00  0.00    -0.039 A 
ATOM     30  C46 ZIN A   1       1.150  -2.621  -5.369  0.00  0.00     0.008 A 
ATOM     31  C39 ZIN A   1       2.978  -2.849  -3.945  0.00  0.00     0.005 A 
ATOM     32  C45 ZIN A   1       1.990  -3.011  -6.411  0.00  0.00     0.003 A 
ATOM     33  C44 ZIN A   1       3.333  -3.326  -6.255  0.00  0.00     0.030 A 
ATOM     34  C43 ZIN A   1       3.853  -3.240  -4.965  0.00  0.00     0.043 A 
ATOM     35  N42 ZIN A   1       5.055  -3.443  -4.356  0.00  0.00    -0.365 N 
ATOM     36  C41 ZIN A   1       4.954  -3.200  -2.995  0.00  0.00     0.096 A 
ATOM     37  H76 ZIN A   1       5.866  -3.717  -4.811  0.00  0.00     0.165 HD
ATOM     38  C40 ZIN A   1       3.718  -2.839  -2.683  0.00  0.00    -0.028 A 
ENDBRANCH  17  20
ENDBRANCH   1  16
BRANCH   4  39
ATOM     39  O14 ZIN A   1      -5.472  -0.261  -1.684  0.00  0.00    -0.347 OA
ATOM     40  H59 ZIN A   1      -4.615  -0.299  -1.237  0.00  0.00     0.215 HD
ENDBRANCH   4  39
BRANCH  12  41
ATOM     41  C25 ZIN A   1      -6.762   0.386   1.388  0.00  0.00     0.073 C 
BRANCH  41  42
ATOM     42  C26 ZIN A   1      -5.691  -0.071   2.345  0.00  0.00    -0.056 A 
ATOM     43  C31 ZIN A   1      -4.385  -0.201   1.910  0.00  0.00     0.007 A 
ATOM     44  C30 ZIN A   1      -3.402  -0.616   2.788  0.00  0.00     0.001 A 
ATOM     45  C29 ZIN A   1      -3.726  -0.910   4.100  0.00  0.00     0.000 A 
ATOM     46  C28 ZIN A   1      -5.033  -0.784   4.534  0.00  0.00     0.001 A 
ATOM     47  C27 ZIN A   1      -6.015  -0.365   3.656  0.00  0.00     0.007 A 
ENDBRANCH  41  42
ENDBRANCH  12  41
TORSDOF 5
