REMARK  7 active torsions:
REMARK  status: ('A' for Active; 'I' for Inactive)
REMARK    1  A    between atoms: C2_2  and  C3_3 
REMARK    2  A    between atoms: C3_3  and  N4_4 
REMARK    3  A    between atoms: N4_4  and  C7_7 
REMARK    4  A    between atoms: C7_7  and  C10_9 
REMARK       I    between atoms: C10_9  and  N12_11 
REMARK    5  A    between atoms: N12_11  and  C13_12 
REMARK    6  A    between atoms: C14_13  and  C15_14 
REMARK    7  A    between atoms: C15_14  and  O17_16 
ROOT
ATOM      1  C10 ZIN A   1      -3.057  -3.971  -0.358  0.00  0.00     0.252 C 
ATOM      2  O11 ZIN A   1      -2.129  -4.517  -0.918  0.00  0.00    -0.271 OA
ATOM      3  N12 ZIN A   1      -3.979  -4.707   0.292  0.00  0.00    -0.324 N 
ATOM      4  H33 ZIN A   1      -4.674  -4.268   0.808  0.00  0.00     0.169 HD
ENDROOT
BRANCH   3   5
ATOM      5  C13 ZIN A   1      -3.935  -6.100   0.224  0.00  0.00     0.064 A 
ATOM      6  C21 ZIN A   1      -2.816  -6.844   0.545  0.00  0.00    -0.027 A 
ATOM      7  C20 ZIN A   1      -2.962  -8.166   0.423  0.00  0.00     0.059 A 
ATOM      8  C22 ZIN A   1      -1.530  -6.211   1.008  0.00  0.00     0.051 C 
ATOM      9  S19 ZIN A   1      -4.528  -8.567  -0.120  0.00  0.00    -0.093 SA
ATOM     10  C14 ZIN A   1      -4.999  -6.874  -0.175  0.00  0.00     0.107 A 
BRANCH  10  11
ATOM     11  C15 ZIN A   1      -6.268  -6.387  -0.567  0.00  0.00     0.302 C 
ATOM     12  O16 ZIN A   1      -6.453  -5.189  -0.675  0.00  0.00    -0.259 OA
BRANCH  11  13
ATOM     13  O17 ZIN A   1      -7.273  -7.251  -0.821  0.00  0.00    -0.322 OA
ATOM     14  C18 ZIN A   1      -8.528  -6.690  -1.212  0.00  0.00     0.213 C 
ENDBRANCH  11  13
ENDBRANCH  10  11
ENDBRANCH   3   5
BRANCH   1  15
ATOM     15  C7  ZIN A   1      -3.177  -2.469  -0.391  0.00  0.00     0.273 C 
ATOM     16  C9  ZIN A   1      -4.498  -2.078  -1.056  0.00  0.00     0.050 C 
BRANCH  15  17
ATOM     17  N4  ZIN A   1      -2.058  -1.904  -1.156  0.00  0.00    -0.063 N 
ATOM     18  H5  ZIN A   1      -2.126  -2.198  -2.119  0.00  0.00     0.278 HD
ATOM     19  H6  ZIN A   1      -1.186  -2.229  -0.767  0.00  0.00     0.278 HD
BRANCH  17  20
ATOM     20  C3  ZIN A   1      -2.108  -0.438  -1.088  0.00  0.00     0.233 C 
BRANCH  20  21
ATOM     21  C2  ZIN A   1      -0.942   0.150  -1.885  0.00  0.00     0.023 C 
ATOM     22  C1  ZIN A   1      -0.995   1.678  -1.814  0.00  0.00     0.007 C 
ENDBRANCH  20  21
ENDBRANCH  17  20
ENDBRANCH  15  17
ENDBRANCH   1  15
TORSDOF 7
