REMARK  12 active torsions:
REMARK  status: ('A' for Active; 'I' for Inactive)
REMARK    1  A    between atoms: C3_3  and  O4_4 
REMARK    2  A    between atoms: C8_8  and  C9_9 
REMARK       I    between atoms: C9_9  and  N11_11 
REMARK    3  A    between atoms: N11_11  and  C12_12 
REMARK    4  A    between atoms: C12_12  and  C14_13 
REMARK    5  A    between atoms: C12_12  and  C22_21 
REMARK    6  A    between atoms: C14_13  and  S15_14 
REMARK    7  A    between atoms: S15_14  and  C16_15 
REMARK    8  A    between atoms: C22_21  and  O24_22 
REMARK    9  A    between atoms: C22_21  and  C25_23 
REMARK   10  A    between atoms: C25_23  and  N26_24 
REMARK   11  A    between atoms: C38_34  and  C40_35 
REMARK       I    between atoms: C40_35  and  N42_37 
REMARK   12  A    between atoms: N42_37  and  C43_38 
ROOT
ATOM      1  C22 ZIN A   1       1.545  -0.848   5.852  0.00  0.00     0.167 C 
ENDROOT
BRANCH   1   2
ATOM      2  C12 ZIN A   1       0.765  -0.048   4.807  0.00  0.00     0.124 C 
BRANCH   2   3
ATOM      3  N11 ZIN A   1       0.722  -0.798   3.549  0.00  0.00    -0.349 N 
ATOM      4  C9  ZIN A   1       0.558  -0.146   2.381  0.00  0.00     0.252 C 
ATOM      5  O10 ZIN A   1       0.446   1.064   2.371  0.00  0.00    -0.268 OA
ATOM      6  H54 ZIN A   1       0.811  -1.764   3.558  0.00  0.00     0.163 HD
BRANCH   4   7
ATOM      7  C8  ZIN A   1       0.515  -0.903   1.112  0.00  0.00     0.040 A 
ATOM      8  C2  ZIN A   1       0.411  -0.226  -0.104  0.00  0.00    -0.013 A 
ATOM      9  C1  ZIN A   1       0.348   1.279  -0.128  0.00  0.00     0.052 C 
ATOM     10  C3  ZIN A   1       0.371  -0.942  -1.288  0.00  0.00     0.072 A 
ATOM     11  C5  ZIN A   1       0.429  -2.329  -1.265  0.00  0.00     0.037 A 
ATOM     12  C6  ZIN A   1       0.527  -3.001  -0.060  0.00  0.00     0.004 A 
ATOM     13  C7  ZIN A   1       0.567  -2.298   1.126  0.00  0.00     0.018 A 
BRANCH  10  14
ATOM     14  O4  ZIN A   1       0.275  -0.286  -2.475  0.00  0.00    -0.360 OA
ATOM     15  H50 ZIN A   1       1.128  -0.061  -2.870  0.00  0.00     0.217 HD
ENDBRANCH  10  14
ENDBRANCH   4   7
ENDBRANCH   2   3
BRANCH   2  16
ATOM     16  C14 ZIN A   1      -0.661   0.190   5.308  0.00  0.00     0.107 C 
BRANCH  16  17
ATOM     17  S15 ZIN A   1      -1.587   1.139   4.069  0.00  0.00    -0.128 SA
BRANCH  17  18
ATOM     18  C16 ZIN A   1      -3.177   1.312   4.809  0.00  0.00     0.000 A 
ATOM     19  C21 ZIN A   1      -4.184   1.998   4.143  0.00  0.00     0.018 A 
ATOM     20  C20 ZIN A   1      -5.431   2.126   4.723  0.00  0.00     0.001 A 
ATOM     21  C19 ZIN A   1      -5.673   1.583   5.971  0.00  0.00     0.000 A 
ATOM     22  C18 ZIN A   1      -4.671   0.904   6.640  0.00  0.00     0.001 A 
ATOM     23  C17 ZIN A   1      -3.424   0.767   6.064  0.00  0.00     0.018 A 
ENDBRANCH  17  18
ENDBRANCH  16  17
ENDBRANCH   2  16
ENDBRANCH   1   2
BRANCH   1  24
ATOM     24  O24 ZIN A   1       0.839  -2.053   6.154  0.00  0.00    -0.392 OA
ATOM     25  H62 ZIN A   1      -0.049  -1.910   6.509  0.00  0.00     0.210 HD
ENDBRANCH   1  24
BRANCH   1  26
ATOM     26  C25 ZIN A   1       1.697  -0.013   7.125  0.00  0.00     0.269 C 
BRANCH  26  27
ATOM     27  N26 ZIN A   1       2.548  -0.731   8.083  0.00  0.00    -0.055 N 
ATOM     28  H27 ZIN A   1       2.165  -1.650   8.247  0.00  0.00     0.281 HD
ATOM     29  C38 ZIN A   1       2.592   0.012   9.348  0.00  0.00     0.279 C 
ATOM     30  C37 ZIN A   1       3.409  -0.782  10.373  0.00  0.00     0.048 C 
ATOM     31  C35 ZIN A   1       4.838  -0.951   9.844  0.00  0.00    -0.006 C 
ATOM     32  C29 ZIN A   1       4.771  -1.670   8.494  0.00  0.00     0.016 C 
ATOM     33  C34 ZIN A   1       5.469   0.424   9.669  0.00  0.00     0.005 C 
ATOM     34  C28 ZIN A   1       3.903  -0.859   7.532  0.00  0.00     0.241 C 
ATOM     35  C31 ZIN A   1       6.181  -1.817   7.923  0.00  0.00     0.007 C 
ATOM     36  C32 ZIN A   1       6.811  -0.435   7.746  0.00  0.00     0.000 C 
ATOM     37  C33 ZIN A   1       6.881   0.267   9.104  0.00  0.00     0.000 C 
BRANCH  29  38
ATOM     38  C40 ZIN A   1       3.224   1.364   9.141  0.00  0.00     0.249 C 
ATOM     39  O41 ZIN A   1       3.482   1.748   8.020  0.00  0.00    -0.271 OA
ATOM     40  N42 ZIN A   1       3.503   2.147  10.202  0.00  0.00    -0.351 N 
ATOM     41  H77 ZIN A   1       3.297   1.840  11.098  0.00  0.00     0.163 HD
BRANCH  40  42
ATOM     42  C43 ZIN A   1       4.118   3.461  10.000  0.00  0.00     0.022 C 
ATOM     43  C44 ZIN A   1       3.200   4.326   9.134  0.00  0.00     0.037 C 
ATOM     44  C45 ZIN A   1       4.328   4.139  11.356  0.00  0.00     0.037 C 
ATOM     45  C46 ZIN A   1       5.468   3.291   9.301  0.00  0.00     0.037 C 
ENDBRANCH  40  42
ENDBRANCH  29  38
ENDBRANCH  26  27
ENDBRANCH   1  26
TORSDOF 12
