REMARK  5 active torsions:
REMARK  status: ('A' for Active; 'I' for Inactive)
REMARK    1  A    between atoms: C2_2  and  C3_3 
REMARK    2  A    between atoms: C3_3  and  N4_4 
REMARK    3  A    between atoms: N4_4  and  C7_7 
REMARK    4  A    between atoms: C7_7  and  C10_9 
REMARK       I    between atoms: C10_9  and  N12_11 
REMARK    5  A    between atoms: N12_11  and  C13_12 
ROOT
ATOM      1  C10 <0> d   1      -2.774  -4.013  -0.111  0.00  0.00     0.252 C 
ATOM      2  O11 <0> d   1      -1.718  -4.601  -0.209  0.00  0.00    -0.271 OA
ATOM      3  N12 <0> d   1      -3.933  -4.701  -0.131  0.00  0.00    -0.325 N 
ATOM      4  H30 <0> d   1      -4.773  -4.239   0.012  0.00  0.00     0.169 HD
ENDROOT
BRANCH   1   5
ATOM      5  C7  <0> d   1      -2.790  -2.513   0.032  0.00  0.00     0.273 C 
ATOM      6  C9  <0> d   1      -3.467  -2.134   1.351  0.00  0.00     0.050 C 
BRANCH   5   7
ATOM      7  N4  <0> d   1      -1.412  -2.005   0.026  0.00  0.00    -0.063 N 
ATOM      8  H5  <0> d   1      -0.939  -2.325  -0.806  0.00  0.00     0.278 HD
ATOM      9  H6  <0> d   1      -0.924  -2.346   0.841  0.00  0.00     0.278 HD
BRANCH   7  10
ATOM     10  C3  <0> d   1      -1.431  -0.537   0.046  0.00  0.00     0.233 C 
BRANCH  10  11
ATOM     11  C2  <0> d   1       0.005  -0.008   0.039  0.00  0.00     0.023 C 
ATOM     12  C1  <0> d   1      -0.014   1.522   0.060  0.00  0.00     0.007 C 
ENDBRANCH  10  11
ENDBRANCH   7  10
ENDBRANCH   5   7
ENDBRANCH   1   5
BRANCH   3  13
ATOM     13  C13 <0> d   1      -3.923  -6.081  -0.358  0.00  0.00     0.040 A 
ATOM     14  C18 <0> d   1      -4.960  -6.678  -1.064  0.00  0.00    -0.035 A 
ATOM     15  C17 <0> d   1      -4.944  -8.040  -1.292  0.00  0.00     0.009 A 
ATOM     16  C19 <0> d   1      -6.094  -5.838  -1.592  0.00  0.00     0.050 C 
ATOM     17  C16 <0> d   1      -3.904  -8.811  -0.808  0.00  0.00     0.001 A 
ATOM     18  C15 <0> d   1      -2.873  -8.222  -0.100  0.00  0.00     0.002 A 
ATOM     19  C14 <0> d   1      -2.880  -6.859   0.126  0.00  0.00     0.030 A 
ENDBRANCH   3  13
TORSDOF 5
