REMARK  2 active torsions:
REMARK  status: ('A' for Active; 'I' for Inactive)
REMARK    1  A    between atoms: P2_2  and  C5_5 
REMARK    2  A    between atoms: C5_5  and  P6_6 
ROOT
ATOM      1  C5  ZIN A   1      -0.873   2.150   1.510  0.00  0.00     0.291 C 
ENDROOT
BRANCH   1   2
ATOM      2  P2  ZIN A   1      -0.019   1.562   0.011  0.00  0.00     0.272 P 
ATOM      3  O1  ZIN A   1       0.002  -0.004   0.002  0.00  0.00    -0.639 OA
ATOM      4  O3  ZIN A   1       1.451   2.105  -0.001  0.00  0.00    -0.639 OA
ATOM      5  O4  ZIN A   1      -0.777   2.081  -1.259  0.00  0.00    -0.639 OA
ENDBRANCH   1   2
BRANCH   1   6
ATOM      6  P6  ZIN A   1      -0.897   3.973   1.520  0.00  0.00     0.272 P 
ATOM      7  O7  ZIN A   1       0.573   4.515   1.509  0.00  0.00    -0.639 OA
ATOM      8  O8  ZIN A   1      -1.655   4.492   0.251  0.00  0.00    -0.639 OA
ATOM      9  O9  ZIN A   1      -1.631   4.478   2.809  0.00  0.00    -0.639 OA
ENDBRANCH   1   6
TORSDOF 2
