REMARK  4 active torsions:
REMARK  status: ('A' for Active; 'I' for Inactive)
REMARK    1  A    between atoms: C2_2  and  N4_3 
REMARK    2  A    between atoms: C2_2  and  C11_10 
REMARK    3  A    between atoms: N4_3  and  C7_6 
REMARK    4  A    between atoms: C11_10  and  C13_12 
ROOT
ATOM      1  C1  ZIN A   1       0.405   1.385  -1.072  0.00  0.00     0.049 C 
ATOM      2  C2  ZIN A   1       0.073   0.009  -0.492  0.00  0.00     0.257 C 
ENDROOT
BRANCH   2   3
ATOM      3  N4  ZIN A   1       0.707  -1.034  -1.310  0.00  0.00    -0.056 N 
ATOM      4  H5  ZIN A   1       0.190  -1.149  -2.168  0.00  0.00     0.279 HD
ATOM      5  H6  ZIN A   1       1.656  -0.763  -1.523  0.00  0.00     0.279 HD
BRANCH   3   6
ATOM      6  C7  ZIN A   1       0.714  -2.302  -0.568  0.00  0.00     0.116 C 
ATOM      7  C8  ZIN A   1      -0.726  -2.742  -0.296  0.00  0.00     0.045 C 
ATOM      8  C9  ZIN A   1       1.427  -3.373  -1.396  0.00  0.00     0.045 C 
ATOM      9  C10 ZIN A   1       1.449  -2.111   0.761  0.00  0.00     0.045 C 
ENDBRANCH   3   6
ENDBRANCH   2   3
BRANCH   2  10
ATOM     10  C11 ZIN A   1      -1.421  -0.191  -0.495  0.00  0.00     0.189 C 
ATOM     11  O12 ZIN A   1      -1.957  -0.742  -1.432  0.00  0.00    -0.290 OA
BRANCH  10  12
ATOM     12  C13 ZIN A   1      -2.229   0.285   0.640  0.00  0.00     0.013 A 
ATOM     13  C19 ZIN A   1      -3.615   0.102   0.641  0.00  0.00     0.039 A 
ATOM     14  C17 ZIN A   1      -4.365   0.544   1.712  0.00  0.00     0.035 A 
ATOM     15  C16 ZIN A   1      -3.748   1.180   2.777  0.00  0.00     0.024 A 
ATOM     16 Cl18 ZIN A   1      -6.085   0.312   1.720  0.00  0.00    -0.084 Cl
ATOM     17  C15 ZIN A   1      -2.378   1.369   2.780  0.00  0.00     0.003 A 
ATOM     18  C14 ZIN A   1      -1.615   0.927   1.720  0.00  0.00     0.015 A 
ENDBRANCH  10  12
ENDBRANCH   2  10
TORSDOF 4
