REMARK  3 active torsions:
REMARK  status: ('A' for Active; 'I' for Inactive)
REMARK    1  A    between atoms: C2_2  and  N3_3 
REMARK    2  A    between atoms: N3_3  and  C6_6 
REMARK    3  A    between atoms: C10_10  and  O11_11 
ROOT
ATOM      1  C6  ZIN A   1       0.709  -1.876  -1.214  0.00  0.00     0.138 A 
ATOM      2  C7  ZIN A   1       0.124  -2.580  -0.178  0.00  0.00     0.037 A 
ATOM      3  C8  ZIN A   1       0.141  -3.963  -0.183  0.00  0.00     0.005 A 
ATOM      4  C9  ZIN A   1       0.743  -4.644  -1.223  0.00  0.00     0.036 A 
ATOM      5  C10 ZIN A   1       1.330  -3.939  -2.264  0.00  0.00     0.067 A 
ATOM      6  C12 ZIN A   1       1.306  -2.552  -2.260  0.00  0.00     0.073 A 
ENDROOT
BRANCH   1   7
ATOM      7  N3  ZIN A   1       0.690  -0.478  -1.207  0.00  0.00    -0.045 N 
ATOM      8  C4  ZIN A   1      -0.021   0.009  -2.397  0.00  0.00     0.279 C 
ATOM      9  C5  ZIN A   1       2.068   0.031  -1.217  0.00  0.00     0.279 C 
BRANCH   7  10
ATOM     10  C2  ZIN A   1       0.002  -0.004   0.002  0.00  0.00     0.238 C 
ATOM     11  C1  ZIN A   1      -0.019   1.526   0.010  0.00  0.00     0.035 C 
ENDBRANCH   7  10
ENDBRANCH   1   7
BRANCH   5  12
ATOM     12  O11 ZIN A   1       1.922  -4.607  -3.289  0.00  0.00    -0.361 OA
ATOM     13  H27 ZIN A   1       1.326  -4.808  -4.024  0.00  0.00     0.217 HD
ENDBRANCH   5  12
TORSDOF 3
