REMARK  5 active torsions:
REMARK  status: ('A' for Active; 'I' for Inactive)
REMARK    1  A    between atoms: N10_10  and  C11_11 
REMARK    2  A    between atoms: C11_11  and  C12_12 
REMARK    3  A    between atoms: C12_12  and  C13_13 
REMARK    4  A    between atoms: C13_13  and  N14_14 
REMARK    5  A    between atoms: N17_17  and  C18_18 
ROOT
ATOM      1  N14 ZIN A   1       4.845   0.861  -2.881  0.00  0.00     0.090 N 
ATOM      2  C15 ZIN A   1       3.856   0.124  -3.680  0.00  0.00     0.287 C 
ATOM      3  C16 ZIN A   1       4.322   0.067  -5.137  0.00  0.00     0.126 C 
ATOM      4  N17 ZIN A   1       5.638  -0.583  -5.203  0.00  0.00    -0.280 NA
ATOM      5  C25 ZIN A   1       6.627   0.153  -4.403  0.00  0.00     0.126 C 
ATOM      6  C26 ZIN A   1       6.161   0.210  -2.946  0.00  0.00     0.287 C 
ENDROOT
BRANCH   1   7
ATOM      7  C13 ZIN A   1       4.396   1.003  -1.489  0.00  0.00     0.274 C 
BRANCH   7   8
ATOM      8  C12 ZIN A   1       2.933   1.449  -1.467  0.00  0.00     0.052 C 
BRANCH   8   9
ATOM      9  C11 ZIN A   1       2.466   1.596  -0.018  0.00  0.00     0.158 C 
BRANCH   9  10
ATOM     10  N10 ZIN A   1       1.065   2.023   0.003  0.00  0.00    -0.217 N 
ATOM     11  C2  ZIN A   1      -0.015   1.215   0.009  0.00  0.00     0.350 A 
ATOM     12  O1  ZIN A   1       0.002  -0.004   0.002  0.00  0.00    -0.244 OA
ATOM     13  N3  ZIN A   1      -1.115   1.993   0.029  0.00  0.00    -0.256 N 
ATOM     14  C8  ZIN A   1      -0.709   3.315   0.030  0.00  0.00     0.158 A 
ATOM     15  C4  ZIN A   1      -2.455   1.686   0.047  0.00  0.00     0.103 A 
ATOM     16  C7  ZIN A   1      -1.683   4.346   0.050  0.00  0.00     0.053 A 
ATOM     17  N9  ZIN A   1       0.603   3.347   0.011  0.00  0.00    -0.149 NA
ATOM     18  C6  ZIN A   1      -2.998   4.016   0.067  0.00  0.00     0.005 A 
ATOM     19  C5  ZIN A   1      -3.382   2.659   0.066  0.00  0.00     0.018 A 
ENDBRANCH   9  10
ENDBRANCH   8   9
ENDBRANCH   7   8
ENDBRANCH   1   7
BRANCH   4  20
ATOM     20  C18 ZIN A   1       6.064  -0.718  -6.526  0.00  0.00     0.012 A 
ATOM     21  C24 ZIN A   1       7.289  -1.311  -6.806  0.00  0.00     0.047 A 
ATOM     22  C22 ZIN A   1       7.705  -1.448  -8.116  0.00  0.00     0.035 A 
ATOM     23  C21 ZIN A   1       6.907  -0.984  -9.149  0.00  0.00     0.024 A 
ATOM     24 Cl23 ZIN A   1       9.232  -2.195  -8.468  0.00  0.00    -0.084 Cl
ATOM     25  C20 ZIN A   1       5.690  -0.389  -8.872  0.00  0.00     0.003 A 
ATOM     26  C19 ZIN A   1       5.266  -0.255  -7.564  0.00  0.00     0.024 A 
ENDBRANCH   4  20
TORSDOF 5
