REMARK  5 active torsions:
REMARK  status: ('A' for Active; 'I' for Inactive)
REMARK    1  A    between atoms: C8_7  and  O9_8 
REMARK    2  A    between atoms: C16_15  and  O17_16 
REMARK    3  A    between atoms: C20_19  and  C21_20 
REMARK       I    between atoms: C21_20  and  N22_21 
REMARK    4  A    between atoms: C26_25  and  N28_26 
REMARK    5  A    between atoms: C33_30  and  O35_31 
ROOT
ATOM      1  C1  ZIN A   1      -1.306   0.980   0.321  0.00  0.00     0.016 C 
ATOM      2  C2  ZIN A   1      -1.431  -0.537   0.473  0.00  0.00     0.027 C 
ATOM      3  C4  ZIN A   1      -1.294  -1.190  -0.879  0.00  0.00    -0.038 A 
ATOM      4  C5  ZIN A   1      -1.600  -0.492  -2.026  0.00  0.00     0.009 A 
ATOM      5  C6  ZIN A   1      -1.484  -1.103  -3.265  0.00  0.00     0.003 A 
ATOM      6  C7  ZIN A   1      -1.062  -2.414  -3.363  0.00  0.00     0.037 A 
ATOM      7  C8  ZIN A   1      -0.746  -3.131  -2.218  0.00  0.00     0.079 A 
ATOM      8  C10 ZIN A   1      -0.856  -2.516  -0.965  0.00  0.00     0.041 A 
ATOM      9  C11 ZIN A   1      -0.544  -3.252   0.269  0.00  0.00     0.131 C 
ATOM     10  O12 ZIN A   1      -0.470  -4.601   0.258  0.00  0.00    -0.190 OA
ATOM     11  C13 ZIN A   1      -0.327  -2.551   1.443  0.00  0.00     0.036 C 
ATOM     12  C14 ZIN A   1      -0.124  -3.261   2.620  0.00  0.00     0.201 C 
ATOM     13  O15 ZIN A   1      -0.143  -4.476   2.571  0.00  0.00    -0.289 OA
ATOM     14  C16 ZIN A   1       0.121  -2.604   3.952  0.00  0.00     0.196 C 
ATOM     15  C18 ZIN A   1      -1.178  -2.656   4.734  0.00  0.00     0.210 C 
ATOM     16  O19 ZIN A   1      -2.026  -3.483   4.469  0.00  0.00    -0.288 OA
ATOM     17  C20 ZIN A   1      -1.389  -1.694   5.814  0.00  0.00     0.115 C 
ATOM     18  C24 ZIN A   1      -0.550  -0.617   5.956  0.00  0.00     0.138 C 
ATOM     19  O25 ZIN A   1      -0.787   0.264   6.939  0.00  0.00    -0.193 OA
ATOM     20  C26 ZIN A   1       0.623  -0.391   5.049  0.00  0.00     0.292 C 
ATOM     21  C31 ZIN A   1       0.484  -1.136   3.736  0.00  0.00     0.105 C 
ATOM     22  C33 ZIN A   1      -0.553  -0.495   2.820  0.00  0.00     0.138 C 
ATOM     23  C36 ZIN A   1      -0.333  -1.046   1.402  0.00  0.00     0.063 C 
ENDROOT
BRANCH  17  24
ATOM     24  C21 ZIN A   1      -2.506  -1.880   6.754  0.00  0.00     0.255 C 
ATOM     25  N22 ZIN A   1      -3.258  -2.997   6.694  0.00  0.00    -0.366 N 
ATOM     26  H46 ZIN A   1      -3.106  -3.647   5.990  0.00  0.00     0.159 HD
ATOM     27  H47 ZIN A   1      -3.952  -3.151   7.354  0.00  0.00     0.159 HD
ATOM     28  O23 ZIN A   1      -2.751  -1.026   7.585  0.00  0.00    -0.268 OA
ENDBRANCH  17  24
BRANCH  14  29
ATOM     29  O17 ZIN A   1       1.170  -3.276   4.651  0.00  0.00    -0.373 OA
ATOM     30  H45 ZIN A   1       1.021  -4.225   4.767  0.00  0.00     0.211 HD
ENDBRANCH  14  29
BRANCH  20  31
ATOM     31  N28 ZIN A   1       1.843  -0.847   5.727  0.00  0.00     0.091 N 
ATOM     32  C29 ZIN A   1       3.042  -0.443   4.980  0.00  0.00     0.310 C 
ATOM     33  C30 ZIN A   1       1.893  -0.352   7.110  0.00  0.00     0.310 C 
ENDBRANCH  20  31
BRANCH  22  34
ATOM     34  O35 ZIN A   1      -0.377   0.923   2.809  0.00  0.00    -0.394 OA
ATOM     35  H54 ZIN A   1       0.465   1.213   2.431  0.00  0.00     0.210 HD
ENDBRANCH  22  34
BRANCH   7  36
ATOM     36  O9  ZIN A   1      -0.333  -4.420  -2.312  0.00  0.00    -0.360 OA
ATOM     37  H44 ZIN A   1       0.625  -4.520  -2.399  0.00  0.00     0.217 HD
ENDBRANCH   7  36
TORSDOF 5
