REMARK  0 active torsions:
REMARK  status: ('A' for Active; 'I' for Inactive)
ROOT
ATOM      1  O1  ZIN A   1       0.002  -0.004   0.002  0.00  0.00    -0.267 OA
ATOM      2  C2  ZIN A   1      -0.014   1.214   0.009  0.00  0.00     0.262 A 
ATOM      3  N3  ZIN A   1      -1.181   1.900   0.029  0.00  0.00    -0.317 N 
ATOM      4  C4  ZIN A   1      -1.177   3.257   0.036  0.00  0.00     0.212 A 
ATOM      5  N5  ZIN A   1      -0.084   3.963   0.024  0.00  0.00    -0.224 NA
ATOM      6  C6  ZIN A   1       1.130   3.390   0.004  0.00  0.00     0.162 A 
ATOM      7  C7  ZIN A   1       1.226   1.990   0.001  0.00  0.00     0.098 A 
ATOM      8  C8  ZIN A   1       2.595   1.665  -0.023  0.00  0.00     0.159 A 
ATOM      9  N9  ZIN A   1       3.280   2.775  -0.034  0.00  0.00    -0.184 NA
ATOM     10  N10 ZIN A   1       2.402   3.866  -0.013  0.00  0.00    -0.261 N 
ATOM     11  H11 ZIN A   1      -2.024   1.420   0.039  0.00  0.00     0.170 HD
ATOM     12  H14 ZIN A   1       2.659   4.802  -0.016  0.00  0.00     0.191 HD
ENDROOT
TORSDOF 0
