REMARK  0 active torsions:
REMARK  status: ('A' for Active; 'I' for Inactive)
ROOT
ATOM      1  C1  ZIN A   1      -0.019   1.526   0.010  0.00  0.00     0.051 C 
ATOM      2  C2  ZIN A   1       0.002  -0.004   0.002  0.00  0.00     0.179 C 
ATOM      3  O4  ZIN A   1      -1.339  -0.546   0.096  0.00  0.00    -0.362 OA
ATOM      4  C5  ZIN A   1      -1.346  -1.910   0.514  0.00  0.00     0.098 C 
ATOM      5  C6  ZIN A   1      -0.199  -2.240   1.496  0.00  0.00     0.116 C 
ATOM      6  S7  ZIN A   1       0.753  -0.667   1.548  0.00  0.00    -0.135 SA
ATOM      7  C8  ZIN A   1      -2.679  -2.224   1.203  0.00  0.00     0.274 C 
ATOM      8  N9  ZIN A   1      -3.373  -3.295   0.485  0.00  0.00    -0.068 N 
ATOM      9  H10 ZIN A   1      -4.238  -3.492   0.966  0.00  0.00     0.280 HD
ATOM     10  C11 ZIN A   1      -3.688  -2.878  -0.883  0.00  0.00     0.235 C 
ATOM     11  C12 ZIN A   1      -2.398  -2.569  -1.645  0.00  0.00     0.035 C 
ATOM     12  C13 ZIN A   1      -1.202  -2.817  -0.718  0.00  0.00     0.026 C 
ATOM     13  C14 ZIN A   1      -1.246  -4.276  -0.247  0.00  0.00     0.035 C 
ATOM     14  C15 ZIN A   1      -2.565  -4.516   0.469  0.00  0.00     0.235 C 
ENDROOT
TORSDOF 0
