REMARK  20 active torsions:
REMARK  status: ('A' for Active; 'I' for Inactive)
REMARK    1  A    between atoms: C2_2  and  C4_4 
REMARK    2  A    between atoms: C6_6  and  C7_7 
REMARK    3  A    between atoms: C7_7  and  N8_8 
REMARK       I    between atoms: N8_8  and  C10_10 
REMARK       I    between atoms: C10_10  and  N12_12 
REMARK    4  A    between atoms: N12_12  and  C13_13 
REMARK    5  A    between atoms: C13_13  and  C15_14 
REMARK    6  A    between atoms: C13_13  and  C23_22 
REMARK    7  A    between atoms: C15_14  and  C16_15 
REMARK    8  A    between atoms: C16_15  and  N17_16 
REMARK       I    between atoms: C23_22  and  N25_24 
REMARK    9  A    between atoms: N25_24  and  C26_25 
REMARK   10  A    between atoms: C26_25  and  C28_26 
REMARK   11  A    between atoms: C26_25  and  C49_46 
REMARK   12  A    between atoms: C28_26  and  C29_27 
REMARK   13  A    between atoms: C29_27  and  C30_28 
REMARK   14  A    between atoms: C30_28  and  C32_29 
REMARK   15  A    between atoms: C30_28  and  N39_36 
REMARK   16  A    between atoms: C32_29  and  C33_30 
REMARK       I    between atoms: N39_36  and  C40_37 
REMARK   17  A    between atoms: C40_37  and  O42_39 
REMARK   18  A    between atoms: O42_39  and  C43_40 
REMARK   19  A    between atoms: C43_40  and  C44_41 
REMARK   20  A    between atoms: C49_46  and  C50_47 
ROOT
ATOM      1  C26 ZIN A   1      -9.930   1.167  -6.365  0.00  0.00     0.088 C 
ENDROOT
BRANCH   1   2
ATOM      2  N25 ZIN A   1      -9.377   0.914  -5.032  0.00  0.00    -0.354 N 
ATOM      3  C23 ZIN A   1      -8.138   0.399  -4.904  0.00  0.00     0.240 C 
ATOM      4  O24 ZIN A   1      -7.482   0.145  -5.891  0.00  0.00    -0.271 OA
ATOM      5  H83 ZIN A   1      -9.902   1.118  -4.242  0.00  0.00     0.162 HD
BRANCH   3   6
ATOM      6  C13 ZIN A   1      -7.569   0.139  -3.533  0.00  0.00     0.180 C 
BRANCH   6   7
ATOM      7  N12 ZIN A   1      -6.220  -0.417  -3.662  0.00  0.00    -0.330 N 
ATOM      8  C10 ZIN A   1      -5.708  -1.180  -2.675  0.00  0.00     0.319 C 
ATOM      9  N8  ZIN A   1      -4.467  -1.692  -2.794  0.00  0.00    -0.333 N 
ATOM     10  O11 ZIN A   1      -6.367  -1.407  -1.679  0.00  0.00    -0.247 OA
ATOM     11  C9  ZIN A   1      -3.674  -1.419  -3.995  0.00  0.00     0.154 C 
ATOM     12  H70 ZIN A   1      -5.694  -0.236  -4.457  0.00  0.00     0.165 HD
BRANCH   9  13
ATOM     13  C7  ZIN A   1      -3.912  -2.522  -1.722  0.00  0.00     0.186 C 
BRANCH  13  14
ATOM     14  C6  ZIN A   1      -3.183  -1.646  -0.735  0.00  0.00     0.060 A 
ATOM     15  N5  ZIN A   1      -1.929  -1.277  -0.900  0.00  0.00    -0.248 NA
ATOM     16  C4  ZIN A   1      -1.412  -0.526   0.013  0.00  0.00     0.078 A 
ATOM     17  S57 ZIN A   1      -2.561  -0.214   1.240  0.00  0.00    -0.084 SA
ATOM     18  C56 ZIN A   1      -3.756  -1.180   0.378  0.00  0.00     0.080 A 
BRANCH  16  19
ATOM     19  C2  ZIN A   1       0.002  -0.004   0.002  0.00  0.00     0.037 C 
ATOM     20  C1  ZIN A   1      -0.019   1.526   0.010  0.00  0.00     0.016 C 
ATOM     21  C3  ZIN A   1       0.742  -0.511   1.242  0.00  0.00     0.016 C 
ENDBRANCH  16  19
ENDBRANCH  13  14
ENDBRANCH   9  13
ENDBRANCH   6   7
BRANCH   6  22
ATOM     22  C15 ZIN A   1      -7.506   1.452  -2.749  0.00  0.00     0.065 C 
BRANCH  22  23
ATOM     23  C16 ZIN A   1      -7.046   1.170  -1.317  0.00  0.00     0.275 C 
BRANCH  23  24
ATOM     24  N17 ZIN A   1      -6.986   2.430  -0.565  0.00  0.00     0.092 N 
ATOM     25  C22 ZIN A   1      -6.326   2.237   0.734  0.00  0.00     0.298 C 
ATOM     26  C21 ZIN A   1      -6.338   3.558   1.508  0.00  0.00     0.198 C 
ATOM     27  O20 ZIN A   1      -5.703   4.571   0.723  0.00  0.00    -0.388 OA
ATOM     28  C19 ZIN A   1      -6.320   4.785  -0.549  0.00  0.00     0.198 C 
ATOM     29  C18 ZIN A   1      -6.308   3.477  -1.344  0.00  0.00     0.298 C 
ENDBRANCH  23  24
ENDBRANCH  22  23
ENDBRANCH   6  22
ENDBRANCH   3   6
ENDBRANCH   1   2
BRANCH   1  30
ATOM     30  C28 ZIN A   1     -10.992   2.265  -6.276  0.00  0.00     0.027 C 
BRANCH  30  31
ATOM     31  C29 ZIN A   1     -10.332   3.580  -5.856  0.00  0.00     0.027 C 
BRANCH  31  32
ATOM     32  C30 ZIN A   1     -11.394   4.678  -5.768  0.00  0.00     0.091 C 
BRANCH  32  33
ATOM     33  C32 ZIN A   1     -10.718   6.018  -5.470  0.00  0.00     0.063 C 
BRANCH  33  34
ATOM     34  C33 ZIN A   1     -11.747   7.118  -5.504  0.00  0.00    -0.056 A 
ATOM     35  C38 ZIN A   1     -12.425   7.467  -4.351  0.00  0.00     0.007 A 
ATOM     36  C37 ZIN A   1     -13.366   8.479  -4.382  0.00  0.00     0.001 A 
ATOM     37  C36 ZIN A   1     -13.636   9.137  -5.567  0.00  0.00     0.000 A 
ATOM     38  C35 ZIN A   1     -12.962   8.784  -6.722  0.00  0.00     0.001 A 
ATOM     39  C34 ZIN A   1     -12.018   7.775  -6.690  0.00  0.00     0.007 A 
ENDBRANCH  33  34
ENDBRANCH  32  33
BRANCH  32  40
ATOM     40  N39 ZIN A   1     -12.338   4.359  -4.695  0.00  0.00    -0.332 N 
ATOM     41  C40 ZIN A   1     -13.592   4.852  -4.732  0.00  0.00     0.361 C 
ATOM     42  O41 ZIN A   1     -13.939   5.562  -5.655  0.00  0.00    -0.239 OA
ATOM     43  H95 ZIN A   1     -12.062   3.792  -3.958  0.00  0.00     0.165 HD
BRANCH  41  44
ATOM     44  O42 ZIN A   1     -14.460   4.558  -3.745  0.00  0.00    -0.299 OA
BRANCH  44  45
ATOM     45  C43 ZIN A   1     -15.793   5.125  -3.851  0.00  0.00     0.228 C 
BRANCH  45  46
ATOM     46  C44 ZIN A   1     -16.618   4.690  -2.667  0.00  0.00     0.025 A 
ATOM     47  S48 ZIN A   1     -17.618   3.242  -2.575  0.00  0.00    -0.084 SA
ATOM     48  C47 ZIN A   1     -18.073   3.647  -0.977  0.00  0.00     0.166 A 
ATOM     49  N46 ZIN A   1     -17.511   4.753  -0.622  0.00  0.00    -0.265 NA
ATOM     50  C45 ZIN A   1     -16.726   5.339  -1.503  0.00  0.00     0.133 A 
ENDBRANCH  45  46
ENDBRANCH  44  45
ENDBRANCH  41  44
ENDBRANCH  32  40
ENDBRANCH  31  32
ENDBRANCH  30  31
ENDBRANCH   1  30
BRANCH   1  51
ATOM     51  C49 ZIN A   1     -10.567  -0.116  -6.904  0.00  0.00     0.063 C 
BRANCH  51  52
ATOM     52  C50 ZIN A   1      -9.499  -1.159  -7.107  0.00  0.00    -0.056 A 
ATOM     53  C55 ZIN A   1      -9.176  -2.026  -6.080  0.00  0.00     0.007 A 
ATOM     54  C54 ZIN A   1      -8.199  -2.987  -6.268  0.00  0.00     0.001 A 
ATOM     55  C53 ZIN A   1      -7.540  -3.074  -7.480  0.00  0.00     0.000 A 
ATOM     56  C52 ZIN A   1      -7.859  -2.203  -8.505  0.00  0.00     0.001 A 
ATOM     57  C51 ZIN A   1      -8.839  -1.246  -8.319  0.00  0.00     0.007 A 
ENDBRANCH  51  52
ENDBRANCH   1  51
TORSDOF 20
