REMARK  11 active torsions:
REMARK  status: ('A' for Active; 'I' for Inactive)
REMARK    1  A    between atoms: C2_2  and  C3_3 
REMARK    2  A    between atoms: C3_3  and  C4_4 
REMARK    3  A    between atoms: C4_4  and  C5_5 
REMARK    4  A    between atoms: C6_6  and  C7_7 
REMARK    5  A    between atoms: C7_7  and  C9_9 
REMARK    6  A    between atoms: C13_13  and  O14_14 
REMARK    7  A    between atoms: O14_14  and  C15_15 
REMARK    8  A    between atoms: C15_15  and  C16_16 
REMARK    9  A    between atoms: C16_16  and  N17_17 
REMARK   10  A    between atoms: N17_17  and  C19_19 
REMARK   11  A    between atoms: N17_17  and  C21_21 
ROOT
ATOM      1  C9  ZIN A   1      -5.525  -2.350  -1.896  0.00  0.00     0.018 A 
ATOM      2  C10 ZIN A   1      -6.599  -3.242  -1.960  0.00  0.00     0.036 A 
ATOM      3  C11 ZIN A   1      -7.068  -3.666  -3.184  0.00  0.00     0.042 A 
ATOM      4  I12 ZIN A   1      -8.677  -5.003  -3.282  0.00  0.00    -0.042 I 
ATOM      5  C13 ZIN A   1      -6.474  -3.207  -4.355  0.00  0.00     0.101 A 
ATOM      6  C23 ZIN A   1      -5.406  -2.319  -4.295  0.00  0.00     0.042 A 
ATOM      7  I24 ZIN A   1      -4.518  -1.631  -6.063  0.00  0.00    -0.042 I 
ATOM      8  C25 ZIN A   1      -4.934  -1.887  -3.075  0.00  0.00     0.036 A 
ENDROOT
BRANCH   1   9
ATOM      9  C7  ZIN A   1      -5.020  -1.893  -0.586  0.00  0.00     0.195 C 
ATOM     10  O8  ZIN A   1      -4.165  -1.029  -0.532  0.00  0.00    -0.287 OA
BRANCH   9  11
ATOM     11  C6  ZIN A   1      -5.550  -2.481   0.652  0.00  0.00     0.058 A 
ATOM     12  C5  ZIN A   1      -5.108  -3.604   1.285  0.00  0.00     0.069 A 
ATOM     13  O32 ZIN A   1      -5.844  -3.828   2.380  0.00  0.00    -0.313 OA
ATOM     14  C31 ZIN A   1      -6.790  -2.879   2.538  0.00  0.00     0.087 A 
ATOM     15  C26 ZIN A   1      -6.673  -1.978   1.469  0.00  0.00     0.014 A 
ATOM     16  C30 ZIN A   1      -7.774  -2.671   3.496  0.00  0.00     0.038 A 
ATOM     17  C27 ZIN A   1      -7.533  -0.890   1.371  0.00  0.00     0.015 A 
ATOM     18  C28 ZIN A   1      -8.504  -0.700   2.332  0.00  0.00     0.001 A 
ATOM     19  C29 ZIN A   1      -8.622  -1.589   3.389  0.00  0.00     0.003 A 
BRANCH  12  20
ATOM     20  C4  ZIN A   1      -3.966  -4.469   0.817  0.00  0.00     0.066 C 
BRANCH  20  21
ATOM     21  C3  ZIN A   1      -2.660  -3.968   1.438  0.00  0.00     0.006 C 
BRANCH  21  22
ATOM     22  C2  ZIN A   1      -1.500  -4.846   0.963  0.00  0.00    -0.004 C 
ATOM     23  C1  ZIN A   1      -0.195  -4.346   1.583  0.00  0.00     0.005 C 
ENDBRANCH  21  22
ENDBRANCH  20  21
ENDBRANCH  12  20
ENDBRANCH   9  11
ENDBRANCH   1   9
BRANCH   5  24
ATOM     24  O14 ZIN A   1      -6.939  -3.626  -5.559  0.00  0.00    -0.347 OA
BRANCH  24  25
ATOM     25  C15 ZIN A   1      -7.974  -2.847  -6.162  0.00  0.00     0.203 C 
BRANCH  25  26
ATOM     26  C16 ZIN A   1      -8.366  -3.470  -7.503  0.00  0.00     0.261 C 
BRANCH  26  27
ATOM     27  N17 ZIN A   1      -8.960  -4.794  -7.274  0.00  0.00    -0.070 N 
ATOM     28  H18 ZIN A   1      -8.320  -5.361  -6.738  0.00  0.00     0.279 HD
BRANCH  27  29
ATOM     29  C19 ZIN A   1     -10.219  -4.643  -6.532  0.00  0.00     0.230 C 
ATOM     30  C20 ZIN A   1     -10.775  -6.025  -6.184  0.00  0.00     0.034 C 
ENDBRANCH  27  29
BRANCH  27  31
ATOM     31  C21 ZIN A   1      -9.226  -5.442  -8.565  0.00  0.00     0.230 C 
ATOM     32  C22 ZIN A   1      -7.902  -5.722  -9.277  0.00  0.00     0.034 C 
ENDBRANCH  27  31
ENDBRANCH  26  27
ENDBRANCH  25  26
ENDBRANCH  24  25
ENDBRANCH   5  24
TORSDOF 11
