REMARK  5 active torsions:
REMARK  status: ('A' for Active; 'I' for Inactive)
REMARK    1  A    between atoms: C6_6  and  N7_7 
REMARK    2  A    between atoms: N7_7  and  C8_8 
REMARK    3  A    between atoms: C13_13  and  S14_14 
REMARK    4  A    between atoms: S14_14  and  N17_17 
REMARK       I    between atoms: N17_17  and  C18_18 
REMARK       I    between atoms: C18_18  and  N20_20 
REMARK    5  A    between atoms: N20_20  and  C21_21 
ROOT
ATOM      1  C8  ZIN A   1      -0.020  -4.187   2.435  0.00  0.00     0.059 A 
ATOM      2  C9  ZIN A   1      -0.006  -4.941   1.263  0.00  0.00     0.050 A 
ATOM      3  C10 ZIN A   1      -0.078  -6.316   1.350  0.00  0.00     0.118 A 
ATOM      4  N11 ZIN A   1      -0.160  -6.916   2.522  0.00  0.00    -0.271 NA
ATOM      5  C12 ZIN A   1      -0.176  -6.237   3.654  0.00  0.00     0.144 A 
ATOM      6  C13 ZIN A   1      -0.102  -4.861   3.654  0.00  0.00     0.125 A 
ENDROOT
BRANCH   6   7
ATOM      7  S14 ZIN A   1      -0.125  -3.965   5.171  0.00  0.00     0.291 S 
ATOM      8  O15 ZIN A   1       1.253  -3.789   5.658  0.00  0.00    -0.198 OA
ATOM      9  O16 ZIN A   1      -0.739  -2.645   4.952  0.00  0.00    -0.198 OA
BRANCH   7  10
ATOM     10  N17 ZIN A   1      -0.919  -4.722   6.184  0.00  0.00    -0.102 NA
ATOM     11  C18 ZIN A   1      -1.072  -4.229   7.415  0.00  0.00     0.353 C 
ATOM     12  O19 ZIN A   1      -0.565  -3.163   7.712  0.00  0.00    -0.244 OA
ATOM     13  N20 ZIN A   1      -1.788  -4.912   8.330  0.00  0.00    -0.337 N 
ATOM     14  H35 ZIN A   1      -2.192  -5.762   8.094  0.00  0.00     0.164 HD
BRANCH  13  15
ATOM     15  C21 ZIN A   1      -1.956  -4.372   9.681  0.00  0.00     0.078 C 
ATOM     16  C22 ZIN A   1      -3.236  -4.937  10.301  0.00  0.00     0.032 C 
ATOM     17  C23 ZIN A   1      -0.755  -4.768  10.542  0.00  0.00     0.032 C 
ENDBRANCH  13  15
ENDBRANCH   7  10
ENDBRANCH   6   7
BRANCH   1  18
ATOM     18  N7  ZIN A   1       0.051  -2.797   2.391  0.00  0.00    -0.355 N 
ATOM     19  H31 ZIN A   1       0.153  -2.290   3.212  0.00  0.00     0.166 HD
BRANCH  18  20
ATOM     20  C6  ZIN A   1      -0.024  -2.132   1.164  0.00  0.00     0.033 A 
ATOM     21  C5  ZIN A   1       0.807  -1.048   0.907  0.00  0.00     0.029 A 
ATOM     22  C4  ZIN A   1       0.730  -0.394  -0.306  0.00  0.00     0.003 A 
ATOM     23  C3  ZIN A   1      -0.173  -0.815  -1.265  0.00  0.00     0.007 A 
ATOM     24  C2  ZIN A   1      -1.001  -1.894  -1.013  0.00  0.00    -0.060 A 
ATOM     25  C1  ZIN A   1      -1.983  -2.350  -2.061  0.00  0.00     0.048 C 
ATOM     26  C24 ZIN A   1      -0.933  -2.550   0.201  0.00  0.00     0.036 A 
ENDBRANCH  18  20
ENDBRANCH   1  18
TORSDOF 5
