REMARK  16 active torsions:
REMARK  status: ('A' for Active; 'I' for Inactive)
REMARK    1  A    between atoms: C2_2  and  C3_3 
REMARK    2  A    between atoms: C3_3  and  C4_4 
REMARK    3  A    between atoms: C4_4  and  C5_5 
REMARK    4  A    between atoms: C5_5  and  O7_7 
REMARK    5  A    between atoms: O7_7  and  C8_8 
REMARK    6  A    between atoms: C8_8  and  C9_9 
REMARK    7  A    between atoms: C9_9  and  C11_11 
REMARK    8  A    between atoms: C11_11  and  O12_12 
REMARK    9  A    between atoms: C15_15  and  O16_16 
REMARK   10  A    between atoms: C22_22  and  O23_23 
REMARK   11  A    between atoms: C31_31  and  O32_32 
REMARK   12  A    between atoms: C34_34  and  O36_35 
REMARK   13  A    between atoms: O36_35  and  C37_36 
REMARK   14  A    between atoms: C40_38  and  N42_39 
REMARK       I    between atoms: N42_39  and  C43_40 
REMARK   15  A    between atoms: C43_40  and  C45_42 
REMARK   16  A    between atoms: C49_46  and  O51_47 
ROOT
ATOM      1  C11 ZIN A   1      -5.337  -6.288  -0.547  0.00  0.00     0.127 C 
ATOM      2  C13 ZIN A   1      -6.098  -6.402   0.772  0.00  0.00     0.088 C 
ATOM      3  C14 ZIN A   1      -5.481  -7.455   1.654  0.00  0.00    -0.009 A 
ATOM      4  C15 ZIN A   1      -5.806  -7.425   3.017  0.00  0.00     0.088 A 
ATOM      5  C17 ZIN A   1      -5.277  -8.373   3.890  0.00  0.00     0.066 A 
ATOM      6  C18 ZIN A   1      -4.409  -9.366   3.391  0.00  0.00     0.066 A 
ATOM      7  C19 ZIN A   1      -3.850 -10.375   4.310  0.00  0.00     0.200 C 
ATOM      8  O20 ZIN A   1      -2.920 -11.077   3.961  0.00  0.00    -0.286 OA
ATOM      9  C21 ZIN A   1      -4.433 -10.524   5.657  0.00  0.00     0.062 A 
ATOM     10  C22 ZIN A   1      -4.135 -11.639   6.443  0.00  0.00     0.083 A 
ATOM     11  C25 ZIN A   1      -4.696 -11.759   7.711  0.00  0.00     0.038 A 
ATOM     12  C26 ZIN A   1      -5.542 -10.782   8.195  0.00  0.00     0.004 A 
ATOM     13  C27 ZIN A   1      -5.846  -9.669   7.427  0.00  0.00     0.017 A 
ATOM     14  C28 ZIN A   1      -5.298  -9.531   6.157  0.00  0.00     0.032 A 
ATOM     15  C29 ZIN A   1      -5.615  -8.350   5.325  0.00  0.00     0.197 C 
ATOM     16  O30 ZIN A   1      -6.147  -7.374   5.818  0.00  0.00    -0.286 OA
ATOM     17  C31 ZIN A   1      -4.093  -9.380   2.036  0.00  0.00     0.090 A 
ATOM     18  C33 ZIN A   1      -4.631  -8.418   1.170  0.00  0.00     0.014 A 
ATOM     19  C34 ZIN A   1      -4.231  -8.492  -0.281  0.00  0.00     0.164 C 
ATOM     20  C56 ZIN A   1      -5.199  -7.691  -1.148  0.00  0.00     0.083 C 
ENDROOT
BRANCH  19  21
ATOM     21  O36 ZIN A   1      -4.240  -9.858  -0.703  0.00  0.00    -0.351 OA
BRANCH  21  22
ATOM     22  C37 ZIN A   1      -3.376 -10.131  -1.807  0.00  0.00     0.263 C 
ATOM     23  O55 ZIN A   1      -2.015 -10.062  -1.375  0.00  0.00    -0.354 OA
ATOM     24  C52 ZIN A   1      -1.061 -10.296  -2.413  0.00  0.00     0.151 C 
ATOM     25  C49 ZIN A   1      -1.260 -11.704  -2.981  0.00  0.00     0.171 C 
ATOM     26  C54 ZIN A   1      -1.256  -9.265  -3.527  0.00  0.00     0.042 C 
ATOM     27  C40 ZIN A   1      -2.697 -11.840  -3.494  0.00  0.00     0.147 C 
ATOM     28  C39 ZIN A   1      -3.668 -11.532  -2.350  0.00  0.00     0.090 C 
BRANCH  25  29
ATOM     29  O51 ZIN A   1      -0.346 -11.920  -4.057  0.00  0.00    -0.391 OA
ATOM     30  H81 ZIN A   1       0.585 -11.848  -3.804  0.00  0.00     0.210 HD
ENDBRANCH  25  29
BRANCH  27  31
ATOM     31  N42 ZIN A   1      -2.920 -13.207  -3.972  0.00  0.00    -0.240 NA
ATOM     32  C43 ZIN A   1      -4.124 -13.560  -4.464  0.00  0.00     0.346 C 
ATOM     33  O44 ZIN A   1      -5.023 -12.747  -4.511  0.00  0.00    -0.261 OA
BRANCH  32  34
ATOM     34  C45 ZIN A   1      -4.354 -14.966  -4.955  0.00  0.00     0.474 C 
ATOM     35  F46 ZIN A   1      -5.670 -15.091  -5.415  0.00  0.00    -0.162 F 
ATOM     36  F47 ZIN A   1      -3.467 -15.247  -6.000  0.00  0.00    -0.162 F 
ATOM     37  F48 ZIN A   1      -4.140 -15.868  -3.906  0.00  0.00    -0.162 F 
ENDBRANCH  32  34
ENDBRANCH  27  31
ENDBRANCH  21  22
ENDBRANCH  19  21
BRANCH  17  38
ATOM     38  O32 ZIN A   1      -3.257 -10.331   1.550  0.00  0.00    -0.359 OA
ATOM     39  H78 ZIN A   1      -3.704 -11.141   1.268  0.00  0.00     0.217 HD
ENDBRANCH  17  38
BRANCH   1  40
ATOM     40  C9  ZIN A   1      -3.969  -5.707  -0.295  0.00  0.00     0.185 C 
ATOM     41  O10 ZIN A   1      -3.466  -5.800   0.799  0.00  0.00    -0.292 OA
BRANCH  40  42
ATOM     42  C8  ZIN A   1      -3.229  -5.011  -1.408  0.00  0.00     0.260 C 
BRANCH  42  43
ATOM     43  O7  ZIN A   1      -1.945  -4.543  -0.917  0.00  0.00    -0.314 OA
BRANCH  43  44
ATOM     44  C5  ZIN A   1      -1.158  -3.897  -1.792  0.00  0.00     0.259 C 
ATOM     45  O6  ZIN A   1      -1.529  -3.728  -2.929  0.00  0.00    -0.265 OA
BRANCH  44  46
ATOM     46  C4  ZIN A   1       0.190  -3.383  -1.354  0.00  0.00     0.111 C 
BRANCH  46  47
ATOM     47  C3  ZIN A   1       0.879  -2.692  -2.532  0.00  0.00     0.009 C 
BRANCH  47  48
ATOM     48  C2  ZIN A   1       2.247  -2.170  -2.088  0.00  0.00    -0.004 C 
ATOM     49  C1  ZIN A   1       2.935  -1.478  -3.267  0.00  0.00     0.005 C 
ENDBRANCH  47  48
ENDBRANCH  46  47
ENDBRANCH  44  46
ENDBRANCH  43  44
ENDBRANCH  42  43
ENDBRANCH  40  42
ENDBRANCH   1  40
BRANCH   1  50
ATOM     50  O12 ZIN A   1      -6.058  -5.446  -1.449  0.00  0.00    -0.382 OA
ATOM     51  H68 ZIN A   1      -6.189  -4.544  -1.127  0.00  0.00     0.211 HD
ENDBRANCH   1  50
BRANCH   4  52
ATOM     52  O16 ZIN A   1      -6.643  -6.467   3.489  0.00  0.00    -0.359 OA
ATOM     53  H71 ZIN A   1      -7.576  -6.717   3.472  0.00  0.00     0.217 HD
ENDBRANCH   4  52
BRANCH  10  54
ATOM     54  O23 ZIN A   1      -3.303 -12.601   5.973  0.00  0.00    -0.355 OA
ATOM     55  C24 ZIN A   1      -3.045 -13.713   6.832  0.00  0.00     0.210 C 
ENDBRANCH  10  54
TORSDOF 16
