REMARK  14 active torsions:
REMARK  status: ('A' for Active; 'I' for Inactive)
REMARK    1  A    between atoms: C2_2  and  N5_5 
REMARK       I    between atoms: N5_5  and  C6_6 
REMARK    2  A    between atoms: C6_6  and  C8_8 
REMARK    3  A    between atoms: N11_10  and  C13_12 
REMARK    4  A    between atoms: C13_12  and  C14_13 
REMARK    5  A    between atoms: N22_21  and  C23_22 
REMARK    6  A    between atoms: C23_22  and  C24_23 
REMARK    7  A    between atoms: C24_23  and  O26_24 
REMARK    8  A    between atoms: C24_23  and  C27_25 
REMARK    9  A    between atoms: C27_25  and  C28_26 
REMARK   10  A    between atoms: C28_26  and  C30_27 
REMARK   11  A    between atoms: C28_26  and  C37_34 
REMARK   12  A    between atoms: C30_27  and  C31_28 
REMARK       I    between atoms: C37_34  and  N39_36 
REMARK   13  A    between atoms: N39_36  and  C40_37 
REMARK   14  A    between atoms: C49_45  and  O51_46 
ROOT
ATOM      1  C24 ZIN A   1       4.863   2.257  -3.027  0.00  0.00     0.147 C 
ENDROOT
BRANCH   1   2
ATOM      2  C23 ZIN A   1       3.877   1.138  -2.687  0.00  0.00     0.305 C 
BRANCH   2   3
ATOM      3  N22 ZIN A   1       4.357  -0.128  -3.257  0.00  0.00     0.108 N 
ATOM      4  C8  ZIN A   1       3.753  -1.278  -2.571  0.00  0.00     0.339 C 
ATOM      5  C10 ZIN A   1       4.322  -2.574  -3.154  0.00  0.00     0.281 C 
ATOM      6  N11 ZIN A   1       4.033  -2.632  -4.592  0.00  0.00    -0.063 N 
ATOM      7  H12 ZIN A   1       3.035  -2.598  -4.736  0.00  0.00     0.280 HD
ATOM      8  C20 ZIN A   1       4.665  -1.491  -5.268  0.00  0.00     0.265 C 
ATOM      9  C21 ZIN A   1       4.098  -0.187  -4.703  0.00  0.00     0.301 C 
BRANCH   4  10
ATOM     10  C6  ZIN A   1       4.067  -1.208  -1.099  0.00  0.00     0.253 C 
ATOM     11  N5  ZIN A   1       3.316  -1.895  -0.216  0.00  0.00    -0.351 N 
ATOM     12  H61 ZIN A   1       2.572  -2.434  -0.528  0.00  0.00     0.163 HD
ATOM     13  O7  ZIN A   1       4.996  -0.533  -0.709  0.00  0.00    -0.271 OA
BRANCH  11  14
ATOM     14  C2  ZIN A   1       3.621  -1.826   1.215  0.00  0.00     0.022 C 
ATOM     15  C1  ZIN A   1       3.517  -0.375   1.690  0.00  0.00     0.037 C 
ATOM     16  C3  ZIN A   1       5.041  -2.341   1.459  0.00  0.00     0.037 C 
ATOM     17  C4  ZIN A   1       2.625  -2.690   1.992  0.00  0.00     0.037 C 
ENDBRANCH  11  14
ENDBRANCH   4  10
BRANCH   6  18
ATOM     18  C13 ZIN A   1       4.565  -3.884  -5.147  0.00  0.00     0.275 C 
BRANCH  18  19
ATOM     19  C14 ZIN A   1       4.163  -4.003  -6.595  0.00  0.00    -0.015 A 
ATOM     20  C19 ZIN A   1       4.973  -3.491  -7.591  0.00  0.00     0.125 A 
ATOM     21  N18 ZIN A   1       4.630  -3.595  -8.860  0.00  0.00    -0.273 NA
ATOM     22  C17 ZIN A   1       3.506  -4.177  -9.229  0.00  0.00     0.116 A 
ATOM     23  C16 ZIN A   1       2.643  -4.707  -8.289  0.00  0.00     0.020 A 
ATOM     24  C15 ZIN A   1       2.972  -4.622  -6.944  0.00  0.00     0.012 A 
ENDBRANCH  18  19
ENDBRANCH   6  18
ENDBRANCH   2   3
ENDBRANCH   1   2
BRANCH   1  25
ATOM     25  O26 ZIN A   1       4.859   2.484  -4.438  0.00  0.00    -0.394 OA
ATOM     26  H76 ZIN A   1       3.998   2.745  -4.792  0.00  0.00     0.210 HD
ENDBRANCH   1  25
BRANCH   1  27
ATOM     27  C27 ZIN A   1       4.449   3.540  -2.304  0.00  0.00     0.047 C 
BRANCH  27  28
ATOM     28  C28 ZIN A   1       5.527   4.607  -2.499  0.00  0.00     0.084 C 
BRANCH  28  29
ATOM     29  C30 ZIN A   1       5.588   5.007  -3.974  0.00  0.00     0.052 C 
BRANCH  29  30
ATOM     30  C31 ZIN A   1       6.664   6.044  -4.170  0.00  0.00    -0.057 A 
ATOM     31  C36 ZIN A   1       7.978   5.652  -4.343  0.00  0.00     0.007 A 
ATOM     32  C35 ZIN A   1       8.965   6.602  -4.527  0.00  0.00     0.001 A 
ATOM     33  C34 ZIN A   1       8.638   7.946  -4.529  0.00  0.00     0.000 A 
ATOM     34  C33 ZIN A   1       7.325   8.338  -4.350  0.00  0.00     0.001 A 
ATOM     35  C32 ZIN A   1       6.338   7.387  -4.171  0.00  0.00     0.007 A 
ENDBRANCH  29  30
ENDBRANCH  28  29
BRANCH  28  36
ATOM     36  C37 ZIN A   1       5.194   5.817  -1.664  0.00  0.00     0.222 C 
ATOM     37  O38 ZIN A   1       4.051   6.013  -1.310  0.00  0.00    -0.273 OA
ATOM     38  N39 ZIN A   1       6.167   6.680  -1.310  0.00  0.00    -0.350 N 
ATOM     39  H86 ZIN A   1       7.067   6.564  -1.653  0.00  0.00     0.163 HD
BRANCH  38  40
ATOM     40  C40 ZIN A   1       5.865   7.795  -0.408  0.00  0.00     0.147 C 
ATOM     41  C49 ZIN A   1       6.857   8.954  -0.639  0.00  0.00     0.149 C 
ATOM     42  C48 ZIN A   1       7.031   9.527   0.785  0.00  0.00     0.073 C 
ATOM     43  C47 ZIN A   1       6.739   8.371   1.717  0.00  0.00    -0.047 A 
ATOM     44  C42 ZIN A   1       6.069   7.375   1.032  0.00  0.00    -0.027 A 
ATOM     45  C46 ZIN A   1       7.037   8.204   3.059  0.00  0.00     0.008 A 
ATOM     46  C43 ZIN A   1       5.699   6.215   1.690  0.00  0.00     0.010 A 
ATOM     47  C44 ZIN A   1       5.995   6.050   3.029  0.00  0.00     0.001 A 
ATOM     48  C45 ZIN A   1       6.665   7.046   3.714  0.00  0.00     0.001 A 
BRANCH  41  49
ATOM     49  O51 ZIN A   1       8.101   8.467  -1.146  0.00  0.00    -0.393 OA
ATOM     50  H93 ZIN A   1       8.786   9.145  -1.226  0.00  0.00     0.210 HD
ENDBRANCH  41  49
ENDBRANCH  38  40
ENDBRANCH  28  36
ENDBRANCH  27  28
ENDBRANCH   1  27
TORSDOF 14
