REMARK  4 active torsions:
REMARK  status: ('A' for Active; 'I' for Inactive)
REMARK    1  A    between atoms: C5_5  and  O6_6 
REMARK    2  A    between atoms: C13_12  and  O14_13 
REMARK    3  A    between atoms: N20_19  and  C22_21 
REMARK    4  A    between atoms: C22_21  and  C23_22 
ROOT
ATOM      1  O1  ZIN A   1      -0.306   0.070  -0.101  0.00  0.00    -0.295 OA
ATOM      2  C2  ZIN A   1      -0.242   1.275  -0.094  0.00  0.00     0.157 C 
ATOM      3  C3  ZIN A   1      -1.515   2.060  -0.202  0.00  0.00     0.084 C 
ATOM      4  C4  ZIN A   1      -1.476   3.262   0.742  0.00  0.00     0.048 C 
ATOM      5  C5  ZIN A   1      -0.249   4.110   0.408  0.00  0.00     0.102 C 
ATOM      6  C7  ZIN A   1      -0.196   5.337   1.323  0.00  0.00     0.227 C 
ATOM      7  C9  ZIN A   1      -0.163   5.014   2.807  0.00  0.00     0.075 C 
ATOM      8  C10 ZIN A   1       0.534   3.732   3.125  0.00  0.00    -0.046 A 
ATOM      9  C11 ZIN A   1       0.718   3.222   4.398  0.00  0.00     0.011 A 
ATOM     10  C12 ZIN A   1       1.335   1.994   4.575  0.00  0.00     0.040 A 
ATOM     11  C13 ZIN A   1       1.784   1.204   3.519  0.00  0.00     0.099 A 
ATOM     12  C15 ZIN A   1       1.617   1.715   2.227  0.00  0.00     0.110 A 
ATOM     13  C16 ZIN A   1       1.041   2.970   2.098  0.00  0.00    -0.001 A 
ATOM     14  C17 ZIN A   1       1.020   3.308   0.646  0.00  0.00     0.058 C 
ATOM     15  C18 ZIN A   1       2.233   4.165   0.297  0.00  0.00     0.048 C 
ATOM     16  C19 ZIN A   1       2.208   5.425   1.171  0.00  0.00     0.236 C 
ATOM     17  N20 ZIN A   1       0.971   6.155   0.969  0.00  0.00    -0.063 N 
ATOM     18  H21 ZIN A   1       0.890   6.407  -0.005  0.00  0.00     0.280 HD
ATOM     19  C26 ZIN A   1       1.107   1.921   0.030  0.00  0.00     0.214 C 
ATOM     20  O28 ZIN A   1       1.890   1.201   1.009  0.00  0.00    -0.334 OA
ENDROOT
BRANCH  17  21
ATOM     21  C22 ZIN A   1       0.990   7.375   1.786  0.00  0.00     0.240 C 
BRANCH  21  22
ATOM     22  C23 ZIN A   1       2.067   8.325   1.258  0.00  0.00     0.011 A 
ATOM     23  C25 ZIN A   1       2.326   9.609   2.050  0.00  0.00     0.007 A 
ATOM     24  C24 ZIN A   1       1.608   9.674   0.700  0.00  0.00     0.007 A 
ENDBRANCH  21  22
ENDBRANCH  17  21
BRANCH   5  25
ATOM     25  O6  ZIN A   1      -0.308   4.520  -0.960  0.00  0.00    -0.386 OA
ATOM     26  H33 ZIN A   1      -1.087   5.049  -1.178  0.00  0.00     0.210 HD
ENDBRANCH   5  25
BRANCH  11  27
ATOM     27  O14 ZIN A   1       2.361  -0.009   3.735  0.00  0.00    -0.358 OA
ATOM     28  H38 ZIN A   1       1.734  -0.746   3.747  0.00  0.00     0.217 HD
ENDBRANCH  11  27
TORSDOF 4
