REMARK  3 active torsions:
REMARK  status: ('A' for Active; 'I' for Inactive)
REMARK    1  A    between atoms: C7_7  and  N9_8 
REMARK    2  A    between atoms: C11_10  and  C12_11 
REMARK    3  A    between atoms: C12_11  and  C13_12 
ROOT
ATOM      1  N9  <0> d   1       0.253  -4.202   1.091  0.00  0.00    -0.229 N 
ATOM      2  N10 <0> d   1       1.464  -4.886   0.978  0.00  0.00    -0.173 NA
ATOM      3  C11 <0> d   1       1.646  -6.076   1.469  0.00  0.00     0.070 A 
ATOM      4  C20 <0> d   1       0.556  -6.752   2.173  0.00  0.00     0.006 A 
ATOM      5  C21 <0> d   1       0.710  -8.029   2.714  0.00  0.00     0.014 A 
ATOM      6  C22 <0> d   1      -0.347  -8.622   3.368  0.00  0.00     0.001 A 
ATOM      7  C23 <0> d   1      -1.563  -7.964   3.495  0.00  0.00     0.001 A 
ATOM      8  C24 <0> d   1      -1.738  -6.703   2.969  0.00  0.00     0.018 A 
ATOM      9  C25 <0> d   1      -0.682  -6.083   2.303  0.00  0.00     0.046 A 
ATOM     10  C26 <0> d   1      -0.809  -4.738   1.727  0.00  0.00     0.275 A 
ATOM     11  O27 <0> d   1      -1.855  -4.121   1.817  0.00  0.00    -0.266 OA
ENDROOT
BRANCH   1  12
ATOM     12  C7  <0> d   1       0.134  -2.863   0.508  0.00  0.00     0.115 C 
ATOM     13  C6  <0> d   1       0.388  -2.937  -1.018  0.00  0.00     0.029 C 
ATOM     14  C5  <0> d   1      -0.072  -1.724  -1.684  0.00  0.00     0.030 C 
ATOM     15  C4  <0> d   1       0.655  -0.458  -1.202  0.00  0.00     0.234 C 
ATOM     16  N2  <0> d   1       0.002  -0.004   0.002  0.00  0.00    -0.075 N 
ATOM     17  C1  <0> d   1      -0.018   1.465   0.010  0.00  0.00     0.269 C 
ATOM     18  H3  <0> d   1      -0.948  -0.345   0.009  0.00  0.00     0.279 HD
ATOM     19  C29 <0> d   1       0.695  -0.483   1.218  0.00  0.00     0.236 C 
ATOM     20  C28 <0> d   1       1.156  -1.948   1.127  0.00  0.00     0.055 C 
ENDBRANCH   1  12
BRANCH   3  21
ATOM     21  C12 <0> d   1       2.980  -6.759   1.312  0.00  0.00     0.100 C 
BRANCH  21  22
ATOM     22  C13 <0> d   1       3.921  -5.857   0.555  0.00  0.00    -0.052 A 
ATOM     23  C19 <0> d   1       4.720  -4.961   1.241  0.00  0.00     0.009 A 
ATOM     24  C18 <0> d   1       5.587  -4.137   0.548  0.00  0.00     0.024 A 
ATOM     25  C16 <0> d   1       5.646  -4.201  -0.833  0.00  0.00     0.034 A 
ATOM     26  C15 <0> d   1       4.842  -5.094  -1.519  0.00  0.00     0.024 A 
ATOM     27 Cl17 <0> d   1       6.729  -3.162  -1.704  0.00  0.00    -0.084 Cl
ATOM     28  C14 <0> d   1       3.980  -5.921  -0.824  0.00  0.00     0.009 A 
ENDBRANCH  21  22
ENDBRANCH   3  21
TORSDOF 3
