REMARK  5 active torsions:
REMARK  status: ('A' for Active; 'I' for Inactive)
REMARK    1  A    between atoms: C2_2  and  N3_3 
REMARK    2  A    between atoms: N3_3  and  C5_5 
REMARK    3  A    between atoms: N3_3  and  C7_7 
REMARK    4  A    between atoms: C7_7  and  C8_8 
REMARK       I    between atoms: C8_8  and  N10_10 
REMARK    5  A    between atoms: N10_10  and  C11_11 
ROOT
ATOM      1  C8  ZIN A   1       0.817  -2.029  -2.697  0.00  0.00     0.248 C 
ATOM      2  O9  ZIN A   1       1.131  -1.366  -3.663  0.00  0.00    -0.271 OA
ATOM      3  N10 ZIN A   1       1.329  -3.265  -2.533  0.00  0.00    -0.325 N 
ATOM      4  H31 ZIN A   1       1.044  -3.813  -1.785  0.00  0.00     0.169 HD
ENDROOT
BRANCH   3   5
ATOM      5  C11 ZIN A   1       2.273  -3.758  -3.441  0.00  0.00     0.046 A 
ATOM      6  C17 ZIN A   1       3.363  -2.978  -3.804  0.00  0.00    -0.035 A 
ATOM      7  C16 ZIN A   1       4.296  -3.469  -4.695  0.00  0.00     0.009 A 
ATOM      8  C18 ZIN A   1       3.535  -1.601  -3.215  0.00  0.00     0.050 C 
ATOM      9  C15 ZIN A   1       4.139  -4.732  -5.236  0.00  0.00     0.001 A 
ATOM     10  C14 ZIN A   1       3.051  -5.509  -4.882  0.00  0.00     0.009 A 
ATOM     11  C12 ZIN A   1       2.118  -5.026  -3.986  0.00  0.00    -0.035 A 
ATOM     12  C13 ZIN A   1       0.933  -5.873  -3.600  0.00  0.00     0.050 C 
ENDBRANCH   3   5
BRANCH   1  13
ATOM     13  C7  ZIN A   1      -0.145  -1.471  -1.680  0.00  0.00     0.337 C 
BRANCH  13  14
ATOM     14  N3  ZIN A   1      -0.541  -0.113  -2.075  0.00  0.00    -0.064 N 
ATOM     15  H4  ZIN A   1       0.284   0.449  -2.222  0.00  0.00     0.280 HD
BRANCH  14  16
ATOM     16  C2  ZIN A   1      -1.321  -0.172  -3.318  0.00  0.00     0.231 C 
ATOM     17  C1  ZIN A   1      -1.627   1.250  -3.796  0.00  0.00     0.034 C 
ENDBRANCH  14  16
BRANCH  14  18
ATOM     18  C5  ZIN A   1      -1.358   0.487  -1.012  0.00  0.00     0.231 C 
ATOM     19  C6  ZIN A   1      -0.494   0.709   0.232  0.00  0.00     0.034 C 
ENDBRANCH  14  18
ENDBRANCH  13  14
ENDBRANCH   1  13
TORSDOF 5
