REMARK  4 active torsions:
REMARK  status: ('A' for Active; 'I' for Inactive)
REMARK    1  A    between atoms: C2_2  and  C3_3 
REMARK    2  A    between atoms: C3_3  and  C4_4 
REMARK    3  A    between atoms: C4_4  and  C7_6 
REMARK    4  A    between atoms: C7_6  and  C8_7 
ROOT
ATOM      1  C7  ZIN A   1      -2.841  -2.594   0.141  0.00  0.00     0.125 A 
ATOM      2  C10 ZIN A   1      -3.351  -2.226   1.522  0.00  0.00     0.244 A 
ATOM      3  O11 ZIN A   1      -2.774  -2.592   2.523  0.00  0.00    -0.272 OA
ATOM      4  N12 ZIN A   1      -4.472  -1.477   1.594  0.00  0.00    -0.278 N 
ATOM      5  C13 ZIN A   1      -5.120  -1.065   0.498  0.00  0.00     0.329 A 
ATOM      6  O14 ZIN A   1      -6.120  -0.393   0.655  0.00  0.00    -0.247 OA
ATOM      7  N15 ZIN A   1      -4.748  -1.338  -0.757  0.00  0.00    -0.278 N 
ATOM      8  C16 ZIN A   1      -3.651  -2.076  -1.033  0.00  0.00     0.244 A 
ATOM      9  O17 ZIN A   1      -3.326  -2.316  -2.176  0.00  0.00    -0.272 OA
ATOM     10  H33 ZIN A   1      -4.817  -1.229   2.466  0.00  0.00     0.173 HD
ATOM     11  H34 ZIN A   1      -5.281  -0.997  -1.491  0.00  0.00     0.173 HD
ENDROOT
BRANCH   1  12
ATOM     12  C4  ZIN A   1      -1.413  -2.063   0.004  0.00  0.00     0.009 C 
ATOM     13  C6  ZIN A   1      -0.809  -2.558  -1.311  0.00  0.00     0.011 C 
BRANCH  12  14
ATOM     14  C3  ZIN A   1      -1.433  -0.534   0.013  0.00  0.00     0.005 C 
BRANCH  14  15
ATOM     15  C2  ZIN A   1       0.002  -0.004   0.002  0.00  0.00    -0.004 C 
ATOM     16  C1  ZIN A   1      -0.019   1.526   0.010  0.00  0.00     0.005 C 
ENDBRANCH  14  15
ENDBRANCH  12  14
ENDBRANCH   1  12
BRANCH   1  17
ATOM     17  C8  ZIN A   1      -2.790  -4.120   0.048  0.00  0.00     0.025 C 
ATOM     18  C9  ZIN A   1      -4.205  -4.687   0.180  0.00  0.00     0.007 C 
ENDBRANCH   1  17
TORSDOF 4
