REMARK  10 active torsions:
REMARK  status: ('A' for Active; 'I' for Inactive)
REMARK    1  A    between atoms: C2_2  and  O3_3 
REMARK    2  A    between atoms: O3_3  and  C4_4 
REMARK    3  A    between atoms: C10_10  and  C11_11 
REMARK    4  A    between atoms: C11_11  and  O13_13 
REMARK    5  A    between atoms: O13_13  and  C14_14 
REMARK    6  A    between atoms: C14_14  and  C15_15 
REMARK    7  A    between atoms: N23_23  and  C24_24 
REMARK    8  A    between atoms: C24_24  and  C25_25 
REMARK    9  A    between atoms: C28_28  and  C29_29 
REMARK   10  A    between atoms: C34_34  and  C35_35 
ROOT
ATOM      1  C4  ZIN A   1       0.563  -2.449   2.655  0.00  0.00     0.249 A 
ATOM      2  N5  ZIN A   1       0.965  -3.439   1.903  0.00  0.00    -0.206 NA
ATOM      3  C6  ZIN A   1       1.770  -4.262   2.628  0.00  0.00     0.089 A 
ATOM      4  C7  ZIN A   1       2.455  -5.441   2.328  0.00  0.00     0.034 A 
ATOM      5  C8  ZIN A   1       3.212  -6.068   3.297  0.00  0.00     0.003 A 
ATOM      6  C9  ZIN A   1       3.303  -5.541   4.572  0.00  0.00     0.020 A 
ATOM      7  C10 ZIN A   1       2.628  -4.363   4.896  0.00  0.00     0.068 A 
ATOM      8  C22 ZIN A   1       1.856  -3.719   3.920  0.00  0.00     0.083 A 
ATOM      9  N23 ZIN A   1       1.090  -2.573   3.908  0.00  0.00    -0.304 N 
ENDROOT
BRANCH   9  10
ATOM     10  C24 ZIN A   1       0.879  -1.659   5.033  0.00  0.00     0.171 C 
BRANCH  10  11
ATOM     11  C25 ZIN A   1       1.761  -0.448   4.869  0.00  0.00    -0.040 A 
ATOM     12  C42 ZIN A   1       1.222   0.820   5.000  0.00  0.00     0.010 A 
ATOM     13  C41 ZIN A   1       2.026   1.932   4.855  0.00  0.00     0.013 A 
ATOM     14  C28 ZIN A   1       3.381   1.777   4.566  0.00  0.00    -0.025 A 
ATOM     15  C27 ZIN A   1       3.917   0.497   4.430  0.00  0.00     0.013 A 
ATOM     16  C26 ZIN A   1       3.105  -0.608   4.582  0.00  0.00     0.010 A 
BRANCH  14  17
ATOM     17  C29 ZIN A   1       4.248   2.968   4.403  0.00  0.00    -0.012 A 
ATOM     18  C34 ZIN A   1       3.856   4.017   3.552  0.00  0.00     0.025 A 
ATOM     19  C33 ZIN A   1       4.679   5.134   3.413  0.00  0.00     0.016 A 
ATOM     20  C32 ZIN A   1       5.875   5.199   4.099  0.00  0.00     0.001 A 
ATOM     21  C31 ZIN A   1       6.262   4.163   4.932  0.00  0.00     0.001 A 
ATOM     22  C30 ZIN A   1       5.457   3.052   5.087  0.00  0.00     0.013 A 
BRANCH  18  23
ATOM     23  C35 ZIN A   1       2.576   3.942   2.821  0.00  0.00     0.193 A 
ATOM     24  N40 ZIN A   1       2.076   4.874   1.986  0.00  0.00    -0.102 NA
ATOM     25  O39 ZIN A   1       1.008   4.505   1.545  0.00  0.00    -0.152 OA
ATOM     26  C37 ZIN A   1       0.698   3.302   2.053  0.00  0.00     0.412 A 
ATOM     27  N36 ZIN A   1       1.700   2.945   2.867  0.00  0.00    -0.163 NA
ATOM     28  O38 ZIN A   1      -0.309   2.655   1.817  0.00  0.00    -0.234 OA
ENDBRANCH  18  23
ENDBRANCH  14  17
ENDBRANCH  10  11
ENDBRANCH   9  10
BRANCH   1  29
ATOM     29  O3  ZIN A   1      -0.250  -1.446   2.251  0.00  0.00    -0.321 OA
BRANCH  29  30
ATOM     30  C2  ZIN A   1      -0.703  -1.485   0.896  0.00  0.00     0.174 C 
ATOM     31  C1  ZIN A   1      -1.605  -0.279   0.625  0.00  0.00     0.034 C 
ENDBRANCH  29  30
ENDBRANCH   1  29
BRANCH   7  32
ATOM     32  C11 ZIN A   1       2.725  -3.801   6.255  0.00  0.00     0.296 C 
ATOM     33  O12 ZIN A   1       2.705  -2.597   6.418  0.00  0.00    -0.259 OA
BRANCH  32  34
ATOM     34  O13 ZIN A   1       2.838  -4.623   7.317  0.00  0.00    -0.311 OA
BRANCH  34  35
ATOM     35  C14 ZIN A   1       2.930  -4.000   8.626  0.00  0.00     0.247 C 
BRANCH  35  36
ATOM     36  C15 ZIN A   1       3.048  -5.068   9.683  0.00  0.00     0.112 A 
ATOM     37  O21 ZIN A   1       2.101  -5.986   9.996  0.00  0.00    -0.255 OA
ATOM     38  C19 ZIN A   1       2.584  -6.758  10.982  0.00  0.00     0.416 A 
ATOM     39  O18 ZIN A   1       3.816  -6.316  11.283  0.00  0.00    -0.257 OA
ATOM     40  O20 ZIN A   1       2.007  -7.688  11.512  0.00  0.00    -0.229 OA
ATOM     41  C16 ZIN A   1       4.093  -5.267  10.471  0.00  0.00     0.087 A 
ATOM     42  C17 ZIN A   1       5.369  -4.466  10.466  0.00  0.00     0.079 C 
ENDBRANCH  35  36
ENDBRANCH  34  35
ENDBRANCH  32  34
ENDBRANCH   7  32
TORSDOF 10
