REMARK  13 active torsions:
REMARK  status: ('A' for Active; 'I' for Inactive)
REMARK    1  A    between atoms: O2_2  and  C3_3 
REMARK    2  A    between atoms: C3_3  and  C5_5 
REMARK    3  A    between atoms: C5_5  and  C6_6 
REMARK    4  A    between atoms: C6_6  and  O7_7 
REMARK    5  A    between atoms: C6_6  and  C8_8 
REMARK    6  A    between atoms: C6_6  and  C15_15 
REMARK    7  A    between atoms: C8_8  and  C9_9 
REMARK    8  A    between atoms: C9_9  and  C10_10 
REMARK    9  A    between atoms: C10_10  and  C11_11 
REMARK   10  A    between atoms: C11_11  and  O14_14 
REMARK   11  A    between atoms: C15_15  and  O17_17 
REMARK   12  A    between atoms: O17_17  and  C18_18 
REMARK   13  A    between atoms: C20_19  and  O21_20 
ROOT
ATOM      1  C18 ZIN A   1       0.176  -6.464  -2.111  0.00  0.00     0.199 C 
ATOM      2  C20 ZIN A   1      -0.823  -6.744  -1.009  0.00  0.00     0.074 C 
ATOM      3  C23 ZIN A   1      -0.651  -7.953  -0.516  0.00  0.00     0.048 C 
ATOM      4  C24 ZIN A   1       0.480  -8.650  -1.216  0.00  0.00     0.158 C 
ATOM      5  C25 ZIN A   1      -0.048  -9.711  -2.195  0.00  0.00     0.046 C 
ATOM      6  C26 ZIN A   1      -0.284 -10.904  -1.227  0.00  0.00     0.030 C 
ATOM      7  C27 ZIN A   1       0.862 -10.761  -0.202  0.00  0.00     0.236 C 
ATOM      8  N28 ZIN A   1       1.363  -9.366  -0.292  0.00  0.00    -0.058 N 
ATOM      9  H29 ZIN A   1       1.401  -8.927   0.616  0.00  0.00     0.281 HD
ATOM     10  C30 ZIN A   1       2.705  -9.442  -0.916  0.00  0.00     0.241 C 
ATOM     11  C31 ZIN A   1       2.588 -10.176  -2.247  0.00  0.00     0.067 C 
ATOM     12  C32 ZIN A   1       2.385  -9.230  -3.407  0.00  0.00    -0.047 A 
ATOM     13  C33 ZIN A   1       2.884  -9.646  -4.644  0.00  0.00     0.047 A 
ATOM     14  C34 ZIN A   1       2.699  -8.812  -5.734  0.00  0.00     0.105 A 
ATOM     15  C35 ZIN A   1       2.026  -7.588  -5.600  0.00  0.00     0.105 A 
ATOM     16  C36 ZIN A   1       1.539  -7.178  -4.369  0.00  0.00     0.048 A 
ATOM     17  C37 ZIN A   1       1.743  -8.019  -3.277  0.00  0.00    -0.039 A 
ATOM     18  C38 ZIN A   1       1.268  -7.544  -1.934  0.00  0.00     0.095 C 
ATOM     19  O40 ZIN A   1       1.975  -6.983  -6.808  0.00  0.00    -0.323 OA
ATOM     20  C41 ZIN A   1       2.969  -7.650  -7.615  0.00  0.00     0.352 C 
ATOM     21  O42 ZIN A   1       3.075  -8.962  -7.025  0.00  0.00    -0.323 OA
ENDROOT
BRANCH   1  22
ATOM     22  O17 ZIN A   1       0.745  -5.138  -1.954  0.00  0.00    -0.306 OA
BRANCH  22  23
ATOM     23  C15 ZIN A   1       0.147  -4.135  -2.616  0.00  0.00     0.294 C 
ATOM     24  O16 ZIN A   1      -0.821  -4.358  -3.304  0.00  0.00    -0.262 OA
BRANCH  23  25
ATOM     25  C6  ZIN A   1       0.682  -2.731  -2.501  0.00  0.00     0.154 C 
BRANCH  25  26
ATOM     26  C5  ZIN A   1       0.097  -2.062  -1.255  0.00  0.00     0.159 C 
BRANCH  26  27
ATOM     27  C3  ZIN A   1       0.680  -0.681  -1.105  0.00  0.00     0.261 C 
ATOM     28  O4  ZIN A   1       1.567  -0.317  -1.841  0.00  0.00    -0.265 OA
BRANCH  27  29
ATOM     29  O2  ZIN A   1       0.215   0.144  -0.154  0.00  0.00    -0.326 OA
ATOM     30  C1  ZIN A   1       0.740   1.498  -0.142  0.00  0.00     0.213 C 
ENDBRANCH  27  29
ENDBRANCH  26  27
ENDBRANCH  25  26
BRANCH  25  31
ATOM     31  O7  ZIN A   1       2.106  -2.771  -2.395  0.00  0.00    -0.379 OA
ATOM     32  H48 ZIN A   1       2.546  -3.183  -3.152  0.00  0.00     0.211 HD
ENDBRANCH  25  31
BRANCH  25  33
ATOM     33  C8  ZIN A   1       0.285  -1.930  -3.743  0.00  0.00     0.049 C 
BRANCH  33  34
ATOM     34  C9  ZIN A   1       0.876  -2.595  -4.988  0.00  0.00     0.006 C 
BRANCH  34  35
ATOM     35  C10 ZIN A   1       0.552  -1.748  -6.221  0.00  0.00     0.037 C 
BRANCH  35  36
ATOM     36  C11 ZIN A   1       1.027  -2.477  -7.479  0.00  0.00     0.051 C 
ATOM     37  C12 ZIN A   1       0.666  -1.649  -8.714  0.00  0.00     0.045 C 
ATOM     38  C13 ZIN A   1       2.544  -2.665  -7.417  0.00  0.00     0.045 C 
BRANCH  36  39
ATOM     39  O14 ZIN A   1       0.392  -3.754  -7.559  0.00  0.00    -0.391 OA
ATOM     40  H61 ZIN A   1      -0.574  -3.711  -7.602  0.00  0.00     0.210 HD
ENDBRANCH  36  39
ENDBRANCH  35  36
ENDBRANCH  34  35
ENDBRANCH  33  34
ENDBRANCH  25  33
ENDBRANCH  23  25
ENDBRANCH  22  23
ENDBRANCH   1  22
BRANCH   2  41
ATOM     41  O21 ZIN A   1      -1.768  -5.867  -0.586  0.00  0.00    -0.358 OA
ATOM     42  C22 ZIN A   1      -2.629  -6.301   0.469  0.00  0.00     0.209 C 
ENDBRANCH   2  41
TORSDOF 13
