REMARK  15 active torsions:
REMARK  status: ('A' for Active; 'I' for Inactive)
REMARK    1  A    between atoms: C2_2  and  C3_3 
REMARK    2  A    between atoms: C3_3  and  C4_4 
REMARK    3  A    between atoms: C4_4  and  C5_5 
REMARK    4  A    between atoms: C5_5  and  C6_6 
REMARK    5  A    between atoms: C6_6  and  C7_7 
REMARK    6  A    between atoms: C7_7  and  N8_8 
REMARK    7  A    between atoms: N8_8  and  C10_10 
REMARK    8  A    between atoms: N8_8  and  C12_12 
REMARK    9  A    between atoms: C12_12  and  C13_13 
REMARK   10  A    between atoms: C13_13  and  C14_14 
REMARK   11  A    between atoms: C14_14  and  C15_15 
REMARK   12  A    between atoms: C15_15  and  O17_16 
REMARK   13  A    between atoms: C15_15  and  C18_17 
REMARK   14  A    between atoms: C21_20  and  N22_21 
REMARK   15  A    between atoms: N22_21  and  S23_22 
ROOT
ATOM      1  C15 ZIN A   1      -7.065 -10.093   0.565  0.00  0.00     0.151 C 
ENDROOT
BRANCH   1   2
ATOM      2  C14 ZIN A   1      -7.032  -8.583   0.322  0.00  0.00     0.038 C 
BRANCH   2   3
ATOM      3  C13 ZIN A   1      -5.580  -8.099   0.316  0.00  0.00     0.030 C 
BRANCH   3   4
ATOM      4  C12 ZIN A   1      -5.547  -6.589   0.073  0.00  0.00     0.235 C 
BRANCH   4   5
ATOM      5  N8  ZIN A   1      -4.153  -6.124   0.067  0.00  0.00    -0.071 N 
ATOM      6  H9  ZIN A   1      -3.702  -6.404   0.925  0.00  0.00     0.279 HD
BRANCH   5   7
ATOM      7  C7  ZIN A   1      -4.126  -4.660  -0.046  0.00  0.00     0.234 C 
BRANCH   7   8
ATOM      8  C6  ZIN A   1      -4.736  -4.040   1.212  0.00  0.00     0.028 C 
BRANCH   8   9
ATOM      9  C5  ZIN A   1      -4.587  -2.518   1.155  0.00  0.00     0.002 C 
BRANCH   9  10
ATOM     10  C4  ZIN A   1      -5.197  -1.898   2.413  0.00  0.00     0.000 C 
BRANCH  10  11
ATOM     11  C3  ZIN A   1      -5.048  -0.376   2.355  0.00  0.00    -0.000 C 
BRANCH  11  12
ATOM     12  C2  ZIN A   1      -5.658   0.244   3.614  0.00  0.00    -0.005 C 
ATOM     13  C1  ZIN A   1      -5.510   1.766   3.556  0.00  0.00     0.005 C 
ENDBRANCH  11  12
ENDBRANCH  10  11
ENDBRANCH   9  10
ENDBRANCH   8   9
ENDBRANCH   7   8
ENDBRANCH   5   7
BRANCH   5  14
ATOM     14  C10 ZIN A   1      -3.445  -6.717  -1.075  0.00  0.00     0.230 C 
ATOM     15  C11 ZIN A   1      -1.962  -6.349  -1.002  0.00  0.00     0.034 C 
ENDBRANCH   5  14
ENDBRANCH   4   5
ENDBRANCH   3   4
ENDBRANCH   2   3
ENDBRANCH   1   2
BRANCH   1  16
ATOM     16  O17 ZIN A   1      -6.447 -10.766  -0.534  0.00  0.00    -0.391 OA
ATOM     17  H55 ZIN A   1      -6.876 -10.604  -1.386  0.00  0.00     0.210 HD
ENDBRANCH   1  16
BRANCH   1  18
ATOM     18  C18 ZIN A   1      -8.495 -10.550   0.694  0.00  0.00    -0.029 A 
ATOM     19  C28 ZIN A   1      -9.071 -10.669   1.945  0.00  0.00     0.012 A 
ATOM     20  C27 ZIN A   1     -10.383 -11.082   2.067  0.00  0.00     0.031 A 
ATOM     21  C21 ZIN A   1     -11.121 -11.389   0.930  0.00  0.00     0.042 A 
ATOM     22  C20 ZIN A   1     -10.538 -11.274  -0.325  0.00  0.00     0.031 A 
ATOM     23  C19 ZIN A   1      -9.227 -10.855  -0.440  0.00  0.00     0.012 A 
BRANCH  21  24
ATOM     24  N22 ZIN A   1     -12.447 -11.813   1.050  0.00  0.00    -0.285 N 
ATOM     25  H58 ZIN A   1     -13.132 -11.430   0.479  0.00  0.00     0.178 HD
BRANCH  24  26
ATOM     26  S23 ZIN A   1     -12.849 -12.969   2.165  0.00  0.00     0.227 S 
ATOM     27  C24 ZIN A   1     -11.895 -14.429   1.667  0.00  0.00     0.186 C 
ATOM     28  O25 ZIN A   1     -12.363 -12.452   3.396  0.00  0.00    -0.206 OA
ATOM     29  O26 ZIN A   1     -14.238 -13.187   1.958  0.00  0.00    -0.206 OA
ENDBRANCH  24  26
ENDBRANCH  21  24
ENDBRANCH   1  18
TORSDOF 15
