REMARK  7 active torsions:
REMARK  status: ('A' for Active; 'I' for Inactive)
REMARK       I    between atoms: C2_2  and  N4_4 
REMARK    1  A    between atoms: N7_7  and  C8_8 
REMARK    2  A    between atoms: C11_11  and  O12_12 
REMARK    3  A    between atoms: O12_12  and  C13_13 
REMARK    4  A    between atoms: C13_13  and  C14_14 
REMARK    5  A    between atoms: C18_17  and  C19_18 
REMARK    6  A    between atoms: C18_17  and  C25_24 
REMARK    7  A    between atoms: C19_18  and  N20_19 
ROOT
ATOM      1  C14 <0> d   1       1.286  -6.616  -9.468  0.00  0.00     0.173 C 
ATOM      2  C16 <0> d   1       1.480  -8.153  -9.435  0.00  0.00     0.206 C 
ATOM      3  O17 <0> d   1       0.822  -8.558 -10.660  0.00  0.00    -0.347 OA
ATOM      4  C18 <0> d   1      -0.301  -7.670 -10.786  0.00  0.00     0.212 C 
ATOM      5  O33 <0> d   1      -0.018  -6.461 -10.064  0.00  0.00    -0.340 OA
ENDROOT
BRANCH   1   6
ATOM      6  C13 <0> d   1       1.306  -6.038  -8.052  0.00  0.00     0.209 C 
BRANCH   6   7
ATOM      7  O12 <0> d   1       1.187  -4.616  -8.116  0.00  0.00    -0.349 OA
BRANCH   7   8
ATOM      8  C11 <0> d   1       1.188  -3.942  -6.934  0.00  0.00     0.069 A 
ATOM      9  C10 <0> d   1       1.076  -2.560  -6.924  0.00  0.00     0.039 A 
ATOM     10  C9  <0> d   1       1.076  -1.875  -5.725  0.00  0.00     0.032 A 
ATOM     11  C8  <0> d   1       1.190  -2.571  -4.529  0.00  0.00     0.030 A 
ATOM     12  C35 <0> d   1       1.308  -3.954  -4.540  0.00  0.00     0.032 A 
ATOM     13  C34 <0> d   1       1.302  -4.638  -5.740  0.00  0.00     0.039 A 
BRANCH  11  14
ATOM     14  N7  <0> d   1       1.191  -1.878  -3.313  0.00  0.00    -0.378 N 
ATOM     15  C6  <0> d   1       1.188  -2.606  -2.037  0.00  0.00     0.143 C 
ATOM     16  C5  <0> d   1       2.383  -2.132  -1.199  0.00  0.00     0.145 C 
ATOM     17  N4  <0> d   1       2.386  -0.663  -1.176  0.00  0.00    -0.349 N 
ATOM     18  C2  <0> d   1       2.386   0.005  -0.005  0.00  0.00     0.215 C 
ATOM     19  C37 <0> d   1       2.383   0.066  -2.453  0.00  0.00     0.145 C 
ATOM     20  C1  <0> d   1       2.389  -0.756   1.296  0.00  0.00     0.117 C 
ATOM     21  O3  <0> d   1       2.384   1.218   0.001  0.00  0.00    -0.274 OA
ATOM     22  C36 <0> d   1       1.194  -0.408  -3.290  0.00  0.00     0.143 C 
ENDBRANCH  11  14
ENDBRANCH   7   8
ENDBRANCH   6   7
ENDBRANCH   1   6
BRANCH   4  23
ATOM     23  C19 <0> d   1      -1.551  -8.336 -10.209  0.00  0.00     0.203 C 
BRANCH  23  24
ATOM     24  N20 <0> d   1      -1.325  -8.659  -8.798  0.00  0.00    -0.345 N 
ATOM     25  C24 <0> d   1      -1.589  -7.861  -7.741  0.00  0.00     0.209 A 
ATOM     26  N23 <0> d   1      -1.258  -8.492  -6.648  0.00  0.00    -0.255 NA
ATOM     27  C22 <0> d   1      -0.769  -9.700  -6.965  0.00  0.00     0.135 A 
ATOM     28  C21 <0> d   1      -0.802  -9.824  -8.306  0.00  0.00     0.111 A 
ENDBRANCH  23  24
ENDBRANCH   4  23
BRANCH   4  29
ATOM     29  C25 <0> d   1      -0.526  -7.342 -12.240  0.00  0.00     0.027 A 
ATOM     30  C31 <0> d   1       0.476  -6.736 -12.976  0.00  0.00     0.047 A 
ATOM     31  C30 <0> d   1       0.271  -6.441 -14.312  0.00  0.00     0.048 A 
ATOM     32 Cl32 <0> d   1       1.996  -6.359 -12.227  0.00  0.00    -0.084 Cl
ATOM     33  C28 <0> d   1      -0.941  -6.742 -14.908  0.00  0.00     0.035 A 
ATOM     34  C27 <0> d   1      -1.944  -7.342 -14.169  0.00  0.00     0.024 A 
ATOM     35 Cl29 <0> d   1      -1.202  -6.365 -16.582  0.00  0.00    -0.084 Cl
ATOM     36  C26 <0> d   1      -1.737  -7.642 -12.835  0.00  0.00     0.016 A 
ENDBRANCH   4  29
TORSDOF 7
