REMARK  7 active torsions:
REMARK  status: ('A' for Active; 'I' for Inactive)
REMARK    1  A    between atoms: C2_2  and  C3_3 
REMARK    2  A    between atoms: C3_3  and  C4_4 
REMARK    3  A    between atoms: C4_4  and  C5_5 
REMARK    4  A    between atoms: N14_14  and  C15_15 
REMARK    5  A    between atoms: C15_15  and  C16_16 
REMARK    6  A    between atoms: C19_19  and  C20_20 
REMARK    7  A    between atoms: C25_25  and  C26_26 
ROOT
ATOM      1  C16 ZIN A   1       1.177   1.782   0.000  0.00  0.00    -0.040 A 
ATOM      2  C17 ZIN A   1      -0.013   1.076   0.008  0.00  0.00     0.010 A 
ATOM      3  C18 ZIN A   1      -1.218   1.748   0.017  0.00  0.00     0.013 A 
ATOM      4  C19 ZIN A   1      -1.235   3.142   0.031  0.00  0.00    -0.025 A 
ATOM      5  C31 ZIN A   1      -0.033   3.849   0.023  0.00  0.00     0.013 A 
ATOM      6  C32 ZIN A   1       1.166   3.166   0.008  0.00  0.00     0.010 A 
ENDROOT
BRANCH   1   7
ATOM      7  C15 ZIN A   1       2.489   1.042  -0.016  0.00  0.00     0.172 C 
BRANCH   7   8
ATOM      8  N14 ZIN A   1       2.902   0.809  -1.402  0.00  0.00    -0.299 N 
ATOM      9  C5  ZIN A   1       3.674   1.666  -2.140  0.00  0.00     0.105 A 
ATOM     10  N6  ZIN A   1       3.902   1.239  -3.335  0.00  0.00    -0.256 NA
ATOM     11  C7  ZIN A   1       3.228  -0.052  -3.470  0.00  0.00     0.136 A 
ATOM     12  C11 ZIN A   1       2.191  -0.028  -4.596  0.00  0.00     0.043 C 
ATOM     13  C8  ZIN A   1       4.228  -1.171  -3.790  0.00  0.00     0.043 C 
ATOM     14  C12 ZIN A   1       2.577  -0.284  -2.129  0.00  0.00     0.256 A 
ATOM     15  C10 ZIN A   1       2.599  -1.143  -5.584  0.00  0.00     0.003 C 
ATOM     16  C9  ZIN A   1       3.439  -2.123  -4.727  0.00  0.00     0.003 C 
ATOM     17  O13 ZIN A   1       1.912  -1.236  -1.781  0.00  0.00    -0.270 OA
BRANCH   9  18
ATOM     18  C4  ZIN A   1       4.204   2.974  -1.610  0.00  0.00     0.078 C 
BRANCH  18  19
ATOM     19  C3  ZIN A   1       5.023   3.671  -2.698  0.00  0.00     0.007 C 
BRANCH  19  20
ATOM     20  C2  ZIN A   1       5.561   4.998  -2.160  0.00  0.00    -0.004 C 
ATOM     21  C1  ZIN A   1       6.380   5.695  -3.248  0.00  0.00     0.005 C 
ENDBRANCH  19  20
ENDBRANCH  18  19
ENDBRANCH   9  18
ENDBRANCH   7   8
ENDBRANCH   1   7
BRANCH   4  22
ATOM     22  C20 ZIN A   1      -2.526   3.870   0.046  0.00  0.00    -0.012 A 
ATOM     23  C25 ZIN A   1      -3.530   3.546  -0.879  0.00  0.00     0.026 A 
ATOM     24  C24 ZIN A   1      -4.740   4.232  -0.850  0.00  0.00     0.016 A 
ATOM     25  C23 ZIN A   1      -4.944   5.234   0.078  0.00  0.00     0.001 A 
ATOM     26  C22 ZIN A   1      -3.951   5.558   0.987  0.00  0.00     0.001 A 
ATOM     27  C21 ZIN A   1      -2.747   4.883   0.975  0.00  0.00     0.013 A 
BRANCH  23  28
ATOM     28  C26 ZIN A   1      -3.305   2.473  -1.879  0.00  0.00     0.207 A 
ATOM     29  N30 ZIN A   1      -4.161   2.063  -2.809  0.00  0.00    -0.106 NA
ATOM     30  N29 ZIN A   1      -3.589   1.117  -3.473  0.00  0.00    -0.021 NA
ATOM     31  N28 ZIN A   1      -2.410   0.920  -2.996  0.00  0.00    -0.021 NA
ATOM     32  N27 ZIN A   1      -2.206   1.740  -2.022  0.00  0.00    -0.106 NA
ENDBRANCH  23  28
ENDBRANCH   4  22
TORSDOF 7
