REMARK  7 active torsions:
REMARK  status: ('A' for Active; 'I' for Inactive)
REMARK    1  A    between atoms: C2_2  and  N4_3 
REMARK    2  A    between atoms: C2_2  and  C23_22 
REMARK    3  A    between atoms: N4_3  and  C7_6 
REMARK    4  A    between atoms: C7_6  and  C8_7 
REMARK    5  A    between atoms: C11_10  and  O12_11 
REMARK    6  A    between atoms: O12_11  and  C13_12 
REMARK    7  A    between atoms: C13_12  and  C14_13 
REMARK       I    between atoms: C23_22  and  N24_23 
ROOT
ATOM      1  C8  ZIN A   1       2.806  -0.556  -2.399  0.00  0.00    -0.033 A 
ATOM      2  C9  ZIN A   1       3.401  -1.804  -2.410  0.00  0.00     0.011 A 
ATOM      3  C10 ZIN A   1       4.048  -2.252  -3.545  0.00  0.00     0.037 A 
ATOM      4  C11 ZIN A   1       4.100  -1.449  -4.675  0.00  0.00     0.069 A 
ATOM      5  C21 ZIN A   1       3.502  -0.197  -4.662  0.00  0.00     0.037 A 
ATOM      6  C22 ZIN A   1       2.852   0.244  -3.525  0.00  0.00     0.011 A 
ENDROOT
BRANCH   1   7
ATOM      7  C7  ZIN A   1       2.100  -0.070  -1.159  0.00  0.00     0.271 C 
BRANCH   7   8
ATOM      8  N4  ZIN A   1       0.690  -0.478  -1.207  0.00  0.00    -0.059 N 
ATOM      9  H5  ZIN A   1       0.632  -1.484  -1.254  0.00  0.00     0.278 HD
ATOM     10  H6  ZIN A   1       0.251  -0.077  -2.022  0.00  0.00     0.278 HD
BRANCH   8  11
ATOM     11  C2  ZIN A   1       0.002  -0.004   0.002  0.00  0.00     0.273 C 
ATOM     12  C1  ZIN A   1      -0.019   1.526   0.010  0.00  0.00     0.050 C 
BRANCH  11  13
ATOM     13  C23 ZIN A   1      -1.412  -0.526   0.013  0.00  0.00     0.245 C 
ATOM     14  N24 ZIN A   1      -2.236  -0.217   1.033  0.00  0.00    -0.368 N 
ATOM     15  H41 ZIN A   1      -1.920   0.341   1.761  0.00  0.00     0.159 HD
ATOM     16  H42 ZIN A   1      -3.146  -0.553   1.040  0.00  0.00     0.159 HD
ATOM     17  O25 ZIN A   1      -1.808  -1.223  -0.897  0.00  0.00    -0.271 OA
ENDBRANCH  11  13
ENDBRANCH   8  11
ENDBRANCH   7   8
ENDBRANCH   1   7
BRANCH   4  18
ATOM     18  O12 ZIN A   1       4.736  -1.887  -5.793  0.00  0.00    -0.347 OA
BRANCH  18  19
ATOM     19  C13 ZIN A   1       4.750  -1.007  -6.919  0.00  0.00     0.214 C 
BRANCH  19  20
ATOM     20  C14 ZIN A   1       5.494  -1.658  -8.056  0.00  0.00    -0.031 A 
ATOM     21  C20 ZIN A   1       4.812  -2.440  -8.970  0.00  0.00     0.051 A 
ATOM     22  C18 ZIN A   1       5.495  -3.034 -10.018  0.00  0.00     0.117 A 
ATOM     23  C17 ZIN A   1       6.862  -2.851 -10.144  0.00  0.00     0.042 A 
ATOM     24  F19 ZIN A   1       4.829  -3.794 -10.914  0.00  0.00    -0.206 F 
ATOM     25  C16 ZIN A   1       7.542  -2.074  -9.226  0.00  0.00     0.004 A 
ATOM     26  C15 ZIN A   1       6.858  -1.477  -8.183  0.00  0.00     0.009 A 
ENDBRANCH  19  20
ENDBRANCH  18  19
ENDBRANCH   4  18
TORSDOF 7
