REMARK  5 active torsions:
REMARK  status: ('A' for Active; 'I' for Inactive)
REMARK    1  A    between atoms: N2_2  and  C4_4 
REMARK    2  A    between atoms: C8_7  and  C9_8 
REMARK       I    between atoms: C9_8  and  N10_9 
REMARK    3  A    between atoms: C14_13  and  O15_14 
REMARK    4  A    between atoms: C22_21  and  O23_22 
REMARK    5  A    between atoms: C28_27  and  O30_29 
ROOT
ATOM      1  C4  ZIN A   1      -1.374  -0.430  -0.207  0.00  0.00     0.304 C 
ATOM      2  C6  ZIN A   1      -2.140   0.097   0.973  0.00  0.00     0.201 C 
ATOM      3  O7  ZIN A   1      -2.721   1.160   0.898  0.00  0.00    -0.290 OA
ATOM      4  C8  ZIN A   1      -2.183  -0.677   2.212  0.00  0.00     0.115 C 
ATOM      5  C12 ZIN A   1      -1.664  -1.946   2.250  0.00  0.00     0.146 C 
ATOM      6  O13 ZIN A   1      -1.736  -2.635   3.398  0.00  0.00    -0.192 OA
ATOM      7  C14 ZIN A   1      -1.019  -2.594   1.063  0.00  0.00     0.181 C 
ATOM      8  C16 ZIN A   1      -1.321  -4.063   1.060  0.00  0.00     0.200 C 
ATOM      9  O17 ZIN A   1      -0.894  -4.739   1.975  0.00  0.00    -0.289 OA
ATOM     10  C18 ZIN A   1      -2.063  -4.694   0.068  0.00  0.00     0.036 C 
ATOM     11  C19 ZIN A   1      -2.239  -6.064   0.129  0.00  0.00     0.131 C 
ATOM     12  O20 ZIN A   1      -1.643  -6.784   1.104  0.00  0.00    -0.190 OA
ATOM     13  C21 ZIN A   1      -3.082  -6.730  -0.875  0.00  0.00     0.043 A 
ATOM     14  C22 ZIN A   1      -3.029  -8.120  -1.045  0.00  0.00     0.079 A 
ATOM     15  C24 ZIN A   1      -3.824  -8.721  -2.009  0.00  0.00     0.037 A 
ATOM     16  C25 ZIN A   1      -4.659  -7.953  -2.796  0.00  0.00     0.003 A 
ATOM     17  C26 ZIN A   1      -4.717  -6.578  -2.627  0.00  0.00     0.011 A 
ATOM     18  C27 ZIN A   1      -3.940  -5.965  -1.671  0.00  0.00    -0.008 A 
ATOM     19  C28 ZIN A   1      -4.022  -4.476  -1.459  0.00  0.00     0.090 C 
ATOM     20  C29 ZIN A   1      -4.507  -3.806  -2.747  0.00  0.00     0.052 C 
ATOM     21  C31 ZIN A   1      -2.646  -3.926  -1.089  0.00  0.00     0.065 C 
ATOM     22  C33 ZIN A   1      -2.772  -2.447  -0.712  0.00  0.00     0.024 C 
ATOM     23  C34 ZIN A   1      -1.405  -1.945  -0.245  0.00  0.00     0.077 C 
ENDROOT
BRANCH   4  24
ATOM     24  C9  ZIN A   1      -2.786  -0.093   3.421  0.00  0.00     0.255 C 
ATOM     25  N10 ZIN A   1      -3.182   1.195   3.422  0.00  0.00    -0.366 N 
ATOM     26  H42 ZIN A   1      -3.134   1.718   2.607  0.00  0.00     0.159 HD
ATOM     27  H43 ZIN A   1      -3.514   1.599   4.239  0.00  0.00     0.159 HD
ATOM     28  O11 ZIN A   1      -2.926  -0.774   4.419  0.00  0.00    -0.268 OA
ENDBRANCH   4  24
BRANCH   1  29
ATOM     29  N2  ZIN A   1       0.022   0.021  -0.116  0.00  0.00     0.092 N 
ATOM     30  C1  ZIN A   1       0.770  -0.334  -1.330  0.00  0.00     0.310 C 
ATOM     31  C3  ZIN A   1       0.092   1.465   0.143  0.00  0.00     0.310 C 
ENDBRANCH   1  29
BRANCH   7  32
ATOM     32  O15 ZIN A   1       0.396  -2.462   1.212  0.00  0.00    -0.374 OA
ATOM     33  H44 ZIN A   1       0.758  -2.942   1.970  0.00  0.00     0.211 HD
ENDBRANCH   7  32
BRANCH  19  34
ATOM     34  O30 ZIN A   1      -4.943  -4.196  -0.403  0.00  0.00    -0.385 OA
ATOM     35  H52 ZIN A   1      -5.842  -4.511  -0.571  0.00  0.00     0.211 HD
ENDBRANCH  19  34
BRANCH  14  36
ATOM     36  O23 ZIN A   1      -2.205  -8.872  -0.272  0.00  0.00    -0.360 OA
ATOM     37  H45 ZIN A   1      -2.613  -9.187   0.547  0.00  0.00     0.217 HD
ENDBRANCH  14  36
TORSDOF 5
