REMARK  20 active torsions:
REMARK  status: ('A' for Active; 'I' for Inactive)
REMARK    1  A    between atoms: C2_2  and  C4_4 
REMARK    2  A    between atoms: C4_4  and  N5_5 
REMARK    3  A    between atoms: N5_5  and  C6_6 
REMARK    4  A    between atoms: N5_5  and  C35_34 
REMARK    5  A    between atoms: C6_6  and  C7_7 
REMARK    6  A    between atoms: C7_7  and  N8_8 
REMARK    7  A    between atoms: N8_8  and  C10_10 
REMARK    8  A    between atoms: N8_8  and  C31_30 
REMARK    9  A    between atoms: C10_10  and  C11_11 
REMARK   10  A    between atoms: C11_11  and  N12_12 
REMARK   11  A    between atoms: N12_12  and  C13_13 
REMARK   12  A    between atoms: N12_12  and  C17_17 
REMARK   13  A    between atoms: C13_13  and  C14_14 
REMARK   14  A    between atoms: C17_17  and  C19_18 
REMARK   15  A    between atoms: C17_17  and  C28_27 
REMARK   16  A    between atoms: C19_18  and  O20_19 
REMARK   17  A    between atoms: O20_19  and  C21_20 
REMARK   18  A    between atoms: C21_20  and  C22_21 
REMARK   19  A    between atoms: C31_30  and  C32_31 
REMARK   20  A    between atoms: C35_34  and  C36_35 
ROOT
ATOM      1  C11 ZIN A   1      -7.671   7.235   1.871  0.00  0.00     0.302 C 
ENDROOT
BRANCH   1   2
ATOM      2  C10 ZIN A   1      -6.339   6.547   2.179  0.00  0.00     0.265 C 
BRANCH   2   3
ATOM      3  N8  ZIN A   1      -6.443   5.116   1.862  0.00  0.00    -0.058 N 
ATOM      4  H9  ZIN A   1      -7.241   4.723   2.338  0.00  0.00     0.280 HD
BRANCH   3   5
ATOM      5  C7  ZIN A   1      -6.605   4.947   0.411  0.00  0.00     0.265 C 
BRANCH   5   6
ATOM      6  C6  ZIN A   1      -6.838   3.468   0.094  0.00  0.00     0.301 C 
BRANCH   6   7
ATOM      7  N5  ZIN A   1      -7.000   3.299  -1.356  0.00  0.00     0.110 N 
BRANCH   7   8
ATOM      8  C4  ZIN A   1      -8.227   3.955  -1.829  0.00  0.00     0.385 C 
BRANCH   8   9
ATOM      9  C2  ZIN A   1      -9.421   3.339  -1.146  0.00  0.00     0.202 C 
ATOM     10  O1  ZIN A   1      -9.272   2.388  -0.398  0.00  0.00    -0.647 OA
ATOM     11  O3  ZIN A   1     -10.535   3.797  -1.336  0.00  0.00    -0.647 OA
ENDBRANCH   8   9
ENDBRANCH   7   8
BRANCH   7  12
ATOM     12  C35 ZIN A   1      -6.989   1.877  -1.725  0.00  0.00     0.385 C 
BRANCH  12  13
ATOM     13  C36 ZIN A   1      -6.624   1.738  -3.180  0.00  0.00     0.202 C 
ATOM     14  O37 ZIN A   1      -6.292   2.720  -3.822  0.00  0.00    -0.647 OA
ATOM     15  O38 ZIN A   1      -6.662   0.643  -3.717  0.00  0.00    -0.647 OA
ENDBRANCH  12  13
ENDBRANCH   7  12
ENDBRANCH   6   7
ENDBRANCH   5   6
ENDBRANCH   3   5
BRANCH   3  16
ATOM     16  C31 ZIN A   1      -5.222   4.427   2.301  0.00  0.00     0.347 C 
BRANCH  16  17
ATOM     17  C32 ZIN A   1      -5.137   4.467   3.805  0.00  0.00     0.199 C 
ATOM     18  O33 ZIN A   1      -6.032   4.981   4.453  0.00  0.00    -0.647 OA
ATOM     19  O34 ZIN A   1      -4.172   3.986   4.374  0.00  0.00    -0.647 OA
ENDBRANCH  16  17
ENDBRANCH   3  16
ENDBRANCH   2   3
ENDBRANCH   1   2
BRANCH   1  20
ATOM     20  N12 ZIN A   1      -7.564   8.667   2.179  0.00  0.00     0.117 N 
BRANCH  20  21
ATOM     21  C13 ZIN A   1      -6.566   9.318   1.320  0.00  0.00     0.386 C 
BRANCH  21  22
ATOM     22  C14 ZIN A   1      -6.069  10.573   1.990  0.00  0.00     0.202 C 
ATOM     23  O15 ZIN A   1      -6.394  10.822   3.138  0.00  0.00    -0.647 OA
ATOM     24  O16 ZIN A   1      -5.342  11.341   1.383  0.00  0.00    -0.647 OA
ENDBRANCH  21  22
ENDBRANCH  20  21
BRANCH  20  25
ATOM     25  C17 ZIN A   1      -8.870   9.329   2.063  0.00  0.00     0.346 C 
BRANCH  25  26
ATOM     26  C19 ZIN A   1      -9.973   8.361   2.496  0.00  0.00     0.215 C 
BRANCH  26  27
ATOM     27  O20 ZIN A   1      -9.801   8.029   3.875  0.00  0.00    -0.384 OA
BRANCH  27  28
ATOM     28  C21 ZIN A   1     -10.723   7.050   4.357  0.00  0.00     0.206 C 
BRANCH  28  29
ATOM     29  C22 ZIN A   1     -10.376   6.689   5.779  0.00  0.00    -0.035 A 
ATOM     30  C27 ZIN A   1     -10.854   7.459   6.823  0.00  0.00     0.009 A 
ATOM     31  C26 ZIN A   1     -10.539   7.126   8.127  0.00  0.00     0.001 A 
ATOM     32  C25 ZIN A   1      -9.740   6.028   8.387  0.00  0.00     0.000 A 
ATOM     33  C24 ZIN A   1      -9.258   5.261   7.342  0.00  0.00     0.001 A 
ATOM     34  C23 ZIN A   1      -9.577   5.592   6.038  0.00  0.00     0.009 A 
ENDBRANCH  28  29
ENDBRANCH  27  28
ENDBRANCH  26  27
ENDBRANCH  25  26
BRANCH  25  35
ATOM     35  C28 ZIN A   1      -8.896  10.549   2.949  0.00  0.00     0.209 C 
ATOM     36  O29 ZIN A   1      -9.340  11.601   2.523  0.00  0.00    -0.646 OA
ATOM     37  O30 ZIN A   1      -8.473  10.482   4.090  0.00  0.00    -0.646 OA
ENDBRANCH  25  35
ENDBRANCH  20  25
ENDBRANCH   1  20
TORSDOF 20
