REMARK  12 active torsions:
REMARK  status: ('A' for Active; 'I' for Inactive)
REMARK    1  A    between atoms: O2_2  and  C3_3 
REMARK    2  A    between atoms: C6_6  and  C7_7 
REMARK    3  A    between atoms: C7_7  and  N8_8 
REMARK       I    between atoms: N8_8  and  C9_9 
REMARK    4  A    between atoms: N8_8  and  C29_28 
REMARK    5  A    between atoms: C9_9  and  C11_11 
REMARK    6  A    between atoms: C11_11  and  N13_12 
REMARK    7  A    between atoms: C11_11  and  C17_16 
REMARK    8  A    between atoms: C17_16  and  C18_17 
REMARK    9  A    between atoms: C22_21  and  C23_22 
REMARK       I    between atoms: C23_22  and  N24_23 
REMARK   10  A    between atoms: C29_28  and  C32_30 
REMARK   11  A    between atoms: C34_32  and  C35_33 
REMARK   12  A    between atoms: C44_42  and  C45_43 
ROOT
ATOM      1  N8  ZIN A   1       3.209  -2.799  -5.109  0.00  0.00    -0.335 N 
ATOM      2  C9  ZIN A   1       3.796  -3.651  -4.245  0.00  0.00     0.251 C 
ATOM      3  O10 ZIN A   1       4.862  -3.367  -3.742  0.00  0.00    -0.271 OA
ENDROOT
BRANCH   1   4
ATOM      4  C7  ZIN A   1       1.885  -3.105  -5.655  0.00  0.00     0.165 C 
BRANCH   4   5
ATOM      5  C6  ZIN A   1       2.036  -3.721  -7.022  0.00  0.00    -0.039 A 
ATOM      6  C5  ZIN A   1       2.227  -5.088  -7.145  0.00  0.00     0.011 A 
ATOM      7  C4  ZIN A   1       2.367  -5.664  -8.392  0.00  0.00     0.038 A 
ATOM      8  C3  ZIN A   1       2.317  -4.877  -9.532  0.00  0.00     0.085 A 
ATOM      9  C44 ZIN A   1       2.129  -3.491  -9.412  0.00  0.00     0.074 A 
ATOM     10  C43 ZIN A   1       1.983  -2.922  -8.143  0.00  0.00     0.030 A 
BRANCH   8  11
ATOM     11  O2  ZIN A   1       2.455  -5.442 -10.757  0.00  0.00    -0.355 OA
ATOM     12  C1  ZIN A   1       2.532  -6.868 -10.809  0.00  0.00     0.210 C 
ENDBRANCH   8  11
BRANCH   9  13
ATOM     13  C45 ZIN A   1       2.074  -2.644 -10.614  0.00  0.00     0.212 C 
ATOM     14  O46 ZIN A   1       1.901  -1.438 -10.505  0.00  0.00    -0.644 OA
ATOM     15  O47 ZIN A   1       2.202  -3.147 -11.723  0.00  0.00    -0.644 OA
ENDBRANCH   9  13
ENDBRANCH   4   5
ENDBRANCH   1   4
BRANCH   1  16
ATOM     16  C29 ZIN A   1       3.896  -1.565  -5.501  0.00  0.00     0.153 C 
ATOM     17  C31 ZIN A   1       4.218  -1.614  -6.996  0.00  0.00     0.041 C 
BRANCH  16  18
ATOM     18  C32 ZIN A   1       3.006  -0.383  -5.216  0.00  0.00     0.127 A 
ATOM     19  N42 ZIN A   1       3.428   0.882  -4.995  0.00  0.00    -0.350 N 
ATOM     20  C41 ZIN A   1       2.320   1.652  -4.782  0.00  0.00     0.122 A 
ATOM     21  H76 ZIN A   1       4.349   1.188  -4.995  0.00  0.00     0.166 HD
ATOM     22  C34 ZIN A   1       1.246   0.824  -4.871  0.00  0.00     0.084 A 
ATOM     23  N33 ZIN A   1       1.705  -0.416  -5.138  0.00  0.00    -0.231 NA
BRANCH  22  24
ATOM     24  C35 ZIN A   1      -0.176   1.213  -4.704  0.00  0.00    -0.006 A 
ATOM     25  C40 ZIN A   1      -1.173   0.240  -4.713  0.00  0.00     0.014 A 
ATOM     26  C39 ZIN A   1      -2.494   0.607  -4.552  0.00  0.00     0.001 A 
ATOM     27  C38 ZIN A   1      -2.829   1.939  -4.393  0.00  0.00     0.000 A 
ATOM     28  C37 ZIN A   1      -1.844   2.910  -4.388  0.00  0.00     0.001 A 
ATOM     29  C36 ZIN A   1      -0.520   2.554  -4.543  0.00  0.00     0.014 A 
ENDBRANCH  22  24
ENDBRANCH  16  18
ENDBRANCH   1  16
BRANCH   2  30
ATOM     30  C11 ZIN A   1       3.127  -4.958  -3.906  0.00  0.00     0.279 C 
BRANCH  30  31
ATOM     31  N13 ZIN A   1       4.151  -5.986  -3.674  0.00  0.00    -0.066 N 
ATOM     32  H14 ZIN A   1       3.703  -6.862  -3.446  0.00  0.00     0.275 HD
ATOM     33  H15 ZIN A   1       4.708  -6.100  -4.507  0.00  0.00     0.275 HD
ATOM     34  H16 ZIN A   1       4.745  -5.703  -2.908  0.00  0.00     0.275 HD
ENDBRANCH  30  31
BRANCH  30  35
ATOM     35  C17 ZIN A   1       2.282  -4.786  -2.642  0.00  0.00     0.082 C 
BRANCH  35  36
ATOM     36  C18 ZIN A   1       1.561  -6.074  -2.340  0.00  0.00    -0.044 A 
ATOM     37  C27 ZIN A   1       2.126  -6.993  -1.474  0.00  0.00    -0.054 A 
ATOM     38  C26 ZIN A   1       1.469  -8.172  -1.189  0.00  0.00     0.024 A 
ATOM     39  C28 ZIN A   1       3.457  -6.700  -0.830  0.00  0.00     0.049 C 
ATOM     40  C22 ZIN A   1       0.236  -8.442  -1.786  0.00  0.00     0.032 A 
ATOM     41  C21 ZIN A   1      -0.326  -7.513  -2.663  0.00  0.00     0.024 A 
ATOM     42  C19 ZIN A   1       0.340  -6.335  -2.935  0.00  0.00    -0.054 A 
ATOM     43  C20 ZIN A   1      -0.265  -5.332  -3.883  0.00  0.00     0.049 C 
BRANCH  40  44
ATOM     44  C23 ZIN A   1      -0.471  -9.706  -1.491  0.00  0.00     0.249 C 
ATOM     45  N24 ZIN A   1       0.074 -10.601  -0.643  0.00  0.00    -0.366 N 
ATOM     46  H61 ZIN A   1       0.931 -10.416  -0.227  0.00  0.00     0.159 HD
ATOM     47  H62 ZIN A   1      -0.390 -11.431  -0.449  0.00  0.00     0.159 HD
ATOM     48  O25 ZIN A   1      -1.544  -9.939  -2.012  0.00  0.00    -0.268 OA
ENDBRANCH  40  44
ENDBRANCH  35  36
ENDBRANCH  30  35
ENDBRANCH   2  30
TORSDOF 12
