REMARK  6 active torsions:
REMARK  status: ('A' for Active; 'I' for Inactive)
REMARK    1  A    between atoms: N2_2  and  C5_5 
REMARK    2  A    between atoms: C5_5  and  C6_6 
REMARK    3  A    between atoms: C6_6  and  C8_7 
REMARK    4  A    between atoms: C6_6  and  C15_14 
REMARK    5  A    between atoms: C11_10  and  O12_11 
REMARK    6  A    between atoms: C15_14  and  O16_15 
ROOT
ATOM      1  C6  ZIN A   1      -2.116  -0.006  -1.227  0.00  0.00     0.079 C 
ENDROOT
BRANCH   1   2
ATOM      2  C5  ZIN A   1      -1.303  -0.767  -0.178  0.00  0.00     0.246 C 
BRANCH   2   3
ATOM      3  N2  ZIN A   1       0.129  -0.522  -0.397  0.00  0.00    -0.078 N 
ATOM      4  C1  ZIN A   1       0.417   0.905  -0.201  0.00  0.00     0.269 C 
ATOM      5  H3  ZIN A   1       0.376  -0.790  -1.338  0.00  0.00     0.279 HD
ATOM      6  C4  ZIN A   1       0.913  -1.316   0.560  0.00  0.00     0.269 C 
ENDBRANCH   2   3
ENDBRANCH   1   2
BRANCH   1   7
ATOM      7  C8  ZIN A   1      -3.586  -0.158  -0.931  0.00  0.00    -0.049 A 
ATOM      8  C14 ZIN A   1      -4.415   0.947  -0.968  0.00  0.00     0.010 A 
ATOM      9  C13 ZIN A   1      -5.764   0.810  -0.702  0.00  0.00     0.037 A 
ATOM     10  C11 ZIN A   1      -6.284  -0.438  -0.387  0.00  0.00     0.065 A 
ATOM     11  C10 ZIN A   1      -5.448  -1.544  -0.345  0.00  0.00     0.037 A 
ATOM     12  C9  ZIN A   1      -4.101  -1.402  -0.617  0.00  0.00     0.010 A 
BRANCH  10  13
ATOM     13  O12 ZIN A   1      -7.609  -0.575  -0.119  0.00  0.00    -0.361 OA
ATOM     14  H32 ZIN A   1      -7.835  -0.463   0.814  0.00  0.00     0.217 HD
ENDBRANCH  10  13
ENDBRANCH   1   7
BRANCH   1  15
ATOM     15  C15 ZIN A   1      -1.814  -0.572  -2.616  0.00  0.00     0.067 C 
ATOM     16  C21 ZIN A   1      -2.760   0.059  -3.640  0.00  0.00     0.038 C 
ATOM     17  C20 ZIN A   1      -2.458  -0.508  -5.029  0.00  0.00     0.003 C 
ATOM     18  C19 ZIN A   1      -2.659  -2.025  -5.016  0.00  0.00     0.000 C 
ATOM     19  C18 ZIN A   1      -1.713  -2.655  -3.992  0.00  0.00     0.003 C 
ATOM     20  C17 ZIN A   1      -2.015  -2.089  -2.603  0.00  0.00     0.038 C 
BRANCH  15  21
ATOM     21  O16 ZIN A   1      -0.462  -0.273  -2.969  0.00  0.00    -0.389 OA
ATOM     22  H35 ZIN A   1      -0.201  -0.603  -3.840  0.00  0.00     0.210 HD
ENDBRANCH  15  21
ENDBRANCH   1  15
TORSDOF 6
