REMARK  7 active torsions:
REMARK  status: ('A' for Active; 'I' for Inactive)
REMARK    1  A    between atoms: O2_2  and  C3_3 
REMARK    2  A    between atoms: C6_6  and  C7_7 
REMARK    3  A    between atoms: C7_7  and  N8_8 
REMARK    4  A    between atoms: N8_8  and  C9_9 
REMARK    5  A    between atoms: N8_8  and  C15_15 
REMARK    6  A    between atoms: C9_9  and  C10_10 
REMARK    7  A    between atoms: C10_10  and  N11_11 
ROOT
ATOM      1  N8  ZIN A   1      -5.479  -2.749  -1.337  0.00  0.00    -0.360 N 
ENDROOT
BRANCH   1   2
ATOM      2  C7  ZIN A   1      -4.862  -2.579  -0.020  0.00  0.00     0.163 C 
BRANCH   2   3
ATOM      3  C6  ZIN A   1      -3.425  -2.158  -0.189  0.00  0.00    -0.040 A 
ATOM      4  C5  ZIN A   1      -3.088  -0.818  -0.145  0.00  0.00     0.011 A 
ATOM      5  C4  ZIN A   1      -1.772  -0.429  -0.300  0.00  0.00     0.037 A 
ATOM      6  C3  ZIN A   1      -0.786  -1.385  -0.500  0.00  0.00     0.068 A 
ATOM      7  C22 ZIN A   1      -1.127  -2.729  -0.549  0.00  0.00     0.037 A 
ATOM      8  C21 ZIN A   1      -2.445  -3.113  -0.389  0.00  0.00     0.011 A 
BRANCH   6   9
ATOM      9  O2  ZIN A   1       0.509  -1.006  -0.652  0.00  0.00    -0.356 OA
ATOM     10  C1  ZIN A   1       0.787   0.395  -0.590  0.00  0.00     0.210 C 
ENDBRANCH   6   9
ENDBRANCH   2   3
ENDBRANCH   1   2
BRANCH   1  11
ATOM     11  C9  ZIN A   1      -5.352  -4.024  -2.047  0.00  0.00     0.152 C 
BRANCH  11  12
ATOM     12  C10 ZIN A   1      -6.519  -4.938  -1.666  0.00  0.00     0.253 C 
BRANCH  12  13
ATOM     13  N11 ZIN A   1      -6.391  -6.217  -2.378  0.00  0.00    -0.077 N 
ATOM     14  H12 ZIN A   1      -6.323  -6.045  -3.370  0.00  0.00     0.279 HD
ATOM     15  C13 ZIN A   1      -5.184  -6.915  -1.917  0.00  0.00     0.269 C 
ATOM     16  C14 ZIN A   1      -7.572  -7.048  -2.106  0.00  0.00     0.269 C 
ENDBRANCH  12  13
ENDBRANCH  11  12
ENDBRANCH   1  11
BRANCH   1  17
ATOM     17  C15 ZIN A   1      -6.186  -1.700  -1.914  0.00  0.00     0.125 A 
ATOM     18  N20 ZIN A   1      -6.803  -1.882  -3.072  0.00  0.00    -0.244 NA
ATOM     19  C19 ZIN A   1      -7.488  -0.914  -3.651  0.00  0.00     0.119 A 
ATOM     20  C18 ZIN A   1      -7.577   0.335  -3.070  0.00  0.00     0.019 A 
ATOM     21  C17 ZIN A   1      -6.940   0.569  -1.859  0.00  0.00     0.005 A 
ATOM     22  C16 ZIN A   1      -6.234  -0.466  -1.273  0.00  0.00     0.050 A 
ENDBRANCH   1  17
TORSDOF 7
