REMARK  5 active torsions:
REMARK  status: ('A' for Active; 'I' for Inactive)
REMARK    1  A    between atoms: C2_2  and  N3_3 
REMARK       I    between atoms: N3_3  and  C5_5 
REMARK    2  A    between atoms: C5_5  and  O7_7 
REMARK    3  A    between atoms: O7_7  and  C8_8 
REMARK    4  A    between atoms: C12_12  and  C13_13 
REMARK    5  A    between atoms: C13_13  and  N16_15 
ROOT
ATOM      1  C8  ZIN A   1      -0.070  -1.409  -4.581  0.00  0.00     0.081 A 
ATOM      2  C9  ZIN A   1      -1.434  -1.164  -4.645  0.00  0.00     0.037 A 
ATOM      3  C10 ZIN A   1      -2.130  -1.439  -5.806  0.00  0.00     0.003 A 
ATOM      4  C11 ZIN A   1      -1.469  -1.958  -6.904  0.00  0.00     0.009 A 
ATOM      5  C12 ZIN A   1      -0.110  -2.204  -6.842  0.00  0.00    -0.025 A 
ATOM      6  C20 ZIN A   1       0.592  -1.925  -5.686  0.00  0.00     0.046 A 
ENDROOT
BRANCH   1   7
ATOM      7  O7  ZIN A   1       0.617  -1.139  -3.440  0.00  0.00    -0.261 OA
BRANCH   7   8
ATOM      8  C5  ZIN A   1       0.491  -2.018  -2.428  0.00  0.00     0.367 C 
ATOM      9  N3  ZIN A   1       1.222  -1.863  -1.306  0.00  0.00    -0.332 N 
ATOM     10  C4  ZIN A   1       2.154  -0.739  -1.187  0.00  0.00     0.155 C 
ATOM     11  O6  ZIN A   1      -0.282  -2.951  -2.526  0.00  0.00    -0.238 OA
BRANCH   9  12
ATOM     12  C2  ZIN A   1       1.085  -2.820  -0.204  0.00  0.00     0.123 C 
ATOM     13  C1  ZIN A   1      -0.012  -2.344   0.751  0.00  0.00     0.026 C 
ENDBRANCH   9  12
ENDBRANCH   7   8
ENDBRANCH   1   7
BRANCH   5  14
ATOM     14  C13 ZIN A   1       0.608  -2.771  -8.040  0.00  0.00     0.216 C 
ATOM     15  C15 ZIN A   1       0.895  -1.650  -9.040  0.00  0.00     0.045 C 
BRANCH  14  16
ATOM     16  N16 ZIN A   1      -0.234  -3.792  -8.677  0.00  0.00    -0.071 N 
ATOM     17  H17 ZIN A   1      -1.103  -3.375  -8.972  0.00  0.00     0.279 HD
ATOM     18  C18 ZIN A   1       0.466  -4.345  -9.845  0.00  0.00     0.270 C 
ATOM     19  C19 ZIN A   1      -0.509  -4.869  -7.716  0.00  0.00     0.270 C 
ENDBRANCH  14  16
ENDBRANCH   5  14
TORSDOF 5
