REMARK  6 active torsions:
REMARK  status: ('A' for Active; 'I' for Inactive)
REMARK    1  A    between atoms: N2_2  and  C5_5 
REMARK    2  A    between atoms: C5_5  and  C6_6 
REMARK    3  A    between atoms: C6_6  and  C7_7 
REMARK    4  A    between atoms: C7_7  and  O8_8 
REMARK    5  A    between atoms: C7_7  and  C9_9 
REMARK    6  A    between atoms: C7_7  and  C15_15 
ROOT
ATOM      1  C7  ZIN A   1       0.669  -0.610   3.687  0.00  0.00     0.115 C 
ENDROOT
BRANCH   1   2
ATOM      2  C6  ZIN A   1      -0.506  -0.472   2.717  0.00  0.00     0.076 C 
BRANCH   2   3
ATOM      3  C5  ZIN A   1       0.019  -0.446   1.280  0.00  0.00     0.237 C 
BRANCH   3   4
ATOM      4  N2  ZIN A   1      -1.109  -0.313   0.349  0.00  0.00    -0.079 N 
ATOM      5  C1  ZIN A   1      -1.758   0.990   0.549  0.00  0.00     0.269 C 
ATOM      6  H3  ZIN A   1      -1.776  -1.051   0.521  0.00  0.00     0.278 HD
ATOM      7  C4  ZIN A   1      -0.618  -0.409  -1.032  0.00  0.00     0.269 C 
ENDBRANCH   3   4
ENDBRANCH   2   3
ENDBRANCH   1   2
BRANCH   1   8
ATOM      8  O8  ZIN A   1       1.371  -1.825   3.415  0.00  0.00    -0.380 OA
ATOM      9  H32 ZIN A   1       0.829  -2.621   3.507  0.00  0.00     0.211 HD
ENDBRANCH   1   8
BRANCH   1  10
ATOM     10  C9  ZIN A   1       0.152  -0.635   5.103  0.00  0.00    -0.019 A 
ATOM     11  C14 ZIN A   1       0.300  -1.774   5.873  0.00  0.00     0.010 A 
ATOM     12  C13 ZIN A   1      -0.171  -1.795   7.172  0.00  0.00     0.001 A 
ATOM     13  C12 ZIN A   1      -0.798  -0.681   7.699  0.00  0.00     0.000 A 
ATOM     14  C11 ZIN A   1      -0.951   0.455   6.927  0.00  0.00     0.001 A 
ATOM     15  C10 ZIN A   1      -0.476   0.478   5.629  0.00  0.00     0.010 A 
ENDBRANCH   1  10
BRANCH   1  16
ATOM     16  C15 ZIN A   1       1.604   0.559   3.515  0.00  0.00     0.002 A 
ATOM     17  C20 ZIN A   1       2.871   0.519   4.068  0.00  0.00     0.043 A 
ATOM     18  C19 ZIN A   1       3.731   1.591   3.904  0.00  0.00     0.024 A 
ATOM     19 Cl21 ZIN A   1       3.388  -0.881   4.955  0.00  0.00    -0.084 Cl
ATOM     20  C18 ZIN A   1       3.319   2.705   3.197  0.00  0.00     0.002 A 
ATOM     21  C17 ZIN A   1       2.050   2.747   2.650  0.00  0.00     0.001 A 
ATOM     22  C16 ZIN A   1       1.193   1.674   2.809  0.00  0.00     0.012 A 
ENDBRANCH   1  16
TORSDOF 6
