REMARK  6 active torsions:
REMARK  status: ('A' for Active; 'I' for Inactive)
REMARK    1  A    between atoms: O2_2  and  C3_3 
REMARK    2  A    between atoms: C8_8  and  O9_9 
REMARK    3  A    between atoms: C13_13  and  C15_14 
REMARK    4  A    between atoms: C15_14  and  C16_15 
REMARK    5  A    between atoms: N19_18  and  C21_20 
REMARK    6  A    between atoms: C21_20  and  C22_21 
ROOT
ATOM      1  C15 ZIN A   1      -6.836  -1.145  -1.203  0.00  0.00     0.017 C 
ENDROOT
BRANCH   1   2
ATOM      2  C13 ZIN A   1      -5.951  -1.163   0.045  0.00  0.00     0.065 A 
ATOM      3  C11 ZIN A   1      -5.060  -2.381   0.037  0.00  0.00     0.164 A 
ATOM      4  C6  ZIN A   1      -3.663  -1.927   0.027  0.00  0.00     0.019 A 
ATOM      5  O12 ZIN A   1      -5.433  -3.535   0.039  0.00  0.00    -0.292 OA
ATOM      6  C5  ZIN A   1      -3.598  -0.532   0.028  0.00  0.00    -0.041 A 
ATOM      7  C7  ZIN A   1      -2.471  -2.674   0.017  0.00  0.00     0.055 A 
ATOM      8  C4  ZIN A   1      -2.373   0.103   0.019  0.00  0.00     0.047 A 
ATOM      9  C30 ZIN A   1      -4.996   0.039   0.039  0.00  0.00     0.052 A 
ATOM     10  C3  ZIN A   1      -1.199  -0.637   0.010  0.00  0.00     0.102 A 
ATOM     11  C8  ZIN A   1      -1.253  -2.031   0.003  0.00  0.00     0.102 A 
BRANCH  10  12
ATOM     12  O2  ZIN A   1       0.002  -0.004   0.002  0.00  0.00    -0.353 OA
ATOM     13  C1  ZIN A   1      -0.017   1.425   0.010  0.00  0.00     0.210 C 
ENDBRANCH  10  12
BRANCH  11  14
ATOM     14  O9  ZIN A   1      -0.102  -2.756  -0.007  0.00  0.00    -0.353 OA
ATOM     15  C10 ZIN A   1      -0.231  -4.179  -0.003  0.00  0.00     0.210 C 
ENDBRANCH  11  14
ENDBRANCH   1   2
BRANCH   1  16
ATOM     16  C16 ZIN A   1      -7.819  -2.316  -1.148  0.00  0.00    -0.011 C 
ATOM     17  C29 ZIN A   1      -8.621  -2.374  -2.452  0.00  0.00     0.032 C 
ATOM     18  C28 ZIN A   1      -9.656  -3.496  -2.358  0.00  0.00     0.235 C 
ATOM     19  N19 ZIN A   1     -10.565  -3.236  -1.235  0.00  0.00    -0.067 N 
ATOM     20  C18 ZIN A   1      -9.814  -3.250   0.027  0.00  0.00     0.235 C 
ATOM     21  H20 ZIN A   1     -10.999  -2.333  -1.357  0.00  0.00     0.280 HD
ATOM     22  C17 ZIN A   1      -8.785  -2.118   0.025  0.00  0.00     0.032 C 
BRANCH  19  23
ATOM     23  C21 ZIN A   1     -11.602  -4.275  -1.197  0.00  0.00     0.273 C 
BRANCH  23  24
ATOM     24  C22 ZIN A   1     -12.293  -4.345  -2.535  0.00  0.00    -0.033 A 
ATOM     25  C27 ZIN A   1     -11.810  -5.188  -3.519  0.00  0.00     0.009 A 
ATOM     26  C26 ZIN A   1     -12.445  -5.254  -4.745  0.00  0.00     0.001 A 
ATOM     27  C25 ZIN A   1     -13.558  -4.472  -4.990  0.00  0.00     0.000 A 
ATOM     28  C24 ZIN A   1     -14.038  -3.625  -4.008  0.00  0.00     0.001 A 
ATOM     29  C23 ZIN A   1     -13.405  -3.561  -2.781  0.00  0.00     0.009 A 
ENDBRANCH  23  24
ENDBRANCH  19  23
ENDBRANCH   1  16
TORSDOF 6
