REMARK  2 active torsions:
REMARK  status: ('A' for Active; 'I' for Inactive)
REMARK    1  A    between atoms: C16_15  and  O17_16 
REMARK    2  A    between atoms: C24_22  and  O25_23 
ROOT
ATOM      1  C1  ZIN A   1      -0.018   1.465   0.010  0.00  0.00     0.270 C 
ATOM      2  N2  ZIN A   1       0.002  -0.004   0.002  0.00  0.00    -0.067 N 
ATOM      3  H3  ZIN A   1      -0.942  -0.349   0.092  0.00  0.00     0.280 HD
ATOM      4  C4  ZIN A   1       0.566  -0.471  -1.268  0.00  0.00     0.236 C 
ATOM      5  C5  ZIN A   1       0.564  -2.004  -1.311  0.00  0.00     0.048 C 
ATOM      6  C6  ZIN A   1       1.372  -2.518  -0.121  0.00  0.00     0.058 C 
ATOM      7  C7  ZIN A   1       2.767  -1.944  -0.172  0.00  0.00    -0.001 C 
ATOM      8  C8  ZIN A   1       3.593  -2.897  -0.750  0.00  0.00     0.110 C 
ATOM      9  O9  ZIN A   1       2.898  -4.027  -1.004  0.00  0.00    -0.334 OA
ATOM     10  C10 ZIN A   1       1.664  -4.008  -0.226  0.00  0.00     0.214 C 
ATOM     11  C12 ZIN A   1       1.964  -4.639   1.102  0.00  0.00     0.157 C 
ATOM     12  O13 ZIN A   1       2.635  -5.642   1.123  0.00  0.00    -0.295 OA
ATOM     13  C14 ZIN A   1       1.471  -4.081   2.403  0.00  0.00     0.084 C 
ATOM     14  C15 ZIN A   1       1.573  -2.555   2.390  0.00  0.00     0.048 C 
ATOM     15  C16 ZIN A   1       0.762  -2.012   1.176  0.00  0.00     0.102 C 
ATOM     16  C18 ZIN A   1       0.800  -0.481   1.137  0.00  0.00     0.227 C 
ATOM     17  C20 ZIN A   1       2.199   0.107   1.071  0.00  0.00     0.075 C 
ATOM     18  C21 ZIN A   1       3.180  -0.742   0.355  0.00  0.00    -0.046 C 
ATOM     19  C22 ZIN A   1       4.508  -0.414   0.147  0.00  0.00     0.011 C 
ATOM     20  C23 ZIN A   1       5.360  -1.314  -0.472  0.00  0.00     0.040 C 
ATOM     21  C24 ZIN A   1       4.941  -2.569  -0.934  0.00  0.00     0.099 C 
ENDROOT
BRANCH  15  22
ATOM     22  O17 ZIN A   1      -0.594  -2.453   1.270  0.00  0.00    -0.386 OA
ATOM     23  H37 ZIN A   1      -1.049  -2.158   2.071  0.00  0.00     0.210 HD
ENDBRANCH  15  22
BRANCH  21  24
ATOM     24  O25 ZIN A   1       5.812  -3.442  -1.508  0.00  0.00    -0.358 OA
ATOM     25  H42 ZIN A   1       6.236  -4.044  -0.881  0.00  0.00     0.217 HD
ENDBRANCH  21  24
TORSDOF 2
