REMARK  5 active torsions:
REMARK  status: ('A' for Active; 'I' for Inactive)
REMARK    1  A    between atoms: C2_2  and  C3_3 
REMARK    2  A    between atoms: C3_3  and  C5_4 
REMARK    3  A    between atoms: C3_3  and  N7_6 
REMARK    4  A    between atoms: C5_4  and  O6_5 
REMARK       I    between atoms: N7_6  and  C8_7 
REMARK    5  A    between atoms: C8_7  and  C10_9 
ROOT
ATOM      1  C10 ZIN A   1       4.314   0.445   2.231  0.00  0.00     0.127 C 
ATOM      2  C12 ZIN A   1       5.097  -0.565   1.434  0.00  0.00    -0.001 C 
ATOM      3  C13 ZIN A   1       6.348  -0.864   1.741  0.00  0.00    -0.019 C 
ATOM      4  C14 ZIN A   1       7.061  -1.876   0.938  0.00  0.00    -0.015 A 
ATOM      5  C15 ZIN A   1       8.466  -1.767   0.983  0.00  0.00     0.009 A 
ATOM      6  C16 ZIN A   1       9.215  -0.757   1.722  0.00  0.00    -0.027 A 
ATOM      7  C17 ZIN A   1      10.494  -1.037   1.492  0.00  0.00     0.096 A 
ATOM      8  N18 ZIN A   1      10.603  -2.140   0.660  0.00  0.00    -0.365 N 
ATOM      9  C19 ZIN A   1       9.368  -2.608   0.326  0.00  0.00     0.043 A 
ATOM     10  C20 ZIN A   1       8.835  -3.637  -0.449  0.00  0.00     0.030 A 
ATOM     11  C21 ZIN A   1       7.451  -3.747  -0.506  0.00  0.00     0.003 A 
ATOM     12  C22 ZIN A   1       6.568  -2.900   0.162  0.00  0.00     0.013 A 
ATOM     13  C23 ZIN A   1       8.477   0.299   2.501  0.00  0.00     0.079 C 
ATOM     14  C24 ZIN A   1       7.087  -0.226   2.887  0.00  0.00     0.225 C 
ATOM     15  N26 ZIN A   1       6.330   0.834   3.537  0.00  0.00    -0.065 N 
ATOM     16  H27 ZIN A   1       6.430   1.685   3.003  0.00  0.00     0.280 HD
ATOM     17  C28 ZIN A   1       6.872   1.051   4.886  0.00  0.00     0.270 C 
ATOM     18  C29 ZIN A   1       4.907   0.504   3.644  0.00  0.00     0.253 C 
ATOM     19  H41 ZIN A   1      11.441  -2.525   0.359  0.00  0.00     0.165 HD
ENDROOT
BRANCH   1  20
ATOM     20  C8  ZIN A   1       2.869   0.026   2.303  0.00  0.00     0.227 C 
ATOM     21  N7  ZIN A   1       2.148  -0.104   1.172  0.00  0.00    -0.354 N 
ATOM     22  H38 ZIN A   1       2.559   0.072   0.311  0.00  0.00     0.163 HD
ATOM     23  O9  ZIN A   1       2.354  -0.193   3.379  0.00  0.00    -0.273 OA
BRANCH  21  24
ATOM     24  C3  ZIN A   1       0.742  -0.511   1.242  0.00  0.00     0.107 C 
BRANCH  24  25
ATOM     25  C2  ZIN A   1       0.002  -0.004   0.002  0.00  0.00     0.023 C 
ATOM     26  C1  ZIN A   1      -0.019   1.526   0.010  0.00  0.00     0.007 C 
ENDBRANCH  24  25
BRANCH  24  27
ATOM     27  C5  ZIN A   1       0.655  -2.037   1.299  0.00  0.00     0.189 C 
BRANCH  27  28
ATOM     28  O6  ZIN A   1       1.148  -2.588   0.076  0.00  0.00    -0.399 OA
ATOM     29  H37 ZIN A   1       1.123  -3.555   0.041  0.00  0.00     0.209 HD
ENDBRANCH  27  28
ENDBRANCH  24  27
ENDBRANCH  21  24
ENDBRANCH   1  20
TORSDOF 5
