REMARK  11 active torsions:
REMARK  status: ('A' for Active; 'I' for Inactive)
REMARK    1  A    between atoms: C2_2  and  C3_3 
REMARK    2  A    between atoms: C3_3  and  C4_4 
REMARK    3  A    between atoms: C7_6  and  C9_7 
REMARK       I    between atoms: C9_7  and  N11_9 
REMARK    4  A    between atoms: N11_9  and  C12_10 
REMARK    5  A    between atoms: C12_10  and  C14_11 
REMARK    6  A    between atoms: C12_10  and  C18_14 
REMARK    7  A    between atoms: C14_11  and  O17_13 
REMARK    8  A    between atoms: C21_16  and  S23_17 
REMARK    9  A    between atoms: C25_19  and  O27_20 
REMARK   10  A    between atoms: C28_21  and  O30_22 
REMARK   11  A    between atoms: C31_23  and  O33_24 
ROOT
ATOM      1  C12 ZIN A   1       1.587  -6.264  -1.483  0.00  0.00     0.144 C 
ENDROOT
BRANCH   1   2
ATOM      2  N11 ZIN A   1       0.587  -5.302  -1.953  0.00  0.00    -0.350 N 
ATOM      3  C9  ZIN A   1      -0.477  -5.005  -1.181  0.00  0.00     0.249 C 
ATOM      4  O10 ZIN A   1      -0.607  -5.534  -0.098  0.00  0.00    -0.271 OA
ATOM      5  H47 ZIN A   1       0.690  -4.879  -2.820  0.00  0.00     0.163 HD
BRANCH   3   6
ATOM      6  C7  ZIN A   1      -1.506  -4.016  -1.665  0.00  0.00     0.279 C 
ATOM      7  C6  ZIN A   1      -1.530  -2.786  -0.733  0.00  0.00     0.049 C 
ATOM      8  C4  ZIN A   1      -2.713  -3.094   0.222  0.00  0.00     0.014 C 
ATOM      9  C37 ZIN A   1      -3.704  -3.813  -0.727  0.00  0.00     0.240 C 
ATOM     10  N34 ZIN A   1      -2.849  -4.623  -1.621  0.00  0.00    -0.062 N 
ATOM     11  H35 ZIN A   1      -3.246  -4.637  -2.549  0.00  0.00     0.280 HD
ATOM     12  C36 ZIN A   1      -2.756  -5.994  -1.102  0.00  0.00     0.270 C 
BRANCH   8  13
ATOM     13  C3  ZIN A   1      -3.322  -1.804   0.775  0.00  0.00     0.006 C 
BRANCH  13  14
ATOM     14  C2  ZIN A   1      -2.335  -1.148   1.742  0.00  0.00    -0.004 C 
ATOM     15  C1  ZIN A   1      -2.943   0.143   2.295  0.00  0.00     0.005 C 
ENDBRANCH  13  14
ENDBRANCH   8  13
ENDBRANCH   3   6
ENDBRANCH   1   2
BRANCH   1  16
ATOM     16  C14 ZIN A   1       2.611  -5.545  -0.603  0.00  0.00     0.139 C 
ATOM     17  C16 ZIN A   1       3.202  -4.361  -1.371  0.00  0.00     0.041 C 
BRANCH  16  18
ATOM     18  O17 ZIN A   1       1.971  -5.072   0.583  0.00  0.00    -0.394 OA
ATOM     19  H51 ZIN A   1       1.519  -5.761   1.089  0.00  0.00     0.210 HD
ENDBRANCH  16  18
ENDBRANCH   1  16
BRANCH   1  20
ATOM     20  C18 ZIN A   1       2.297  -6.890  -2.686  0.00  0.00     0.179 C 
ATOM     21  C31 ZIN A   1       1.262  -7.536  -3.610  0.00  0.00     0.180 C 
ATOM     22  C28 ZIN A   1       1.985  -8.212  -4.779  0.00  0.00     0.181 C 
ATOM     23  C25 ZIN A   1       2.987  -9.230  -4.226  0.00  0.00     0.188 C 
ATOM     24  C21 ZIN A   1       3.955  -8.518  -3.278  0.00  0.00     0.214 C 
ATOM     25  O20 ZIN A   1       3.216  -7.885  -2.231  0.00  0.00    -0.363 OA
BRANCH  21  26
ATOM     26  O33 ZIN A   1       0.514  -8.512  -2.882  0.00  0.00    -0.390 OA
ATOM     27  H57 ZIN A   1      -0.158  -8.966  -3.409  0.00  0.00     0.210 HD
ENDBRANCH  21  26
BRANCH  22  28
ATOM     28  O30 ZIN A   1       1.034  -8.881  -5.610  0.00  0.00    -0.390 OA
ATOM     29  H56 ZIN A   1       1.425  -9.336  -6.368  0.00  0.00     0.210 HD
ENDBRANCH  22  28
BRANCH  23  30
ATOM     30  O27 ZIN A   1       3.720  -9.816  -5.304  0.00  0.00    -0.389 OA
ATOM     31  H55 ZIN A   1       4.376 -10.468  -5.025  0.00  0.00     0.210 HD
ENDBRANCH  23  30
BRANCH  24  32
ATOM     32  S23 ZIN A   1       4.893  -7.267  -4.198  0.00  0.00    -0.139 SA
ATOM     33  C24 ZIN A   1       6.168  -6.759  -3.012  0.00  0.00     0.092 C 
ENDBRANCH  24  32
ENDBRANCH   1  20
TORSDOF 11
