REMARK  9 active torsions:
REMARK  status: ('A' for Active; 'I' for Inactive)
REMARK    1  A    between atoms: O2_2  and  C3_3 
REMARK    2  A    between atoms: C8_8  and  O9_9 
REMARK    3  A    between atoms: C14_13  and  O16_14 
REMARK    4  A    between atoms: O16_14  and  C17_15 
REMARK    5  A    between atoms: C17_15  and  C19_17 
REMARK    6  A    between atoms: C19_17  and  N21_18 
REMARK    7  A    between atoms: C19_17  and  C22_19 
REMARK    8  A    between atoms: C25_22  and  C27_23 
REMARK    9  A    between atoms: C27_23  and  C28_24 
ROOT
ATOM      1  C3  ZIN A   1       0.242  -0.974   1.266  0.00  0.00     0.102 A 
ATOM      2  C4  ZIN A   1       0.765  -0.190   2.278  0.00  0.00     0.047 A 
ATOM      3  C5  ZIN A   1       1.518  -0.765   3.292  0.00  0.00    -0.045 A 
ATOM      4  C6  ZIN A   1       1.748  -2.124   3.290  0.00  0.00    -0.018 A 
ATOM      5  C7  ZIN A   1       1.223  -2.916   2.280  0.00  0.00     0.049 A 
ATOM      6  C8  ZIN A   1       0.466  -2.348   1.270  0.00  0.00     0.102 A 
ATOM      7  C11 ZIN A   1       2.576  -2.784   4.367  0.00  0.00     0.224 C 
ATOM      8  C13 ZIN A   1       3.996  -2.989   3.831  0.00  0.00     0.071 C 
ATOM      9  C14 ZIN A   1       4.870  -3.616   4.920  0.00  0.00     0.140 C 
ATOM     10  C25 ZIN A   1       4.858  -2.706   6.151  0.00  0.00     0.041 C 
ATOM     11  C31 ZIN A   1       3.413  -2.523   6.619  0.00  0.00     0.243 C 
ATOM     12  N32 ZIN A   1       2.603  -1.931   5.556  0.00  0.00    -0.062 N 
ATOM     13  H33 ZIN A   1       1.658  -1.821   5.891  0.00  0.00     0.280 HD
ATOM     14  C34 ZIN A   1       3.125  -0.612   5.177  0.00  0.00     0.240 C 
ATOM     15  C35 ZIN A   1       2.061   0.130   4.378  0.00  0.00     0.067 C 
ENDROOT
BRANCH   9  16
ATOM     16  O16 ZIN A   1       6.229  -3.759   4.430  0.00  0.00    -0.314 OA
BRANCH  16  17
ATOM     17  C17 ZIN A   1       6.536  -4.908   3.809  0.00  0.00     0.292 C 
ATOM     18  O18 ZIN A   1       5.697  -5.767   3.678  0.00  0.00    -0.263 OA
BRANCH  17  19
ATOM     19  C19 ZIN A   1       7.928  -5.127   3.274  0.00  0.00     0.320 C 
BRANCH  19  20
ATOM     20  N21 ZIN A   1       8.159  -6.566   3.085  0.00  0.00     0.092 N 
ATOM     21  H46 ZIN A   1       8.129  -7.055   3.967  0.00  0.00     0.313 HD
ATOM     22  H47 ZIN A   1       7.497  -6.956   2.432  0.00  0.00     0.313 HD
ENDBRANCH  19  20
BRANCH  19  23
ATOM     23  C22 ZIN A   1       8.079  -4.406   1.933  0.00  0.00     0.020 C 
ATOM     24  C23 ZIN A   1       9.492  -4.629   1.390  0.00  0.00     0.012 C 
ATOM     25  C24 ZIN A   1       7.057  -4.961   0.938  0.00  0.00     0.012 C 
ENDBRANCH  19  23
ENDBRANCH  17  19
ENDBRANCH  16  17
ENDBRANCH   9  16
BRANCH  10  26
ATOM     26  C27 ZIN A   1       5.684  -3.345   7.269  0.00  0.00     0.012 C 
BRANCH  26  27
ATOM     27  C28 ZIN A   1       5.786  -2.374   8.447  0.00  0.00    -0.022 C 
ATOM     28  C29 ZIN A   1       6.486  -3.066   9.619  0.00  0.00     0.009 C 
ATOM     29  C30 ZIN A   1       6.592  -1.144   8.026  0.00  0.00     0.009 C 
ENDBRANCH  26  27
ENDBRANCH  10  26
BRANCH   6  30
ATOM     30  O9  ZIN A   1      -0.048  -3.128   0.282  0.00  0.00    -0.353 OA
ATOM     31  C10 ZIN A   1       0.232  -4.527   0.347  0.00  0.00     0.210 C 
ENDBRANCH   6  30
BRANCH   1  32
ATOM     32  O2  ZIN A   1      -0.494  -0.406   0.274  0.00  0.00    -0.353 OA
ATOM     33  C1  ZIN A   1      -0.682   1.009   0.335  0.00  0.00     0.210 C 
ENDBRANCH   1  32
TORSDOF 9
