REMARK  6 active torsions:
REMARK  status: ('A' for Active; 'I' for Inactive)
REMARK    1  A    between atoms: C7_6  and  O9_7 
REMARK    2  A    between atoms: O9_7  and  C10_8 
REMARK    3  A    between atoms: C10_8  and  C12_10 
REMARK    4  A    between atoms: C12_10  and  C14_11 
REMARK    5  A    between atoms: C12_10  and  C16_13 
REMARK    6  A    between atoms: C14_11  and  O15_12 
ROOT
ATOM      1  O9  ZIN A   1       2.503  -2.594  -0.009  0.00  0.00    -0.315 OA
ENDROOT
BRANCH   1   2
ATOM      2  C7  ZIN A   1       1.056  -2.711  -0.021  0.00  0.00     0.136 C 
ATOM      3  C6  ZIN A   1       0.499  -2.020  -1.269  0.00  0.00     0.068 C 
ATOM      4  C4  ZIN A   1       0.771  -0.511  -1.166  0.00  0.00     0.222 C 
ATOM      5  N2  ZIN A   1       0.002  -0.004   0.002  0.00  0.00    -0.061 N 
ATOM      6  C28 ZIN A   1       2.250  -0.308  -0.764  0.00  0.00     0.184 A 
ATOM      7  C1  ZIN A   1      -0.018   1.465   0.010  0.00  0.00     0.270 C 
ATOM      8  H3  ZIN A   1      -0.938  -0.372  -0.004  0.00  0.00     0.280 HD
ATOM      9  C23 ZIN A   1       0.760  -0.524   1.171  0.00  0.00     0.222 C 
ATOM     10  C22 ZIN A   1       0.482  -2.048   1.235  0.00  0.00     0.068 C 
ATOM     11  C25 ZIN A   1       2.250  -0.330   0.806  0.00  0.00     0.184 A 
ATOM     12  O27 ZIN A   1       2.614   0.848   0.083  0.00  0.00    -0.371 OA
ENDBRANCH   1   2
BRANCH   1  13
ATOM     13  C10 ZIN A   1       3.189  -3.583   0.585  0.00  0.00     0.270 C 
ATOM     14  O11 ZIN A   1       2.600  -4.515   1.079  0.00  0.00    -0.264 OA
BRANCH  13  15
ATOM     15  C12 ZIN A   1       4.694  -3.531   0.636  0.00  0.00     0.142 C 
BRANCH  15  16
ATOM     16  C14 ZIN A   1       5.252  -3.498  -0.789  0.00  0.00     0.183 C 
BRANCH  16  17
ATOM     17  O15 ZIN A   1       4.853  -2.284  -1.428  0.00  0.00    -0.400 OA
ATOM     18  H37 ZIN A   1       5.172  -2.195  -2.337  0.00  0.00     0.209 HD
ENDBRANCH  16  17
ENDBRANCH  15  16
BRANCH  15  19
ATOM     19  C16 ZIN A   1       5.216  -4.751   1.351  0.00  0.00    -0.043 A 
ATOM     20  C21 ZIN A   1       5.967  -4.609   2.502  0.00  0.00     0.008 A 
ATOM     21  C20 ZIN A   1       6.442  -5.728   3.161  0.00  0.00     0.001 A 
ATOM     22  C19 ZIN A   1       6.172  -6.989   2.663  0.00  0.00     0.000 A 
ATOM     23  C18 ZIN A   1       5.425  -7.131   1.509  0.00  0.00     0.001 A 
ATOM     24  C17 ZIN A   1       4.947  -6.012   0.853  0.00  0.00     0.008 A 
ENDBRANCH  15  19
ENDBRANCH  13  15
ENDBRANCH   1  13
TORSDOF 6
