REMARK  14 active torsions:
REMARK  status: ('A' for Active; 'I' for Inactive)
REMARK    1  A    between atoms: C2_2  and  N5_5 
REMARK       I    between atoms: N5_5  and  C6_6 
REMARK    2  A    between atoms: C6_6  and  C8_8 
REMARK    3  A    between atoms: N20_17  and  C22_19 
REMARK    4  A    between atoms: C22_19  and  C23_20 
REMARK    5  A    between atoms: C23_20  and  O25_21 
REMARK    6  A    between atoms: C23_20  and  C26_22 
REMARK    7  A    between atoms: C26_22  and  C28_23 
REMARK    8  A    between atoms: C26_22  and  N35_30 
REMARK    9  A    between atoms: C28_23  and  C29_24 
REMARK       I    between atoms: N35_30  and  C36_31 
REMARK   10  A    between atoms: C36_31  and  C38_33 
REMARK   11  A    between atoms: C38_33  and  C40_34 
REMARK   12  A    between atoms: C38_33  and  N44_38 
REMARK   13  A    between atoms: C40_34  and  C41_35 
REMARK       I    between atoms: C41_35  and  N42_36 
REMARK       I    between atoms: N44_38  and  C45_39 
REMARK   14  A    between atoms: C45_39  and  C47_41 
ROOT
ATOM      1  C26 ZIN A   1       5.143   3.560  -2.527  0.00  0.00     0.119 C 
ENDROOT
BRANCH   1   2
ATOM      2  C23 ZIN A   1       5.284   2.086  -2.911  0.00  0.00     0.167 C 
BRANCH   2   3
ATOM      3  C22 ZIN A   1       3.923   1.396  -2.793  0.00  0.00     0.269 C 
BRANCH   3   4
ATOM      4  N20 ZIN A   1       4.094  -0.055  -2.951  0.00  0.00    -0.055 N 
ATOM      5  C8  ZIN A   1       2.808  -0.716  -2.698  0.00  0.00     0.279 C 
ATOM      6  C10 ZIN A   1       2.982  -2.234  -2.791  0.00  0.00     0.048 C 
ATOM      7  C11 ZIN A   1       3.487  -2.597  -4.189  0.00  0.00    -0.006 C 
ATOM      8  C17 ZIN A   1       4.796  -1.851  -4.460  0.00  0.00     0.016 C 
ATOM      9  C13 ZIN A   1       3.725  -4.104  -4.279  0.00  0.00     0.005 C 
ATOM     10  C16 ZIN A   1       5.850  -2.271  -3.441  0.00  0.00     0.007 C 
ATOM     11  C19 ZIN A   1       4.538  -0.347  -4.322  0.00  0.00     0.241 C 
ATOM     12  C15 ZIN A   1       6.089  -3.778  -3.545  0.00  0.00     0.000 C 
ATOM     13  C14 ZIN A   1       4.782  -4.520  -3.255  0.00  0.00     0.000 C 
ATOM     14  H21 ZIN A   1       4.788  -0.384  -2.297  0.00  0.00     0.281 HD
BRANCH   5  15
ATOM     15  C6  ZIN A   1       2.319  -0.350  -1.321  0.00  0.00     0.249 C 
ATOM     16  N5  ZIN A   1       1.001  -0.384  -1.043  0.00  0.00    -0.351 N 
ATOM     17  H66 ZIN A   1       0.367  -0.644  -1.729  0.00  0.00     0.163 HD
ATOM     18  O7  ZIN A   1       3.112  -0.025  -0.462  0.00  0.00    -0.271 OA
BRANCH  16  19
ATOM     19  C2  ZIN A   1       0.525  -0.029   0.296  0.00  0.00     0.022 C 
ATOM     20  C1  ZIN A   1       0.933   1.411   0.617  0.00  0.00     0.037 C 
ATOM     21  C3  ZIN A   1       1.144  -0.976   1.326  0.00  0.00     0.037 C 
ATOM     22  C4  ZIN A   1      -0.999  -0.149   0.345  0.00  0.00     0.037 C 
ENDBRANCH  16  19
ENDBRANCH   5  15
ENDBRANCH   3   4
ENDBRANCH   2   3
BRANCH   2  23
ATOM     23  O25 ZIN A   1       5.753   1.986  -4.257  0.00  0.00    -0.392 OA
ATOM     24  H81 ZIN A   1       5.168   2.396  -4.909  0.00  0.00     0.210 HD
ENDBRANCH   2  23
ENDBRANCH   1   2
BRANCH   1  25
ATOM     25  C28 ZIN A   1       4.241   4.267  -3.541  0.00  0.00     0.066 C 
BRANCH  25  26
ATOM     26  C29 ZIN A   1       4.003   5.687  -3.097  0.00  0.00    -0.056 A 
ATOM     27  C34 ZIN A   1       4.859   6.692  -3.506  0.00  0.00     0.007 A 
ATOM     28  C33 ZIN A   1       4.638   7.995  -3.102  0.00  0.00     0.001 A 
ATOM     29  C32 ZIN A   1       3.565   8.292  -2.282  0.00  0.00     0.000 A 
ATOM     30  C31 ZIN A   1       2.712   7.287  -1.869  0.00  0.00     0.001 A 
ATOM     31  C30 ZIN A   1       2.930   5.984  -2.277  0.00  0.00     0.007 A 
ENDBRANCH  25  26
ENDBRANCH   1  25
BRANCH   1  32
ATOM     32  N35 ZIN A   1       6.464   4.192  -2.524  0.00  0.00    -0.352 N 
ATOM     33  C36 ZIN A   1       6.687   5.285  -1.767  0.00  0.00     0.241 C 
ATOM     34  O37 ZIN A   1       5.793   5.744  -1.087  0.00  0.00    -0.271 OA
ATOM     35  H89 ZIN A   1       7.179   3.825  -3.067  0.00  0.00     0.163 HD
BRANCH  33  36
ATOM     36  C38 ZIN A   1       8.046   5.935  -1.764  0.00  0.00     0.185 C 
BRANCH  36  37
ATOM     37  C40 ZIN A   1       9.092   4.929  -1.278  0.00  0.00     0.137 C 
BRANCH  37  38
ATOM     38  C41 ZIN A   1       8.774   4.517   0.136  0.00  0.00     0.217 C 
ATOM     39  N42 ZIN A   1       9.611   3.698   0.803  0.00  0.00    -0.370 N 
ATOM     40  H92 ZIN A   1      10.418   3.374   0.374  0.00  0.00     0.159 HD
ATOM     41  H93 ZIN A   1       9.406   3.432   1.714  0.00  0.00     0.159 HD
ATOM     42  O43 ZIN A   1       7.765   4.922   0.673  0.00  0.00    -0.274 OA
ENDBRANCH  37  38
ENDBRANCH  36  37
BRANCH  36  43
ATOM     43  N44 ZIN A   1       8.031   7.094  -0.868  0.00  0.00    -0.342 N 
ATOM     44  C45 ZIN A   1       8.881   8.119  -1.077  0.00  0.00     0.271 C 
ATOM     45  O46 ZIN A   1       9.596   8.124  -2.060  0.00  0.00    -0.266 OA
ATOM     46  H94 ZIN A   1       7.409   7.124  -0.124  0.00  0.00     0.163 HD
BRANCH  44  47
ATOM     47  C47 ZIN A   1       8.944   9.239  -0.109  0.00  0.00     0.125 A 
ATOM     48  N56 ZIN A   1       8.162   9.218   0.953  0.00  0.00    -0.243 NA
ATOM     49  C55 ZIN A   1       8.188  10.201   1.852  0.00  0.00     0.068 A 
ATOM     50  C50 ZIN A   1       9.063  11.305   1.671  0.00  0.00    -0.007 A 
ATOM     51  C54 ZIN A   1       7.354  10.170   2.986  0.00  0.00     0.032 A 
ATOM     52  C49 ZIN A   1       9.898  11.339   0.539  0.00  0.00     0.016 A 
ATOM     53  C51 ZIN A   1       9.079  12.339   2.621  0.00  0.00     0.014 A 
ATOM     54  C48 ZIN A   1       9.830  10.300  -0.345  0.00  0.00     0.038 A 
ATOM     55  C52 ZIN A   1       8.257  12.272   3.704  0.00  0.00     0.001 A 
ATOM     56  C53 ZIN A   1       7.397  11.189   3.885  0.00  0.00     0.002 A 
ENDBRANCH  44  47
ENDBRANCH  36  43
ENDBRANCH  33  36
ENDBRANCH   1  32
TORSDOF 14
