REMARK  9 active torsions:
REMARK  status: ('A' for Active; 'I' for Inactive)
REMARK    1  A    between atoms: O2_2  and  C3_3 
REMARK    2  A    between atoms: C4_4  and  C5_5 
REMARK    3  A    between atoms: C5_5  and  C7_6 
REMARK    4  A    between atoms: C5_5  and  C13_12 
REMARK    5  A    between atoms: C13_12  and  O14_13 
REMARK    6  A    between atoms: C13_12  and  C15_14 
REMARK    7  A    between atoms: C13_12  and  C21_20 
REMARK    8  A    between atoms: C15_14  and  C16_15 
REMARK    9  A    between atoms: C16_15  and  N17_16 
ROOT
ATOM      1  C5  ZIN A   1      -0.255  -2.685   0.130  0.00  0.00     0.095 C 
ENDROOT
BRANCH   1   2
ATOM      2  C4  ZIN A   1       0.303  -1.831  -0.980  0.00  0.00     0.007 A 
ATOM      3  C3  ZIN A   1       0.051  -0.454  -0.999  0.00  0.00     0.171 A 
ATOM      4  N39 ZIN A   1       0.518   0.319  -1.956  0.00  0.00    -0.224 NA
ATOM      5  C38 ZIN A   1       1.264  -0.179  -2.948  0.00  0.00     0.070 A 
ATOM      6  C32 ZIN A   1       1.554  -1.565  -2.987  0.00  0.00    -0.005 A 
ATOM      7  C37 ZIN A   1       1.763   0.653  -3.965  0.00  0.00     0.034 A 
ATOM      8  C31 ZIN A   1       1.052  -2.398  -1.968  0.00  0.00     0.026 A 
ATOM      9  C33 ZIN A   1       2.332  -2.082  -4.034  0.00  0.00     0.032 A 
ATOM     10  C34 ZIN A   1       2.800  -1.245  -5.003  0.00  0.00     0.011 A 
ATOM     11 Br35 ZIN A   1       3.848  -1.942  -6.413  0.00  0.00    -0.051 Br
ATOM     12  C36 ZIN A   1       2.515   0.119  -4.967  0.00  0.00     0.021 A 
BRANCH   3  13
ATOM     13  O2  ZIN A   1      -0.696   0.095  -0.010  0.00  0.00    -0.339 OA
ATOM     14  C1  ZIN A   1      -0.928   1.504  -0.078  0.00  0.00     0.211 C 
ENDBRANCH   3  13
ENDBRANCH   1   2
BRANCH   1  15
ATOM     15  C7  ZIN A   1      -1.310  -3.606  -0.427  0.00  0.00    -0.046 A 
ATOM     16  C12 ZIN A   1      -1.009  -4.440  -1.488  0.00  0.00     0.008 A 
ATOM     17  C11 ZIN A   1      -1.976  -5.288  -1.995  0.00  0.00     0.001 A 
ATOM     18  C10 ZIN A   1      -3.245  -5.296  -1.448  0.00  0.00     0.000 A 
ATOM     19  C9  ZIN A   1      -3.547  -4.458  -0.391  0.00  0.00     0.001 A 
ATOM     20  C8  ZIN A   1      -2.579  -3.613   0.120  0.00  0.00     0.008 A 
ENDBRANCH   1  15
BRANCH   1  21
ATOM     21  C13 ZIN A   1       0.872  -3.515   0.749  0.00  0.00     0.099 C 
BRANCH  21  22
ATOM     22  O14 ZIN A   1       1.359  -4.451  -0.215  0.00  0.00    -0.384 OA
ATOM     23  H48 ZIN A   1       0.720  -5.136  -0.456  0.00  0.00     0.211 HD
ENDBRANCH  21  22
BRANCH  21  24
ATOM     24  C15 ZIN A   1       2.010  -2.588   1.181  0.00  0.00     0.071 C 
BRANCH  24  25
ATOM     25  C16 ZIN A   1       3.112  -3.412   1.849  0.00  0.00     0.237 C 
BRANCH  25  26
ATOM     26  N17 ZIN A   1       4.146  -2.511   2.377  0.00  0.00    -0.079 N 
ATOM     27  H18 ZIN A   1       3.720  -1.834   2.992  0.00  0.00     0.278 HD
ATOM     28  C19 ZIN A   1       5.142  -3.291   3.122  0.00  0.00     0.269 C 
ATOM     29  C20 ZIN A   1       4.803  -1.814   1.262  0.00  0.00     0.269 C 
ENDBRANCH  25  26
ENDBRANCH  24  25
ENDBRANCH  21  24
BRANCH  21  30
ATOM     30  C21 ZIN A   1       0.346  -4.258   1.950  0.00  0.00    -0.012 A 
ATOM     31  C30 ZIN A   1       0.379  -5.619   1.981  0.00  0.00     0.011 A 
ATOM     32  C29 ZIN A   1      -0.098  -6.323   3.085  0.00  0.00     0.002 A 
ATOM     33  C28 ZIN A   1      -0.619  -5.671   4.160  0.00  0.00     0.012 A 
ATOM     34  C27 ZIN A   1      -0.676  -4.267   4.162  0.00  0.00    -0.025 A 
ATOM     35  C22 ZIN A   1      -0.186  -3.551   3.041  0.00  0.00    -0.017 A 
ATOM     36  C26 ZIN A   1      -1.207  -3.559   5.253  0.00  0.00     0.012 A 
ATOM     37  C23 ZIN A   1      -0.242  -2.146   3.043  0.00  0.00     0.013 A 
ATOM     38  C24 ZIN A   1      -0.765  -1.495   4.117  0.00  0.00     0.001 A 
ATOM     39  C25 ZIN A   1      -1.246  -2.199   5.220  0.00  0.00     0.001 A 
ENDBRANCH  21  30
ENDBRANCH   1  21
TORSDOF 9
