REMARK  6 active torsions:
REMARK  status: ('A' for Active; 'I' for Inactive)
REMARK    1  A    between atoms: N2_2  and  C4_4 
REMARK    2  A    between atoms: N2_2  and  C13_13 
REMARK    3  A    between atoms: C4_4  and  C5_5 
REMARK    4  A    between atoms: C6_6  and  C7_7 
REMARK    5  A    between atoms: C8_8  and  C9_9 
REMARK    6  A    between atoms: C13_13  and  C14_14 
ROOT
ATOM      1  C1  ZIN A   1      -0.018   1.465   0.010  0.00  0.00     0.270 C 
ATOM      2  N2  ZIN A   1       0.002  -0.004   0.002  0.00  0.00    -0.068 N 
ATOM      3  H3  ZIN A   1      -0.945  -0.353   0.009  0.00  0.00     0.280 HD
ENDROOT
BRANCH   2   4
ATOM      4  C4  ZIN A   1       0.690  -0.478  -1.207  0.00  0.00     0.262 C 
BRANCH   4   5
ATOM      5  C5  ZIN A   1      -0.106  -0.083  -2.424  0.00  0.00     0.009 C 
ATOM      6  C6  ZIN A   1       0.470   0.616  -3.396  0.00  0.00     0.062 C 
BRANCH   6   7
ATOM      7  C7  ZIN A   1      -0.285   0.991  -4.553  0.00  0.00    -0.078 C 
ATOM      8  C8  ZIN A   1      -0.905   1.299  -5.502  0.00  0.00    -0.093 C 
BRANCH   8   9
ATOM      9  C9  ZIN A   1      -1.682   1.684  -6.691  0.00  0.00     0.013 C 
ATOM     10  C10 ZIN A   1      -0.789   2.476  -7.649  0.00  0.00     0.028 C 
ATOM     11  C11 ZIN A   1      -2.195   0.426  -7.395  0.00  0.00     0.028 C 
ATOM     12  C12 ZIN A   1      -2.869   2.550  -6.266  0.00  0.00     0.028 C 
ENDBRANCH   8   9
ENDBRANCH   6   7
ENDBRANCH   4   5
ENDBRANCH   2   4
BRANCH   2  13
ATOM     13  C13 ZIN A   1       0.713  -0.491   1.192  0.00  0.00     0.274 C 
BRANCH  13  14
ATOM     14  C14 ZIN A   1      -0.059  -0.109   2.429  0.00  0.00    -0.021 A 
ATOM     15  C23 ZIN A   1       0.318   0.972   3.165  0.00  0.00     0.010 A 
ATOM     16  C22 ZIN A   1      -0.386   1.343   4.308  0.00  0.00     0.002 A 
ATOM     17  C21 ZIN A   1      -1.467   0.629   4.728  0.00  0.00     0.012 A 
ATOM     18  C20 ZIN A   1      -1.883  -0.497   3.998  0.00  0.00    -0.025 A 
ATOM     19  C15 ZIN A   1      -1.169  -0.871   2.832  0.00  0.00    -0.018 A 
ATOM     20  C19 ZIN A   1      -2.993  -1.258   4.400  0.00  0.00     0.012 A 
ATOM     21  C16 ZIN A   1      -1.585  -1.997   2.101  0.00  0.00     0.013 A 
ATOM     22  C17 ZIN A   1      -2.665  -2.712   2.522  0.00  0.00     0.001 A 
ATOM     23  C18 ZIN A   1      -3.367  -2.343   3.668  0.00  0.00     0.001 A 
ENDBRANCH  13  14
ENDBRANCH   2  13
TORSDOF 6
