REMARK  7 active torsions:
REMARK  status: ('A' for Active; 'I' for Inactive)
REMARK    1  A    between atoms: N2_2  and  C3_3 
REMARK    2  A    between atoms: N2_2  and  C21_20 
REMARK    3  A    between atoms: C3_3  and  C4_4 
REMARK    4  A    between atoms: C4_4  and  O5_5 
REMARK    5  A    between atoms: O5_5  and  C6_6 
REMARK    6  A    between atoms: C9_9  and  C10_10 
REMARK    7  A    between atoms: C10_10  and  C11_11 
ROOT
ATOM      1  C6  <0> d   1      -3.335  -2.240   1.041  0.00  0.00     0.068 A 
ATOM      2  C7  <0> d   1      -3.976  -1.747   2.169  0.00  0.00     0.037 A 
ATOM      3  C8  <0> d   1      -5.285  -2.102   2.428  0.00  0.00     0.010 A 
ATOM      4  C9  <0> d   1      -5.957  -2.947   1.565  0.00  0.00    -0.056 A 
ATOM      5  C19 <0> d   1      -5.321  -3.439   0.440  0.00  0.00     0.010 A 
ATOM      6  C20 <0> d   1      -4.013  -3.084   0.174  0.00  0.00     0.037 A 
ENDROOT
BRANCH   1   7
ATOM      7  O5  <0> d   1      -2.046  -1.892   0.784  0.00  0.00    -0.350 OA
BRANCH   7   8
ATOM      8  C4  <0> d   1      -1.411  -1.020   1.720  0.00  0.00     0.195 C 
BRANCH   8   9
ATOM      9  C3  <0> d   1       0.024  -0.743   1.267  0.00  0.00     0.150 C 
BRANCH   9  10
ATOM     10  N2  <0> d   1       0.002  -0.004   0.002  0.00  0.00    -0.368 N 
ATOM     11  C1  <0> d   1      -0.018   1.461   0.010  0.00  0.00     0.151 C 
BRANCH  10  12
ATOM     12  C21 <0> d   1       0.000  -0.693  -1.206  0.00  0.00     0.124 A 
ATOM     13  N26 <0> d   1      -0.082  -2.014  -1.207  0.00  0.00    -0.244 NA
ATOM     14  C25 <0> d   1      -0.092  -2.705  -2.331  0.00  0.00     0.119 A 
ATOM     15  C24 <0> d   1      -0.006  -2.070  -3.554  0.00  0.00     0.019 A 
ATOM     16  C23 <0> d   1       0.087  -0.685  -3.596  0.00  0.00     0.005 A 
ATOM     17  C22 <0> d   1       0.090   0.013  -2.401  0.00  0.00     0.050 A 
ENDBRANCH  10  12
ENDBRANCH   9  10
ENDBRANCH   8   9
ENDBRANCH   7   8
ENDBRANCH   1   7
BRANCH   4  18
ATOM     18  C10 <0> d   1      -7.386  -3.333   1.850  0.00  0.00     0.064 C 
BRANCH  18  19
ATOM     19  C11 <0> d   1      -8.328  -2.325   1.188  0.00  0.00     0.155 A 
ATOM     20  C17 <0> d   1      -9.771  -2.650   1.510  0.00  0.00     0.261 A 
ATOM     21  N16 <0> d   1     -10.502  -2.933   0.440  0.00  0.00    -0.167 NA
ATOM     22  O18 <0> d   1     -10.216  -2.656   2.638  0.00  0.00    -0.270 OA
ATOM     23  C14 <0> d   1      -9.974  -2.916  -0.785  0.00  0.00     0.309 A 
ATOM     24  S13 <0> d   1      -8.263  -2.478  -0.629  0.00  0.00    -0.052 SA
ATOM     25  O15 <0> d   1     -10.561  -3.157  -1.823  0.00  0.00    -0.258 OA
ENDBRANCH  18  19
ENDBRANCH   4  18
TORSDOF 7
