REMARK  6 active torsions:
REMARK  status: ('A' for Active; 'I' for Inactive)
REMARK    1  A    between atoms: C6_5  and  O8_6 
REMARK    2  A    between atoms: O8_6  and  C9_7 
REMARK    3  A    between atoms: C9_7  and  C11_9 
REMARK    4  A    between atoms: C11_9  and  C13_10 
REMARK    5  A    between atoms: C11_9  and  C15_12 
REMARK    6  A    between atoms: C13_10  and  O14_11 
ROOT
ATOM      1  C9  ZIN A   1       3.122  -3.623   0.695  0.00  0.00     0.270 C 
ATOM      2  O10 ZIN A   1       2.503  -4.548   1.166  0.00  0.00    -0.264 OA
ENDROOT
BRANCH   1   3
ATOM      3  O8  ZIN A   1       2.469  -2.625   0.077  0.00  0.00    -0.315 OA
BRANCH   3   4
ATOM      4  C6  ZIN A   1       1.022  -2.724   0.014  0.00  0.00     0.136 C 
ATOM      5  C5  ZIN A   1       0.519  -2.026  -1.253  0.00  0.00     0.071 C 
ATOM      6  C3  ZIN A   1       0.805  -0.520  -1.138  0.00  0.00     0.257 C 
ATOM      7  N2  ZIN A   1       0.002  -0.004   0.002  0.00  0.00     0.099 N 
ATOM      8  C27 ZIN A   1       2.272  -0.336  -0.684  0.00  0.00     0.186 A 
ATOM      9  C1  ZIN A   1      -0.018   1.465   0.010  0.00  0.00     0.311 C 
ATOM     10  C22 ZIN A   1       0.715  -0.534   1.195  0.00  0.00     0.257 C 
ATOM     11  C21 ZIN A   1       0.413  -2.055   1.249  0.00  0.00     0.071 C 
ATOM     12  C24 ZIN A   1       2.219  -0.362   0.883  0.00  0.00     0.186 A 
ATOM     13  O26 ZIN A   1       2.626   0.810   0.173  0.00  0.00    -0.371 OA
ENDBRANCH   3   4
ENDBRANCH   1   3
BRANCH   1  14
ATOM     14  C11 ZIN A   1       4.625  -3.590   0.799  0.00  0.00     0.142 C 
BRANCH  14  15
ATOM     15  C13 ZIN A   1       5.233  -3.563  -0.605  0.00  0.00     0.183 C 
BRANCH  15  16
ATOM     16  O14 ZIN A   1       4.872  -2.344  -1.257  0.00  0.00    -0.400 OA
ATOM     17  H36 ZIN A   1       5.224  -2.258  -2.153  0.00  0.00     0.209 HD
ENDBRANCH  15  16
ENDBRANCH  14  15
BRANCH  14  18
ATOM     18  C15 ZIN A   1       5.104  -4.816   1.531  0.00  0.00    -0.043 A 
ATOM     19  C20 ZIN A   1       5.816  -4.684   2.709  0.00  0.00     0.008 A 
ATOM     20  C19 ZIN A   1       6.253  -5.809   3.383  0.00  0.00     0.001 A 
ATOM     21  C18 ZIN A   1       5.985  -7.067   2.874  0.00  0.00     0.000 A 
ATOM     22  C17 ZIN A   1       5.278  -7.199   1.694  0.00  0.00     0.001 A 
ATOM     23  C16 ZIN A   1       4.838  -6.074   1.022  0.00  0.00     0.008 A 
ENDBRANCH  14  18
ENDBRANCH   1  14
TORSDOF 6
