REMARK  5 active torsions:
REMARK  status: ('A' for Active; 'I' for Inactive)
REMARK    1  A    between atoms: C2_2  and  O3_3 
REMARK    2  A    between atoms: C2_2  and  P4_4 
REMARK    3  A    between atoms: C2_2  and  P8_8 
REMARK    4  A    between atoms: P4_4  and  O7_7 
REMARK    5  A    between atoms: P8_8  and  O11_11 
ROOT
ATOM      1  C1  ZIN A   1      -0.019   1.526   0.010  0.00  0.00     0.075 C 
ATOM      2  C2  ZIN A   1       0.002  -0.004   0.002  0.00  0.00     0.264 C 
ENDROOT
BRANCH   2   3
ATOM      3  O3  ZIN A   1       0.693  -0.477   1.160  0.00  0.00    -0.367 OA
ATOM      4  H15 ZIN A   1       0.745  -1.441   1.220  0.00  0.00     0.212 HD
ENDBRANCH   2   3
BRANCH   2   5
ATOM      5  P4  ZIN A   1      -1.708  -0.635   0.015  0.00  0.00     0.296 P 
ATOM      6  O5  ZIN A   1      -2.417  -0.229  -1.296  0.00  0.00    -0.644 OA
ATOM      7  O6  ZIN A   1      -1.688  -2.175   0.134  0.00  0.00    -0.644 OA
BRANCH   5   8
ATOM      8  O7  ZIN A   1      -2.501  -0.011   1.269  0.00  0.00    -0.320 OA
ATOM      9  H16 ZIN A   1      -3.420  -0.304   1.339  0.00  0.00     0.221 HD
ENDBRANCH   5   8
ENDBRANCH   2   5
BRANCH   2  10
ATOM     10  P8  ZIN A   1       0.855  -0.592  -1.498  0.00  0.00     0.296 P 
ATOM     11  O9  ZIN A   1       0.108  -0.080  -2.749  0.00  0.00    -0.644 OA
ATOM     12  O10 ZIN A   1       0.876  -2.137  -1.506  0.00  0.00    -0.644 OA
BRANCH  10  13
ATOM     13  O11 ZIN A   1       2.366  -0.035  -1.509  0.00  0.00    -0.320 OA
ATOM     14  H17 ZIN A   1       2.880  -0.309  -2.281  0.00  0.00     0.221 HD
ENDBRANCH  10  13
ENDBRANCH   2  10
TORSDOF 5
