REMARK  5 active torsions:
REMARK  status: ('A' for Active; 'I' for Inactive)
REMARK    1  A    between atoms: C2_2  and  C5_5 
REMARK    2  A    between atoms: C7_7  and  C8_8 
REMARK    3  A    between atoms: C12_12  and  N13_13 
REMARK       I    between atoms: N13_13  and  C14_14 
REMARK    4  A    between atoms: C14_14  and  C16_16 
REMARK    5  A    between atoms: C28_28  and  O29_29 
ROOT
ATOM      1  C5  <0> d   1       0.750  -0.416  -1.233  0.00  0.00    -0.017 A 
ATOM      2  C6  <0> d   1       1.210   0.475  -2.183  0.00  0.00     0.021 A 
ATOM      3  C7  <0> d   1       1.932   0.019  -3.270  0.00  0.00    -0.023 A 
ATOM      4  C12 <0> d   1       2.197  -1.337  -3.408  0.00  0.00     0.044 A 
ATOM      5  C27 <0> d   1       1.735  -2.234  -2.454  0.00  0.00     0.067 A 
ATOM      6  C28 <0> d   1       1.016  -1.772  -1.364  0.00  0.00     0.074 A 
ENDROOT
BRANCH   4   7
ATOM      7  N13 <0> d   1       2.928  -1.799  -4.508  0.00  0.00    -0.322 N 
ATOM      8  C14 <0> d   1       3.288  -3.096  -4.581  0.00  0.00     0.261 C 
ATOM      9  O15 <0> d   1       2.883  -3.887  -3.750  0.00  0.00    -0.267 OA
ATOM     10  H49 <0> d   1       3.176  -1.186  -5.217  0.00  0.00     0.169 HD
BRANCH   8  11
ATOM     11  C16 <0> d   1       4.171  -3.554  -5.665  0.00  0.00     0.100 A 
ATOM     12  C25 <0> d   1       4.768  -2.589  -6.602  0.00  0.00     0.201 A 
ATOM     13  C24 <0> d   1       5.645  -3.129  -7.657  0.00  0.00     0.044 A 
ATOM     14  O26 <0> d   1       4.550  -1.394  -6.507  0.00  0.00    -0.286 OA
ATOM     15  C19 <0> d   1       5.851  -4.518  -7.716  0.00  0.00     0.070 A 
ATOM     16  C23 <0> d   1       6.257  -2.289  -8.587  0.00  0.00     0.018 A 
ATOM     17  N18 <0> d   1       5.247  -5.350  -6.798  0.00  0.00    -0.259 NA
ATOM     18  C20 <0> d   1       6.673  -5.041  -8.711  0.00  0.00     0.032 A 
ATOM     19  C17 <0> d   1       4.448  -4.896  -5.823  0.00  0.00     0.138 A 
ATOM     20  C21 <0> d   1       7.271  -4.199  -9.623  0.00  0.00     0.002 A 
ATOM     21  C22 <0> d   1       7.066  -2.828  -9.563  0.00  0.00     0.001 A 
ENDBRANCH   8  11
ENDBRANCH   4   7
BRANCH   3  22
ATOM     22  C8  <0> d   1       2.432   0.994  -4.304  0.00  0.00    -0.022 C 
ATOM     23  C9  <0> d   1       2.031   2.415  -3.902  0.00  0.00     0.019 C 
ATOM     24  C10 <0> d   1       3.956   0.901  -4.398  0.00  0.00     0.019 C 
ATOM     25  C11 <0> d   1       1.816   0.655  -5.663  0.00  0.00     0.019 C 
ENDBRANCH   3  22
BRANCH   6  26
ATOM     26  O29 <0> d   1       0.563  -2.647  -0.428  0.00  0.00    -0.360 OA
ATOM     27  H56 <0> d   1       1.183  -2.804   0.297  0.00  0.00     0.217 HD
ENDBRANCH   6  26
BRANCH   1  28
ATOM     28  C2  <0> d   1      -0.037   0.086  -0.050  0.00  0.00    -0.021 C 
ATOM     29  C1  <0> d   1      -0.189   1.605  -0.145  0.00  0.00     0.019 C 
ATOM     30  C3  <0> d   1       0.700  -0.273   1.242  0.00  0.00     0.019 C 
ATOM     31  C4  <0> d   1      -1.422  -0.566  -0.045  0.00  0.00     0.019 C 
ENDBRANCH   1  28
TORSDOF 5
