REMARK  8 active torsions:
REMARK  status: ('A' for Active; 'I' for Inactive)
REMARK    1  A    between atoms: C4_4  and  N5_5 
REMARK    2  A    between atoms: N5_5  and  C6_6 
REMARK    3  A    between atoms: C9_9  and  C10_10 
REMARK       I    between atoms: C10_10  and  N12_12 
REMARK    4  A    between atoms: N12_12  and  C13_13 
REMARK    5  A    between atoms: C23_23  and  N24_24 
REMARK    6  A    between atoms: N27_27  and  C28_28 
REMARK    7  A    between atoms: C28_28  and  C29_29 
REMARK    8  A    between atoms: C29_29  and  O30_30 
ROOT
ATOM      1  N5  RES d   1       0.135  -2.973  -2.481  0.00  0.00    -0.320 N 
ATOM      2  H37 RES d   1      -0.286  -3.847  -2.469  0.00  0.00     0.169 HD
ENDROOT
BRANCH   1   3
ATOM      3  C4  RES d   1       0.615  -2.417  -1.302  0.00  0.00     0.135 A 
ATOM      4  N3  RES d   1       1.289  -1.269  -1.323  0.00  0.00    -0.216 NA
ATOM      5  C2  RES d   1       1.749  -0.735  -0.210  0.00  0.00     0.126 A 
ATOM      6  C1  RES d   1       2.505   0.566  -0.281  0.00  0.00     0.093 C 
ATOM      7  N33 RES d   1       1.571  -1.308   0.963  0.00  0.00    -0.216 NA
ATOM      8  C23 RES d   1       0.903  -2.455   1.069  0.00  0.00     0.131 A 
ATOM      9  C22 RES d   1       0.401  -3.053  -0.084  0.00  0.00     0.100 A 
BRANCH   8  10
ATOM     10  N24 RES d   1       0.716  -3.049   2.307  0.00  0.00    -0.362 N 
ATOM     11  C32 RES d   1       0.172  -4.411   2.417  0.00  0.00     0.154 C 
ATOM     12  C31 RES d   1      -0.996  -4.396   3.402  0.00  0.00     0.292 C 
ATOM     13  N27 RES d   1      -0.558  -3.797   4.670  0.00  0.00     0.093 N 
ATOM     14  C26 RES d   1      -0.158  -2.395   4.487  0.00  0.00     0.292 C 
ATOM     15  C25 RES d   1       1.050  -2.330   3.547  0.00  0.00     0.154 C 
BRANCH  13  16
ATOM     16  C28 RES d   1      -1.601  -3.917   5.697  0.00  0.00     0.298 C 
BRANCH  16  17
ATOM     17  C29 RES d   1      -1.814  -5.394   6.038  0.00  0.00     0.194 C 
BRANCH  17  18
ATOM     18  O30 RES d   1      -0.629  -5.919   6.639  0.00  0.00    -0.399 OA
ATOM     19  H55 RES d   1      -0.692  -6.853   6.882  0.00  0.00     0.209 HD
ENDBRANCH  17  18
ENDBRANCH  16  17
ENDBRANCH  13  16
ENDBRANCH   8  10
ENDBRANCH   1   3
BRANCH   1  20
ATOM     20  C6  RES d   1       0.255  -2.281  -3.670  0.00  0.00     0.172 A 
ATOM     21  S21 RES d   1      -0.396  -2.793  -5.165  0.00  0.00    -0.045 SA
ATOM     22  C9  RES d   1       0.251  -1.356  -5.953  0.00  0.00     0.094 A 
ATOM     23  C8  RES d   1       0.909  -0.622  -5.006  0.00  0.00     0.144 A 
ATOM     24  N7  RES d   1       0.886  -1.151  -3.810  0.00  0.00    -0.235 NA
BRANCH  22  25
ATOM     25  C10 RES d   1       0.113  -1.013  -7.368  0.00  0.00     0.264 C 
ATOM     26  O11 RES d   1       0.611   0.011  -7.798  0.00  0.00    -0.267 OA
ATOM     27  N12 RES d   1      -0.567  -1.831  -8.196  0.00  0.00    -0.320 N 
ATOM     28  H39 RES d   1      -1.032  -2.604  -7.841  0.00  0.00     0.169 HD
BRANCH  27  29
ATOM     29  C13 RES d   1      -0.601  -1.565  -9.569  0.00  0.00     0.062 A 
ATOM     30  C19 RES d   1      -0.980  -0.308 -10.026  0.00  0.00     0.061 A 
ATOM     31  C18 RES d   1      -1.007  -0.047 -11.383  0.00  0.00     0.026 A 
ATOM     32 Cl20 RES d   1      -1.406   0.937  -8.893  0.00  0.00    -0.082 Cl
ATOM     33  C17 RES d   1      -0.669  -1.038 -12.286  0.00  0.00     0.002 A 
ATOM     34  C16 RES d   1      -0.297  -2.291 -11.835  0.00  0.00     0.009 A 
ATOM     35  C14 RES d   1      -0.262  -2.557 -10.479  0.00  0.00    -0.034 A 
ATOM     36  C15 RES d   1       0.144  -3.923  -9.989  0.00  0.00     0.050 C 
ENDBRANCH  27  29
ENDBRANCH  22  25
ENDBRANCH   1  20
TORSDOF 8
