REMARK  4 active torsions:
REMARK  status: ('A' for Active; 'I' for Inactive)
REMARK    1  A    between atoms: C4_4  and  N5_5 
REMARK    2  A    between atoms: N5_5  and  S6_6 
REMARK    3  A    between atoms: S6_6  and  C9_9 
REMARK    4  A    between atoms: C12_12  and  N13_13 
ROOT
ATOM      1  S6  ZIN A   1      -0.353  -4.767  -0.023  0.00  0.00     0.285 S 
ATOM      2  O7  ZIN A   1       0.314  -4.831  -1.276  0.00  0.00    -0.198 OA
ATOM      3  O8  ZIN A   1       0.325  -4.845   1.224  0.00  0.00    -0.198 OA
ENDROOT
BRANCH   1   4
ATOM      4  N5  ZIN A   1      -1.191  -3.339  -0.011  0.00  0.00    -0.138 NA
BRANCH   4   5
ATOM      5  C4  ZIN A   1      -0.504  -2.130  -0.007  0.00  0.00     0.191 A 
ATOM      6  C3  ZIN A   1      -1.071  -0.827   0.002  0.00  0.00     0.089 A 
ATOM      7  C2  ZIN A   1       0.002  -0.004   0.002  0.00  0.00     0.079 A 
ATOM      8  C1  ZIN A   1      -0.018   1.503   0.010  0.00  0.00     0.079 C 
ATOM      9  O17 ZIN A   1       1.088  -0.790  -0.013  0.00  0.00    -0.216 OA
ATOM     10  N16 ZIN A   1       0.793  -1.963  -0.012  0.00  0.00    -0.107 NA
ENDBRANCH   4   5
ENDBRANCH   1   4
BRANCH   1  11
ATOM     11  C9  ZIN A   1      -1.540  -6.069  -0.025  0.00  0.00     0.081 A 
ATOM     12  C15 ZIN A   1      -2.010  -6.572  -1.224  0.00  0.00     0.027 A 
ATOM     13  C14 ZIN A   1      -2.937  -7.596  -1.230  0.00  0.00     0.030 A 
ATOM     14  C12 ZIN A   1      -3.405  -8.113  -0.028  0.00  0.00     0.025 A 
ATOM     15  C11 ZIN A   1      -2.935  -7.602   1.175  0.00  0.00     0.030 A 
ATOM     16  C10 ZIN A   1      -2.005  -6.581   1.173  0.00  0.00     0.027 A 
BRANCH  14  17
ATOM     17  N13 ZIN A   1      -4.347  -9.145  -0.030  0.00  0.00    -0.399 N 
ATOM     18  H24 ZIN A   1      -4.673  -9.505   0.809  0.00  0.00     0.156 HD
ATOM     19  H25 ZIN A   1      -4.674  -9.501  -0.871  0.00  0.00     0.156 HD
ENDBRANCH  14  17
ENDBRANCH   1  11
TORSDOF 4
