REMARK  5 active torsions:
REMARK  status: ('A' for Active; 'I' for Inactive)
REMARK    1  A    between atoms: C2_2  and  C3_3 
REMARK    2  A    between atoms: C3_3  and  C4_4 
REMARK    3  A    between atoms: C4_4  and  N5_5 
REMARK    4  A    between atoms: C11_11  and  C13_12 
REMARK       I    between atoms: C13_12  and  N15_14 
REMARK    5  A    between atoms: N15_14  and  C16_15 
ROOT
ATOM      1  C13 ZIN A   1       0.625  -5.154  -2.873  0.00  0.00     0.253 C 
ATOM      2  O14 ZIN A   1       0.068  -4.799  -3.890  0.00  0.00    -0.271 OA
ATOM      3  N15 ZIN A   1       0.012  -6.010  -2.032  0.00  0.00    -0.324 N 
ATOM      4  H41 ZIN A   1       0.436  -6.254  -1.194  0.00  0.00     0.169 HD
ENDROOT
BRANCH   1   5
ATOM      5  C11 ZIN A   1       2.003  -4.637  -2.550  0.00  0.00     0.279 C 
ATOM      6  N5  ZIN A   1       2.475  -3.781  -3.645  0.00  0.00    -0.058 N 
ATOM      7  H6  ZIN A   1       3.418  -3.477  -3.450  0.00  0.00     0.280 HD
ATOM      8  C7  ZIN A   1       2.456  -4.532  -4.906  0.00  0.00     0.236 C 
ATOM      9  C8  ZIN A   1       3.430  -5.708  -4.818  0.00  0.00     0.028 C 
ATOM     10  C9  ZIN A   1       3.009  -6.628  -3.668  0.00  0.00     0.004 C 
ATOM     11  C10 ZIN A   1       2.961  -5.817  -2.370  0.00  0.00     0.043 C 
BRANCH   6  12
ATOM     12  C4  ZIN A   1       1.598  -2.608  -3.761  0.00  0.00     0.236 C 
BRANCH  12  13
ATOM     13  C3  ZIN A   1       2.161  -1.652  -4.814  0.00  0.00     0.027 C 
BRANCH  13  14
ATOM     14  C2  ZIN A   1       1.247  -0.431  -4.935  0.00  0.00    -0.003 C 
ATOM     15  C1  ZIN A   1       1.810   0.525  -5.989  0.00  0.00     0.005 C 
ENDBRANCH  13  14
ENDBRANCH  12  13
ENDBRANCH   6  12
ENDBRANCH   1   5
BRANCH   3  16
ATOM     16  C16 ZIN A   1      -1.236  -6.547  -2.367  0.00  0.00     0.046 A 
ATOM     17  C22 ZIN A   1      -1.361  -7.904  -2.632  0.00  0.00    -0.035 A 
ATOM     18  C21 ZIN A   1      -2.596  -8.432  -2.955  0.00  0.00     0.009 A 
ATOM     19  C23 ZIN A   1      -0.154  -8.803  -2.552  0.00  0.00     0.050 C 
ATOM     20  C20 ZIN A   1      -3.704  -7.608  -3.029  0.00  0.00     0.001 A 
ATOM     21  C19 ZIN A   1      -3.581  -6.254  -2.772  0.00  0.00     0.009 A 
ATOM     22  C17 ZIN A   1      -2.351  -5.722  -2.441  0.00  0.00    -0.035 A 
ATOM     23  C18 ZIN A   1      -2.218  -4.247  -2.161  0.00  0.00     0.050 C 
ENDBRANCH   3  16
TORSDOF 5
