REMARK  3 active torsions:
REMARK  status: ('A' for Active; 'I' for Inactive)
REMARK    1  A    between atoms: N1_1  and  C2_2 
REMARK    2  A    between atoms: C6_6  and  N7_7 
REMARK    3  A    between atoms: N7_7  and  C8_8 
ROOT
ATOM      1  C2  ZIN A   1      -0.010  -0.004  -0.031  0.00  0.00     0.029 A 
ATOM      2  C3  ZIN A   1      -0.672  -0.711  -1.026  0.00  0.00     0.055 A 
ATOM      3  C4  ZIN A   1      -0.649  -2.093  -1.024  0.00  0.00     0.065 A 
ATOM      4 Cl5  ZIN A   1      -1.476  -2.977  -2.268  0.00  0.00    -0.082 Cl
ATOM      5  C6  ZIN A   1       0.035  -2.775  -0.025  0.00  0.00     0.092 A 
ATOM      6  C14 ZIN A   1       0.698  -2.067   0.970  0.00  0.00     0.065 A 
ATOM      7 Cl15 ZIN A   1       1.553  -2.919   2.217  0.00  0.00    -0.082 Cl
ATOM      8  C16 ZIN A   1       0.679  -0.685   0.964  0.00  0.00     0.055 A 
ENDROOT
BRANCH   5   9
ATOM      9  N7  ZIN A   1       0.059  -4.178  -0.023  0.00  0.00    -0.189 N 
ATOM     10  H20 ZIN A   1      -0.720  -4.675   0.273  0.00  0.00     0.184 HD
BRANCH   9  11
ATOM     11  C8  ZIN A   1       1.180  -4.844  -0.438  0.00  0.00     0.674 A 
ATOM     12  N13 ZIN A   1       2.307  -4.224  -0.750  0.00  0.00    -0.225 N 
ATOM     13  C12 ZIN A   1       3.313  -5.219  -1.150  0.00  0.00     0.158 A 
ATOM     14  H25 ZIN A   1       2.448  -3.265  -0.714  0.00  0.00     0.177 HD
ATOM     15  C11 ZIN A   1       2.562  -6.560  -1.026  0.00  0.00     0.158 A 
ATOM     16  N9  ZIN A   1       1.223  -6.161  -0.565  0.00  0.00    -0.225 N 
ATOM     17  H10 ZIN A   1       0.488  -6.767  -0.383  0.00  0.00     0.177 HD
ENDBRANCH   9  11
ENDBRANCH   5   9
BRANCH   1  18
ATOM     18  N1  ZIN A   1      -0.032   1.395  -0.034  0.00  0.00    -0.399 N 
ATOM     19  H17 ZIN A   1       0.434   1.889   0.659  0.00  0.00     0.156 HD
ATOM     20  H18 ZIN A   1      -0.510   1.871  -0.731  0.00  0.00     0.156 HD
ENDBRANCH   1  18
TORSDOF 3
