REMARK  3 active torsions:
REMARK  status: ('A' for Active; 'I' for Inactive)
REMARK    1  A    between atoms: N4_4  and  N5_5 
REMARK    2  A    between atoms: C6_6  and  C7_7 
REMARK    3  A    between atoms: C10_10  and  N11_11 
ROOT
ATOM      1  N5  ZIN A   1      -1.319   4.576   0.055  0.00  0.00    -0.178 NA
ATOM      2  C6  ZIN A   1      -0.663   5.739   0.146  0.00  0.00     0.176 C 
ENDROOT
BRANCH   1   3
ATOM      3  N4  ZIN A   1      -0.666   3.463   0.073  0.00  0.00    -0.211 N 
ATOM      4  C3  ZIN A   1      -0.501   2.521  -1.047  0.00  0.00     0.259 A 
ATOM      5  C2  ZIN A   1       0.346   1.411  -0.456  0.00  0.00     0.245 A 
ATOM      6  O1  ZIN A   1       0.735   0.409  -1.018  0.00  0.00    -0.271 OA
ATOM      7  N17 ZIN A   1       0.570   1.766   0.824  0.00  0.00    -0.276 N 
ATOM      8  C15 ZIN A   1      -0.004   2.938   1.120  0.00  0.00     0.345 A 
ATOM      9  H23 ZIN A   1       1.089   1.239   1.453  0.00  0.00     0.173 HD
ATOM     10  O16 ZIN A   1       0.062   3.465   2.211  0.00  0.00    -0.245 OA
ENDBRANCH   1   3
BRANCH   2  11
ATOM     11  C7  ZIN A   1       0.717   5.756   0.125  0.00  0.00     0.097 A 
ATOM     12  O14 ZIN A   1       1.535   4.698  -0.082  0.00  0.00    -0.287 OA
ATOM     13  C10 ZIN A   1       2.807   5.102  -0.033  0.00  0.00     0.215 A 
ATOM     14  C9  ZIN A   1       2.866   6.474   0.223  0.00  0.00     0.065 A 
ATOM     15  C8  ZIN A   1       1.587   6.932   0.331  0.00  0.00     0.043 A 
BRANCH  13  16
ATOM     16  N11 ZIN A   1       3.989   4.219  -0.219  0.00  0.00    -0.090 N 
ATOM     17  O12 ZIN A   1       5.204   4.721  -0.145  0.00  0.00    -0.530 OA
ATOM     18  O13 ZIN A   1       3.820   2.934  -0.457  0.00  0.00    -0.530 OA
ENDBRANCH  13  16
ENDBRANCH   2  11
TORSDOF 3
