REMARK  23 active torsions:
REMARK  status: ('A' for Active; 'I' for Inactive)
REMARK    1  A    between atoms: C2_2  and  C4_4 
REMARK    2  A    between atoms: C4_4  and  N5_5 
REMARK    3  A    between atoms: N5_5  and  C6_6 
REMARK    4  A    between atoms: N5_5  and  C50_49 
REMARK    5  A    between atoms: C6_6  and  C7_7 
REMARK    6  A    between atoms: C7_7  and  N8_8 
REMARK    7  A    between atoms: N8_8  and  C10_10 
REMARK    8  A    between atoms: N8_8  and  C14_14 
REMARK    9  A    between atoms: C10_10  and  C11_11 
REMARK   10  A    between atoms: C14_14  and  C15_15 
REMARK   11  A    between atoms: C15_15  and  C17_16 
REMARK   12  A    between atoms: C15_15  and  N41_40 
REMARK   13  A    between atoms: C17_16  and  O18_17 
REMARK   14  A    between atoms: O18_17  and  P19_18 
REMARK   15  A    between atoms: P19_18  and  O22_21 
REMARK   16  A    between atoms: O22_21  and  C23_22 
REMARK   17  A    between atoms: C26_25  and  C27_26 
REMARK   18  A    between atoms: C26_25  and  C33_32 
REMARK   19  A    between atoms: N41_40  and  C42_41 
REMARK   20  A    between atoms: N41_40  and  C46_45 
REMARK   21  A    between atoms: C42_41  and  C43_42 
REMARK   22  A    between atoms: C46_45  and  C47_46 
REMARK   23  A    between atoms: C50_49  and  C51_50 
ROOT
ATOM      1  C15 ZIN A   1      -5.414   5.414   2.958  0.00  0.00     0.274 C 
ENDROOT
BRANCH   1   2
ATOM      2  C14 ZIN A   1      -3.947   5.667   2.608  0.00  0.00     0.273 C 
BRANCH   2   3
ATOM      3  N8  ZIN A   1      -3.808   5.807   1.152  0.00  0.00    -0.058 N 
ATOM      4  H9  ZIN A   1      -4.235   5.015   0.696  0.00  0.00     0.280 HD
BRANCH   3   5
ATOM      5  C7  ZIN A   1      -2.383   5.865   0.799  0.00  0.00     0.265 C 
BRANCH   5   6
ATOM      6  C6  ZIN A   1      -1.711   6.999   1.576  0.00  0.00     0.301 C 
BRANCH   6   7
ATOM      7  N5  ZIN A   1      -0.270   7.001   1.292  0.00  0.00     0.110 N 
BRANCH   7   8
ATOM      8  C4  ZIN A   1       0.372   5.789   1.817  0.00  0.00     0.385 C 
BRANCH   8   9
ATOM      9  C2  ZIN A   1       0.169   5.720   3.309  0.00  0.00     0.202 C 
ATOM     10  O1  ZIN A   1      -0.369   6.644   3.895  0.00  0.00    -0.647 OA
ATOM     11  O3  ZIN A   1       0.538   4.738   3.930  0.00  0.00    -0.647 OA
ENDBRANCH   8   9
ENDBRANCH   7   8
BRANCH   7  12
ATOM     12  C50 ZIN A   1       0.370   8.211   1.826  0.00  0.00     0.385 C 
BRANCH  12  13
ATOM     13  C51 ZIN A   1       1.678   8.443   1.114  0.00  0.00     0.202 C 
ATOM     14  O52 ZIN A   1       2.073   7.639   0.286  0.00  0.00    -0.647 OA
ATOM     15  O53 ZIN A   1       2.341   9.435   1.365  0.00  0.00    -0.647 OA
ENDBRANCH  12  13
ENDBRANCH   7  12
ENDBRANCH   6   7
ENDBRANCH   5   6
ENDBRANCH   3   5
BRANCH   3  16
ATOM     16  C10 ZIN A   1      -4.472   7.042   0.713  0.00  0.00     0.347 C 
BRANCH  16  17
ATOM     17  C11 ZIN A   1      -4.479   7.100  -0.793  0.00  0.00     0.199 C 
ATOM     18  O12 ZIN A   1      -4.086   6.146  -1.442  0.00  0.00    -0.647 OA
ATOM     19  O13 ZIN A   1      -4.878   8.102  -1.362  0.00  0.00    -0.647 OA
ENDBRANCH  16  17
ENDBRANCH   3  16
ENDBRANCH   2   3
ENDBRANCH   1   2
BRANCH   1  20
ATOM     20  C17 ZIN A   1      -5.565   5.305   4.477  0.00  0.00     0.219 C 
BRANCH  20  21
ATOM     21  O18 ZIN A   1      -6.935   5.064   4.804  0.00  0.00    -0.288 OA
BRANCH  21  22
ATOM     22  P19 ZIN A   1      -7.441   4.781   6.305  0.00  0.00     0.408 P 
ATOM     23  O20 ZIN A   1      -6.986   5.934   7.228  0.00  0.00    -0.624 OA
ATOM     24  O21 ZIN A   1      -6.841   3.450   6.809  0.00  0.00    -0.624 OA
BRANCH  22  25
ATOM     25  O22 ZIN A   1      -9.049   4.685   6.321  0.00  0.00    -0.284 OA
BRANCH  25  26
ATOM     26  C23 ZIN A   1      -9.808   4.544   7.523  0.00  0.00     0.134 C 
ATOM     27  C40 ZIN A   1     -10.615   3.245   7.466  0.00  0.00     0.034 C 
ATOM     28  C39 ZIN A   1     -11.429   3.094   8.753  0.00  0.00     0.022 C 
ATOM     29  C26 ZIN A   1     -12.383   4.282   8.896  0.00  0.00     0.014 C 
ATOM     30  C25 ZIN A   1     -11.576   5.581   8.952  0.00  0.00     0.022 C 
ATOM     31  C24 ZIN A   1     -10.762   5.731   7.665  0.00  0.00     0.034 C 
BRANCH  29  32
ATOM     32  C27 ZIN A   1     -13.184   4.133  10.163  0.00  0.00    -0.045 A 
ATOM     33  C32 ZIN A   1     -13.919   2.984  10.386  0.00  0.00     0.008 A 
ATOM     34  C31 ZIN A   1     -14.651   2.845  11.550  0.00  0.00     0.001 A 
ATOM     35  C30 ZIN A   1     -14.655   3.861  12.489  0.00  0.00     0.000 A 
ATOM     36  C29 ZIN A   1     -13.925   5.013  12.264  0.00  0.00     0.001 A 
ATOM     37  C28 ZIN A   1     -13.189   5.149  11.101  0.00  0.00     0.008 A 
ENDBRANCH  29  32
BRANCH  29  38
ATOM     38  C33 ZIN A   1     -13.316   4.321   7.713  0.00  0.00    -0.045 A 
ATOM     39  C38 ZIN A   1     -14.115   5.429   7.499  0.00  0.00     0.008 A 
ATOM     40  C37 ZIN A   1     -14.968   5.467   6.412  0.00  0.00     0.001 A 
ATOM     41  C36 ZIN A   1     -15.029   4.393   5.544  0.00  0.00     0.000 A 
ATOM     42  C35 ZIN A   1     -14.234   3.283   5.760  0.00  0.00     0.001 A 
ATOM     43  C34 ZIN A   1     -13.378   3.247   6.845  0.00  0.00     0.008 A 
ENDBRANCH  29  38
ENDBRANCH  25  26
ENDBRANCH  22  25
ENDBRANCH  21  22
ENDBRANCH  20  21
ENDBRANCH   1  20
BRANCH   1  44
ATOM     44  N41 ZIN A   1      -5.858   4.162   2.331  0.00  0.00     0.117 N 
BRANCH  44  45
ATOM     45  C42 ZIN A   1      -5.304   2.996   3.033  0.00  0.00     0.386 C 
BRANCH  45  46
ATOM     46  C43 ZIN A   1      -3.934   2.686   2.489  0.00  0.00     0.202 C 
ATOM     47  O44 ZIN A   1      -3.532   3.257   1.489  0.00  0.00    -0.647 OA
ATOM     48  O45 ZIN A   1      -3.227   1.865   3.047  0.00  0.00    -0.647 OA
ENDBRANCH  45  46
ENDBRANCH  44  45
BRANCH  44  49
ATOM     49  C46 ZIN A   1      -7.325   4.093   2.273  0.00  0.00     0.386 C 
BRANCH  49  50
ATOM     50  C47 ZIN A   1      -7.830   5.034   1.210  0.00  0.00     0.202 C 
ATOM     51  O48 ZIN A   1      -7.040   5.613   0.483  0.00  0.00    -0.647 OA
ATOM     52  O49 ZIN A   1      -9.028   5.217   1.077  0.00  0.00    -0.647 OA
ENDBRANCH  49  50
ENDBRANCH  44  49
ENDBRANCH   1  44
TORSDOF 23
