REMARK  1 active torsions:
REMARK  status: ('A' for Active; 'I' for Inactive)
REMARK    1  A    between atoms: C14_14  and  N15_15 
ROOT
ATOM      1  C1  ZIN A   1      -0.091   1.526  -0.108  0.00  0.00     0.056 C 
ATOM      2  C2  ZIN A   1      -0.048   0.020  -0.082  0.00  0.00    -0.018 A 
ATOM      3  C3  ZIN A   1      -1.116  -0.763  -0.058  0.00  0.00     0.032 A 
ATOM      4  C4  ZIN A   1      -0.798  -2.175  -0.030  0.00  0.00     0.044 A 
ATOM      5  C5  ZIN A   1       0.562  -2.404  -0.077  0.00  0.00     0.089 A 
ATOM      6  N6  ZIN A   1       1.123  -3.686  -0.133  0.00  0.00    -0.348 N 
ATOM      7  C7  ZIN A   1       0.692  -4.530  -1.176  0.00  0.00     0.062 A 
ATOM      8  C8  ZIN A   1       1.634  -5.044  -2.049  0.00  0.00     0.032 A 
ATOM      9  C9  ZIN A   1       1.242  -5.855  -3.103  0.00  0.00     0.002 A 
ATOM     10  C10 ZIN A   1      -0.095  -6.151  -3.284  0.00  0.00     0.002 A 
ATOM     11  C11 ZIN A   1      -1.043  -5.653  -2.413  0.00  0.00     0.034 A 
ATOM     12  C12 ZIN A   1      -0.663  -4.843  -1.336  0.00  0.00     0.086 A 
ATOM     13  N13 ZIN A   1      -1.632  -4.431  -0.473  0.00  0.00    -0.228 NA
ATOM     14  C14 ZIN A   1      -1.779  -3.276   0.084  0.00  0.00     0.139 C 
ATOM     15  S22 ZIN A   1       1.423  -0.935  -0.086  0.00  0.00    -0.076 SA
ATOM     16  H27 ZIN A   1       1.780  -3.980   0.517  0.00  0.00     0.166 HD
ENDROOT
BRANCH  14  17
ATOM     17  N15 ZIN A   1      -2.916  -3.055   0.828  0.00  0.00    -0.362 N 
ATOM     18  C21 ZIN A   1      -3.081  -1.818   1.607  0.00  0.00     0.154 C 
ATOM     19  C20 ZIN A   1      -3.464  -2.187   3.039  0.00  0.00     0.291 C 
ATOM     20  N18 ZIN A   1      -4.638  -3.070   3.019  0.00  0.00     0.087 N 
ATOM     21  C17 ZIN A   1      -4.340  -4.336   2.336  0.00  0.00     0.291 C 
ATOM     22  C19 ZIN A   1      -5.139  -3.310   4.379  0.00  0.00     0.310 C 
ATOM     23  C16 ZIN A   1      -3.996  -4.053   0.870  0.00  0.00     0.154 C 
ENDBRANCH  14  17
TORSDOF 1
