REMARK  7 active torsions:
REMARK  status: ('A' for Active; 'I' for Inactive)
REMARK    1  A    between atoms: N1_1  and  C5_5 
REMARK    2  A    between atoms: C5_5  and  C7_6 
REMARK    3  A    between atoms: C5_5  and  C26_25 
REMARK    4  A    between atoms: C7_6  and  C8_7 
REMARK    5  A    between atoms: C12_11  and  O13_12 
REMARK    6  A    between atoms: O13_12  and  C14_13 
REMARK    7  A    between atoms: C18_17  and  O19_18 
ROOT
ATOM      1  C8  ZIN A   1      -0.045  -0.532   2.512  0.00  0.00    -0.053 A 
ATOM      2  C9  ZIN A   1      -1.098  -1.139   3.170  0.00  0.00     0.028 A 
ATOM      3  C10 ZIN A   1      -1.179  -2.518   3.223  0.00  0.00     0.042 A 
ATOM      4  I11 ZIN A   1      -2.776  -3.437   4.220  0.00  0.00    -0.042 I 
ATOM      5  C12 ZIN A   1      -0.202  -3.293   2.615  0.00  0.00     0.109 A 
ATOM      6  C23 ZIN A   1       0.855  -2.680   1.955  0.00  0.00     0.042 A 
ATOM      7  I24 ZIN A   1       2.333  -3.846   1.034  0.00  0.00    -0.042 I 
ATOM      8  C25 ZIN A   1       0.928  -1.302   1.901  0.00  0.00     0.028 A 
ENDROOT
BRANCH   5   9
ATOM      9  O13 ZIN A   1      -0.279  -4.649   2.665  0.00  0.00    -0.308 OA
BRANCH   9  10
ATOM     10  C14 ZIN A   1      -0.950  -5.287   1.670  0.00  0.00     0.078 A 
ATOM     11  C22 ZIN A   1      -1.054  -6.670   1.680  0.00  0.00     0.058 A 
ATOM     12  C20 ZIN A   1      -1.742  -7.319   0.672  0.00  0.00     0.043 A 
ATOM     13  C18 ZIN A   1      -2.318  -6.587  -0.356  0.00  0.00     0.098 A 
ATOM     14  I21 ZIN A   1      -1.906  -9.407   0.692  0.00  0.00    -0.042 I 
ATOM     15  C16 ZIN A   1      -2.208  -5.204  -0.370  0.00  0.00     0.043 A 
ATOM     16  C15 ZIN A   1      -1.526  -4.556   0.642  0.00  0.00     0.058 A 
ATOM     17  I17 ZIN A   1      -3.077  -4.100  -1.923  0.00  0.00    -0.042 I 
BRANCH  13  18
ATOM     18  O19 ZIN A   1      -2.989  -7.226  -1.352  0.00  0.00    -0.358 OA
ATOM     19  H33 ZIN A   1      -2.434  -7.474  -2.104  0.00  0.00     0.217 HD
ENDBRANCH  13  18
ENDBRANCH   9  10
ENDBRANCH   5   9
BRANCH   1  20
ATOM     20  C7  ZIN A   1       0.041   0.972   2.456  0.00  0.00     0.082 C 
BRANCH  20  21
ATOM     21  C5  ZIN A   1      -0.699   1.479   1.216  0.00  0.00     0.287 C 
BRANCH  21  22
ATOM     22  N1  ZIN A   1      -0.012   1.005   0.008  0.00  0.00    -0.065 N 
ATOM     23  H2  ZIN A   1       0.002  -0.004   0.002  0.00  0.00     0.275 HD
ATOM     24  H3  ZIN A   1       0.935   1.354   0.000  0.00  0.00     0.275 HD
ATOM     25  H4  ZIN A   1      -0.500   1.339  -0.810  0.00  0.00     0.275 HD
ENDBRANCH  21  22
BRANCH  21  26
ATOM     26  C26 ZIN A   1      -0.720   2.985   1.224  0.00  0.00     0.204 C 
ATOM     27  O27 ZIN A   1      -0.209   3.607   0.308  0.00  0.00    -0.646 OA
ATOM     28  O28 ZIN A   1      -1.247   3.583   2.147  0.00  0.00    -0.646 OA
ENDBRANCH  21  26
ENDBRANCH  20  21
ENDBRANCH   1  20
TORSDOF 7
