REMARK  8 active torsions:
REMARK  status: ('A' for Active; 'I' for Inactive)
REMARK    1  A    between atoms: C2_2  and  N3_3 
REMARK    2  A    between atoms: N3_3  and  C5_5 
REMARK    3  A    between atoms: N3_3  and  C7_7 
REMARK    4  A    between atoms: C7_7  and  C8_8 
REMARK    5  A    between atoms: C8_8  and  O9_9 
REMARK    6  A    between atoms: O9_9  and  C10_10 
REMARK    7  A    between atoms: C10_10  and  C12_12 
REMARK    8  A    between atoms: C15_15  and  N16_16 
ROOT
ATOM      1  C10 ZIN A   1      -1.077  -1.639   4.119  0.00  0.00     0.295 C 
ATOM      2  O11 ZIN A   1      -0.062  -2.268   4.343  0.00  0.00    -0.259 OA
ENDROOT
BRANCH   1   3
ATOM      3  O9  ZIN A   1      -1.530  -1.518   2.856  0.00  0.00    -0.316 OA
BRANCH   3   4
ATOM      4  C8  ZIN A   1      -0.755  -2.165   1.813  0.00  0.00     0.206 C 
BRANCH   4   5
ATOM      5  C7  ZIN A   1      -1.419  -1.919   0.457  0.00  0.00     0.261 C 
BRANCH   5   6
ATOM      6  N3  ZIN A   1      -1.374  -0.485   0.142  0.00  0.00    -0.070 N 
ATOM      7  H4  ZIN A   1      -1.793   0.038   0.896  0.00  0.00     0.279 HD
BRANCH   6   8
ATOM      8  C2  ZIN A   1       0.023  -0.065  -0.028  0.00  0.00     0.230 C 
ATOM      9  C1  ZIN A   1       0.080   1.452  -0.218  0.00  0.00     0.034 C 
ENDBRANCH   6   8
BRANCH   6  10
ATOM     10  C5  ZIN A   1      -2.116  -0.233  -1.101  0.00  0.00     0.230 C 
ATOM     11  C6  ZIN A   1      -3.600  -0.533  -0.879  0.00  0.00     0.034 C 
ENDBRANCH   6  10
ENDBRANCH   5   6
ENDBRANCH   4   5
ENDBRANCH   3   4
ENDBRANCH   1   3
BRANCH   1  12
ATOM     12  C12 ZIN A   1      -1.813  -1.009   5.229  0.00  0.00     0.061 A 
ATOM     13  C18 ZIN A   1      -1.343  -1.134   6.543  0.00  0.00     0.052 A 
ATOM     14  C17 ZIN A   1      -2.034  -0.538   7.575  0.00  0.00     0.053 A 
ATOM     15 Cl19 ZIN A   1       0.109  -2.027   6.868  0.00  0.00    -0.083 Cl
ATOM     16  C15 ZIN A   1      -3.199   0.177   7.310  0.00  0.00     0.027 A 
ATOM     17  C14 ZIN A   1      -3.666   0.294   6.004  0.00  0.00     0.030 A 
ATOM     18  C13 ZIN A   1      -2.985  -0.290   4.974  0.00  0.00     0.022 A 
BRANCH  16  19
ATOM     19  N16 ZIN A   1      -3.898   0.775   8.353  0.00  0.00    -0.399 N 
ATOM     20  H36 ZIN A   1      -4.710   1.272   8.170  0.00  0.00     0.156 HD
ATOM     21  H37 ZIN A   1      -3.574   0.694   9.263  0.00  0.00     0.156 HD
ENDBRANCH  16  19
ENDBRANCH   1  12
TORSDOF 8
