REMARK  16 active torsions:
REMARK  status: ('A' for Active; 'I' for Inactive)
REMARK    1  A    between atoms: C2_2  and  C4_4 
REMARK    2  A    between atoms: C4_4  and  N5_5 
REMARK    3  A    between atoms: N5_5  and  C6_6 
REMARK    4  A    between atoms: N5_5  and  S33_30 
REMARK    5  A    between atoms: C6_6  and  C7_7 
REMARK    6  A    between atoms: C7_7  and  O9_8 
REMARK    7  A    between atoms: C7_7  and  C14_13 
REMARK    8  A    between atoms: O9_8  and  P10_9 
REMARK    9  A    between atoms: P10_9  and  O13_12 
REMARK   10  A    between atoms: C14_13  and  C16_14 
REMARK   11  A    between atoms: C14_13  and  N23_21 
REMARK   12  A    between atoms: C16_14  and  C17_15 
REMARK       I    between atoms: N23_21  and  C24_22 
REMARK   13  A    between atoms: C24_22  and  O26_24 
REMARK   14  A    between atoms: O26_24  and  C27_25 
REMARK   15  A    between atoms: S33_30  and  C36_33 
REMARK   16  A    between atoms: C39_36  and  N40_37 
ROOT
ATOM      1  C7  ZIN A   1      -3.641  -2.019  -2.343  0.00  0.00     0.176 C 
ENDROOT
BRANCH   1   2
ATOM      2  C6  ZIN A   1      -2.508  -1.018  -2.579  0.00  0.00     0.170 C 
BRANCH   2   3
ATOM      3  N5  ZIN A   1      -2.281  -0.241  -1.357  0.00  0.00    -0.304 N 
BRANCH   3   4
ATOM      4  C4  ZIN A   1      -1.407  -0.768  -0.306  0.00  0.00     0.139 C 
BRANCH   4   5
ATOM      5  C2  ZIN A   1       0.024  -0.870  -0.837  0.00  0.00    -0.004 C 
ATOM      6  C1  ZIN A   1       0.562   0.533  -1.126  0.00  0.00     0.011 C 
ATOM      7  C3  ZIN A   1       0.909  -1.549   0.211  0.00  0.00     0.011 C 
ENDBRANCH   4   5
ENDBRANCH   3   4
BRANCH   3   8
ATOM      8  S33 ZIN A   1      -3.012   1.232  -1.165  0.00  0.00     0.260 S 
ATOM      9  O34 ZIN A   1      -4.112   1.255  -2.065  0.00  0.00    -0.200 OA
ATOM     10  O35 ZIN A   1      -3.149   1.433   0.235  0.00  0.00    -0.200 OA
BRANCH   8  11
ATOM     11  C36 ZIN A   1      -1.878   2.455  -1.735  0.00  0.00     0.079 A 
ATOM     12  C42 ZIN A   1      -1.808   2.756  -3.083  0.00  0.00     0.027 A 
ATOM     13  C41 ZIN A   1      -0.924   3.718  -3.532  0.00  0.00     0.030 A 
ATOM     14  C39 ZIN A   1      -0.098   4.375  -2.629  0.00  0.00     0.025 A 
ATOM     15  C38 ZIN A   1      -0.167   4.067  -1.277  0.00  0.00     0.030 A 
ATOM     16  C37 ZIN A   1      -1.057   3.108  -0.834  0.00  0.00     0.027 A 
BRANCH  14  17
ATOM     17  N40 ZIN A   1       0.801   5.344  -3.081  0.00  0.00    -0.399 N 
ATOM     18  H71 ZIN A   1       1.378   5.802  -2.450  0.00  0.00     0.156 HD
ATOM     19  H72 ZIN A   1       0.848   5.559  -4.026  0.00  0.00     0.156 HD
ENDBRANCH  14  17
ENDBRANCH   8  11
ENDBRANCH   3   8
ENDBRANCH   2   3
ENDBRANCH   1   2
BRANCH   1  20
ATOM     20  O9  ZIN A   1      -4.861  -1.312  -2.111  0.00  0.00    -0.281 OA
BRANCH  20  21
ATOM     21  P10 ZIN A   1      -5.710  -1.451  -0.750  0.00  0.00     0.406 P 
ATOM     22  O11 ZIN A   1      -6.032  -2.940  -0.493  0.00  0.00    -0.624 OA
ATOM     23  O12 ZIN A   1      -4.886  -0.890   0.430  0.00  0.00    -0.624 OA
BRANCH  21  24
ATOM     24  O13 ZIN A   1      -7.083  -0.621  -0.888  0.00  0.00    -0.300 OA
ATOM     25  H54 ZIN A   1      -7.646  -0.660  -0.103  0.00  0.00     0.223 HD
ENDBRANCH  21  24
ENDBRANCH  20  21
ENDBRANCH   1  20
BRANCH   1  26
ATOM     26  C14 ZIN A   1      -3.795  -2.914  -3.574  0.00  0.00     0.122 C 
BRANCH  26  27
ATOM     27  C16 ZIN A   1      -4.245  -2.068  -4.766  0.00  0.00     0.066 C 
BRANCH  27  28
ATOM     28  C17 ZIN A   1      -4.279  -2.924  -6.006  0.00  0.00    -0.056 A 
ATOM     29  C22 ZIN A   1      -5.434  -3.602  -6.347  0.00  0.00     0.007 A 
ATOM     30  C21 ZIN A   1      -5.466  -4.384  -7.486  0.00  0.00     0.001 A 
ATOM     31  C20 ZIN A   1      -4.340  -4.495  -8.280  0.00  0.00     0.000 A 
ATOM     32  C19 ZIN A   1      -3.183  -3.821  -7.936  0.00  0.00     0.001 A 
ATOM     33  C18 ZIN A   1      -3.152  -3.036  -6.799  0.00  0.00     0.007 A 
ENDBRANCH  27  28
ENDBRANCH  26  27
BRANCH  26  34
ATOM     34  N23 ZIN A   1      -4.797  -3.949  -3.303  0.00  0.00    -0.329 N 
ATOM     35  C24 ZIN A   1      -4.761  -5.114  -3.979  0.00  0.00     0.361 C 
ATOM     36  O25 ZIN A   1      -3.898  -5.307  -4.813  0.00  0.00    -0.238 OA
ATOM     37  H62 ZIN A   1      -5.486  -3.794  -2.638  0.00  0.00     0.165 HD
BRANCH  35  38
ATOM     38  O26 ZIN A   1      -5.682  -6.065  -3.731  0.00  0.00    -0.296 OA
BRANCH  38  39
ATOM     39  C27 ZIN A   1      -5.582  -7.295  -4.496  0.00  0.00     0.159 C 
ATOM     40  C32 ZIN A   1      -6.482  -7.237  -5.749  0.00  0.00     0.200 C 
ATOM     41  O31 ZIN A   1      -7.100  -8.525  -5.894  0.00  0.00    -0.389 OA
ATOM     42  C30 ZIN A   1      -6.634  -9.412  -4.865  0.00  0.00     0.170 C 
ATOM     43  C29 ZIN A   1      -6.186  -8.488  -3.705  0.00  0.00     0.061 C 
ENDBRANCH  38  39
ENDBRANCH  35  38
ENDBRANCH  26  34
ENDBRANCH   1  26
TORSDOF 16
