REMARK  5 active torsions:
REMARK  status: ('A' for Active; 'I' for Inactive)
REMARK    1  A    between atoms: N2_2  and  C4_4 
REMARK    2  A    between atoms: N2_2  and  C13_13 
REMARK    3  A    between atoms: C4_4  and  C5_5 
REMARK    4  A    between atoms: C6_6  and  C7_7 
REMARK    5  A    between atoms: C13_13  and  C14_14 
ROOT
ATOM      1  C1  <0> d   1      -0.426   1.514   0.022  0.00  0.00     0.270 C 
ATOM      2  N2  <0> d   1      -0.203   0.062   0.032  0.00  0.00    -0.068 N 
ATOM      3  H3  <0> d   1      -1.089  -0.416  -0.025  0.00  0.00     0.280 HD
ENDROOT
BRANCH   2   4
ATOM      4  C4  <0> d   1       0.630  -0.313  -1.118  0.00  0.00     0.262 C 
BRANCH   4   5
ATOM      5  C5  <0> d   1      -0.121  -0.035  -2.394  0.00  0.00     0.001 C 
ATOM      6  C6  <0> d   1       0.439   0.698  -3.347  0.00  0.00     0.009 C 
BRANCH   6   7
ATOM      7  C7  <0> d   1       1.859   1.091  -3.238  0.00  0.00    -0.036 A 
ATOM      8  C12 <0> d   1       2.270   2.357  -3.658  0.00  0.00     0.011 A 
ATOM      9  C11 <0> d   1       3.596   2.720  -3.547  0.00  0.00     0.001 A 
ATOM     10  C10 <0> d   1       4.521   1.828  -3.033  0.00  0.00     0.000 A 
ATOM     11  C9  <0> d   1       4.121   0.569  -2.621  0.00  0.00     0.001 A 
ATOM     12  C8  <0> d   1       2.796   0.196  -2.720  0.00  0.00     0.011 A 
ENDBRANCH   6   7
ENDBRANCH   4   5
ENDBRANCH   2   4
BRANCH   2  13
ATOM     13  C13 <0> d   1       0.480  -0.320   1.276  0.00  0.00     0.274 C 
BRANCH  13  14
ATOM     14  C14 <0> d   1      -0.425  -0.048   2.450  0.00  0.00    -0.021 A 
ATOM     15  C23 <0> d   1      -0.255   1.076   3.199  0.00  0.00     0.010 A 
ATOM     16  C22 <0> d   1      -1.086   1.347   4.284  0.00  0.00     0.002 A 
ATOM     17  C21 <0> d   1      -2.085   0.491   4.633  0.00  0.00     0.012 A 
ATOM     18  C20 <0> d   1      -2.286  -0.683   3.888  0.00  0.00    -0.025 A 
ATOM     19  C15 <0> d   1      -1.445  -0.956   2.780  0.00  0.00    -0.018 A 
ATOM     20  C19 <0> d   1      -3.307  -1.591   4.218  0.00  0.00     0.012 A 
ATOM     21  C16 <0> d   1      -1.647  -2.130   2.035  0.00  0.00     0.013 A 
ATOM     22  C17 <0> d   1      -2.644  -2.987   2.385  0.00  0.00     0.001 A 
ATOM     23  C18 <0> d   1      -3.472  -2.718   3.473  0.00  0.00     0.001 A 
ENDBRANCH  13  14
ENDBRANCH   2  13
TORSDOF 5
