REMARK  7 active torsions:
REMARK  status: ('A' for Active; 'I' for Inactive)
REMARK    1  A    between atoms: C2_2  and  C3_3 
REMARK    2  A    between atoms: C3_3  and  S4_4 
REMARK    3  A    between atoms: S4_4  and  N7_7 
REMARK    4  A    between atoms: N7_7  and  C8_8 
REMARK    5  A    between atoms: C13_13  and  C14_14 
REMARK    6  A    between atoms: C14_14  and  C16_16 
REMARK    7  A    between atoms: C22_22  and  C23_23 
ROOT
ATOM      1  C14 ZIN A   1       5.550  -0.998  -5.454  0.00  0.00     0.200 C 
ATOM      2  O15 ZIN A   1       4.848  -0.857  -6.438  0.00  0.00    -0.286 OA
ENDROOT
BRANCH   1   3
ATOM      3  C13 ZIN A   1       4.957  -1.470  -4.187  0.00  0.00     0.094 A 
ATOM      4  C11 ZIN A   1       4.990  -2.830  -3.858  0.00  0.00     0.133 A 
ATOM      5  C10 ZIN A   1       4.434  -3.267  -2.672  0.00  0.00     0.046 A 
ATOM      6  F12 ZIN A   1       5.566  -3.715  -4.702  0.00  0.00    -0.205 F 
ATOM      7  C9  ZIN A   1       3.844  -2.365  -1.805  0.00  0.00     0.036 A 
ATOM      8  C8  ZIN A   1       3.805  -1.014  -2.120  0.00  0.00     0.082 A 
ATOM      9  C32 ZIN A   1       4.355  -0.561  -3.312  0.00  0.00     0.160 A 
ATOM     10  F33 ZIN A   1       4.318   0.754  -3.619  0.00  0.00    -0.203 F 
BRANCH   8  11
ATOM     11  N7  ZIN A   1       3.206  -0.107  -1.237  0.00  0.00    -0.281 N 
ATOM     12  H41 ZIN A   1       2.717   0.656  -1.583  0.00  0.00     0.178 HD
BRANCH  11  13
ATOM     13  S4  ZIN A   1       3.332  -0.336   0.398  0.00  0.00     0.231 S 
ATOM     14  O5  ZIN A   1       2.812  -1.642   0.610  0.00  0.00    -0.206 OA
ATOM     15  O6  ZIN A   1       2.699   0.804   0.962  0.00  0.00    -0.206 OA
BRANCH  13  16
ATOM     16  C3  ZIN A   1       5.116  -0.301   0.724  0.00  0.00     0.163 C 
BRANCH  16  17
ATOM     17  C2  ZIN A   1       5.365  -0.505   2.220  0.00  0.00     0.012 C 
ATOM     18  C1  ZIN A   1       6.870  -0.475   2.495  0.00  0.00     0.006 C 
ENDBRANCH  16  17
ENDBRANCH  13  16
ENDBRANCH  11  13
ENDBRANCH   8  11
ENDBRANCH   1   3
BRANCH   1  19
ATOM     19  C16 ZIN A   1       6.985  -0.699  -5.526  0.00  0.00     0.044 A 
ATOM     20  C31 ZIN A   1       7.750  -0.321  -6.729  0.00  0.00     0.026 A 
ATOM     21  C19 ZIN A   1       9.077  -0.134  -6.303  0.00  0.00     0.138 A 
ATOM     22  C30 ZIN A   1       7.420  -0.123  -8.065  0.00  0.00     0.030 A 
ATOM     23  N18 ZIN A   1       9.112  -0.388  -4.949  0.00  0.00    -0.349 N 
ATOM     24  N20 ZIN A   1      10.010   0.220  -7.177  0.00  0.00    -0.242 NA
ATOM     25  C17 ZIN A   1       7.879  -0.720  -4.494  0.00  0.00     0.106 A 
ATOM     26  H45 ZIN A   1       9.908  -0.336  -4.398  0.00  0.00     0.167 HD
ATOM     27  C21 ZIN A   1       9.734   0.410  -8.448  0.00  0.00     0.131 A 
ATOM     28  C22 ZIN A   1       8.438   0.249  -8.943  0.00  0.00    -0.007 A 
BRANCH  28  29
ATOM     29  C23 ZIN A   1       8.149   0.469 -10.382  0.00  0.00    -0.024 A 
ATOM     30  C29 ZIN A   1       9.173   0.840 -11.252  0.00  0.00     0.014 A 
ATOM     31  C28 ZIN A   1       8.900   1.039 -12.589  0.00  0.00     0.024 A 
ATOM     32  C26 ZIN A   1       7.609   0.881 -13.066  0.00  0.00     0.034 A 
ATOM     33  C25 ZIN A   1       6.588   0.518 -12.205  0.00  0.00     0.024 A 
ATOM     34 Cl27 ZIN A   1       7.271   1.139 -14.749  0.00  0.00    -0.084 Cl
ATOM     35  C24 ZIN A   1       6.852   0.311 -10.866  0.00  0.00     0.014 A 
ENDBRANCH  28  29
ENDBRANCH   1  19
TORSDOF 7
