REMARK  8 active torsions:
REMARK  status: ('A' for Active; 'I' for Inactive)
REMARK    1  A    between atoms: C5_5  and  C6_6 
REMARK    2  A    between atoms: N9_9  and  C10_10 
REMARK    3  A    between atoms: N19_17  and  C21_19 
REMARK    4  A    between atoms: C21_19  and  C22_20 
REMARK    5  A    between atoms: C22_20  and  C23_21 
REMARK    6  A    between atoms: C23_21  and  N25_22 
REMARK    7  A    between atoms: C23_21  and  C36_33 
REMARK       I    between atoms: N25_22  and  C26_23 
REMARK    8  A    between atoms: C26_23  and  C28_25 
ROOT
ATOM      1  C22 ZIN A   1       1.040   4.608  -1.091  0.00  0.00     0.057 C 
ENDROOT
BRANCH   1   2
ATOM      2  C21 ZIN A   1       0.133   3.467  -1.556  0.00  0.00     0.238 C 
BRANCH   2   3
ATOM      3  N19 ZIN A   1      -0.142   2.569  -0.426  0.00  0.00    -0.062 N 
ATOM      4  C12 ZIN A   1       1.066   1.779  -0.070  0.00  0.00     0.190 C 
ATOM      5  C11 ZIN A   1       0.780   1.090   1.274  0.00  0.00     0.059 C 
ATOM      6  C14 ZIN A   1       1.153   0.680  -1.155  0.00  0.00     0.035 C 
ATOM      7  C10 ZIN A   1      -0.375   0.102   1.089  0.00  0.00     0.097 C 
ATOM      8  C18 ZIN A   1      -1.580   0.824   0.478  0.00  0.00     0.059 C 
ATOM      9  C16 ZIN A   1      -1.127   1.507  -0.823  0.00  0.00     0.190 C 
ATOM     10  C15 ZIN A   1      -0.296   0.501  -1.652  0.00  0.00     0.035 C 
ATOM     11  H20 ZIN A   1      -0.483   3.091   0.367  0.00  0.00     0.280 HD
BRANCH   7  12
ATOM     12  N9  ZIN A   1       0.048  -0.981   0.199  0.00  0.00    -0.315 N 
ATOM     13  C2  ZIN A   1      -0.739  -1.707  -0.632  0.00  0.00     0.126 A 
ATOM     14  C1  ZIN A   1      -2.225  -1.548  -0.821  0.00  0.00     0.093 C 
ATOM     15  N3  ZIN A   1       0.031  -2.566  -1.244  0.00  0.00    -0.135 NA
ATOM     16  N4  ZIN A   1       1.244  -2.423  -0.842  0.00  0.00    -0.134 NA
ATOM     17  C5  ZIN A   1       1.304  -1.466   0.044  0.00  0.00     0.134 A 
BRANCH  17  18
ATOM     18  C6  ZIN A   1       2.541  -0.986   0.759  0.00  0.00     0.049 C 
ATOM     19  C7  ZIN A   1       3.458  -2.176   1.045  0.00  0.00     0.018 C 
ATOM     20  C8  ZIN A   1       3.277   0.026  -0.121  0.00  0.00     0.018 C 
ENDBRANCH  17  18
ENDBRANCH   7  12
ENDBRANCH   2   3
ENDBRANCH   1   2
BRANCH   1  21
ATOM     21  C23 ZIN A   1       1.327   5.543  -2.267  0.00  0.00     0.119 C 
BRANCH  21  22
ATOM     22  N25 ZIN A   1       2.099   4.825  -3.284  0.00  0.00    -0.352 N 
ATOM     23  C26 ZIN A   1       2.048   5.220  -4.572  0.00  0.00     0.222 C 
ATOM     24  O27 ZIN A   1       1.364   6.170  -4.889  0.00  0.00    -0.273 OA
ATOM     25  H65 ZIN A   1       2.646   4.066  -3.031  0.00  0.00     0.163 HD
BRANCH  23  26
ATOM     26  C28 ZIN A   1       2.842   4.482  -5.618  0.00  0.00     0.078 C 
ATOM     27  C35 ZIN A   1       2.610   5.128  -6.986  0.00  0.00     0.020 C 
ATOM     28  C34 ZIN A   1       3.416   4.378  -8.048  0.00  0.00     0.080 C 
ATOM     29  C31 ZIN A   1       2.966   2.916  -8.092  0.00  0.00     0.243 C 
ATOM     30  C30 ZIN A   1       3.199   2.270  -6.725  0.00  0.00     0.080 C 
ATOM     31  F32 ZIN A   1       3.704   2.231  -9.063  0.00  0.00    -0.206 F 
ATOM     32  F33 ZIN A   1       1.606   2.856  -8.411  0.00  0.00    -0.206 F 
ATOM     33  C29 ZIN A   1       2.393   3.020  -5.662  0.00  0.00     0.020 C 
ENDBRANCH  23  26
ENDBRANCH  21  22
BRANCH  21  34
ATOM     34  C36 ZIN A   1       2.117   6.732  -1.783  0.00  0.00    -0.035 A 
ATOM     35  C41 ZIN A   1       1.478   7.933  -1.539  0.00  0.00     0.009 A 
ATOM     36  C40 ZIN A   1       2.202   9.022  -1.090  0.00  0.00     0.001 A 
ATOM     37  C39 ZIN A   1       3.566   8.912  -0.895  0.00  0.00     0.000 A 
ATOM     38  C38 ZIN A   1       4.206   7.712  -1.145  0.00  0.00     0.001 A 
ATOM     39  C37 ZIN A   1       3.481   6.622  -1.589  0.00  0.00     0.009 A 
ENDBRANCH  21  34
ENDBRANCH   1  21
TORSDOF 8
