REMARK  10 active torsions:
REMARK  status: ('A' for Active; 'I' for Inactive)
REMARK    1  A    between atoms: C7_7  and  C9_8 
REMARK    2  A    between atoms: C9_8  and  N10_9 
REMARK    3  A    between atoms: N10_9  and  C11_10 
REMARK    4  A    between atoms: C14_13  and  C15_14 
REMARK       I    between atoms: C15_14  and  N17_16 
REMARK    5  A    between atoms: N17_16  and  C18_17 
REMARK    6  A    between atoms: C18_17  and  C20_18 
REMARK    7  A    between atoms: C18_17  and  C25_23 
REMARK    8  A    between atoms: C20_18  and  C21_19 
REMARK    9  A    between atoms: C21_19  and  C22_20 
REMARK   10  A    between atoms: C31_29  and  N32_30 
ROOT
ATOM      1  N10 RES d   1      -2.209  -0.265   1.750  0.00  0.00    -0.388 N 
ATOM      2  H44 RES d   1      -1.943   0.651   1.578  0.00  0.00     0.159 HD
ENDROOT
BRANCH   1   3
ATOM      3  C9  RES d   1      -1.225  -1.346   1.646  0.00  0.00     0.146 C 
BRANCH   3   4
ATOM      4  C7  RES d   1       0.135  -0.761   1.257  0.00  0.00     0.119 C 
ATOM      5  N2  RES d   1       0.002  -0.004   0.002  0.00  0.00    -0.370 N 
ATOM      6  C1  RES d   1      -0.018   1.461   0.010  0.00  0.00     0.150 C 
ATOM      7  C3  RES d   1      -0.100  -0.721  -1.210  0.00  0.00     0.146 A 
ATOM      8  C34 RES d   1      -0.551  -0.086  -2.385  0.00  0.00     0.314 A 
ATOM      9  C4  RES d   1       0.240  -2.042  -1.259  0.00  0.00     0.149 A 
ATOM     10  N33 RES d   1      -0.634  -0.791  -3.525  0.00  0.00    -0.021 NA
ATOM     11  O35 RES d   1      -0.863   1.097  -2.367  0.00  0.00    -0.263 OA
ATOM     12  C31 RES d   1      -0.303  -2.064  -3.561  0.00  0.00     0.703 A 
ATOM     13  N30 RES d   1       0.137  -2.714  -2.449  0.00  0.00    -0.173 N 
ATOM     14  H54 RES d   1       0.377  -3.652  -2.499  0.00  0.00     0.186 HD
ATOM     15  N5  RES d   1       0.680  -2.691  -0.122  0.00  0.00    -0.372 N 
ATOM     16  C6  RES d   1       1.139  -1.895   1.025  0.00  0.00     0.148 C 
ATOM     17  H39 RES d   1       0.686  -3.660  -0.082  0.00  0.00     0.161 HD
BRANCH  12  18
ATOM     18  N32 RES d   1      -0.402  -2.750  -4.745  0.00  0.00    -0.233 N 
ATOM     19  H55 RES d   1      -0.160  -3.688  -4.783  0.00  0.00     0.174 HD
ATOM     20  H56 RES d   1      -0.714  -2.296  -5.543  0.00  0.00     0.174 HD
ENDBRANCH  12  18
ENDBRANCH   3   4
ENDBRANCH   1   3
BRANCH   1  21
ATOM     21  C11 RES d   1      -3.525  -0.554   2.094  0.00  0.00     0.028 A 
ATOM     22  C29 RES d   1      -4.459   0.473   2.192  0.00  0.00     0.030 A 
ATOM     23  C28 RES d   1      -5.763   0.190   2.526  0.00  0.00     0.019 A 
ATOM     24  C14 RES d   1      -6.147  -1.130   2.779  0.00  0.00     0.032 A 
ATOM     25  C13 RES d   1      -5.206  -2.159   2.686  0.00  0.00     0.019 A 
ATOM     26  C12 RES d   1      -3.904  -1.870   2.345  0.00  0.00     0.030 A 
BRANCH  24  27
ATOM     27  C15 RES d   1      -7.543  -1.436   3.145  0.00  0.00     0.252 C 
ATOM     28  O16 RES d   1      -7.876  -2.585   3.365  0.00  0.00    -0.268 OA
ATOM     29  N17 RES d   1      -8.450  -0.443   3.235  0.00  0.00    -0.342 N 
ATOM     30  H47 RES d   1      -8.185   0.473   3.059  0.00  0.00     0.163 HD
BRANCH  29  31
ATOM     31  C18 RES d   1      -9.836  -0.748   3.597  0.00  0.00     0.186 C 
BRANCH  31  32
ATOM     32  C20 RES d   1     -10.482   0.489   4.226  0.00  0.00     0.046 C 
BRANCH  32  33
ATOM     33  C21 RES d   1      -9.780   0.815   5.546  0.00  0.00     0.116 C 
BRANCH  33  34
ATOM     34  C22 RES d   1     -10.416   2.033   6.166  0.00  0.00     0.172 C 
ATOM     35  O23 RES d   1     -11.345   2.588   5.604  0.00  0.00    -0.648 OA
ATOM     36  O24 RES d   1     -10.002   2.462   7.229  0.00  0.00    -0.648 OA
ENDBRANCH  33  34
ENDBRANCH  32  33
ENDBRANCH  31  32
BRANCH  31  37
ATOM     37  C25 RES d   1     -10.604  -1.141   2.362  0.00  0.00     0.196 C 
ATOM     38  O26 RES d   1     -10.045  -1.166   1.279  0.00  0.00    -0.646 OA
ATOM     39  O27 RES d   1     -11.784  -1.436   2.446  0.00  0.00    -0.646 OA
ENDBRANCH  31  37
ENDBRANCH  29  31
ENDBRANCH  24  27
ENDBRANCH   1  21
TORSDOF 10
