REMARK  3 active torsions:
REMARK  status: ('A' for Active; 'I' for Inactive)
REMARK    1  A    between atoms: O1_1  and  C2_2 
REMARK    2  A    between atoms: C8_8  and  O9_9 
REMARK    3  A    between atoms: O9_9  and  C10_10 
ROOT
ATOM      1  C2  <0> d   1      -1.196  -1.134   0.653  0.00  0.00     0.101 A 
ATOM      2  C3  <0> d   1      -1.201  -1.816  -0.553  0.00  0.00     0.063 A 
ATOM      3  C4  <0> d   1      -0.009  -2.076  -1.206  0.00  0.00     0.036 A 
ATOM      4 Cl5  <0> d   1      -0.017  -2.931  -2.717  0.00  0.00    -0.084 Cl
ATOM      5  C6  <0> d   1       1.189  -1.655  -0.657  0.00  0.00     0.027 A 
ATOM      6  C7  <0> d   1       1.200  -0.974   0.546  0.00  0.00     0.042 A 
ATOM      7  C8  <0> d   1       0.010  -0.707   1.202  0.00  0.00     0.109 A 
ENDROOT
BRANCH   7   8
ATOM      8  O9  <0> d   1       0.019  -0.037   2.386  0.00  0.00    -0.306 OA
BRANCH   8   9
ATOM      9  C10 <0> d   1      -0.074  -0.763   3.531  0.00  0.00     0.098 A 
ATOM     10  C16 <0> d   1      -0.181  -0.119   4.756  0.00  0.00     0.069 A 
ATOM     11  C15 <0> d   1      -0.282  -0.860   5.919  0.00  0.00     0.050 A 
ATOM     12 Cl17 <0> d   1      -0.201   1.615   4.827  0.00  0.00    -0.081 Cl
ATOM     13  C13 <0> d   1      -0.266  -2.243   5.862  0.00  0.00     0.035 A 
ATOM     14  C12 <0> d   1      -0.154  -2.886   4.643  0.00  0.00     0.026 A 
ATOM     15 Cl14 <0> d   1      -0.386  -3.171   7.324  0.00  0.00    -0.084 Cl
ATOM     16  C11 <0> d   1      -0.058  -2.149   3.478  0.00  0.00     0.041 A 
ENDBRANCH   8   9
ENDBRANCH   7   8
BRANCH   1  17
ATOM     17  O1  <0> d   1      -2.366  -0.878   1.295  0.00  0.00    -0.358 OA
ATOM     18  H18 <0> d   1      -2.777  -0.039   1.045  0.00  0.00     0.217 HD
ENDBRANCH   1  17
TORSDOF 3
