REMARK  7 active torsions:
REMARK  status: ('A' for Active; 'I' for Inactive)
REMARK    1  A    between atoms: N1_1  and  C5_5 
REMARK    2  A    between atoms: C5_5  and  C7_6 
REMARK    3  A    between atoms: C5_5  and  C10_9 
REMARK    4  A    between atoms: C10_9  and  O12_10 
REMARK    5  A    between atoms: C10_9  and  C13_11 
REMARK    6  A    between atoms: C16_14  and  O17_15 
REMARK    7  A    between atoms: C18_16  and  O19_17 
ROOT
ATOM      1  C10 ZIN A   1       0.041   0.972   2.456  0.00  0.00     0.192 C 
ENDROOT
BRANCH   1   2
ATOM      2  C5  ZIN A   1      -0.699   1.479   1.216  0.00  0.00     0.316 C 
BRANCH   2   3
ATOM      3  N1  ZIN A   1      -0.012   1.005   0.008  0.00  0.00    -0.062 N 
ATOM      4  H2  ZIN A   1       0.002  -0.004   0.002  0.00  0.00     0.275 HD
ATOM      5  H3  ZIN A   1       0.935   1.354   0.000  0.00  0.00     0.275 HD
ATOM      6  H4  ZIN A   1      -0.500   1.339  -0.810  0.00  0.00     0.275 HD
ENDBRANCH   2   3
BRANCH   2   7
ATOM      7  C7  ZIN A   1      -0.720   2.985   1.224  0.00  0.00     0.207 C 
ATOM      8  O8  ZIN A   1      -0.209   3.607   0.308  0.00  0.00    -0.646 OA
ATOM      9  O9  ZIN A   1      -1.247   3.583   2.147  0.00  0.00    -0.646 OA
ENDBRANCH   2   7
ENDBRANCH   1   2
BRANCH   1  10
ATOM     10  O12 ZIN A   1       1.343   1.559   2.507  0.00  0.00    -0.388 OA
ATOM     11  H21 ZIN A   1       1.896   1.355   1.740  0.00  0.00     0.210 HD
ENDBRANCH   1  10
BRANCH   1  12
ATOM     12  C13 ZIN A   1       0.169  -0.528   2.386  0.00  0.00    -0.024 A 
ATOM     13  C20 ZIN A   1      -0.763  -1.330   3.020  0.00  0.00     0.049 A 
ATOM     14  C18 ZIN A   1      -0.650  -2.709   2.952  0.00  0.00     0.099 A 
ATOM     15  C16 ZIN A   1       0.409  -3.284   2.254  0.00  0.00     0.098 A 
ATOM     16  C15 ZIN A   1       1.341  -2.475   1.627  0.00  0.00     0.040 A 
ATOM     17  C14 ZIN A   1       1.220  -1.099   1.694  0.00  0.00     0.013 A 
BRANCH  14  18
ATOM     18  O19 ZIN A   1      -1.568  -3.499   3.570  0.00  0.00    -0.358 OA
ATOM     19  H25 ZIN A   1      -1.344  -3.720   4.485  0.00  0.00     0.217 HD
ENDBRANCH  14  18
BRANCH  15  20
ATOM     20  O17 ZIN A   1       0.527  -4.637   2.190  0.00  0.00    -0.358 OA
ATOM     21  H24 ZIN A   1       1.050  -5.021   2.907  0.00  0.00     0.217 HD
ENDBRANCH  15  20
ENDBRANCH   1  12
TORSDOF 7
