REMARK  1 active torsions:
REMARK  status: ('A' for Active; 'I' for Inactive)
REMARK    1  A    between atoms: C4_3  and  C6_4 
ROOT
ATOM      1  C1  ZIN A   1      -0.019   1.526   0.010  0.00  0.00     0.043 C 
ATOM      2  C2  ZIN A   1       0.002  -0.004   0.002  0.00  0.00     0.217 C 
ATOM      3  C4  ZIN A   1       0.719  -0.498  -1.257  0.00  0.00     0.184 C 
ATOM      4  O12 ZIN A   1       0.785  -1.927  -1.232  0.00  0.00    -0.377 OA
ATOM      5  C13 ZIN A   1       1.449  -2.451  -0.079  0.00  0.00     0.196 C 
ATOM      6  C14 ZIN A   1       0.733  -1.960   1.182  0.00  0.00     0.261 C 
ATOM      7  N15 ZIN A   1       0.714  -0.491   1.192  0.00  0.00    -0.066 N 
ATOM      8  H16 ZIN A   1       1.660  -0.142   1.184  0.00  0.00     0.280 HD
ATOM      9  C17 ZIN A   1       0.027  -0.018   2.402  0.00  0.00     0.270 C 
ENDROOT
BRANCH   3  10
ATOM     10  C6  ZIN A   1      -0.041  -0.049  -2.478  0.00  0.00    -0.027 A 
ATOM     11  C11 ZIN A   1       0.384   1.057  -3.189  0.00  0.00     0.010 A 
ATOM     12  C10 ZIN A   1      -0.311   1.466  -4.312  0.00  0.00     0.001 A 
ATOM     13  C9  ZIN A   1      -1.436   0.774  -4.718  0.00  0.00     0.000 A 
ATOM     14  C8  ZIN A   1      -1.864  -0.329  -4.004  0.00  0.00     0.001 A 
ATOM     15  C7  ZIN A   1      -1.167  -0.741  -2.884  0.00  0.00     0.010 A 
ENDBRANCH   3  10
TORSDOF 1
