REMARK  7 active torsions:
REMARK  status: ('A' for Active; 'I' for Inactive)
REMARK    1  A    between atoms: C2_2  and  C3_3 
REMARK    2  A    between atoms: C3_3  and  N4_4 
REMARK    3  A    between atoms: N4_4  and  C6_6 
REMARK    4  A    between atoms: N4_4  and  C13_13 
REMARK    5  A    between atoms: C6_6  and  C7_7 
REMARK    6  A    between atoms: C7_7  and  C8_8 
REMARK    7  A    between atoms: C18_17  and  O19_18 
ROOT
ATOM      1  C13 ZIN A   1      -0.481  -2.572  -1.377  0.00  0.00     0.192 C 
ATOM      2  C15 ZIN A   1      -0.393  -4.078  -1.104  0.00  0.00     0.038 C 
ATOM      3  C16 ZIN A   1      -1.812  -4.641  -1.052  0.00  0.00     0.044 C 
ATOM      4  C17 ZIN A   1      -2.593  -4.222  -2.269  0.00  0.00    -0.019 A 
ATOM      5  C18 ZIN A   1      -3.750  -4.937  -2.576  0.00  0.00     0.072 A 
ATOM      6  C20 ZIN A   1      -4.513  -4.595  -3.679  0.00  0.00     0.037 A 
ATOM      7  C21 ZIN A   1      -4.125  -3.538  -4.480  0.00  0.00     0.003 A 
ATOM      8  C22 ZIN A   1      -2.978  -2.833  -4.177  0.00  0.00     0.008 A 
ATOM      9  C23 ZIN A   1      -2.207  -3.174  -3.073  0.00  0.00    -0.047 A 
ATOM     10  C24 ZIN A   1      -0.961  -2.368  -2.812  0.00  0.00     0.072 C 
ENDROOT
BRANCH   1  11
ATOM     11  N4  ZIN A   1       0.844  -1.960  -1.207  0.00  0.00    -0.066 N 
ATOM     12  H5  ZIN A   1       1.186  -2.152  -0.277  0.00  0.00     0.280 HD
BRANCH  11  13
ATOM     13  C3  ZIN A   1       0.742  -0.508  -1.402  0.00  0.00     0.235 C 
BRANCH  13  14
ATOM     14  C2  ZIN A   1      -0.118   0.096  -0.289  0.00  0.00     0.023 C 
ATOM     15  C1  ZIN A   1      -0.115   1.621  -0.414  0.00  0.00     0.007 C 
ENDBRANCH  13  14
ENDBRANCH  11  13
BRANCH  11  16
ATOM     16  C6  ZIN A   1       1.773  -2.522  -2.196  0.00  0.00     0.240 C 
BRANCH  16  17
ATOM     17  C7  ZIN A   1       3.180  -1.980  -1.940  0.00  0.00     0.074 C 
BRANCH  17  18
ATOM     18  C8  ZIN A   1       4.133  -2.556  -2.955  0.00  0.00    -0.016 A 
ATOM     19  S12 ZIN A   1       5.042  -4.049  -2.759  0.00  0.00    -0.106 SA
ATOM     20  C11 ZIN A   1       5.777  -3.846  -4.344  0.00  0.00     0.050 A 
ATOM     21  C10 ZIN A   1       5.328  -2.721  -4.904  0.00  0.00     0.008 A 
ATOM     22  C9  ZIN A   1       4.422  -2.009  -4.138  0.00  0.00     0.015 A 
ENDBRANCH  17  18
ENDBRANCH  16  17
ENDBRANCH  11  16
ENDBRANCH   1  11
BRANCH   5  23
ATOM     23  O19 ZIN A   1      -4.131  -5.975  -1.786  0.00  0.00    -0.360 OA
ATOM     24  H43 ZIN A   1      -4.716  -5.722  -1.059  0.00  0.00     0.217 HD
ENDBRANCH   5  23
TORSDOF 7
