REMARK  5 active torsions:
REMARK  status: ('A' for Active; 'I' for Inactive)
REMARK    1  A    between atoms: N10_10  and  C11_11 
REMARK    2  A    between atoms: C14_13  and  C16_14 
REMARK    3  A    between atoms: C16_14  and  O17_15 
REMARK    4  A    between atoms: C18_16  and  O20_17 
REMARK    5  A    between atoms: C21_18  and  O23_19 
ROOT
ATOM      1  C11 <0> d   1       2.827   5.211  -0.020  0.00  0.00     0.262 C 
ATOM      2  O13 <0> d   1       4.168   5.334  -0.540  0.00  0.00    -0.353 OA
ATOM      3  C14 <0> d   1       4.693   6.583  -0.059  0.00  0.00     0.179 C 
ATOM      4  C18 <0> d   1       3.962   6.909   1.258  0.00  0.00     0.182 C 
ATOM      5  C21 <0> d   1       2.946   5.751   1.428  0.00  0.00     0.198 C 
ENDROOT
BRANCH   1   6
ATOM      6  N10 <0> d   1       2.402   3.809  -0.014  0.00  0.00    -0.294 N 
ATOM      7  C6  <0> d   1       1.112   3.355   0.003  0.00  0.00     0.169 A 
ATOM      8  N5  <0> d   1      -0.090   3.950   0.023  0.00  0.00    -0.223 NA
ATOM      9  C7  <0> d   1       1.192   1.959   0.001  0.00  0.00     0.172 A 
ATOM     10  C4  <0> d   1      -1.190   3.250   0.036  0.00  0.00     0.212 A 
ATOM     11  N3  <0> d   1      -1.183   1.893   0.029  0.00  0.00    -0.316 N 
ATOM     12  C2  <0> d   1      -0.015   1.215   0.009  0.00  0.00     0.279 A 
ATOM     13  H24 <0> d   1      -2.023   1.407   0.039  0.00  0.00     0.170 HD
ATOM     14  O1  <0> d   1       0.002  -0.004   0.002  0.00  0.00    -0.265 OA
ATOM     15  N8  <0> d   1       2.504   1.631  -0.021  0.00  0.00    -0.234 NA
ATOM     16  C9  <0> d   1       3.220   2.719  -0.033  0.00  0.00     0.214 A 
ENDBRANCH   1   6
BRANCH   5  17
ATOM     17  O23 <0> d   1       1.689   6.240   1.901  0.00  0.00    -0.388 OA
ATOM     18  H31 <0> d   1       1.734   6.668   2.767  0.00  0.00     0.210 HD
ENDBRANCH   5  17
BRANCH   4  19
ATOM     19  O20 <0> d   1       3.280   8.161   1.155  0.00  0.00    -0.390 OA
ATOM     20  H30 <0> d   1       3.863   8.914   0.990  0.00  0.00     0.210 HD
ENDBRANCH   4  19
BRANCH   3  21
ATOM     21  C16 <0> d   1       6.196   6.452   0.195  0.00  0.00     0.198 C 
BRANCH  21  22
ATOM     22  O17 <0> d   1       6.873   6.251  -1.047  0.00  0.00    -0.398 OA
ATOM     23  H29 <0> d   1       7.832   6.160  -0.961  0.00  0.00     0.209 HD
ENDBRANCH  21  22
ENDBRANCH   3  21
TORSDOF 5
