REMARK  6 active torsions:
REMARK  status: ('A' for Active; 'I' for Inactive)
REMARK    1  A    between atoms: C5_5  and  C6_6 
REMARK    2  A    between atoms: C6_6  and  O7_7 
REMARK    3  A    between atoms: O7_7  and  N8_8 
REMARK    4  A    between atoms: C9_9  and  C10_10 
REMARK    5  A    between atoms: C9_9  and  C16_16 
REMARK    6  A    between atoms: C10_10  and  N11_11 
ROOT
ATOM      1  N8  ZIN A   1      -1.560   7.873  -0.063  0.00  0.00    -0.136 NA
ATOM      2  C9  ZIN A   1      -2.729   8.415  -0.171  0.00  0.00     0.091 C 
ENDROOT
BRANCH   2   3
ATOM      3  C10 ZIN A   1      -2.857   9.911  -0.306  0.00  0.00     0.191 C 
BRANCH   3   4
ATOM      4  N11 ZIN A   1      -2.827  10.277  -1.725  0.00  0.00    -0.344 N 
ATOM      5  C15 ZIN A   1      -3.892  10.380  -2.548  0.00  0.00     0.209 A 
ATOM      6  N14 ZIN A   1      -3.472  10.728  -3.734  0.00  0.00    -0.255 NA
ATOM      7  C13 ZIN A   1      -2.137  10.850  -3.712  0.00  0.00     0.135 A 
ATOM      8  C12 ZIN A   1      -1.714  10.572  -2.464  0.00  0.00     0.111 A 
ENDBRANCH   3   4
ENDBRANCH   2   3
BRANCH   2   9
ATOM      9  C16 ZIN A   1      -3.939   7.570  -0.160  0.00  0.00     0.014 A 
ATOM     10  C22 ZIN A   1      -4.852   7.664   0.894  0.00  0.00     0.048 A 
ATOM     11  C21 ZIN A   1      -5.984   6.874   0.894  0.00  0.00     0.048 A 
ATOM     12 Cl23 ZIN A   1      -4.570   8.781   2.193  0.00  0.00    -0.083 Cl
ATOM     13  C19 ZIN A   1      -6.210   5.982  -0.141  0.00  0.00     0.035 A 
ATOM     14  C18 ZIN A   1      -5.305   5.881  -1.185  0.00  0.00     0.025 A 
ATOM     15 Cl20 ZIN A   1      -7.632   4.988  -0.130  0.00  0.00    -0.084 Cl
ATOM     16  C17 ZIN A   1      -4.173   6.668  -1.200  0.00  0.00     0.017 A 
ENDBRANCH   2   9
BRANCH   1  17
ATOM     17  O7  ZIN A   1      -1.444   6.482   0.179  0.00  0.00    -0.252 OA
BRANCH  17  18
ATOM     18  C6  ZIN A   1      -0.102   6.039   0.386  0.00  0.00     0.244 C 
BRANCH  18  19
ATOM     19  C5  ZIN A   1      -0.083   4.537   0.511  0.00  0.00    -0.010 A 
ATOM     20  C4  ZIN A   1      -1.270   3.830   0.526  0.00  0.00     0.013 A 
ATOM     21  C3  ZIN A   1      -1.254   2.452   0.642  0.00  0.00     0.024 A 
ATOM     22  C2  ZIN A   1      -0.048   1.781   0.741  0.00  0.00     0.035 A 
ATOM     23 Cl1  ZIN A   1      -0.028   0.051   0.885  0.00  0.00    -0.084 Cl
ATOM     24  C26 ZIN A   1       1.140   2.489   0.732  0.00  0.00     0.048 A 
ATOM     25  C24 ZIN A   1       1.123   3.866   0.611  0.00  0.00     0.044 A 
ATOM     26 Cl25 ZIN A   1       2.615   4.755   0.593  0.00  0.00    -0.084 Cl
ENDBRANCH  18  19
ENDBRANCH  17  18
ENDBRANCH   1  17
TORSDOF 6
