REMARK  4 active torsions:
REMARK  status: ('A' for Active; 'I' for Inactive)
REMARK    1  A    between atoms: N5_5  and  C7_7 
REMARK    2  A    between atoms: C7_7  and  C8_8 
REMARK    3  A    between atoms: C8_8  and  C9_9 
REMARK    4  A    between atoms: C9_9  and  N10_10 
ROOT
ATOM      1  N10 ZIN A   1       0.660  -6.641   3.486  0.00  0.00    -0.345 N 
ATOM      2  C11 ZIN A   1      -0.200  -6.830   4.565  0.00  0.00     0.052 A 
ATOM      3  C12 ZIN A   1      -1.375  -6.089   4.623  0.00  0.00     0.031 A 
ATOM      4  C13 ZIN A   1      -2.253  -6.254   5.678  0.00  0.00     0.002 A 
ATOM      5  C14 ZIN A   1      -1.969  -7.158   6.683  0.00  0.00     0.002 A 
ATOM      6  C15 ZIN A   1      -0.803  -7.899   6.636  0.00  0.00     0.021 A 
ATOM      7  C16 ZIN A   1       0.085  -7.739   5.581  0.00  0.00     0.032 A 
ATOM      8  S17 ZIN A   1       1.566  -8.690   5.547  0.00  0.00    -0.086 SA
ATOM      9  C18 ZIN A   1       2.580  -7.828   4.395  0.00  0.00     0.032 A 
ATOM     10  C19 ZIN A   1       3.947  -8.072   4.377  0.00  0.00     0.023 A 
ATOM     11  C20 ZIN A   1       4.761  -7.405   3.481  0.00  0.00     0.025 A 
ATOM     12  C21 ZIN A   1       4.215  -6.490   2.600  0.00  0.00     0.036 A 
ATOM     13 Cl22 ZIN A   1       5.239  -5.651   1.477  0.00  0.00    -0.084 Cl
ATOM     14  C23 ZIN A   1       2.854  -6.241   2.613  0.00  0.00     0.054 A 
ATOM     15  C24 ZIN A   1       2.026  -6.914   3.507  0.00  0.00     0.053 A 
ENDROOT
BRANCH   1  16
ATOM     16  C9  ZIN A   1       0.087  -6.124   2.240  0.00  0.00     0.131 C 
BRANCH  16  17
ATOM     17  C8  ZIN A   1       0.145  -4.595   2.248  0.00  0.00     0.048 C 
BRANCH  17  18
ATOM     18  C7  ZIN A   1      -0.453  -4.055   0.948  0.00  0.00     0.236 C 
BRANCH  18  19
ATOM     19  N5  ZIN A   1      -0.397  -2.587   0.955  0.00  0.00    -0.068 N 
ATOM     20  C4  ZIN A   1      -1.078  -2.065  -0.237  0.00  0.00     0.265 C 
ATOM     21  C3  ZIN A   1      -1.036  -0.536  -0.220  0.00  0.00     0.299 C 
ATOM     22  N2  ZIN A   1       0.363  -0.087  -0.198  0.00  0.00     0.087 N 
ATOM     23  C1  ZIN A   1       0.447   1.379  -0.239  0.00  0.00     0.310 C 
ATOM     24  C26 ZIN A   1       1.065  -0.622   0.977  0.00  0.00     0.299 C 
ATOM     25  C25 ZIN A   1       1.006  -2.151   0.950  0.00  0.00     0.265 C 
ATOM     26  H6  ZIN A   1      -0.855  -2.237   1.784  0.00  0.00     0.280 HD
ENDBRANCH  18  19
ENDBRANCH  17  18
ENDBRANCH  16  17
ENDBRANCH   1  16
TORSDOF 4
