REMARK  5 active torsions:
REMARK  status: ('A' for Active; 'I' for Inactive)
REMARK    1  A    between atoms: O1_1  and  C2_2 
REMARK    2  A    between atoms: N9_8  and  C11_10 
REMARK    3  A    between atoms: C11_10  and  C12_11 
REMARK    4  A    between atoms: C24_22  and  O26_23 
REMARK    5  A    between atoms: C29_26  and  O30_27 
ROOT
ATOM      1  C2  <0> d   1      -0.564  -0.236  -0.126  0.00  0.00     0.099 A 
ATOM      2  C3  <0> d   1      -0.587  -1.017  -1.279  0.00  0.00     0.040 A 
ATOM      3  C4  <0> d   1      -0.479  -2.398  -1.263  0.00  0.00     0.011 A 
ATOM      4  C5  <0> d   1      -0.326  -3.071  -0.064  0.00  0.00    -0.046 A 
ATOM      5  C6  <0> d   1      -0.306  -4.558   0.085  0.00  0.00     0.075 C 
ATOM      6  C7  <0> d   1      -0.076  -5.016   1.514  0.00  0.00     0.227 C 
ATOM      7  N9  <0> d   1       1.361  -5.152   1.787  0.00  0.00    -0.063 N 
ATOM      8  H10 <0> d   1       1.487  -5.543   2.708  0.00  0.00     0.280 HD
ATOM      9  C16 <0> d   1       2.037  -3.854   1.718  0.00  0.00     0.236 C 
ATOM     10  C17 <0> d   1       1.454  -2.891   2.761  0.00  0.00     0.048 C 
ATOM     11  C18 <0> d   1      -0.044  -2.750   2.483  0.00  0.00     0.054 C 
ATOM     12  C19 <0> d   1      -0.234  -2.283   1.059  0.00  0.00    -0.001 A 
ATOM     13  C20 <0> d   1      -0.391  -0.904   1.091  0.00  0.00     0.110 A 
ATOM     14  O21 <0> d   1      -0.380  -0.464   2.368  0.00  0.00    -0.339 OA
ATOM     15  C22 <0> d   1      -0.671  -1.600   3.250  0.00  0.00     0.174 C 
ATOM     16  C24 <0> d   1      -2.178  -1.661   3.392  0.00  0.00     0.148 C 
ATOM     17  C27 <0> d   1      -2.768  -3.049   3.493  0.00  0.00     0.037 C 
ATOM     18  C28 <0> d   1      -2.248  -3.961   2.383  0.00  0.00     0.043 C 
ATOM     19  C29 <0> d   1      -0.683  -4.103   2.578  0.00  0.00     0.101 C 
ENDROOT
BRANCH   7  20
ATOM     20  C11 <0> d   1       1.955  -6.056   0.794  0.00  0.00     0.240 C 
BRANCH  20  21
ATOM     21  C12 <0> d   1       3.409  -6.345   1.173  0.00  0.00     0.011 C 
ATOM     22  C15 <0> d   1       4.162  -7.187   0.130  0.00  0.00     0.006 C 
ATOM     23  C14 <0> d   1       4.808  -7.930   1.311  0.00  0.00     0.001 C 
ATOM     24  C13 <0> d   1       3.571  -7.533   2.135  0.00  0.00     0.006 C 
ENDBRANCH  20  21
ENDBRANCH   7  20
BRANCH  19  25
ATOM     25  O30 <0> d   1      -0.416  -4.650   3.871  0.00  0.00    -0.386 OA
ATOM     26  H54 <0> d   1      -0.804  -5.524   4.015  0.00  0.00     0.210 HD
ENDBRANCH  19  25
BRANCH  16  27
ATOM     27  O26 <0> d   1      -2.761  -1.012   2.260  0.00  0.00    -0.393 OA
ATOM     28  H49 <0> d   1      -3.728  -1.004   2.266  0.00  0.00     0.210 HD
ENDBRANCH  16  27
BRANCH   1  29
ATOM     29  O1  <0> d   1      -0.699   1.116  -0.181  0.00  0.00    -0.358 OA
ATOM     30  H31 <0> d   1       0.138   1.591  -0.275  0.00  0.00     0.217 HD
ENDBRANCH   1  29
TORSDOF 5
