REMARK  7 active torsions:
REMARK  status: ('A' for Active; 'I' for Inactive)
REMARK    1  A    between atoms: O2_2  and  C3_3 
REMARK    2  A    between atoms: C8_8  and  O9_9 
REMARK    3  A    between atoms: C19_18  and  O20_19 
REMARK    4  A    between atoms: O20_19  and  C21_20 
REMARK    5  A    between atoms: C44_40  and  O45_41 
REMARK    6  A    between atoms: C46_42  and  O47_43 
REMARK    7  A    between atoms: C56_51  and  O58_52 
ROOT
ATOM      1  C3  ZIN A   1      -8.194  -2.977  -5.163  0.00  0.00     0.101 A 
ATOM      2  C4  ZIN A   1      -7.300  -2.106  -4.565  0.00  0.00     0.050 A 
ATOM      3  C5  ZIN A   1      -7.661  -0.791  -4.309  0.00  0.00    -0.011 A 
ATOM      4  C6  ZIN A   1      -8.920  -0.347  -4.651  0.00  0.00    -0.044 A 
ATOM      5  C7  ZIN A   1      -9.823  -1.220  -5.246  0.00  0.00     0.047 A 
ATOM      6  C8  ZIN A   1      -9.466  -2.530  -5.506  0.00  0.00     0.099 A 
ATOM      7  C10 ZIN A   1      -9.369   1.069  -4.404  0.00  0.00     0.058 C 
ATOM      8  C11 ZIN A   1      -8.402   1.778  -3.455  0.00  0.00     0.120 C 
ATOM      9  N12 ZIN A   1      -7.036   1.502  -3.875  0.00  0.00    -0.400 N 
ATOM     10  C13 ZIN A   1      -6.640   0.117  -3.656  0.00  0.00     0.151 C 
ATOM     11  C14 ZIN A   1      -5.282  -0.137  -4.313  0.00  0.00     0.121 C 
ATOM     12  S15 ZIN A   1      -4.257   1.361  -4.461  0.00  0.00    -0.154 SA
ATOM     13  C16 ZIN A   1      -4.096   1.875  -2.765  0.00  0.00     0.119 C 
ATOM     14  C18 ZIN A   1      -4.864   3.010  -2.171  0.00  0.00     0.004 A 
ATOM     15  C19 ZIN A   1      -5.057   4.168  -2.911  0.00  0.00     0.096 A 
ATOM     16  C24 ZIN A   1      -5.803   5.237  -2.430  0.00  0.00     0.009 A 
ATOM     17  C25 ZIN A   1      -5.999   6.478  -3.263  0.00  0.00     0.054 C 
ATOM     18  C26 ZIN A   1      -6.360   5.132  -1.165  0.00  0.00     0.114 A 
ATOM     19  O27 ZIN A   1      -7.147   5.994  -0.487  0.00  0.00    -0.322 OA
ATOM     20  C28 ZIN A   1      -7.702   5.243   0.609  0.00  0.00     0.352 C 
ATOM     21  O29 ZIN A   1      -6.796   4.139   0.795  0.00  0.00    -0.322 OA
ATOM     22  C30 ZIN A   1      -6.148   3.983  -0.383  0.00  0.00     0.114 A 
ATOM     23  C31 ZIN A   1      -5.396   2.940  -0.861  0.00  0.00     0.024 A 
ATOM     24  C32 ZIN A   1      -5.137   1.680  -0.014  0.00  0.00     0.287 C 
ATOM     25  C34 ZIN A   1      -6.317   0.757   0.098  0.00  0.00     0.220 C 
ATOM     26  O35 ZIN A   1      -6.911   0.713  -1.239  0.00  0.00    -0.317 OA
ATOM     27  C36 ZIN A   1      -6.618  -0.175  -2.176  0.00  0.00     0.292 C 
ATOM     28  O37 ZIN A   1      -6.315  -1.297  -1.831  0.00  0.00    -0.262 OA
ATOM     29  N38 ZIN A   1      -3.704   1.298  -0.275  0.00  0.00     0.139 NA
ATOM     30  C39 ZIN A   1      -3.535   0.928  -1.726  0.00  0.00     0.280 C 
ATOM     31  C41 ZIN A   1      -2.068   0.623  -1.996  0.00  0.00     0.259 C 
ATOM     32  C43 ZIN A   1      -1.207   1.822  -1.678  0.00  0.00     0.017 A 
ATOM     33  C44 ZIN A   1      -0.913   2.734  -2.676  0.00  0.00     0.108 A 
ATOM     34  C46 ZIN A   1      -0.123   3.843  -2.385  0.00  0.00     0.107 A 
ATOM     35  C49 ZIN A   1       0.361   4.016  -1.100  0.00  0.00    -0.025 A 
ATOM     36  C50 ZIN A   1       1.214   5.216  -0.776  0.00  0.00     0.051 C 
ATOM     37  C51 ZIN A   1       0.069   3.095  -0.113  0.00  0.00     0.017 A 
ATOM     38  C52 ZIN A   1      -0.718   1.986  -0.396  0.00  0.00    -0.044 A 
ATOM     39  C53 ZIN A   1      -1.002   1.001   0.701  0.00  0.00     0.077 C 
ATOM     40  C54 ZIN A   1      -1.850  -0.180   0.245  0.00  0.00     0.251 C 
ATOM     41  C56 ZIN A   1      -3.327   0.102   0.516  0.00  0.00     0.389 C 
ATOM     42  N59 ZIN A   1      -1.579  -0.477  -1.155  0.00  0.00    -0.056 N 
ATOM     43  H60 ZIN A   1      -0.555  -0.501  -1.262  0.00  0.00     0.281 HD
ATOM     44  C61 ZIN A   1      -2.088  -1.773  -1.582  0.00  0.00     0.271 C 
ATOM     45  H72 ZIN A   1      -6.378   2.211  -3.825  0.00  0.00     0.154 HD
ENDROOT
BRANCH   1  46
ATOM     46  O2  ZIN A   1      -7.829  -4.262  -5.418  0.00  0.00    -0.353 OA
ATOM     47  C1  ZIN A   1      -6.507  -4.649  -5.038  0.00  0.00     0.210 C 
ENDBRANCH   1  46
BRANCH   6  48
ATOM     48  O9  ZIN A   1     -10.355  -3.377  -6.091  0.00  0.00    -0.358 OA
ATOM     49  H67 ZIN A   1     -10.315  -3.383  -7.057  0.00  0.00     0.217 HD
ENDBRANCH   6  48
BRANCH  15  50
ATOM     50  O20 ZIN A   1      -4.511   4.260  -4.153  0.00  0.00    -0.278 OA
BRANCH  50  51
ATOM     51  C21 ZIN A   1      -5.322   4.014  -5.194  0.00  0.00     0.260 C 
ATOM     52  C22 ZIN A   1      -4.761   3.970  -6.592  0.00  0.00     0.126 C 
ATOM     53  O23 ZIN A   1      -6.502   3.829  -5.011  0.00  0.00    -0.265 OA
ENDBRANCH  50  51
ENDBRANCH  15  50
BRANCH  41  54
ATOM     54  O58 ZIN A   1      -4.133  -1.018   0.191  0.00  0.00    -0.366 OA
ATOM     55  H95 ZIN A   1      -3.972  -1.792   0.748  0.00  0.00     0.212 HD
ENDBRANCH  41  54
BRANCH  33  56
ATOM     56  O45 ZIN A   1      -1.385   2.555  -3.939  0.00  0.00    -0.357 OA
ATOM     57  H85 ZIN A   1      -2.247   2.964  -4.098  0.00  0.00     0.217 HD
ENDBRANCH  33  56
BRANCH  34  58
ATOM     58  O47 ZIN A   1       0.170   4.748  -3.356  0.00  0.00    -0.353 OA
ATOM     59  C48 ZIN A   1      -0.734   5.843  -3.516  0.00  0.00     0.210 C 
ENDBRANCH  34  58
TORSDOF 7
