REMARK  6 active torsions:
REMARK  status: ('A' for Active; 'I' for Inactive)
REMARK    1  A    between atoms: O2_2  and  C3_3 
REMARK    2  A    between atoms: C8_8  and  O9_9 
REMARK    3  A    between atoms: C13_13  and  C15_14 
REMARK    4  A    between atoms: C15_14  and  C16_15 
REMARK    5  A    between atoms: N19_18  and  C21_20 
REMARK    6  A    between atoms: C21_20  and  C22_21 
ROOT
ATOM      1  C15 <0> d   1      -6.817  -1.148   1.306  0.00  0.00     0.017 C 
ENDROOT
BRANCH   1   2
ATOM      2  C13 <0> d   1      -5.887  -1.230   0.094  0.00  0.00     0.065 A 
ATOM      3  C11 <0> d   1      -4.748  -0.250   0.242  0.00  0.00     0.164 A 
ATOM      4  C6  <0> d   1      -4.814   0.701  -0.877  0.00  0.00     0.019 A 
ATOM      5  O12 <0> d   1      -3.923  -0.247   1.130  0.00  0.00    -0.292 OA
ATOM      6  C5  <0> d   1      -5.892   0.404  -1.713  0.00  0.00    -0.041 A 
ATOM      7  C7  <0> d   1      -3.982   1.792  -1.183  0.00  0.00     0.055 A 
ATOM      8  C4  <0> d   1      -6.135   1.179  -2.829  0.00  0.00     0.047 A 
ATOM      9  C30 <0> d   1      -6.629  -0.801  -1.179  0.00  0.00     0.052 A 
ATOM     10  C3  <0> d   1      -5.312   2.256  -3.128  0.00  0.00     0.102 A 
ATOM     11  C8  <0> d   1      -4.229   2.557  -2.302  0.00  0.00     0.102 A 
BRANCH  10  12
ATOM     12  O2  <0> d   1      -5.558   3.013  -4.227  0.00  0.00    -0.353 OA
ATOM     13  C1  <0> d   1      -6.684   2.648  -5.028  0.00  0.00     0.210 C 
ENDBRANCH  10  12
BRANCH  11  14
ATOM     14  O9  <0> d   1      -3.422   3.612  -2.596  0.00  0.00    -0.353 OA
ATOM     15  C10 <0> d   1      -2.338   3.869  -1.701  0.00  0.00     0.210 C 
ENDBRANCH  11  14
ENDBRANCH   1   2
BRANCH   1  16
ATOM     16  C16 <0> d   1      -7.883  -2.241   1.205  0.00  0.00    -0.011 C 
ATOM     17  C29 <0> d   1      -8.900  -2.071   2.338  0.00  0.00     0.032 C 
ATOM     18  C28 <0> d   1      -9.917  -3.213   2.279  0.00  0.00     0.235 C 
ATOM     19  N19 <0> d   1      -9.224  -4.498   2.430  0.00  0.00    -0.067 N 
ATOM     20  C18 <0> d   1      -8.299  -4.700   1.309  0.00  0.00     0.235 C 
ATOM     21  H20 <0> d   1      -8.706  -4.500   3.296  0.00  0.00     0.280 HD
ATOM     22  C17 <0> d   1      -7.220  -3.616   1.330  0.00  0.00     0.032 C 
BRANCH  19  23
ATOM     23  C21 <0> d   1     -10.213  -5.584   2.450  0.00  0.00     0.273 C 
BRANCH  23  24
ATOM     24  C22 <0> d   1     -11.235  -5.314   3.524  0.00  0.00    -0.033 A 
ATOM     25  C27 <0> d   1     -12.376  -4.592   3.225  0.00  0.00     0.009 A 
ATOM     26  C26 <0> d   1     -13.316  -4.348   4.209  0.00  0.00     0.001 A 
ATOM     27  C25 <0> d   1     -13.111  -4.816   5.493  0.00  0.00     0.000 A 
ATOM     28  C24 <0> d   1     -11.967  -5.533   5.793  0.00  0.00     0.001 A 
ATOM     29  C23 <0> d   1     -11.029  -5.782   4.808  0.00  0.00     0.009 A 
ENDBRANCH  23  24
ENDBRANCH  19  23
ENDBRANCH   1  16
TORSDOF 6
