REMARK  9 active torsions:
REMARK  status: ('A' for Active; 'I' for Inactive)
REMARK    1  A    between atoms: O2_2  and  C3_3 
REMARK    2  A    between atoms: C4_4  and  O5_5 
REMARK    3  A    between atoms: O5_5  and  C6_6 
REMARK    4  A    between atoms: C6_6  and  C7_7 
REMARK    5  A    between atoms: C7_7  and  C8_8 
REMARK    6  A    between atoms: C8_8  and  N9_9 
REMARK    7  A    between atoms: C20_20  and  N21_21 
REMARK       I    between atoms: N21_21  and  C22_22 
REMARK    8  A    between atoms: C22_22  and  C24_24 
REMARK    9  A    between atoms: C27_27  and  N28_28 
ROOT
ATOM      1  C3  ZIN A   1       0.607  -0.608  -1.057  0.00  0.00     0.132 A 
ATOM      2  C4  ZIN A   1      -0.126  -0.923  -2.192  0.00  0.00     0.104 A 
ATOM      3  C15 ZIN A   1       0.484  -1.540  -3.281  0.00  0.00     0.041 A 
ATOM      4  C16 ZIN A   1       1.827  -1.848  -3.248  0.00  0.00     0.021 A 
ATOM      5  C17 ZIN A   1       2.577  -1.539  -2.117  0.00  0.00     0.043 A 
ATOM      6  C18 ZIN A   1       1.972  -0.909  -1.010  0.00  0.00     0.126 A 
ATOM      7  N19 ZIN A   1       2.721  -0.617   0.084  0.00  0.00    -0.060 NA
ATOM      8  C20 ZIN A   1       3.993  -0.903   0.145  0.00  0.00     0.712 A 
ATOM      9  N31 ZIN A   1       4.672  -1.513  -0.875  0.00  0.00    -0.162 N 
ATOM     10  C32 ZIN A   1       6.084  -1.911  -0.992  0.00  0.00     0.171 A 
ATOM     11  C33 ZIN A   1       6.165  -2.541  -2.396  0.00  0.00     0.172 A 
ATOM     12  N34 ZIN A   1       4.797  -2.431  -2.916  0.00  0.00    -0.270 NA
ATOM     13  C35 ZIN A   1       4.021  -1.854  -2.042  0.00  0.00     0.153 A 
ENDROOT
BRANCH   8  14
ATOM     14  N21 ZIN A   1       4.685  -0.575   1.291  0.00  0.00    -0.153 N 
ATOM     15  C22 ZIN A   1       4.048   0.027   2.314  0.00  0.00     0.272 C 
ATOM     16  O23 ZIN A   1       2.862   0.280   2.227  0.00  0.00    -0.267 OA
ATOM     17  H55 ZIN A   1       5.631  -0.777   1.360  0.00  0.00     0.187 HD
BRANCH  15  18
ATOM     18  C24 ZIN A   1       4.788   0.378   3.541  0.00  0.00     0.069 A 
ATOM     19  C30 ZIN A   1       4.143   1.003   4.616  0.00  0.00     0.154 A 
ATOM     20  N29 ZIN A   1       4.840   1.296   5.698  0.00  0.00    -0.074 NA
ATOM     21  C27 ZIN A   1       6.135   1.016   5.770  0.00  0.00     0.719 A 
ATOM     22  N26 ZIN A   1       6.783   0.429   4.772  0.00  0.00    -0.074 NA
ATOM     23  C25 ZIN A   1       6.157   0.099   3.658  0.00  0.00     0.154 A 
BRANCH  21  24
ATOM     24  N28 ZIN A   1       6.828   1.344   6.917  0.00  0.00    -0.231 N 
ATOM     25  H57 ZIN A   1       7.775   1.146   6.984  0.00  0.00     0.174 HD
ATOM     26  H58 ZIN A   1       6.368   1.773   7.655  0.00  0.00     0.174 HD
ENDBRANCH  21  24
ENDBRANCH  15  18
ENDBRANCH   8  14
BRANCH   1  27
ATOM     27  O2  ZIN A   1       0.002  -0.004   0.002  0.00  0.00    -0.351 OA
ATOM     28  C1  ZIN A   1      -0.017   1.425   0.010  0.00  0.00     0.210 C 
ENDBRANCH   1  27
BRANCH   2  29
ATOM     29  O5  ZIN A   1      -1.451  -0.627  -2.241  0.00  0.00    -0.348 OA
BRANCH  29  30
ATOM     30  C6  ZIN A   1      -2.150  -0.977  -3.437  0.00  0.00     0.177 C 
BRANCH  30  31
ATOM     31  C7  ZIN A   1      -3.619  -0.568  -3.308  0.00  0.00     0.057 C 
BRANCH  31  32
ATOM     32  C8  ZIN A   1      -4.367  -0.943  -4.589  0.00  0.00     0.274 C 
BRANCH  32  33
ATOM     33  N9  ZIN A   1      -5.777  -0.551  -4.465  0.00  0.00     0.092 N 
ATOM     34  C14 ZIN A   1      -6.577  -1.103  -5.568  0.00  0.00     0.298 C 
ATOM     35  C13 ZIN A   1      -8.024  -0.622  -5.433  0.00  0.00     0.198 C 
ATOM     36  O12 ZIN A   1      -8.531  -1.006  -4.152  0.00  0.00    -0.388 OA
ATOM     37  C11 ZIN A   1      -7.777  -0.486  -3.054  0.00  0.00     0.198 C 
ATOM     38  C10 ZIN A   1      -6.327  -0.965  -3.166  0.00  0.00     0.298 C 
ENDBRANCH  32  33
ENDBRANCH  31  32
ENDBRANCH  30  31
ENDBRANCH  29  30
ENDBRANCH   2  29
TORSDOF 9
