REMARK  2 active torsions:
REMARK  status: ('A' for Active; 'I' for Inactive)
REMARK    1  A    between atoms: C7_6  and  N8_7 
REMARK    2  A    between atoms: C22_21  and  C23_22 
ROOT
ATOM      1  C1  ZIN A   1       0.033   1.890   0.315  0.00  0.00     0.035 C 
ATOM      2  C2  ZIN A   1       0.052   0.370   0.141  0.00  0.00     0.110 C 
ATOM      3  C4  ZIN A   1      -1.385  -0.155   0.077  0.00  0.00     0.201 C 
ATOM      4  O5  ZIN A   1      -2.012   0.066   1.347  0.00  0.00    -0.345 OA
ATOM      5  C6  ZIN A   1      -1.369  -0.463   2.425  0.00  0.00     0.121 A 
ATOM      6  C7  ZIN A   1      -2.089  -0.835   3.551  0.00  0.00     0.086 A 
ATOM      7  C15 ZIN A   1      -1.438  -1.383   4.658  0.00  0.00     0.141 A 
ATOM      8  F16 ZIN A   1      -2.150  -1.739   5.750  0.00  0.00    -0.204 F 
ATOM      9  C17 ZIN A   1      -0.083  -1.560   4.641  0.00  0.00     0.062 A 
ATOM     10  C18 ZIN A   1       0.656  -1.189   3.514  0.00  0.00     0.048 A 
ATOM     11  C19 ZIN A   1       0.014  -0.629   2.395  0.00  0.00     0.085 A 
ATOM     12  N20 ZIN A   1       0.745  -0.246   1.283  0.00  0.00    -0.346 N 
ATOM     13  C21 ZIN A   1       2.074  -0.417   1.212  0.00  0.00     0.114 A 
ATOM     14  C22 ZIN A   1       2.811  -0.962   2.244  0.00  0.00     0.107 A 
ATOM     15  C26 ZIN A   1       2.116  -1.377   3.474  0.00  0.00     0.203 A 
ATOM     16  O27 ZIN A   1       2.722  -1.855   4.417  0.00  0.00    -0.286 OA
ENDROOT
BRANCH   6  17
ATOM     17  N8  ZIN A   1      -3.474  -0.661   3.577  0.00  0.00    -0.275 NA
ATOM     18  C14 ZIN A   1      -4.165  -1.954   3.680  0.00  0.00     0.126 C 
ATOM     19  C13 ZIN A   1      -5.678  -1.727   3.625  0.00  0.00     0.286 C 
ATOM     20  N11 ZIN A   1      -6.076  -0.832   4.721  0.00  0.00     0.086 N 
ATOM     21  C10 ZIN A   1      -5.385   0.461   4.619  0.00  0.00     0.286 C 
ATOM     22  C12 ZIN A   1      -7.533  -0.649   4.749  0.00  0.00     0.310 C 
ATOM     23  C9  ZIN A   1      -3.872   0.233   4.673  0.00  0.00     0.126 C 
ENDBRANCH   6  17
BRANCH  14  24
ATOM     24  C23 ZIN A   1       4.262  -1.124   2.117  0.00  0.00     0.214 C 
ATOM     25  O24 ZIN A   1       4.830  -0.775   1.090  0.00  0.00    -0.644 OA
ATOM     26  O25 ZIN A   1       4.907  -1.609   3.038  0.00  0.00    -0.644 OA
ENDBRANCH  14  24
TORSDOF 2
