REMARK  7 active torsions:
REMARK  status: ('A' for Active; 'I' for Inactive)
REMARK    1  A    between atoms: C9_9  and  C10_10 
REMARK    2  A    between atoms: C10_10  and  C11_11 
REMARK    3  A    between atoms: C11_11  and  C12_12 
REMARK    4  A    between atoms: C12_12  and  C13_13 
REMARK    5  A    between atoms: C13_13  and  N14_14 
REMARK    6  A    between atoms: N18_18  and  C19_19 
REMARK    7  A    between atoms: C24_24  and  C25_25 
REMARK       I    between atoms: C25_25  and  N26_26 
ROOT
ATOM      1  N1  <0> d   1      -0.027  -1.124  -0.115  0.00  0.00    -0.191 NA
ATOM      2  C2  <0> d   1      -0.037   0.012  -0.100  0.00  0.00     0.099 C 
ATOM      3  C3  <0> d   1      -0.051   1.444  -0.081  0.00  0.00     0.045 A 
ATOM      4  C4  <0> d   1      -1.271   2.133  -0.065  0.00  0.00     0.025 A 
ATOM      5  C5  <0> d   1      -1.300   3.496  -0.047  0.00  0.00     0.032 A 
ATOM      6  C6  <0> d   1      -0.112   4.223  -0.045  0.00  0.00     0.043 A 
ATOM      7  N7  <0> d   1       0.169   5.569  -0.030  0.00  0.00    -0.365 N 
ATOM      8  C8  <0> d   1       1.523   5.764  -0.035  0.00  0.00     0.096 A 
ATOM      9  C9  <0> d   1       2.156   4.581  -0.054  0.00  0.00    -0.030 A 
ATOM     10  C33 <0> d   1       1.121   3.543  -0.061  0.00  0.00    -0.000 A 
ATOM     11  C34 <0> d   1       1.149   2.151  -0.073  0.00  0.00     0.037 A 
ATOM     12  H37 <0> d   1      -0.495   6.276  -0.018  0.00  0.00     0.165 HD
ENDROOT
BRANCH   9  13
ATOM     13  C10 <0> d   1       3.647   4.361  -0.065  0.00  0.00     0.041 C 
BRANCH  13  14
ATOM     14  C11 <0> d   1       4.125   4.180  -1.507  0.00  0.00     0.006 C 
BRANCH  14  15
ATOM     15  C12 <0> d   1       5.639   3.957  -1.518  0.00  0.00     0.028 C 
BRANCH  15  16
ATOM     16  C13 <0> d   1       6.117   3.776  -2.960  0.00  0.00     0.235 C 
BRANCH  16  17
ATOM     17  N14 <0> d   1       7.570   3.562  -2.971  0.00  0.00    -0.068 N 
ATOM     18  H15 <0> d   1       8.025   4.322  -2.488  0.00  0.00     0.280 HD
ATOM     19  C32 <0> d   1       7.882   2.298  -2.292  0.00  0.00     0.254 C 
ATOM     20  C31 <0> d   1       9.402   2.131  -2.199  0.00  0.00     0.150 C 
ATOM     21  N18 <0> d   1       9.966   2.245  -3.553  0.00  0.00    -0.378 N 
ATOM     22  C17 <0> d   1       9.574   3.404  -4.371  0.00  0.00     0.150 C 
ATOM     23  C16 <0> d   1       8.046   3.512  -4.359  0.00  0.00     0.254 C 
BRANCH  21  24
ATOM     24  C19 <0> d   1      10.850   1.281  -4.049  0.00  0.00     0.031 A 
ATOM     25  C30 <0> d   1      11.275   1.345  -5.363  0.00  0.00     0.043 A 
ATOM     26  C29 <0> d   1      12.162   0.381  -5.848  0.00  0.00     0.003 A 
ATOM     27  C22 <0> d   1      12.610  -0.654  -5.006  0.00  0.00     0.086 A 
ATOM     28  C28 <0> d   1      12.804   0.147  -7.141  0.00  0.00     0.057 A 
ATOM     29  C21 <0> d   1      12.166  -0.704  -3.690  0.00  0.00     0.040 A 
ATOM     30  O23 <0> d   1      13.442  -1.433  -5.727  0.00  0.00    -0.304 OA
ATOM     31  C20 <0> d   1      11.295   0.254  -3.219  0.00  0.00     0.032 A 
ATOM     32  C24 <0> d   1      13.563  -0.969  -6.988  0.00  0.00     0.144 A 
BRANCH  32  33
ATOM     33  C25 <0> d   1      14.391  -1.579  -8.038  0.00  0.00     0.273 C 
ATOM     34  N26 <0> d   1      15.105  -2.690  -7.773  0.00  0.00    -0.364 N 
ATOM     35  H53 <0> d   1      15.073  -3.088  -6.888  0.00  0.00     0.159 HD
ATOM     36  H54 <0> d   1      15.652  -3.093  -8.466  0.00  0.00     0.159 HD
ATOM     37  O27 <0> d   1      14.431  -1.080  -9.147  0.00  0.00    -0.266 OA
ENDBRANCH  32  33
ENDBRANCH  21  24
ENDBRANCH  16  17
ENDBRANCH  15  16
ENDBRANCH  14  15
ENDBRANCH  13  14
ENDBRANCH   9  13
TORSDOF 7
