REMARK  1 active torsions:
REMARK  status: ('A' for Active; 'I' for Inactive)
REMARK    1  A    between atoms: C4_3  and  C6_4 
ROOT
ATOM      1  C1  ZIN A   1      -0.019   1.526   0.010  0.00  0.00     0.046 C 
ATOM      2  C2  ZIN A   1       0.002  -0.004   0.002  0.00  0.00     0.251 C 
ATOM      3  C4  ZIN A   1       0.720  -0.499  -1.256  0.00  0.00     0.187 C 
ATOM      4  O12 ZIN A   1       0.803  -1.926  -1.222  0.00  0.00    -0.377 OA
ATOM      5  C13 ZIN A   1       1.492  -2.436  -0.077  0.00  0.00     0.199 C 
ATOM      6  C14 ZIN A   1       0.782  -1.960   1.193  0.00  0.00     0.298 C 
ATOM      7  N15 ZIN A   1       0.715  -0.492   1.192  0.00  0.00     0.093 N 
ATOM      8  C16 ZIN A   1       0.089   0.008   2.423  0.00  0.00     0.310 C 
ENDROOT
BRANCH   3   9
ATOM      9  C6  ZIN A   1      -0.050  -0.068  -2.478  0.00  0.00    -0.027 A 
ATOM     10  C11 ZIN A   1       0.360   1.039  -3.198  0.00  0.00     0.010 A 
ATOM     11  C10 ZIN A   1      -0.344   1.432  -4.321  0.00  0.00     0.001 A 
ATOM     12  C9  ZIN A   1      -1.463   0.724  -4.718  0.00  0.00     0.000 A 
ATOM     13  C8  ZIN A   1      -1.875  -0.380  -3.995  0.00  0.00     0.001 A 
ATOM     14  C7  ZIN A   1      -1.169  -0.775  -2.874  0.00  0.00     0.010 A 
ENDBRANCH   3   9
TORSDOF 1
