REMARK  0 active torsions:
REMARK  status: ('A' for Active; 'I' for Inactive)
ROOT
ATOM      1  C1  ZIN A   1      -0.018   1.465   0.010  0.00  0.00     0.269 C 
ATOM      2  N2  ZIN A   1       0.002  -0.004   0.002  0.00  0.00    -0.072 N 
ATOM      3  H3  ZIN A   1       0.474  -0.334  -0.827  0.00  0.00     0.279 HD
ATOM      4  C4  ZIN A   1      -1.376  -0.521   0.030  0.00  0.00     0.249 C 
ATOM      5  C5  ZIN A   1      -2.085   0.086   1.237  0.00  0.00     0.125 C 
ATOM      6  N6  ZIN A   1      -1.387  -0.281   2.492  0.00  0.00    -0.255 NA
ATOM      7  C7  ZIN A   1      -2.214   0.121   3.519  0.00  0.00     0.112 A 
ATOM      8  N8  ZIN A   1      -3.397   0.569   3.051  0.00  0.00    -0.248 NA
ATOM      9  C9  ZIN A   1      -4.394   0.931   3.817  0.00  0.00     0.118 A 
ATOM     10  C10 ZIN A   1      -4.264   0.859   5.191  0.00  0.00     0.020 A 
ATOM     11  C11 ZIN A   1      -3.059   0.444   5.715  0.00  0.00     0.012 A 
ATOM     12  C12 ZIN A   1      -1.989   0.103   4.866  0.00  0.00    -0.013 A 
ATOM     13  C13 ZIN A   1      -0.730  -0.141   5.590  0.00  0.00     0.081 C 
ATOM     14  C14 ZIN A   1       0.569  -0.393   4.942  0.00  0.00    -0.046 A 
ATOM     15  C15 ZIN A   1       1.608  -0.638   5.860  0.00  0.00     0.008 A 
ATOM     16  C16 ZIN A   1       2.876  -0.970   5.458  0.00  0.00     0.001 A 
ATOM     17  C17 ZIN A   1       3.149  -1.080   4.107  0.00  0.00     0.001 A 
ATOM     18  C18 ZIN A   1       2.149  -0.811   3.205  0.00  0.00     0.009 A 
ATOM     19  C19 ZIN A   1       0.864  -0.424   3.615  0.00  0.00    -0.032 A 
ATOM     20  C20 ZIN A   1      -0.002   0.006   2.473  0.00  0.00     0.124 C 
ATOM     21  C22 ZIN A   1       0.694  -0.497   1.195  0.00  0.00     0.259 C 
ENDROOT
TORSDOF 0
