REMARK  7 active torsions:
REMARK  status: ('A' for Active; 'I' for Inactive)
REMARK    1  A    between atoms: C2_2  and  C3_3 
REMARK    2  A    between atoms: C3_3  and  C4_4 
REMARK    3  A    between atoms: C11_11  and  C12_12 
REMARK    4  A    between atoms: C14_14  and  S15_15 
REMARK    5  A    between atoms: S15_15  and  N18_18 
REMARK    6  A    between atoms: C27_27  and  O28_28 
REMARK    7  A    between atoms: O28_28  and  C29_29 
ROOT
ATOM      1  C12 ZIN A   1      -3.399  -3.266  -3.643  0.00  0.00     0.047 A 
ATOM      2  C13 ZIN A   1      -4.212  -4.296  -4.120  0.00  0.00     0.043 A 
ATOM      3  C14 ZIN A   1      -5.382  -3.996  -4.785  0.00  0.00     0.080 A 
ATOM      4  C25 ZIN A   1      -5.755  -2.677  -4.981  0.00  0.00     0.028 A 
ATOM      5  C26 ZIN A   1      -4.959  -1.649  -4.514  0.00  0.00     0.039 A 
ATOM      6  C27 ZIN A   1      -3.782  -1.933  -3.840  0.00  0.00     0.083 A 
ENDROOT
BRANCH   1   7
ATOM      7  C11 ZIN A   1      -2.144  -3.581  -2.931  0.00  0.00     0.167 A 
ATOM      8  N10 ZIN A   1      -1.401  -2.596  -2.488  0.00  0.00    -0.224 NA
ATOM      9  C9  ZIN A   1      -0.247  -2.835  -1.833  0.00  0.00     0.119 A 
ATOM     10  C4  ZIN A   1       0.739  -2.004  -1.265  0.00  0.00     0.086 A 
ATOM     11  C8  ZIN A   1       0.163  -4.158  -1.622  0.00  0.00     0.153 A 
ATOM     12  N5  ZIN A   1       1.670  -2.755  -0.743  0.00  0.00    -0.174 NA
ATOM     13  N6  ZIN A   1       1.349  -4.104  -0.943  0.00  0.00    -0.266 N 
ATOM     14  C7  ZIN A   1       2.144  -5.254  -0.504  0.00  0.00     0.180 C 
ATOM     15  C32 ZIN A   1      -0.652  -5.209  -2.102  0.00  0.00     0.299 A 
ATOM     16  N31 ZIN A   1      -1.792  -4.891  -2.753  0.00  0.00    -0.188 NA
ATOM     17  O33 ZIN A   1      -0.330  -6.373  -1.938  0.00  0.00    -0.263 OA
BRANCH  10  18
ATOM     18  C3  ZIN A   1       0.718  -0.497  -1.257  0.00  0.00     0.063 C 
BRANCH  18  19
ATOM     19  C2  ZIN A   1       0.002  -0.004   0.002  0.00  0.00     0.002 C 
ATOM     20  C1  ZIN A   1      -0.019   1.526   0.010  0.00  0.00     0.005 C 
ENDBRANCH  18  19
ENDBRANCH  10  18
ENDBRANCH   1   7
BRANCH   6  21
ATOM     21  O28 ZIN A   1      -2.999  -0.924  -3.380  0.00  0.00    -0.351 OA
BRANCH  21  22
ATOM     22  C29 ZIN A   1      -3.449   0.410  -3.627  0.00  0.00     0.171 C 
ATOM     23  C30 ZIN A   1      -2.444   1.403  -3.040  0.00  0.00     0.034 C 
ENDBRANCH  21  22
ENDBRANCH   6  21
BRANCH   3  24
ATOM     24  S15 ZIN A   1      -6.408  -5.296  -5.387  0.00  0.00     0.261 S 
ATOM     25  O16 ZIN A   1      -7.177  -4.743  -6.446  0.00  0.00    -0.200 OA
ATOM     26  O17 ZIN A   1      -5.566  -6.429  -5.547  0.00  0.00    -0.200 OA
BRANCH  24  27
ATOM     27  N18 ZIN A   1      -7.477  -5.675  -4.181  0.00  0.00    -0.303 N 
ATOM     28  C24 ZIN A   1      -8.778  -4.996  -4.085  0.00  0.00     0.165 C 
ATOM     29  C23 ZIN A   1      -8.956  -4.471  -2.661  0.00  0.00     0.292 C 
ATOM     30  N21 ZIN A   1      -8.756  -5.570  -1.707  0.00  0.00     0.087 N 
ATOM     31  C20 ZIN A   1      -7.388  -6.099  -1.781  0.00  0.00     0.292 C 
ATOM     32  C22 ZIN A   1      -9.083  -5.146  -0.339  0.00  0.00     0.310 C 
ATOM     33  C19 ZIN A   1      -7.149  -6.694  -3.173  0.00  0.00     0.165 C 
ENDBRANCH  24  27
ENDBRANCH   3  24
TORSDOF 7
