REMARK  10 active torsions:
REMARK  status: ('A' for Active; 'I' for Inactive)
REMARK    1  A    between atoms: O2_2  and  C3_3 
REMARK    2  A    between atoms: C3_3  and  C5_5 
REMARK    3  A    between atoms: C7_6  and  O9_7 
REMARK    4  A    between atoms: C11_9  and  O13_10 
REMARK    5  A    between atoms: O13_10  and  C14_11 
REMARK    6  A    between atoms: C14_11  and  C16_13 
REMARK    7  A    between atoms: C18_15  and  O19_16 
REMARK    8  A    between atoms: C21_18  and  O22_19 
REMARK    9  A    between atoms: C24_21  and  O25_22 
REMARK   10  A    between atoms: C41_37  and  O42_38 
ROOT
ATOM      1  C5  ZIN A   1      -1.184  -2.577  -0.288  0.00  0.00     0.121 C 
ATOM      2  C7  ZIN A   1      -0.764  -2.954  -1.709  0.00  0.00     0.164 C 
ATOM      3  C11 ZIN A   1      -1.525  -2.082  -2.711  0.00  0.00     0.162 C 
ATOM      4  C28 ZIN A   1      -3.027  -2.321  -2.549  0.00  0.00     0.042 C 
ATOM      5  C29 ZIN A   1      -3.457  -1.959  -1.129  0.00  0.00     0.019 C 
ATOM      6  C31 ZIN A   1      -3.187  -0.476  -0.865  0.00  0.00     0.240 C 
ATOM      7  N32 ZIN A   1      -3.623  -0.140   0.495  0.00  0.00    -0.061 N 
ATOM      8  H33 ZIN A   1      -4.593  -0.394   0.601  0.00  0.00     0.280 HD
ATOM      9  C34 ZIN A   1      -3.477   1.299   0.738  0.00  0.00     0.240 C 
ATOM     10  C35 ZIN A   1      -4.236   1.683   2.016  0.00  0.00     0.069 C 
ATOM     11  C36 ZIN A   1      -3.846   0.711   3.101  0.00  0.00    -0.019 A 
ATOM     12  C37 ZIN A   1      -3.211  -0.460   2.858  0.00  0.00     0.048 A 
ATOM     13  N38 ZIN A   1      -2.992  -1.121   4.036  0.00  0.00    -0.357 N 
ATOM     14  C39 ZIN A   1      -3.484  -0.384   5.077  0.00  0.00     0.046 A 
ATOM     15  C40 ZIN A   1      -3.509  -0.613   6.450  0.00  0.00     0.067 A 
ATOM     16  C41 ZIN A   1      -4.098   0.365   7.240  0.00  0.00     0.070 A 
ATOM     17  C44 ZIN A   1      -4.642   1.522   6.699  0.00  0.00     0.038 A 
ATOM     18  C45 ZIN A   1      -4.631   1.771   5.349  0.00  0.00     0.017 A 
ATOM     19  C46 ZIN A   1      -4.042   0.801   4.531  0.00  0.00    -0.001 A 
ATOM     20  C47 ZIN A   1      -2.821  -0.894   1.468  0.00  0.00     0.238 C 
ATOM     21  C49 ZIN A   1      -3.108  -2.385   1.284  0.00  0.00     0.045 C 
ATOM     22  C50 ZIN A   1      -2.687  -2.809  -0.117  0.00  0.00     0.010 C 
ATOM     23  H77 ZIN A   1      -2.555  -1.982   4.120  0.00  0.00     0.166 HD
ENDROOT
BRANCH   3  24
ATOM     24  O13 ZIN A   1      -1.226  -0.684  -2.461  0.00  0.00    -0.309 OA
BRANCH  24  25
ATOM     25  C14 ZIN A   1      -0.114  -0.184  -3.036  0.00  0.00     0.294 C 
ATOM     26  O15 ZIN A   1       0.639  -0.919  -3.643  0.00  0.00    -0.259 OA
BRANCH  25  27
ATOM     27  C16 ZIN A   1       0.189   1.255  -2.927  0.00  0.00     0.045 A 
ATOM     28  C27 ZIN A   1       1.356   1.770  -3.498  0.00  0.00     0.057 A 
ATOM     29  C24 ZIN A   1       1.635   3.120  -3.399  0.00  0.00     0.105 A 
ATOM     30  C21 ZIN A   1       0.760   3.965  -2.722  0.00  0.00     0.135 A 
ATOM     31  C18 ZIN A   1      -0.401   3.454  -2.147  0.00  0.00     0.105 A 
ATOM     32  C17 ZIN A   1      -0.687   2.106  -2.248  0.00  0.00     0.057 A 
BRANCH  29  33
ATOM     33  O25 ZIN A   1       2.768   3.623  -3.958  0.00  0.00    -0.353 OA
ATOM     34  C26 ZIN A   1       3.621   2.699  -4.638  0.00  0.00     0.210 C 
ENDBRANCH  29  33
BRANCH  30  35
ATOM     35  O22 ZIN A   1       1.039   5.291  -2.621  0.00  0.00    -0.351 OA
ATOM     36  C23 ZIN A   1       1.804   5.709  -1.489  0.00  0.00     0.210 C 
ENDBRANCH  30  35
BRANCH  31  37
ATOM     37  O19 ZIN A   1      -1.253   4.282  -1.486  0.00  0.00    -0.353 OA
ATOM     38  C20 ZIN A   1      -2.364   3.675  -0.823  0.00  0.00     0.210 C 
ENDBRANCH  31  37
ENDBRANCH  25  27
ENDBRANCH  24  25
ENDBRANCH   3  24
BRANCH   2  39
ATOM     39  O9  ZIN A   1      -1.067  -4.330  -1.947  0.00  0.00    -0.387 OA
ATOM     40  C10 ZIN A   1      -0.185  -4.968  -2.872  0.00  0.00     0.202 C 
ENDBRANCH   2  39
BRANCH   1  41
ATOM     41  C3  ZIN A   1      -0.870  -1.124  -0.040  0.00  0.00     0.265 C 
ATOM     42  O4  ZIN A   1      -0.907  -0.334  -0.953  0.00  0.00    -0.265 OA
BRANCH  41  43
ATOM     43  O2  ZIN A   1      -0.548  -0.708   1.195  0.00  0.00    -0.326 OA
ATOM     44  C1  ZIN A   1      -0.116   0.671   1.334  0.00  0.00     0.213 C 
ENDBRANCH  41  43
ENDBRANCH   1  41
BRANCH  16  45
ATOM     45  O42 ZIN A   1      -4.144   0.184   8.587  0.00  0.00    -0.356 OA
ATOM     46  C43 ZIN A   1      -4.759   1.216   9.360  0.00  0.00     0.210 C 
ENDBRANCH  16  45
TORSDOF 10
