REMARK  11 active torsions:
REMARK  status: ('A' for Active; 'I' for Inactive)
REMARK    1  A    between atoms: C2_2  and  C3_3 
REMARK    2  A    between atoms: C3_3  and  O4_4 
REMARK    3  A    between atoms: O4_4  and  C5_5 
REMARK    4  A    between atoms: C8_8  and  C9_9 
REMARK    5  A    between atoms: C9_9  and  O11_11 
REMARK    6  A    between atoms: O11_11  and  C12_12 
REMARK    7  A    between atoms: C12_12  and  C13_13 
REMARK    8  A    between atoms: C13_13  and  N14_14 
REMARK    9  A    between atoms: N14_14  and  C16_16 
REMARK   10  A    between atoms: N14_14  and  C18_18 
REMARK   11  A    between atoms: C21_21  and  N22_22 
ROOT
ATOM      1  C5  ZIN A   1       1.588  -2.829  -2.053  0.00  0.00     0.095 A 
ATOM      2  C6  ZIN A   1       2.080  -2.003  -3.053  0.00  0.00     0.040 A 
ATOM      3  C7  ZIN A   1       2.659  -2.548  -4.179  0.00  0.00     0.020 A 
ATOM      4  C8  ZIN A   1       2.752  -3.935  -4.316  0.00  0.00     0.041 A 
ATOM      5  C20 ZIN A   1       2.257  -4.769  -3.309  0.00  0.00     0.049 A 
ATOM      6  C21 ZIN A   1       1.682  -4.216  -2.180  0.00  0.00     0.060 A 
ENDROOT
BRANCH   4   7
ATOM      7  C9  ZIN A   1       3.372  -4.519  -5.520  0.00  0.00     0.293 C 
ATOM      8  O10 ZIN A   1       3.537  -5.721  -5.597  0.00  0.00    -0.259 OA
BRANCH   7   9
ATOM      9  O11 ZIN A   1       3.756  -3.720  -6.535  0.00  0.00    -0.316 OA
BRANCH   9  10
ATOM     10  C12 ZIN A   1       4.253  -4.371  -7.734  0.00  0.00     0.206 C 
BRANCH  10  11
ATOM     11  C13 ZIN A   1       4.750  -3.312  -8.721  0.00  0.00     0.261 C 
BRANCH  11  12
ATOM     12  N14 ZIN A   1       5.892  -2.597  -8.136  0.00  0.00    -0.070 N 
ATOM     13  H15 ZIN A   1       5.633  -2.231  -7.232  0.00  0.00     0.279 HD
BRANCH  12  14
ATOM     14  C16 ZIN A   1       7.023  -3.521  -7.985  0.00  0.00     0.230 C 
ATOM     15  C17 ZIN A   1       8.170  -2.810  -7.263  0.00  0.00     0.034 C 
ENDBRANCH  12  14
BRANCH  12  16
ATOM     16  C18 ZIN A   1       6.280  -1.489  -9.020  0.00  0.00     0.230 C 
ATOM     17  C19 ZIN A   1       5.159  -0.448  -9.056  0.00  0.00     0.034 C 
ENDBRANCH  12  16
ENDBRANCH  11  12
ENDBRANCH  10  11
ENDBRANCH   9  10
ENDBRANCH   7   9
ENDBRANCH   4   7
BRANCH   6  18
ATOM     18  N22 ZIN A   1       1.186  -5.047  -1.168  0.00  0.00    -0.397 N 
ATOM     19  H47 ZIN A   1       1.245  -6.011  -1.260  0.00  0.00     0.156 HD
ATOM     20  H48 ZIN A   1       0.782  -4.659  -0.376  0.00  0.00     0.156 HD
ENDBRANCH   6  18
BRANCH   1  21
ATOM     21  O4  ZIN A   1       1.018  -2.287  -0.946  0.00  0.00    -0.349 OA
BRANCH  21  22
ATOM     22  C3  ZIN A   1       0.955  -0.861  -0.881  0.00  0.00     0.175 C 
BRANCH  22  23
ATOM     23  C2  ZIN A   1       0.286  -0.439   0.428  0.00  0.00     0.022 C 
ATOM     24  C1  ZIN A   1       0.218   1.088   0.498  0.00  0.00     0.007 C 
ENDBRANCH  22  23
ENDBRANCH  21  22
ENDBRANCH   1  21
TORSDOF 11
