REMARK  5 active torsions:
REMARK  status: ('A' for Active; 'I' for Inactive)
REMARK    1  A    between atoms: O2_2  and  C3_3 
REMARK    2  A    between atoms: C8_8  and  S9_9 
REMARK    3  A    between atoms: S9_9  and  C11_11 
REMARK    4  A    between atoms: C11_11  and  C12_12 
REMARK    5  A    between atoms: C17_17  and  O18_18 
ROOT
ATOM      1  S9  <0> d   1      -5.064  -5.570   0.034  0.00  0.00     0.091 S 
ATOM      2  O10 <0> d   1      -4.141  -6.499   0.585  0.00  0.00    -0.249 OA
ENDROOT
BRANCH   1   3
ATOM      3  C8  <0> d   1      -4.155  -4.061   0.028  0.00  0.00     0.198 A 
ATOM      4  N7  <0> d   1      -4.707  -2.819   0.034  0.00  0.00    -0.331 N 
ATOM      5  C6  <0> d   1      -3.668  -1.907   0.027  0.00  0.00     0.063 A 
ATOM      6  H30 <0> d   1      -5.655  -2.611   0.042  0.00  0.00     0.168 HD
ATOM      7  C5  <0> d   1      -3.602  -0.521   0.028  0.00  0.00     0.035 A 
ATOM      8  C23 <0> d   1      -2.486  -2.667   0.017  0.00  0.00     0.089 A 
ATOM      9  C4  <0> d   1      -2.376   0.108   0.020  0.00  0.00     0.039 A 
ATOM     10  C3  <0> d   1      -1.201  -0.638   0.010  0.00  0.00     0.070 A 
ATOM     11  C24 <0> d   1      -1.250  -2.018   0.003  0.00  0.00     0.070 A 
ATOM     12  N22 <0> d   1      -2.856  -3.974   0.018  0.00  0.00    -0.220 NA
BRANCH  10  13
ATOM     13  O2  <0> d   1       0.002  -0.004   0.002  0.00  0.00    -0.356 OA
ATOM     14  C1  <0> d   1      -0.017   1.425   0.010  0.00  0.00     0.210 C 
ENDBRANCH  10  13
ENDBRANCH   1   3
BRANCH   1  15
ATOM     15  C11 <0> d   1      -5.289  -5.918  -1.733  0.00  0.00     0.177 C 
BRANCH  15  16
ATOM     16  C12 <0> d   1      -6.063  -7.200  -1.898  0.00  0.00     0.054 A 
ATOM     17  C20 <0> d   1      -7.441  -7.160  -1.964  0.00  0.00    -0.003 A 
ATOM     18  C17 <0> d   1      -8.146  -8.351  -2.123  0.00  0.00     0.083 A 
ATOM     19  C21 <0> d   1      -8.172  -5.845  -1.878  0.00  0.00     0.053 C 
ATOM     20  C15 <0> d   1      -7.425  -9.540  -2.197  0.00  0.00    -0.011 A 
ATOM     21  C14 <0> d   1      -6.048  -9.496  -2.117  0.00  0.00     0.126 A 
ATOM     22  C16 <0> d   1      -8.139 -10.857  -2.362  0.00  0.00     0.052 C 
ATOM     23  N13 <0> d   1      -5.415  -8.347  -1.972  0.00  0.00    -0.263 NA
BRANCH  18  24
ATOM     24  O18 <0> d   1      -9.501  -8.352  -2.197  0.00  0.00    -0.355 OA
ATOM     25  C19 <0> d   1     -10.218  -8.474  -0.967  0.00  0.00     0.210 C 
ENDBRANCH  18  24
ENDBRANCH  15  16
ENDBRANCH   1  15
TORSDOF 5
