REMARK  1 active torsions:
REMARK  status: ('A' for Active; 'I' for Inactive)
REMARK    1  A    between atoms: N5_5  and  C6_6 
ROOT
ATOM      1  C6  <0> d   1      -0.921  -3.684   1.562  0.00  0.00     0.139 C 
ATOM      2  N7  <0> d   1      -2.127  -4.085   1.353  0.00  0.00    -0.228 NA
ATOM      3  C8  <0> d   1      -2.782  -5.085   2.005  0.00  0.00     0.093 A 
ATOM      4  C9  <0> d   1      -4.130  -4.910   2.332  0.00  0.00     0.034 A 
ATOM      5  C10 <0> d   1      -4.828  -5.919   2.965  0.00  0.00     0.002 A 
ATOM      6  C11 <0> d   1      -4.198  -7.109   3.277  0.00  0.00     0.003 A 
ATOM      7  C12 <0> d   1      -2.861  -7.289   2.969  0.00  0.00     0.040 A 
ATOM      8  C13 <0> d   1      -2.145  -6.280   2.348  0.00  0.00     0.104 A 
ATOM      9  O14 <0> d   1      -0.818  -6.458   2.122  0.00  0.00    -0.307 OA
ATOM     10  C15 <0> d   1       0.051  -5.639   2.765  0.00  0.00     0.090 A 
ATOM     11  C16 <0> d   1       0.980  -6.171   3.643  0.00  0.00     0.040 A 
ATOM     12  C17 <0> d   1       1.848  -5.336   4.324  0.00  0.00     0.026 A 
ATOM     13  C18 <0> d   1       1.794  -3.966   4.132  0.00  0.00     0.035 A 
ATOM     14 Cl19 <0> d   1       2.878  -2.927   5.002  0.00  0.00    -0.084 Cl
ATOM     15  C20 <0> d   1       0.880  -3.424   3.250  0.00  0.00     0.042 A 
ATOM     16  C21 <0> d   1       0.010  -4.262   2.545  0.00  0.00     0.045 A 
ENDROOT
BRANCH   1  17
ATOM     17  N5  <0> d   1      -0.463  -2.633   0.801  0.00  0.00    -0.362 N 
ATOM     18  C4  <0> d   1       0.945  -2.212   0.864  0.00  0.00     0.154 C 
ATOM     19  C3  <0> d   1       1.495  -2.135  -0.565  0.00  0.00     0.291 C 
ATOM     20  N2  <0> d   1       0.624  -1.273  -1.375  0.00  0.00     0.087 N 
ATOM     21  C1  <0> d   1       1.208  -1.034  -2.702  0.00  0.00     0.310 C 
ATOM     22  C23 <0> d   1      -0.728  -1.836  -1.488  0.00  0.00     0.291 C 
ATOM     23  C22 <0> d   1      -1.368  -1.901  -0.097  0.00  0.00     0.154 C 
ENDBRANCH   1  17
TORSDOF 1
