REMARK  4 active torsions:
REMARK  status: ('A' for Active; 'I' for Inactive)
REMARK    1  A    between atoms: C2_2  and  C3_3 
REMARK    2  A    between atoms: C3_3  and  C4_4 
REMARK    3  A    between atoms: C4_4  and  C7_6 
REMARK    4  A    between atoms: C7_6  and  C8_7 
ROOT
ATOM      1  C7  <0> d   1      -2.843  -2.600  -0.080  0.00  0.00     0.125 A 
ATOM      2  C10 <0> d   1      -3.597  -2.131   1.149  0.00  0.00     0.244 A 
ATOM      3  O11 <0> d   1      -3.213  -2.408   2.266  0.00  0.00    -0.272 OA
ATOM      4  N12 <0> d   1      -4.710  -1.393   0.955  0.00  0.00    -0.278 N 
ATOM      5  C13 <0> d   1      -5.146  -1.079  -0.270  0.00  0.00     0.329 A 
ATOM      6  O14 <0> d   1      -6.158  -0.410  -0.353  0.00  0.00    -0.247 OA
ATOM      7  N15 <0> d   1      -4.550  -1.446  -1.410  0.00  0.00    -0.278 N 
ATOM      8  C16 <0> d   1      -3.423  -2.188  -1.420  0.00  0.00     0.244 A 
ATOM      9  O17 <0> d   1      -2.894  -2.514  -2.461  0.00  0.00    -0.272 OA
ATOM     10  H33 <0> d   1      -5.209  -1.082   1.726  0.00  0.00     0.173 HD
ATOM     11  H34 <0> d   1      -4.940  -1.170  -2.255  0.00  0.00     0.173 HD
ENDROOT
BRANCH   1  12
ATOM     12  C4  <0> d   1      -1.413  -2.063   0.004  0.00  0.00     0.009 C 
ATOM     13  C6  <0> d   1      -1.418  -0.555  -0.251  0.00  0.00     0.011 C 
BRANCH  12  14
ATOM     14  C3  <0> d   1      -0.545  -2.756  -1.048  0.00  0.00     0.005 C 
BRANCH  14  15
ATOM     15  C2  <0> d   1       0.910  -2.312  -0.882  0.00  0.00    -0.004 C 
ATOM     16  C1  <0> d   1       1.778  -3.004  -1.935  0.00  0.00     0.005 C 
ENDBRANCH  14  15
ENDBRANCH  12  14
ENDBRANCH   1  12
BRANCH   1  17
ATOM     17  C8  <0> d   1      -2.777  -4.128  -0.040  0.00  0.00     0.025 C 
ATOM     18  C9  <0> d   1      -4.194  -4.702  -0.123  0.00  0.00     0.007 C 
ENDBRANCH   1  17
TORSDOF 4
