REMARK  5 active torsions:
REMARK  status: ('A' for Active; 'I' for Inactive)
REMARK    1  A    between atoms: C2_2  and  O3_3 
REMARK    2  A    between atoms: O3_3  and  C4_4 
REMARK    3  A    between atoms: C4_4  and  C5_5 
REMARK    4  A    between atoms: C5_5  and  N6_6 
REMARK    5  A    between atoms: C14_14  and  N15_15 
ROOT
ATOM      1  N6  ZIN A   1       1.595  -3.720  -2.770  0.00  0.00    -0.318 N 
ATOM      2  C7  ZIN A   1       2.635  -4.521  -2.328  0.00  0.00     0.066 A 
ATOM      3  C8  ZIN A   1       3.888  -4.263  -1.793  0.00  0.00     0.032 A 
ATOM      4  C9  ZIN A   1       4.715  -5.311  -1.444  0.00  0.00     0.002 A 
ATOM      5  C10 ZIN A   1       4.302  -6.622  -1.625  0.00  0.00     0.002 A 
ATOM      6  C11 ZIN A   1       3.061  -6.897  -2.156  0.00  0.00     0.034 A 
ATOM      7  C12 ZIN A   1       2.212  -5.848  -2.514  0.00  0.00     0.087 A 
ATOM      8  N13 ZIN A   1       0.963  -5.798  -3.046  0.00  0.00    -0.218 NA
ATOM      9  C14 ZIN A   1       0.597  -4.550  -3.193  0.00  0.00     0.185 A 
ENDROOT
BRANCH   9  10
ATOM     10  N15 ZIN A   1      -0.614  -4.134  -3.706  0.00  0.00    -0.251 NA
ATOM     11  C23 ZIN A   1      -1.742  -4.646  -2.889  0.00  0.00     0.126 C 
ATOM     12  C22 ZIN A   1      -2.950  -3.845  -3.076  0.00  0.00     0.249 C 
ATOM     13  N19 ZIN A   1      -3.440  -3.855  -4.468  0.00  0.00    -0.074 N 
ATOM     14  C18 ZIN A   1      -2.691  -2.872  -5.214  0.00  0.00     0.235 C 
ATOM     15  H20 ZIN A   1      -3.299  -4.769  -4.872  0.00  0.00     0.279 HD
ATOM     16  C21 ZIN A   1      -4.869  -3.516  -4.496  0.00  0.00     0.269 C 
ATOM     17  C17 ZIN A   1      -1.490  -3.500  -5.949  0.00  0.00     0.042 C 
ATOM     18  C16 ZIN A   1      -0.762  -4.546  -5.081  0.00  0.00     0.100 C 
ENDBRANCH   9  10
BRANCH   1  19
ATOM     19  C5  ZIN A   1       1.569  -2.255  -2.775  0.00  0.00     0.158 C 
BRANCH  19  20
ATOM     20  C4  ZIN A   1       1.010  -1.750  -1.444  0.00  0.00     0.187 C 
BRANCH  20  21
ATOM     21  O3  ZIN A   1       0.984  -0.322  -1.449  0.00  0.00    -0.390 OA
BRANCH  21  22
ATOM     22  C2  ZIN A   1       0.476   0.255  -0.245  0.00  0.00     0.163 C 
ATOM     23  C1  ZIN A   1       0.495   1.781  -0.362  0.00  0.00     0.033 C 
ENDBRANCH  21  22
ENDBRANCH  20  21
ENDBRANCH  19  20
ENDBRANCH   1  19
TORSDOF 5
