REMARK  6 active torsions:
REMARK  status: ('A' for Active; 'I' for Inactive)
REMARK    1  A    between atoms: N2_2  and  C5_5 
REMARK    2  A    between atoms: C5_5  and  C6_6 
REMARK    3  A    between atoms: C6_6  and  O7_7 
REMARK    4  A    between atoms: O7_7  and  C8_8 
REMARK    5  A    between atoms: C13_13  and  C14_14 
REMARK    6  A    between atoms: C14_14  and  C15_15 
ROOT
ATOM      1  C8  ZIN A   1      -2.152  -0.548   3.508  0.00  0.00     0.075 A 
ATOM      2  C9  ZIN A   1      -1.761   0.324   4.514  0.00  0.00     0.037 A 
ATOM      3  C10 ZIN A   1      -2.601   0.561   5.585  0.00  0.00     0.003 A 
ATOM      4  C11 ZIN A   1      -3.829  -0.069   5.655  0.00  0.00     0.001 A 
ATOM      5  C12 ZIN A   1      -4.221  -0.939   4.654  0.00  0.00     0.010 A 
ATOM      6  C13 ZIN A   1      -3.388  -1.175   3.578  0.00  0.00    -0.021 A 
ENDROOT
BRANCH   1   7
ATOM      7  O7  ZIN A   1      -1.328  -0.783   2.454  0.00  0.00    -0.349 OA
BRANCH   7   8
ATOM      8  C6  ZIN A   1      -0.071  -0.103   2.448  0.00  0.00     0.203 C 
BRANCH   8   9
ATOM      9  C5  ZIN A   1       0.713  -0.491   1.192  0.00  0.00     0.260 C 
BRANCH   9  10
ATOM     10  N2  ZIN A   1       0.002  -0.004   0.002  0.00  0.00    -0.077 N 
ATOM     11  C1  ZIN A   1      -0.018   1.465   0.010  0.00  0.00     0.269 C 
ATOM     12  H3  ZIN A   1      -0.945  -0.353   0.009  0.00  0.00     0.279 HD
ATOM     13  C4  ZIN A   1       0.690  -0.478  -1.207  0.00  0.00     0.269 C 
ENDBRANCH   9  10
ENDBRANCH   8   9
ENDBRANCH   7   8
ENDBRANCH   1   7
BRANCH   6  14
ATOM     14  C14 ZIN A   1      -3.815  -2.123   2.487  0.00  0.00     0.080 C 
BRANCH  14  15
ATOM     15  C15 ZIN A   1      -3.253  -3.493   2.763  0.00  0.00    -0.054 A 
ATOM     16  C20 ZIN A   1      -3.978  -4.399   3.516  0.00  0.00     0.007 A 
ATOM     17  C19 ZIN A   1      -3.463  -5.658   3.765  0.00  0.00     0.001 A 
ATOM     18  C18 ZIN A   1      -2.221  -6.008   3.271  0.00  0.00     0.000 A 
ATOM     19  C17 ZIN A   1      -1.494  -5.100   2.523  0.00  0.00     0.001 A 
ATOM     20  C16 ZIN A   1      -2.010  -3.843   2.269  0.00  0.00     0.007 A 
ENDBRANCH  14  15
ENDBRANCH   6  14
TORSDOF 6
