REMARK  2 active torsions:
REMARK  status: ('A' for Active; 'I' for Inactive)
REMARK    1  A    between atoms: C4_4  and  C5_5 
REMARK       I    between atoms: C5_5  and  N7_7 
REMARK    2  A    between atoms: N7_7  and  C8_8 
ROOT
ATOM      1  C5  ZIN A   1      -0.091  -3.200  -1.702  0.00  0.00     0.273 C 
ATOM      2  O6  ZIN A   1      -0.062  -4.357  -1.329  0.00  0.00    -0.266 OA
ATOM      3  N7  ZIN A   1      -0.078  -2.916  -3.019  0.00  0.00    -0.351 N 
ATOM      4  H30 ZIN A   1      -0.101  -1.992  -3.316  0.00  0.00     0.163 HD
ENDROOT
BRANCH   3   5
ATOM      5  C8  ZIN A   1      -0.029  -4.009  -4.011  0.00  0.00     0.088 C 
ATOM      6  C17 ZIN A   1       0.586  -3.471  -5.294  0.00  0.00     0.058 C 
ATOM      7  C15 ZIN A   1       0.330  -4.353  -6.504  0.00  0.00     0.190 C 
ATOM      8  C14 ZIN A   1      -0.540  -3.587  -7.512  0.00  0.00     0.033 C 
ATOM      9  N18 ZIN A   1      -0.335  -5.608  -6.176  0.00  0.00    -0.066 N 
ATOM     10  C13 ZIN A   1      -1.916  -3.324  -6.897  0.00  0.00     0.004 C 
ATOM     11  C12 ZIN A   1      -2.547  -4.645  -6.454  0.00  0.00     0.033 C 
ATOM     12  C10 ZIN A   1      -1.595  -5.364  -5.486  0.00  0.00     0.190 C 
ATOM     13  C9  ZIN A   1      -1.442  -4.530  -4.225  0.00  0.00     0.058 C 
ATOM     14  H19 ZIN A   1      -0.574  -6.056  -7.072  0.00  0.00     0.280 HD
ATOM     15  C20 ZIN A   1       0.531  -6.538  -5.462  0.00  0.00     0.270 C 
ENDBRANCH   3   5
BRANCH   1  16
ATOM     16  C4  ZIN A   1      -0.140  -2.108  -0.713  0.00  0.00     0.157 A 
ATOM     17  N3  ZIN A   1      -0.175  -0.818  -0.964  0.00  0.00    -0.166 NA
ATOM     18  N2  ZIN A   1      -0.213  -0.119   0.113  0.00  0.00    -0.273 N 
ATOM     19  C1  ZIN A   1      -0.256   1.345   0.148  0.00  0.00     0.180 C 
ATOM     20  C26 ZIN A   1      -0.202  -0.920   1.225  0.00  0.00     0.065 A 
ATOM     21  C21 ZIN A   1      -0.160  -2.246   0.750  0.00  0.00     0.028 A 
ATOM     22  C25 ZIN A   1      -0.237  -0.691   2.596  0.00  0.00     0.032 A 
ATOM     23  C22 ZIN A   1      -0.143  -3.309   1.647  0.00  0.00     0.016 A 
ATOM     24  C23 ZIN A   1      -0.172  -3.061   2.991  0.00  0.00     0.001 A 
ATOM     25  C24 ZIN A   1      -0.219  -1.757   3.467  0.00  0.00     0.002 A 
ENDBRANCH   1  16
TORSDOF 2
