REMARK  5 active torsions:
REMARK  status: ('A' for Active; 'I' for Inactive)
REMARK    1  A    between atoms: C2_2  and  N3_3 
REMARK    2  A    between atoms: N3_3  and  C5_5 
REMARK    3  A    between atoms: N3_3  and  C7_7 
REMARK    4  A    between atoms: C7_7  and  C10_9 
REMARK    5  A    between atoms: C10_9  and  C12_11 
ROOT
ATOM      1  C7  ZIN A   1       0.696  -2.120   1.073  0.00  0.00     0.258 C 
ATOM      2  C9  ZIN A   1       1.188  -2.862   2.317  0.00  0.00     0.049 C 
ENDROOT
BRANCH   1   3
ATOM      3  N3  ZIN A   1       0.928  -0.679   1.239  0.00  0.00    -0.061 N 
ATOM      4  H4  ZIN A   1       1.920  -0.499   1.273  0.00  0.00     0.280 HD
BRANCH   3   5
ATOM      5  C2  ZIN A   1       0.338   0.046   0.105  0.00  0.00     0.231 C 
ATOM      6  C1  ZIN A   1       0.686   1.532   0.213  0.00  0.00     0.034 C 
ENDBRANCH   3   5
BRANCH   3   7
ATOM      7  C5  ZIN A   1       0.305  -0.223   2.489  0.00  0.00     0.231 C 
ATOM      8  C6  ZIN A   1      -1.177  -0.604   2.488  0.00  0.00     0.034 C 
ENDBRANCH   3   7
ENDBRANCH   1   3
BRANCH   1   9
ATOM      9  C10 ZIN A   1       1.448  -2.614  -0.136  0.00  0.00     0.190 C 
ATOM     10  O11 ZIN A   1       2.375  -1.970  -0.578  0.00  0.00    -0.290 OA
BRANCH   9  11
ATOM     11  C12 ZIN A   1       1.056  -3.877  -0.780  0.00  0.00     0.012 A 
ATOM     12  C17 ZIN A   1       1.752  -4.339  -1.903  0.00  0.00     0.015 A 
ATOM     13  C16 ZIN A   1       1.383  -5.527  -2.497  0.00  0.00     0.001 A 
ATOM     14  C15 ZIN A   1       0.320  -6.257  -1.992  0.00  0.00     0.000 A 
ATOM     15  C14 ZIN A   1      -0.377  -5.804  -0.886  0.00  0.00     0.001 A 
ATOM     16  C13 ZIN A   1      -0.016  -4.620  -0.277  0.00  0.00     0.015 A 
ENDBRANCH   9  11
ENDBRANCH   1   9
TORSDOF 5
