REMARK  10 active torsions:
REMARK  status: ('A' for Active; 'I' for Inactive)
REMARK    1  A    between atoms: C2_2  and  C3_3 
REMARK    2  A    between atoms: C3_3  and  C4_4 
REMARK    3  A    between atoms: C4_4  and  C5_5 
REMARK    4  A    between atoms: C8_8  and  C9_9 
REMARK    5  A    between atoms: C10_10  and  C11_11 
REMARK    6  A    between atoms: C10_10  and  C17_17 
REMARK    7  A    between atoms: C11_11  and  C12_12 
REMARK    8  A    between atoms: N20_20  and  C21_21 
REMARK    9  A    between atoms: C21_21  and  C22_22 
REMARK   10  A    between atoms: C25_25  and  C26_26 
ROOT
ATOM      1  C5  ZIN A   1      -2.723  -2.620   0.367  0.00  0.00     0.106 A 
ATOM      2  N6  ZIN A   1      -3.542  -2.413   1.367  0.00  0.00    -0.245 NA
ATOM      3  C7  ZIN A   1      -4.770  -2.809   1.035  0.00  0.00     0.148 A 
ATOM      4  C8  ZIN A   1      -4.716  -3.295  -0.258  0.00  0.00     0.054 A 
ATOM      5  N20 ZIN A   1      -3.401  -3.158  -0.663  0.00  0.00    -0.330 N 
ENDROOT
BRANCH   4   6
ATOM      6  C9  ZIN A   1      -5.790  -3.821  -1.015  0.00  0.00     0.045 C 
ATOM      7  C10 ZIN A   1      -6.982  -4.080  -0.415  0.00  0.00     0.025 C 
BRANCH   7   8
ATOM      8  C11 ZIN A   1      -7.099  -4.019   1.087  0.00  0.00     0.091 C 
BRANCH   8   9
ATOM      9  C12 ZIN A   1      -7.723  -2.708   1.489  0.00  0.00    -0.013 A 
ATOM     10  S16 ZIN A   1      -6.868  -1.176   1.621  0.00  0.00    -0.106 SA
ATOM     11  C15 ZIN A   1      -8.348  -0.358   2.104  0.00  0.00     0.050 A 
ATOM     12  C14 ZIN A   1      -9.351  -1.236   2.146  0.00  0.00     0.008 A 
ATOM     13  C13 ZIN A   1      -9.006  -2.533   1.807  0.00  0.00     0.015 A 
ENDBRANCH   8   9
ENDBRANCH   7   8
BRANCH   7  14
ATOM     14  C17 ZIN A   1      -8.108  -4.404  -1.196  0.00  0.00     0.205 C 
ATOM     15  O18 ZIN A   1      -8.005  -4.457  -2.524  0.00  0.00    -0.644 OA
ATOM     16  O19 ZIN A   1      -9.276  -4.657  -0.608  0.00  0.00    -0.644 OA
ENDBRANCH   7  14
ENDBRANCH   4   6
BRANCH   5  17
ATOM     17  C21 ZIN A   1      -2.848  -3.537  -1.966  0.00  0.00     0.169 C 
BRANCH  17  18
ATOM     18  C22 ZIN A   1      -2.495  -5.002  -1.955  0.00  0.00    -0.040 A 
ATOM     19  C30 ZIN A   1      -3.401  -5.933  -2.432  0.00  0.00     0.010 A 
ATOM     20  C29 ZIN A   1      -3.082  -7.274  -2.430  0.00  0.00     0.019 A 
ATOM     21  C25 ZIN A   1      -1.845  -7.694  -1.934  0.00  0.00     0.040 A 
ATOM     22  C24 ZIN A   1      -0.937  -6.749  -1.449  0.00  0.00     0.019 A 
ATOM     23  C23 ZIN A   1      -1.268  -5.410  -1.462  0.00  0.00     0.010 A 
BRANCH  21  24
ATOM     24  C26 ZIN A   1      -1.499  -9.128  -1.923  0.00  0.00     0.209 C 
ATOM     25  O27 ZIN A   1      -0.416  -9.493  -1.488  0.00  0.00    -0.644 OA
ATOM     26  O28 ZIN A   1      -2.296  -9.953  -2.349  0.00  0.00    -0.644 OA
ENDBRANCH  21  24
ENDBRANCH  17  18
ENDBRANCH   5  17
BRANCH   1  27
ATOM     27  C4  ZIN A   1      -1.251  -2.299   0.367  0.00  0.00     0.079 C 
BRANCH  27  28
ATOM     28  C3  ZIN A   1      -1.049  -0.829  -0.008  0.00  0.00     0.007 C 
BRANCH  28  29
ATOM     29  C2  ZIN A   1       0.433  -0.471   0.111  0.00  0.00    -0.004 C 
ATOM     30  C1  ZIN A   1       0.635   0.999  -0.265  0.00  0.00     0.005 C 
ENDBRANCH  28  29
ENDBRANCH  27  28
ENDBRANCH   1  27
TORSDOF 10
