REMARK  2 active torsions:
REMARK  status: ('A' for Active; 'I' for Inactive)
REMARK    1  A    between atoms: C18_17  and  O19_18 
REMARK    2  A    between atoms: C20_19  and  O21_20 
ROOT
ATOM      1  C1  ZIN A   1      -0.018   1.465   0.010  0.00  0.00     0.270 C 
ATOM      2  N2  ZIN A   1       0.002  -0.004   0.002  0.00  0.00    -0.066 N 
ATOM      3  H3  ZIN A   1       0.474  -0.329  -0.828  0.00  0.00     0.280 HD
ATOM      4  C4  ZIN A   1      -1.371  -0.510   0.011  0.00  0.00     0.240 C 
ATOM      5  C5  ZIN A   1      -1.394  -2.016  -0.192  0.00  0.00     0.067 C 
ATOM      6  C6  ZIN A   1      -0.278  -2.702   0.544  0.00  0.00    -0.047 A 
ATOM      7  C7  ZIN A   1      -0.263  -4.090   0.570  0.00  0.00     0.008 A 
ATOM      8  C8  ZIN A   1       0.724  -4.774   1.253  0.00  0.00     0.001 A 
ATOM      9  C9  ZIN A   1       1.712  -4.075   1.915  0.00  0.00     0.013 A 
ATOM     10  C10 ZIN A   1       1.717  -2.685   1.877  0.00  0.00    -0.014 A 
ATOM     11  C11 ZIN A   1       0.712  -1.996   1.193  0.00  0.00    -0.010 A 
ATOM     12  C12 ZIN A   1       0.715  -0.490   1.192  0.00  0.00     0.226 C 
ATOM     13  C14 ZIN A   1       2.143   0.051   1.155  0.00  0.00     0.077 C 
ATOM     14  C15 ZIN A   1       2.982  -0.581   2.232  0.00  0.00    -0.042 A 
ATOM     15  C16 ZIN A   1       3.955   0.152   2.880  0.00  0.00     0.011 A 
ATOM     16  C17 ZIN A   1       4.739  -0.439   3.854  0.00  0.00     0.040 A 
ATOM     17  C18 ZIN A   1       4.556  -1.772   4.187  0.00  0.00     0.099 A 
ATOM     18  C20 ZIN A   1       3.573  -2.518   3.546  0.00  0.00     0.110 A 
ATOM     19  C22 ZIN A   1       2.773  -1.919   2.580  0.00  0.00     0.017 A 
ENDROOT
BRANCH  18  20
ATOM     20  O21 ZIN A   1       3.389  -3.826   3.867  0.00  0.00    -0.357 OA
ATOM     21  H38 ZIN A   1       2.752  -3.970   4.581  0.00  0.00     0.217 HD
ENDBRANCH  18  20
BRANCH  17  22
ATOM     22  O19 ZIN A   1       5.337  -2.349   5.140  0.00  0.00    -0.358 OA
ATOM     23  H37 ZIN A   1       4.979  -2.281   6.035  0.00  0.00     0.217 HD
ENDBRANCH  17  22
TORSDOF 2
