REMARK  9 active torsions:
REMARK  status: ('A' for Active; 'I' for Inactive)
REMARK    1  A    between atoms: N2_2  and  C5_5 
REMARK    2  A    between atoms: C5_5  and  C6_6 
REMARK    3  A    between atoms: C6_6  and  O7_7 
REMARK    4  A    between atoms: O7_7  and  C8_8 
REMARK    5  A    between atoms: C11_11  and  C12_12 
REMARK    6  A    between atoms: C12_12  and  C23_23 
REMARK    7  A    between atoms: C13_13  and  C14_14 
REMARK    8  A    between atoms: C13_13  and  C17_17 
REMARK    9  A    between atoms: C14_14  and  C15_15 
ROOT
ATOM      1  C12 ZIN A   1       3.266   0.784  -1.286  0.00  0.00    -0.009 C 
ATOM      2  C13 ZIN A   1       2.454   0.650  -0.209  0.00  0.00    -0.035 C 
ENDROOT
BRANCH   1   3
ATOM      3  C11 ZIN A   1       2.893   1.703  -2.384  0.00  0.00    -0.024 A 
ATOM      4  C10 ZIN A   1       3.675   2.829  -2.651  0.00  0.00     0.015 A 
ATOM      5  C9  ZIN A   1       3.323   3.683  -3.674  0.00  0.00     0.037 A 
ATOM      6  C8  ZIN A   1       2.193   3.425  -4.440  0.00  0.00     0.068 A 
ATOM      7  C30 ZIN A   1       1.413   2.306  -4.177  0.00  0.00     0.037 A 
ATOM      8  C29 ZIN A   1       1.761   1.444  -3.159  0.00  0.00     0.015 A 
BRANCH   6   9
ATOM      9  O7  ZIN A   1       1.851   4.268  -5.448  0.00  0.00    -0.350 OA
BRANCH   9  10
ATOM     10  C6  ZIN A   1       0.677   3.943  -6.195  0.00  0.00     0.203 C 
BRANCH  10  11
ATOM     11  C5  ZIN A   1       0.453   5.000  -7.278  0.00  0.00     0.260 C 
BRANCH  11  12
ATOM     12  N2  ZIN A   1       1.571   4.969  -8.231  0.00  0.00    -0.077 N 
ATOM     13  C1  ZIN A   1       1.559   3.692  -8.957  0.00  0.00     0.269 C 
ATOM     14  H3  ZIN A   1       2.442   5.064  -7.731  0.00  0.00     0.279 HD
ATOM     15  C4  ZIN A   1       1.431   6.077  -9.186  0.00  0.00     0.269 C 
ENDBRANCH  11  12
ENDBRANCH  10  11
ENDBRANCH   9  10
ENDBRANCH   6   9
ENDBRANCH   1   3
BRANCH   1  16
ATOM     16  C23 ZIN A   1       4.526   0.012  -1.364  0.00  0.00    -0.025 A 
ATOM     17  C28 ZIN A   1       4.694  -0.956  -2.355  0.00  0.00     0.012 A 
ATOM     18  C27 ZIN A   1       5.872  -1.672  -2.423  0.00  0.00     0.001 A 
ATOM     19  C26 ZIN A   1       6.884  -1.433  -1.511  0.00  0.00     0.000 A 
ATOM     20  C25 ZIN A   1       6.723  -0.474  -0.526  0.00  0.00     0.001 A 
ATOM     21  C24 ZIN A   1       5.553   0.253  -0.451  0.00  0.00     0.012 A 
ENDBRANCH   1  16
BRANCH   2  22
ATOM     22  C14 ZIN A   1       2.834  -0.286   0.909  0.00  0.00     0.055 C 
BRANCH  22  23
ATOM     23  C15 ZIN A   1       2.161  -1.642   0.690  0.00  0.00     0.119 C 
ATOM     24 Cl16 ZIN A   1       2.616  -2.762   2.028  0.00  0.00    -0.130 Cl
ENDBRANCH  22  23
ENDBRANCH   2  22
BRANCH   2  25
ATOM     25  C17 ZIN A   1       1.202   1.417  -0.132  0.00  0.00    -0.029 A 
ATOM     26  C22 ZIN A   1       1.237   2.813  -0.046  0.00  0.00     0.012 A 
ATOM     27  C21 ZIN A   1       0.059   3.526   0.026  0.00  0.00     0.001 A 
ATOM     28  C20 ZIN A   1      -1.156   2.863   0.013  0.00  0.00     0.000 A 
ATOM     29  C19 ZIN A   1      -1.200   1.483  -0.076  0.00  0.00     0.001 A 
ATOM     30  C18 ZIN A   1      -0.030   0.756  -0.144  0.00  0.00     0.012 A 
ENDBRANCH   2  25
TORSDOF 9
