REMARK  7 active torsions:
REMARK  status: ('A' for Active; 'I' for Inactive)
REMARK    1  A    between atoms: C2_2  and  C3_3 
REMARK    2  A    between atoms: C2_2  and  C21_21 
REMARK    3  A    between atoms: C3_3  and  C4_4 
REMARK    4  A    between atoms: C4_4  and  C5_5 
REMARK    5  A    between atoms: C5_5  and  N6_6 
REMARK    6  A    between atoms: C10_10  and  O11_11 
REMARK    7  A    between atoms: C10_10  and  C12_12 
ROOT
ATOM      1  N6  <0> d   1       4.900   0.845  -0.040  0.00  0.00    -0.071 N 
ATOM      2  H7  <0> d   1       4.817   0.207   0.737  0.00  0.00     0.279 HD
ATOM      3  C8  <0> d   1       6.158   1.593   0.076  0.00  0.00     0.238 C 
ATOM      4  C9  <0> d   1       7.333   0.614   0.142  0.00  0.00     0.071 C 
ATOM      5  C10 <0> d   1       7.357  -0.233  -1.134  0.00  0.00     0.088 C 
ATOM      6  C19 <0> d   1       6.012  -0.950  -1.284  0.00  0.00     0.071 C 
ATOM      7  C20 <0> d   1       4.887   0.088  -1.297  0.00  0.00     0.238 C 
ENDROOT
BRANCH   1   8
ATOM      8  C5  <0> d   1       3.771   1.784  -0.024  0.00  0.00     0.235 C 
BRANCH   8   9
ATOM      9  C4  <0> d   1       2.457   1.001  -0.016  0.00  0.00     0.035 C 
BRANCH   9  10
ATOM     10  C3  <0> d   1       1.280   1.980   0.001  0.00  0.00     0.085 C 
BRANCH  10  11
ATOM     11  C2  <0> d   1      -0.014   1.208   0.009  0.00  0.00     0.159 C 
ATOM     12  O1  <0> d   1       0.002  -0.004   0.002  0.00  0.00    -0.292 OA
BRANCH  11  13
ATOM     13  C21 <0> d   1      -1.297   1.926   0.019  0.00  0.00     0.010 A 
ATOM     14  C27 <0> d   1      -2.502   1.213   0.021  0.00  0.00     0.018 A 
ATOM     15  C26 <0> d   1      -3.700   1.892   0.036  0.00  0.00     0.043 A 
ATOM     16  C24 <0> d   1      -3.715   3.279   0.038  0.00  0.00     0.116 A 
ATOM     17  C23 <0> d   1      -2.526   3.992   0.030  0.00  0.00     0.043 A 
ATOM     18  F25 <0> d   1      -4.894   3.938   0.048  0.00  0.00    -0.206 F 
ATOM     19  C22 <0> d   1      -1.320   3.325   0.021  0.00  0.00     0.018 A 
ENDBRANCH  11  13
ENDBRANCH  10  11
ENDBRANCH   9  10
ENDBRANCH   8   9
ENDBRANCH   1   8
BRANCH   5  20
ATOM     20  O11 <0> d   1       7.576   0.613  -2.265  0.00  0.00    -0.385 OA
ATOM     21  H38 <0> d   1       7.603   0.142  -3.109  0.00  0.00     0.211 HD
ENDBRANCH   5  20
BRANCH   5  22
ATOM     22  C12 <0> d   1       8.465  -1.250  -1.043  0.00  0.00    -0.024 A 
ATOM     23  C18 <0> d   1       9.098  -1.687  -2.192  0.00  0.00     0.012 A 
ATOM     24  C17 <0> d   1      10.118  -2.615  -2.108  0.00  0.00     0.024 A 
ATOM     25  C15 <0> d   1      10.498  -3.116  -0.876  0.00  0.00     0.034 A 
ATOM     26  C14 <0> d   1       9.861  -2.683   0.273  0.00  0.00     0.024 A 
ATOM     27 Cl16 <0> d   1      11.774  -4.288  -0.771  0.00  0.00    -0.084 Cl
ATOM     28  C13 <0> d   1       8.844  -1.750   0.189  0.00  0.00     0.012 A 
ENDBRANCH   5  22
TORSDOF 7
