REMARK  7 active torsions:
REMARK  status: ('A' for Active; 'I' for Inactive)
REMARK    1  A    between atoms: N1_1  and  C2_2 
REMARK    2  A    between atoms: C2_2  and  C3_3 
REMARK    3  A    between atoms: C2_2  and  C10_10 
REMARK    4  A    between atoms: C2_2  and  C13_13 
REMARK    5  A    between atoms: C3_3  and  C4_4 
REMARK    6  A    between atoms: C4_4  and  C5_5 
REMARK    7  A    between atoms: C5_5  and  N6_6 
ROOT
ATOM      1  C2  <0> d   1       0.148   0.335  -0.059  0.00  0.00     0.298 C 
ENDROOT
BRANCH   1   2
ATOM      2  N1  <0> d   1       0.910  -0.054   1.135  0.00  0.00     0.104 N 
ATOM      3  H16 <0> d   1       1.861   0.280   1.082  0.00  0.00     0.314 HD
ATOM      4  H17 <0> d   1       0.458   0.273   1.976  0.00  0.00     0.314 HD
ENDBRANCH   1   2
BRANCH   1   5
ATOM      5  C3  <0> d   1      -1.255  -0.272   0.011  0.00  0.00     0.060 C 
BRANCH   5   6
ATOM      6  C4  <0> d   1      -1.933   0.160   1.313  0.00  0.00     0.030 C 
BRANCH   6   7
ATOM      7  C5  <0> d   1      -3.379  -0.340   1.325  0.00  0.00     0.230 C 
BRANCH   7   8
ATOM      8  N6  <0> d   1      -4.030   0.075   2.575  0.00  0.00    -0.079 N 
ATOM      9  H7  <0> d   1      -4.984  -0.254   2.583  0.00  0.00     0.274 HD
ATOM     10  H8  <0> d   1      -3.532  -0.318   3.360  0.00  0.00     0.274 HD
ATOM     11  H9  <0> d   1      -4.021   1.082   2.641  0.00  0.00     0.274 HD
ENDBRANCH   7   8
ENDBRANCH   6   7
ENDBRANCH   5   6
ENDBRANCH   1   5
BRANCH   1  12
ATOM     12  C10 <0> d   1       0.043   1.837  -0.120  0.00  0.00     0.219 C 
ATOM     13  O11 <0> d   1       0.555   2.520   0.750  0.00  0.00    -0.646 OA
ATOM     14  O12 <0> d   1      -0.555   2.369  -1.040  0.00  0.00    -0.646 OA
ENDBRANCH   1  12
BRANCH   1  15
ATOM     15  C13 <0> d   1       0.864  -0.178  -1.310  0.00  0.00     0.402 C 
ATOM     16  F14 <0> d   1       1.030  -1.564  -1.218  0.00  0.00    -0.211 F 
ATOM     17  F15 <0> d   1       0.099   0.126  -2.442  0.00  0.00    -0.211 F 
ENDBRANCH   1  15
TORSDOF 7
