REMARK  3 active torsions:
REMARK  status: ('A' for Active; 'I' for Inactive)
REMARK    1  A    between atoms: C5_5  and  C6_6 
REMARK    2  A    between atoms: C6_6  and  C8_7 
REMARK    3  A    between atoms: C6_6  and  C15_14 
ROOT
ATOM      1  C6  ZIN A   1       2.451   3.936  -0.000  0.00  0.00     0.086 C 
ENDROOT
BRANCH   1   2
ATOM      2  C5  ZIN A   1       1.188   3.177   0.315  0.00  0.00    -0.047 A 
ATOM      3  C4  ZIN A   1       0.048   3.861   0.696  0.00  0.00     0.009 A 
ATOM      4  C3  ZIN A   1      -1.111   3.165   0.984  0.00  0.00     0.024 A 
ATOM      5  C2  ZIN A   1      -1.129   1.785   0.896  0.00  0.00     0.034 A 
ATOM      6 Cl1  ZIN A   1      -2.583   0.910   1.265  0.00  0.00    -0.084 Cl
ATOM      7  C19 ZIN A   1       0.010   1.102   0.509  0.00  0.00     0.024 A 
ATOM      8  C18 ZIN A   1       1.169   1.798   0.222  0.00  0.00     0.009 A 
ENDBRANCH   1   2
BRANCH   1   9
ATOM      9  C8  ZIN A   1       2.783   4.857   1.146  0.00  0.00    -0.025 A 
ATOM     10  C13 ZIN A   1       3.911   4.627   1.914  0.00  0.00     0.041 A 
ATOM     11  C12 ZIN A   1       4.218   5.477   2.962  0.00  0.00     0.024 A 
ATOM     12 Cl14 ZIN A   1       4.944   3.278   1.558  0.00  0.00    -0.084 Cl
ATOM     13  C11 ZIN A   1       3.392   6.547   3.249  0.00  0.00     0.002 A 
ATOM     14  C10 ZIN A   1       2.262   6.772   2.485  0.00  0.00     0.001 A 
ATOM     15  C9  ZIN A   1       1.958   5.927   1.434  0.00  0.00     0.009 A 
ENDBRANCH   1   9
BRANCH   1  16
ATOM     16  C15 ZIN A   1       2.248   4.760  -1.273  0.00  0.00     0.191 C 
ATOM     17 Cl16 ZIN A   1       2.057   3.651  -2.682  0.00  0.00    -0.107 Cl
ATOM     18 Cl17 ZIN A   1       0.767   5.774  -1.103  0.00  0.00    -0.107 Cl
ENDBRANCH   1  16
TORSDOF 3
