REMARK  12 active torsions:
REMARK  status: ('A' for Active; 'I' for Inactive)
REMARK    1  A    between atoms: C2_2  and  C3_3 
REMARK    2  A    between atoms: C15_15  and  O16_16 
REMARK    3  A    between atoms: C18_18  and  C19_19 
REMARK    4  A    between atoms: C19_19  and  C20_20 
REMARK    5  A    between atoms: C20_20  and  O22_22 
REMARK    6  A    between atoms: C31_30  and  O32_31 
REMARK    7  A    between atoms: C31_30  and  C33_32 
REMARK    8  A    between atoms: C52_50  and  O53_51 
REMARK    9  A    between atoms: C52_50  and  C54_52 
REMARK   10  A    between atoms: C54_52  and  O56_54 
REMARK   11  A    between atoms: C58_56  and  O60_57 
REMARK   12  A    between atoms: O60_57  and  C61_58 
ROOT
ATOM      1  C3  ZIN A   1       0.325  -1.580   2.046  0.00  0.00     0.037 C 
ATOM      2  C4  ZIN A   1      -0.516  -1.089   3.185  0.00  0.00    -0.015 C 
ATOM      3  C5  ZIN A   1      -1.080  -1.894   4.034  0.00  0.00    -0.003 C 
ATOM      4  C6  ZIN A   1      -0.908  -3.381   3.939  0.00  0.00     0.262 C 
ATOM      5  N7  ZIN A   1      -0.736  -3.800   2.546  0.00  0.00    -0.061 N 
ATOM      6  H8  ZIN A   1      -1.606  -3.713   2.042  0.00  0.00     0.280 HD
ATOM      7  C9  ZIN A   1      -0.286  -5.221   2.563  0.00  0.00     0.237 C 
ATOM      8  C10 ZIN A   1       1.252  -5.128   2.714  0.00  0.00     0.046 C 
ATOM      9  C11 ZIN A   1       1.603  -3.846   1.906  0.00  0.00     0.040 C 
ATOM     10  C12 ZIN A   1       2.052  -4.268   0.535  0.00  0.00    -0.024 A 
ATOM     11  C13 ZIN A   1       3.313  -3.710   0.299  0.00  0.00     0.020 A 
ATOM     12  C14 ZIN A   1       3.982  -3.958  -0.902  0.00  0.00     0.061 A 
ATOM     13  C15 ZIN A   1       3.336  -4.761  -1.835  0.00  0.00     0.077 A 
ATOM     14  C18 ZIN A   1       2.082  -5.297  -1.593  0.00  0.00     0.000 A 
ATOM     15  C47 ZIN A   1       1.413  -5.061  -0.399  0.00  0.00     0.021 A 
ATOM     16  N48 ZIN A   1       3.721  -2.922   1.364  0.00  0.00    -0.278 NA
ATOM     17  C49 ZIN A   1       5.126  -3.183   1.704  0.00  0.00     0.117 C 
ATOM     18  C50 ZIN A   1       2.833  -3.193   2.525  0.00  0.00     0.125 C 
ATOM     19  C52 ZIN A   1       2.521  -1.852   3.184  0.00  0.00     0.190 C 
ATOM     20  C58 ZIN A   1       1.734  -0.998   2.170  0.00  0.00     0.192 C 
ATOM     21  C64 ZIN A   1       0.329  -3.056   1.895  0.00  0.00     0.218 C 
ENDROOT
BRANCH  14  22
ATOM     22  C19 ZIN A   1       1.426  -6.159  -2.654  0.00  0.00     0.121 C 
ATOM     23  C39 ZIN A   1       1.392  -5.351  -3.972  0.00  0.00     0.040 A 
ATOM     24  C38 ZIN A   1       1.307  -5.803  -5.183  0.00  0.00    -0.020 A 
ATOM     25  N40 ZIN A   1       1.429  -3.928  -3.921  0.00  0.00    -0.357 N 
ATOM     26  C37 ZIN A   1       1.222  -7.041  -6.024  0.00  0.00     0.069 C 
ATOM     27  C46 ZIN A   1       1.379  -4.563  -6.065  0.00  0.00    -0.001 A 
ATOM     28  C36 ZIN A   1       0.130  -7.940  -5.702  0.00  0.00     0.239 C 
ATOM     29  N28 ZIN A   1      -1.190  -7.527  -5.465  0.00  0.00    -0.068 N 
ATOM     30  C27 ZIN A   1      -1.256  -6.526  -4.442  0.00  0.00     0.239 C 
ATOM     31  H29 ZIN A   1      -1.546  -7.091  -6.328  0.00  0.00     0.280 HD
ATOM     32  C30 ZIN A   1      -2.190  -8.588  -5.104  0.00  0.00     0.272 C 
ATOM     33  C25 ZIN A   1      -0.638  -7.233  -3.237  0.00  0.00     0.016 C 
ATOM     34  C24 ZIN A   1       0.110  -6.499  -2.224  0.00  0.00     0.037 C 
ATOM     35  C35 ZIN A   1      -1.862  -8.082  -2.643  0.00  0.00     0.045 C 
ATOM     36  C31 ZIN A   1      -2.094  -9.123  -3.729  0.00  0.00     0.082 C 
ATOM     37  C41 ZIN A   1       1.454  -3.440  -5.190  0.00  0.00     0.043 A 
ATOM     38  C45 ZIN A   1       1.428  -4.345  -7.408  0.00  0.00     0.014 C 
ATOM     39  C42 ZIN A   1       1.607  -2.111  -5.678  0.00  0.00     0.030 C 
ATOM     40  C43 ZIN A   1       1.526  -2.037  -7.036  0.00  0.00     0.002 C 
ATOM     41  C44 ZIN A   1       1.492  -3.080  -7.856  0.00  0.00     0.001 C 
ATOM     42 4H10 ZIN A   1       1.390  -3.358  -3.146  0.00  0.00     0.166 HD
BRANCH  36  43
ATOM     43  O32 ZIN A   1      -0.972 -10.052  -3.656  0.00  0.00    -0.388 OA
ATOM     44  H92 ZIN A   1      -1.048 -10.808  -4.255  0.00  0.00     0.210 HD
ENDBRANCH  36  43
BRANCH  36  45
ATOM     45  C33 ZIN A   1      -3.360  -9.936  -3.409  0.00  0.00     0.035 C 
ATOM     46  C34 ZIN A   1      -3.486 -11.095  -4.401  0.00  0.00     0.008 C 
ENDBRANCH  36  45
BRANCH  22  47
ATOM     47  C20 ZIN A   1       2.341  -7.335  -2.878  0.00  0.00     0.278 C 
ATOM     48  O21 ZIN A   1       1.990  -8.444  -2.551  0.00  0.00    -0.264 OA
BRANCH  47  49
ATOM     49  O22 ZIN A   1       3.545  -7.151  -3.441  0.00  0.00    -0.325 OA
ATOM     50  C23 ZIN A   1       4.373  -8.329  -3.626  0.00  0.00     0.213 C 
ENDBRANCH  47  49
ENDBRANCH  22  47
ENDBRANCH  14  22
BRANCH  13  51
ATOM     51  O16 ZIN A   1       3.952  -5.027  -3.017  0.00  0.00    -0.355 OA
ATOM     52  C17 ZIN A   1       5.244  -4.451  -3.219  0.00  0.00     0.210 C 
ENDBRANCH  13  51
BRANCH  19  53
ATOM     53  O53 ZIN A   1       1.724  -2.065   4.351  0.00  0.00    -0.376 OA
ATOM     54 3H11 ZIN A   1       1.488  -1.252   4.819  0.00  0.00     0.211 HD
ENDBRANCH  19  53
BRANCH  19  55
ATOM     55  C54 ZIN A   1       3.806  -1.165   3.567  0.00  0.00     0.297 C 
ATOM     56  O55 ZIN A   1       4.033  -0.911   4.726  0.00  0.00    -0.262 OA
BRANCH  55  57
ATOM     57  O56 ZIN A   1       4.699  -0.835   2.620  0.00  0.00    -0.324 OA
ATOM     58  C57 ZIN A   1       5.914  -0.175   3.061  0.00  0.00     0.213 C 
ENDBRANCH  55  57
ENDBRANCH  19  55
BRANCH   1  59
ATOM     59  C2  ZIN A   1      -0.281  -1.002   0.766  0.00  0.00     0.014 C 
ATOM     60  C1  ZIN A   1      -0.331   0.523   0.869  0.00  0.00     0.006 C 
ENDBRANCH   1  59
BRANCH  20  61
ATOM     61  O60 ZIN A   1       1.662   0.375   2.636  0.00  0.00    -0.311 OA
BRANCH  61  62
ATOM     62  C61 ZIN A   1       2.648   1.201   2.253  0.00  0.00     0.255 C 
ATOM     63  C62 ZIN A   1       2.641   2.641   2.698  0.00  0.00     0.126 C 
ATOM     64  O63 ZIN A   1       3.542   0.790   1.551  0.00  0.00    -0.266 OA
ENDBRANCH  61  62
ENDBRANCH  20  61
TORSDOF 12
