REMARK  5 active torsions:
REMARK  status: ('A' for Active; 'I' for Inactive)
REMARK    1  A    between atoms: C2_2  and  C3_3 
REMARK    2  A    between atoms: C3_3  and  C4_4 
REMARK    3  A    between atoms: C4_4  and  C5_5 
REMARK    4  A    between atoms: C5_5  and  C8_7 
REMARK    5  A    between atoms: C8_7  and  C9_8 
ROOT
ATOM      1  C4  ZIN A   1       1.381  -1.700   1.173  0.00  0.00     0.129 A 
ATOM      2  C11 ZIN A   1       1.542  -0.696   2.300  0.00  0.00     0.244 A 
ATOM      3  O12 ZIN A   1       2.430   0.128   2.285  0.00  0.00    -0.272 OA
ATOM      4  N13 ZIN A   1       0.659  -0.756   3.319  0.00  0.00    -0.278 N 
ATOM      5  C14 ZIN A   1      -0.328  -1.659   3.349  0.00  0.00     0.329 A 
ATOM      6  O15 ZIN A   1      -1.078  -1.642   4.305  0.00  0.00    -0.247 OA
ATOM      7  N16 ZIN A   1      -0.548  -2.581   2.405  0.00  0.00    -0.278 N 
ATOM      8  C17 ZIN A   1       0.231  -2.679   1.307  0.00  0.00     0.244 A 
ATOM      9  O18 ZIN A   1       0.019  -3.520   0.459  0.00  0.00    -0.272 OA
ATOM     10  H34 ZIN A   1       0.742  -0.125   4.051  0.00  0.00     0.173 HD
ATOM     11  H35 ZIN A   1      -1.289  -3.197   2.513  0.00  0.00     0.173 HD
ENDROOT
BRANCH   1  12
ATOM     12  C3  ZIN A   1       1.196  -0.923  -0.133  0.00  0.00     0.056 C 
BRANCH  12  13
ATOM     13  C2  ZIN A   1      -0.115  -0.182  -0.095  0.00  0.00    -0.035 C 
ATOM     14  C1  ZIN A   1      -0.142   1.112  -0.296  0.00  0.00     0.007 C 
ENDBRANCH  12  13
ENDBRANCH   1  12
BRANCH   1  15
ATOM     15  C5  ZIN A   1       2.680  -2.501   1.066  0.00  0.00     0.009 C 
ATOM     16  C7  ZIN A   1       2.826  -3.401   2.295  0.00  0.00     0.011 C 
BRANCH  15  17
ATOM     17  C8  ZIN A   1       2.644  -3.364  -0.197  0.00  0.00     0.005 C 
BRANCH  17  18
ATOM     18  C9  ZIN A   1       3.990  -4.071  -0.370  0.00  0.00    -0.004 C 
ATOM     19  C10 ZIN A   1       3.955  -4.933  -1.633  0.00  0.00     0.005 C 
ENDBRANCH  17  18
ENDBRANCH  15  17
ENDBRANCH   1  15
TORSDOF 5
