REMARK  6 active torsions:
REMARK  status: ('A' for Active; 'I' for Inactive)
REMARK    1  A    between atoms: C7_7  and  C9_8 
REMARK    2  A    between atoms: C9_8  and  C10_9 
REMARK    3  A    between atoms: C16_15  and  C17_16 
REMARK    4  A    between atoms: C17_16  and  C18_17 
REMARK    5  A    between atoms: C18_17  and  S19_18 
REMARK    6  A    between atoms: S19_18  and  C22_21 
ROOT
ATOM      1  C10 <0> d   1      -1.365  -0.586   2.556  0.00  0.00    -0.028 A 
ATOM      2  C11 <0> d   1      -1.434  -0.013   3.768  0.00  0.00     0.096 A 
ATOM      3  N12 <0> d   1      -2.626   0.645   3.906  0.00  0.00    -0.365 N 
ATOM      4  C13 <0> d   1      -3.372   0.508   2.757  0.00  0.00     0.043 A 
ATOM      5  C14 <0> d   1      -4.627   0.965   2.370  0.00  0.00     0.031 A 
ATOM      6  C15 <0> d   1      -5.114   0.652   1.119  0.00  0.00     0.009 A 
ATOM      7  C16 <0> d   1      -4.363  -0.115   0.239  0.00  0.00    -0.056 A 
ATOM      8  C28 <0> d   1      -3.127  -0.574   0.599  0.00  0.00     0.021 A 
ATOM      9  C29 <0> d   1      -2.612  -0.264   1.859  0.00  0.00    -0.001 A 
ATOM     10  H42 <0> d   1      -2.904   1.135   4.696  0.00  0.00     0.165 HD
ENDROOT
BRANCH   7  11
ATOM     11  C17 <0> d   1      -4.915  -0.444  -1.124  0.00  0.00     0.054 C 
BRANCH  11  12
ATOM     12  C18 <0> d   1      -4.502   0.643  -2.118  0.00  0.00     0.150 C 
BRANCH  12  13
ATOM     13  S19 <0> d   1      -5.167   0.247  -3.758  0.00  0.00     0.175 S 
ATOM     14  O20 <0> d   1      -4.524  -0.902  -4.292  0.00  0.00    -0.223 OA
ATOM     15  O21 <0> d   1      -6.583   0.364  -3.764  0.00  0.00    -0.223 OA
BRANCH  13  16
ATOM     16  C22 <0> d   1      -4.617   1.569  -4.786  0.00  0.00     0.059 A 
ATOM     17  C27 <0> d   1      -3.406   1.475  -5.445  0.00  0.00     0.023 A 
ATOM     18  C26 <0> d   1      -2.977   2.510  -6.254  0.00  0.00     0.002 A 
ATOM     19  C25 <0> d   1      -3.756   3.643  -6.398  0.00  0.00     0.000 A 
ATOM     20  C24 <0> d   1      -4.965   3.739  -5.735  0.00  0.00     0.002 A 
ATOM     21  C23 <0> d   1      -5.396   2.702  -4.929  0.00  0.00     0.023 A 
ENDBRANCH  13  16
ENDBRANCH  12  13
ENDBRANCH  11  12
ENDBRANCH   7  11
BRANCH   1  22
ATOM     22  C9  <0> d   1      -0.219  -1.401   2.014  0.00  0.00     0.074 C 
BRANCH  22  23
ATOM     23  C7  <0> d   1       0.708  -0.497   1.199  0.00  0.00     0.192 C 
ATOM     24  N2  <0> d   1       0.002  -0.004   0.002  0.00  0.00    -0.070 N 
ATOM     25  C1  <0> d   1      -0.018   1.465   0.010  0.00  0.00     0.270 C 
ATOM     26  H3  <0> d   1      -0.943  -0.357  -0.004  0.00  0.00     0.279 HD
ATOM     27  C4  <0> d   1       0.721  -0.485  -1.197  0.00  0.00     0.235 C 
ATOM     28  C5  <0> d   1       2.170  -0.742  -0.713  0.00  0.00     0.030 C 
ATOM     29  C6  <0> d   1       1.929  -1.301   0.714  0.00  0.00     0.035 C 
ENDBRANCH  22  23
ENDBRANCH   1  22
TORSDOF 6
