REMARK  6 active torsions:
REMARK  status: ('A' for Active; 'I' for Inactive)
REMARK    1  A    between atoms: C5_5  and  C6_6 
REMARK    2  A    between atoms: C6_6  and  C15_15 
REMARK    3  A    between atoms: C7_7  and  C8_8 
REMARK    4  A    between atoms: C8_8  and  N9_9 
REMARK    5  A    between atoms: C19_19  and  C20_20 
REMARK    6  A    between atoms: C21_21  and  C22_22 
ROOT
ATOM      1  C6  <0> d   1       0.592  -6.949   1.384  0.00  0.00     0.001 C 
ATOM      2  C7  <0> d   1       1.092  -7.898   2.185  0.00  0.00     0.015 C 
ENDROOT
BRANCH   1   3
ATOM      3  C5  <0> d   1       1.102  -5.560   1.472  0.00  0.00    -0.024 A 
ATOM      4  C4  <0> d   1       1.783  -4.995   0.395  0.00  0.00     0.013 A 
ATOM      5  C3  <0> d   1       2.256  -3.701   0.482  0.00  0.00     0.007 A 
ATOM      6  C2  <0> d   1       2.055  -2.966   1.637  0.00  0.00    -0.062 A 
ATOM      7  C1  <0> d   1       2.574  -1.554   1.726  0.00  0.00     0.048 C 
ATOM      8  C27 <0> d   1       1.385  -3.523   2.711  0.00  0.00     0.007 A 
ATOM      9  C26 <0> d   1       0.904  -4.814   2.633  0.00  0.00     0.013 A 
ENDBRANCH   1   3
BRANCH   1  10
ATOM     10  C15 <0> d   1      -0.472  -7.288   0.409  0.00  0.00     0.068 A 
ATOM     11  N25 <0> d   1      -1.742  -7.106   0.736  0.00  0.00    -0.248 NA
ATOM     12  C19 <0> d   1      -2.724  -7.392  -0.112  0.00  0.00     0.057 A 
ATOM     13  C18 <0> d   1      -2.443  -7.908  -1.379  0.00  0.00     0.031 A 
ATOM     14  C17 <0> d   1      -1.123  -8.114  -1.749  0.00  0.00     0.005 A 
ATOM     15  C16 <0> d   1      -0.124  -7.801  -0.843  0.00  0.00     0.032 A 
BRANCH  12  16
ATOM     16  C20 <0> d   1      -4.124  -7.169   0.291  0.00  0.00     0.038 C 
ATOM     17  C21 <0> d   1      -4.399  -6.554   1.460  0.00  0.00     0.086 C 
BRANCH  17  18
ATOM     18  C22 <0> d   1      -3.399  -5.691   2.085  0.00  0.00     0.198 C 
ATOM     19  O23 <0> d   1      -2.505  -5.199   1.408  0.00  0.00    -0.645 OA
ATOM     20  O24 <0> d   1      -3.454  -5.460   3.287  0.00  0.00    -0.645 OA
ENDBRANCH  17  18
ENDBRANCH  12  16
ENDBRANCH   1  10
BRANCH   2  21
ATOM     21  C8  <0> d   1       0.489  -9.279   2.185  0.00  0.00     0.263 C 
BRANCH  21  22
ATOM     22  N9  <0> d   1       1.535 -10.270   1.896  0.00  0.00    -0.068 N 
ATOM     23  H10 <0> d   1       2.011 -10.034   1.038  0.00  0.00     0.280 HD
ATOM     24  C14 <0> d   1       0.943 -11.622   1.796  0.00  0.00     0.235 C 
ATOM     25  C13 <0> d   1       1.970 -12.607   2.387  0.00  0.00     0.029 C 
ATOM     26  C12 <0> d   1       3.155 -11.729   2.848  0.00  0.00     0.029 C 
ATOM     27  C11 <0> d   1       2.505 -10.332   3.019  0.00  0.00     0.235 C 
ENDBRANCH  21  22
ENDBRANCH   2  21
TORSDOF 6
