REMARK  1 active torsions:
REMARK  status: ('A' for Active; 'I' for Inactive)
REMARK    1  A    between atoms: N1_1  and  C2_2 
ROOT
ATOM      1  C2  <0> d   1       0.002  -0.004   0.002  0.00  0.00     0.153 A 
ATOM      2  C3  <0> d   1      -1.188  -0.734   0.004  0.00  0.00     0.127 A 
ATOM      3  N4  <0> d   1      -2.530  -0.419   0.012  0.00  0.00    -0.345 N 
ATOM      4  C5  <0> d   1      -3.214  -1.585   0.009  0.00  0.00     0.210 A 
ATOM      5  N6  <0> d   1      -2.384  -2.591  -0.001  0.00  0.00    -0.222 NA
ATOM      6  C7  <0> d   1      -1.117  -2.137  -0.005  0.00  0.00     0.182 A 
ATOM      7  N8  <0> d   1       0.087  -2.718  -0.015  0.00  0.00    -0.220 NA
ATOM      8  C9  <0> d   1       1.181  -1.989  -0.016  0.00  0.00     0.237 A 
ATOM      9  N10 <0> d   1       1.155  -0.669  -0.013  0.00  0.00    -0.222 NA
ATOM     10  H13 <0> d   1      -2.913   0.472   0.020  0.00  0.00     0.167 HD
ENDROOT
BRANCH   1  11
ATOM     11  N1  <0> d   1      -0.017   1.381   0.010  0.00  0.00    -0.382 N 
ATOM     12  H11 <0> d   1       0.817   1.878   0.004  0.00  0.00     0.157 HD
ATOM     13  H12 <0> d   1      -0.863   1.855   0.016  0.00  0.00     0.157 HD
ENDBRANCH   1  11
TORSDOF 1
