REMARK  1 active torsions:
REMARK  status: ('A' for Active; 'I' for Inactive)
REMARK    1  A    between atoms: C2_2  and  P4_4 
ROOT
ATOM      1  P4  <0> d   1      -1.598   2.101   0.021  0.00  0.00     0.364 P 
ATOM      2  O5  <0> d   1      -2.046   2.348   1.502  0.00  0.00    -0.632 OA
ATOM      3  O6  <0> d   1      -1.432   3.476  -0.711  0.00  0.00    -0.632 OA
ATOM      4  O7  <0> d   1      -2.681   1.243  -0.717  0.00  0.00    -0.632 OA
ENDROOT
BRANCH   1   5
ATOM      5  C2  <0> d   1      -0.015   1.215   0.009  0.00  0.00     0.307 C 
ATOM      6  O1  <0> d   1       0.002  -0.004   0.002  0.00  0.00    -0.637 OA
ATOM      7  O3  <0> d   1       1.033   1.839   0.002  0.00  0.00    -0.637 OA
ENDBRANCH   1   5
TORSDOF 1
