REMARK  6 active torsions:
REMARK  status: ('A' for Active; 'I' for Inactive)
REMARK    1  A    between atoms: C3_3  and  C4_4 
REMARK    2  A    between atoms: C12_12  and  C13_13 
REMARK    3  A    between atoms: C13_13  and  O15_15 
REMARK    4  A    between atoms: O15_15  and  C16_16 
REMARK    5  A    between atoms: C16_16  and  C17_17 
REMARK    6  A    between atoms: C17_17  and  N18_18 
ROOT
ATOM      1  C1  <0> d   1      -0.376   0.750   0.191  0.00  0.00     0.055 C 
ATOM      2  C2  <0> d   1      -0.499  -0.751   0.168  0.00  0.00     0.024 A 
ATOM      3  C3  <0> d   1      -1.715  -1.337  -0.001  0.00  0.00     0.096 A 
ATOM      4  O10 <0> d   1      -1.877  -2.669  -0.028  0.00  0.00    -0.307 OA
ATOM      5  C11 <0> d   1      -0.845  -3.523   0.110  0.00  0.00     0.106 A 
ATOM      6  C12 <0> d   1      -1.050  -4.911   0.076  0.00  0.00     0.074 A 
ATOM      7  C24 <0> d   1       0.039  -5.772   0.221  0.00  0.00     0.020 A 
ATOM      8  C25 <0> d   1       1.314  -5.267   0.397  0.00  0.00     0.002 A 
ATOM      9  C26 <0> d   1       1.529  -3.904   0.432  0.00  0.00     0.018 A 
ATOM     10  C27 <0> d   1       0.455  -3.027   0.289  0.00  0.00     0.050 A 
ATOM     11  C28 <0> d   1       0.650  -1.563   0.316  0.00  0.00     0.193 A 
ATOM     12  O29 <0> d   1       1.758  -1.074   0.464  0.00  0.00    -0.287 OA
ENDROOT
BRANCH   6  13
ATOM     13  C13 <0> d   1      -2.406  -5.456  -0.113  0.00  0.00     0.296 C 
ATOM     14  O14 <0> d   1      -3.352  -4.704  -0.239  0.00  0.00    -0.259 OA
BRANCH  13  15
ATOM     15  O15 <0> d   1      -2.598  -6.790  -0.145  0.00  0.00    -0.316 OA
BRANCH  15  16
ATOM     16  C16 <0> d   1      -3.960  -7.256  -0.333  0.00  0.00     0.209 C 
BRANCH  16  17
ATOM     17  C17 <0> d   1      -3.980  -8.785  -0.342  0.00  0.00     0.299 C 
BRANCH  17  18
ATOM     18  N18 <0> d   1      -3.616  -9.288   0.989  0.00  0.00     0.090 N 
ATOM     19  C23 <0> d   1      -2.171  -9.164   1.222  0.00  0.00     0.272 C 
ATOM     20  C22 <0> d   1      -1.809  -9.826   2.553  0.00  0.00     0.030 C 
ATOM     21  C21 <0> d   1      -2.588  -9.148   3.684  0.00  0.00     0.003 C 
ATOM     22  C20 <0> d   1      -4.088  -9.250   3.393  0.00  0.00     0.030 C 
ATOM     23  C19 <0> d   1      -4.384  -8.603   2.038  0.00  0.00     0.272 C 
ENDBRANCH  17  18
ENDBRANCH  16  17
ENDBRANCH  15  16
ENDBRANCH  13  15
ENDBRANCH   6  13
BRANCH   3  24
ATOM     24  C4  <0> d   1      -2.903  -0.474  -0.160  0.00  0.00    -0.002 A 
ATOM     25  C9  <0> d   1      -4.032  -0.681   0.635  0.00  0.00     0.014 A 
ATOM     26  C8  <0> d   1      -5.136   0.132   0.485  0.00  0.00     0.001 A 
ATOM     27  C7  <0> d   1      -5.130   1.144  -0.459  0.00  0.00     0.000 A 
ATOM     28  C6  <0> d   1      -4.017   1.351  -1.255  0.00  0.00     0.001 A 
ATOM     29  C5  <0> d   1      -2.904   0.549  -1.111  0.00  0.00     0.014 A 
ENDBRANCH   3  24
TORSDOF 6
