REMARK  5 active torsions:
REMARK  status: ('A' for Active; 'I' for Inactive)
REMARK    1  A    between atoms: N6_6  and  C7_7 
REMARK    2  A    between atoms: C10_9  and  O12_10 
REMARK    3  A    between atoms: C13_11  and  C15_12 
REMARK    4  A    between atoms: C15_12  and  O16_13 
REMARK    5  A    between atoms: C19_16  and  C20_17 
ROOT
ATOM      1  O1  ZIN A   1       0.002  -0.004   0.002  0.00  0.00    -0.267 OA
ATOM      2  C2  ZIN A   1      -0.014   1.214   0.009  0.00  0.00     0.265 A 
ATOM      3  N3  ZIN A   1      -1.188   1.878   0.029  0.00  0.00    -0.275 N 
ATOM      4  C4  ZIN A   1      -1.205   3.224   0.036  0.00  0.00     0.331 A 
ATOM      5  O5  ZIN A   1      -2.270   3.810   0.054  0.00  0.00    -0.246 OA
ATOM      6  N6  ZIN A   1      -0.060   3.930   0.024  0.00  0.00    -0.281 N 
ATOM      7  C18 ZIN A   1       1.151   3.294   0.004  0.00  0.00     0.120 A 
ATOM      8  C19 ZIN A   1       1.198   1.945   0.001  0.00  0.00     0.131 A 
ATOM      9  H24 ZIN A   1      -2.022   1.384   0.038  0.00  0.00     0.173 HD
ENDROOT
BRANCH   6  10
ATOM     10  C7  ZIN A   1      -0.110   5.394   0.032  0.00  0.00     0.235 C 
ATOM     11  O17 ZIN A   1      -0.945   5.862   1.114  0.00  0.00    -0.356 OA
ATOM     12  C13 ZIN A   1      -1.326   7.207   0.745  0.00  0.00     0.176 C 
ATOM     13  C10 ZIN A   1      -1.612   7.136  -0.771  0.00  0.00     0.153 C 
ATOM     14  C9  ZIN A   1      -0.794   5.916  -1.251  0.00  0.00     0.088 C 
BRANCH  12  15
ATOM     15  C15 ZIN A   1      -2.583   7.635   1.505  0.00  0.00     0.198 C 
BRANCH  15  16
ATOM     16  O16 ZIN A   1      -2.268   7.807   2.888  0.00  0.00    -0.398 OA
ATOM     17  H30 ZIN A   1      -3.020   8.079   3.432  0.00  0.00     0.209 HD
ENDBRANCH  15  16
ENDBRANCH  12  15
BRANCH  13  18
ATOM     18  O12 ZIN A   1      -1.165   8.326  -1.424  0.00  0.00    -0.393 OA
ATOM     19  H27 ZIN A   1      -1.268   8.310  -2.385  0.00  0.00     0.210 HD
ENDBRANCH  13  18
ENDBRANCH   6  10
BRANCH   8  20
ATOM     20  C20 ZIN A   1       2.523   1.226  -0.020  0.00  0.00     0.424 C 
ATOM     21  F21 ZIN A   1       2.898   0.901   1.288  0.00  0.00    -0.166 F 
ATOM     22  F22 ZIN A   1       2.406   0.055  -0.777  0.00  0.00    -0.166 F 
ATOM     23  F23 ZIN A   1       3.494   2.056  -0.591  0.00  0.00    -0.166 F 
ENDBRANCH   8  20
TORSDOF 5
