REMARK  8 active torsions:
REMARK  status: ('A' for Active; 'I' for Inactive)
REMARK    1  A    between atoms: C2_2  and  C4_4 
REMARK    2  A    between atoms: C4_4  and  O5_5 
REMARK    3  A    between atoms: O5_5  and  C6_6 
REMARK    4  A    between atoms: C6_6  and  C7_7 
REMARK    5  A    between atoms: C7_7  and  N8_8 
REMARK    6  A    between atoms: N12_12  and  C13_13 
REMARK    7  A    between atoms: C13_13  and  C15_14 
REMARK    8  A    between atoms: C13_13  and  C21_20 
ROOT
ATOM      1  N8  <0> d   1      -4.683  -0.259   1.278  0.00  0.00    -0.066 N 
ATOM      2  H9  <0> d   1      -3.744  -0.610   1.395  0.00  0.00     0.280 HD
ATOM      3  C10 <0> d   1      -5.623  -1.386   1.226  0.00  0.00     0.265 C 
ATOM      4  C11 <0> d   1      -5.522  -2.195   2.521  0.00  0.00     0.301 C 
ATOM      5  N12 <0> d   1      -5.835  -1.326   3.664  0.00  0.00     0.105 N 
ATOM      6  C28 <0> d   1      -4.916  -0.179   3.715  0.00  0.00     0.301 C 
ATOM      7  C29 <0> d   1      -5.023   0.613   2.410  0.00  0.00     0.265 C 
ENDROOT
BRANCH   5   8
ATOM      8  C13 <0> d   1      -5.803  -2.081   4.924  0.00  0.00     0.289 C 
BRANCH   8   9
ATOM      9  C15 <0> d   1      -6.128  -1.158   6.071  0.00  0.00    -0.021 A 
ATOM     10  C20 <0> d   1      -5.438  -1.270   7.264  0.00  0.00     0.010 A 
ATOM     11  C19 <0> d   1      -5.733  -0.421   8.315  0.00  0.00     0.001 A 
ATOM     12  C18 <0> d   1      -6.723   0.533   8.175  0.00  0.00     0.000 A 
ATOM     13  C17 <0> d   1      -7.416   0.641   6.984  0.00  0.00     0.001 A 
ATOM     14  C16 <0> d   1      -7.119  -0.205   5.932  0.00  0.00     0.010 A 
ENDBRANCH   8   9
BRANCH   8  15
ATOM     15  C21 <0> d   1      -6.821  -3.191   4.870  0.00  0.00    -0.021 A 
ATOM     16  C27 <0> d   1      -6.516  -4.434   5.394  0.00  0.00     0.011 A 
ATOM     17  C26 <0> d   1      -7.451  -5.451   5.350  0.00  0.00     0.024 A 
ATOM     18  C24 <0> d   1      -8.687  -5.229   4.769  0.00  0.00     0.034 A 
ATOM     19  C23 <0> d   1      -8.989  -3.987   4.239  0.00  0.00     0.024 A 
ATOM     20 Cl25 <0> d   1      -9.858  -6.508   4.706  0.00  0.00    -0.084 Cl
ATOM     21  C22 <0> d   1      -8.056  -2.969   4.290  0.00  0.00     0.011 A 
ENDBRANCH   8  15
ENDBRANCH   5   8
BRANCH   1  22
ATOM     22  C7  <0> d   1      -4.767   0.507   0.027  0.00  0.00     0.261 C 
BRANCH  22  23
ATOM     23  C6  <0> d   1      -3.701   1.604   0.028  0.00  0.00     0.196 C 
BRANCH  23  24
ATOM     24  O5  <0> d   1      -2.403   1.007   0.019  0.00  0.00    -0.379 OA
BRANCH  24  25
ATOM     25  C4  <0> d   1      -1.330   1.951   0.019  0.00  0.00     0.280 C 
BRANCH  25  26
ATOM     26  C2  <0> d   1      -0.015   1.215   0.009  0.00  0.00     0.197 C 
ATOM     27  O1  <0> d   1       0.002  -0.004   0.002  0.00  0.00    -0.646 OA
ATOM     28  O3  <0> d   1       1.033   1.839   0.002  0.00  0.00    -0.646 OA
ENDBRANCH  25  26
ENDBRANCH  24  25
ENDBRANCH  23  24
ENDBRANCH  22  23
ENDBRANCH   1  22
TORSDOF 8
