REMARK  0 active torsions:
REMARK  status: ('A' for Active; 'I' for Inactive)
ROOT
ATOM      1  C1  ZIN A   1      -0.018   1.465   0.010  0.00  0.00     0.269 C 
ATOM      2  N2  ZIN A   1       0.002  -0.004   0.002  0.00  0.00    -0.074 N 
ATOM      3  H3  ZIN A   1       0.462  -0.334  -0.833  0.00  0.00     0.279 HD
ATOM      4  C4  ZIN A   1      -1.388  -0.523   0.045  0.00  0.00     0.244 C 
ATOM      5  C5  ZIN A   1      -1.493  -1.344   1.331  0.00  0.00     0.057 C 
ATOM      6  C7  ZIN A   1      -2.435  -2.480   1.315  0.00  0.00    -0.018 A 
ATOM      7  C8  ZIN A   1      -3.100  -2.882   0.174  0.00  0.00     0.010 A 
ATOM      8  C9  ZIN A   1      -3.945  -3.976   0.216  0.00  0.00     0.001 A 
ATOM      9  C10 ZIN A   1      -4.124  -4.673   1.397  0.00  0.00     0.003 A 
ATOM     10  C11 ZIN A   1      -3.470  -4.267   2.546  0.00  0.00     0.038 A 
ATOM     11  C12 ZIN A   1      -2.638  -3.161   2.509  0.00  0.00     0.082 A 
ATOM     12  O13 ZIN A   1      -2.053  -2.674   3.620  0.00  0.00    -0.310 OA
ATOM     13  C14 ZIN A   1      -0.730  -2.689   3.870  0.00  0.00     0.083 A 
ATOM     14  C15 ZIN A   1      -0.342  -3.145   5.132  0.00  0.00     0.039 A 
ATOM     15  C16 ZIN A   1       0.986  -3.223   5.483  0.00  0.00     0.026 A 
ATOM     16  C17 ZIN A   1       1.954  -2.843   4.569  0.00  0.00     0.034 A 
ATOM     17 Cl18 ZIN A   1       3.635  -2.946   4.988  0.00  0.00    -0.084 Cl
ATOM     18  C19 ZIN A   1       1.578  -2.384   3.326  0.00  0.00     0.034 A 
ATOM     19  C20 ZIN A   1       0.236  -2.289   2.960  0.00  0.00    -0.016 A 
ATOM     20  C21 ZIN A   1      -0.061  -1.750   1.615  0.00  0.00     0.057 C 
ATOM     21  C23 ZIN A   1       0.727  -0.502   1.203  0.00  0.00     0.244 C 
ENDROOT
TORSDOF 0
