REMARK  1 active torsions:
REMARK  status: ('A' for Active; 'I' for Inactive)
REMARK    1  A    between atoms: N1_1  and  N2_2 
ROOT
ATOM      1  N2  <0> d   1       0.002  -0.004   0.002  0.00  0.00    -0.161 NA
ATOM      2  C3  <0> d   1       1.141  -0.641  -0.012  0.00  0.00     0.174 C 
ATOM      3  N4  <0> d   1       2.374   0.029  -0.015  0.00  0.00    -0.259 N 
ATOM      4  N5  <0> d   1       3.435  -0.533  -0.742  0.00  0.00    -0.185 NA
ATOM      5  C6  <0> d   1       3.481  -1.808  -0.990  0.00  0.00     0.151 C 
ATOM      6  C7  <0> d   1       2.411  -2.697  -0.520  0.00  0.00    -0.003 A 
ATOM      7  C8  <0> d   1       2.537  -4.083  -0.548  0.00  0.00     0.014 A 
ATOM      8  C9  <0> d   1       1.497  -4.871  -0.097  0.00  0.00     0.001 A 
ATOM      9  C10 <0> d   1       0.329  -4.300   0.382  0.00  0.00     0.001 A 
ATOM     10  C11 <0> d   1       0.183  -2.925   0.419  0.00  0.00     0.016 A 
ATOM     11  C12 <0> d   1       1.219  -2.119  -0.021  0.00  0.00     0.025 A 
ATOM     12  H15 <0> d   1       2.490   0.859   0.474  0.00  0.00     0.191 HD
ENDROOT
BRANCH   1  13
ATOM     13  N1  <0> d   1      -0.017   1.397   0.010  0.00  0.00    -0.321 N 
ATOM     14  H13 <0> d   1       0.816   1.893   0.004  0.00  0.00     0.179 HD
ATOM     15  H14 <0> d   1      -0.864   1.870   0.016  0.00  0.00     0.179 HD
ENDBRANCH   1  13
TORSDOF 1
