REMARK  5 active torsions:
REMARK  status: ('A' for Active; 'I' for Inactive)
REMARK    1  A    between atoms: N2_2  and  S4_4 
REMARK    2  A    between atoms: S4_4  and  C7_7 
REMARK    3  A    between atoms: C19_19  and  C20_20 
REMARK    4  A    between atoms: C20_20  and  C21_21 
REMARK    5  A    between atoms: C21_21  and  N22_22 
ROOT
ATOM      1  C7  ZIN A   1       1.093  -1.383  -1.247  0.00  0.00     0.080 A 
ATOM      2  C8  ZIN A   1       1.577  -0.395  -2.088  0.00  0.00     0.027 A 
ATOM      3  C9  ZIN A   1       2.769  -0.574  -2.756  0.00  0.00     0.021 A 
ATOM      4  C10 ZIN A   1       3.500  -1.751  -2.593  0.00  0.00     0.017 A 
ATOM      5  S11 ZIN A   1       5.019  -1.934  -3.457  0.00  0.00    -0.089 SA
ATOM      6  C12 ZIN A   1       5.340  -3.661  -3.442  0.00  0.00     0.016 A 
ATOM      7  C13 ZIN A   1       6.246  -4.186  -4.363  0.00  0.00     0.020 A 
ATOM      8  C14 ZIN A   1       6.523  -5.537  -4.377  0.00  0.00     0.001 A 
ATOM      9  C15 ZIN A   1       5.905  -6.385  -3.475  0.00  0.00     0.001 A 
ATOM     10  C16 ZIN A   1       5.007  -5.883  -2.558  0.00  0.00     0.013 A 
ATOM     11  C17 ZIN A   1       4.715  -4.517  -2.534  0.00  0.00    -0.008 A 
ATOM     12  C18 ZIN A   1       3.744  -4.012  -1.545  0.00  0.00    -0.017 C 
ATOM     13  C19 ZIN A   1       3.523  -4.722  -0.428  0.00  0.00    -0.012 C 
ATOM     14  C30 ZIN A   1       3.011  -2.748  -1.748  0.00  0.00    -0.007 A 
ATOM     15  C31 ZIN A   1       1.804  -2.551  -1.072  0.00  0.00     0.038 A 
ENDROOT
BRANCH  13  16
ATOM     16  C20 ZIN A   1       2.880  -4.066   0.767  0.00  0.00     0.055 C 
BRANCH  16  17
ATOM     17  C21 ZIN A   1       3.727  -4.335   2.013  0.00  0.00     0.238 C 
BRANCH  17  18
ATOM     18  N22 ZIN A   1       3.088  -3.716   3.182  0.00  0.00    -0.068 N 
ATOM     19  H23 ZIN A   1       2.929  -2.737   2.999  0.00  0.00     0.280 HD
ATOM     20  C29 ZIN A   1       1.805  -4.380   3.446  0.00  0.00     0.265 C 
ATOM     21  C28 ZIN A   1       1.130  -3.723   4.653  0.00  0.00     0.299 C 
ATOM     22  N26 ZIN A   1       2.010  -3.836   5.824  0.00  0.00     0.087 N 
ATOM     23  C25 ZIN A   1       3.309  -3.198   5.565  0.00  0.00     0.299 C 
ATOM     24  C27 ZIN A   1       1.373  -3.266   7.019  0.00  0.00     0.310 C 
ATOM     25  C24 ZIN A   1       3.965  -3.859   4.351  0.00  0.00     0.265 C 
ENDBRANCH  17  18
ENDBRANCH  16  17
ENDBRANCH  13  16
BRANCH   1  26
ATOM     26  S4  ZIN A   1      -0.431  -1.145  -0.396  0.00  0.00     0.260 S 
ATOM     27  O5  ZIN A   1      -0.851  -2.430   0.043  0.00  0.00    -0.200 OA
ATOM     28  O6  ZIN A   1      -1.227  -0.308  -1.224  0.00  0.00    -0.200 OA
BRANCH  26  29
ATOM     29  N2  ZIN A   1      -0.098  -0.270   0.970  0.00  0.00    -0.315 N 
ATOM     30  C1  ZIN A   1      -0.237   1.188   0.959  0.00  0.00     0.162 C 
ATOM     31  C3  ZIN A   1       0.336  -0.955   2.191  0.00  0.00     0.162 C 
ENDBRANCH  26  29
ENDBRANCH   1  26
TORSDOF 5
