REMARK  7 active torsions:
REMARK  status: ('A' for Active; 'I' for Inactive)
REMARK    1  A    between atoms: O2_2  and  C3_3 
REMARK    2  A    between atoms: C7_7  and  C8_8 
REMARK    3  A    between atoms: C8_8  and  S9_9 
REMARK    4  A    between atoms: S9_9  and  C11_11 
REMARK    5  A    between atoms: C15_15  and  O16_16 
REMARK    6  A    between atoms: O16_16  and  C17_17 
REMARK    7  A    between atoms: C24_24  and  O25_25 
ROOT
ATOM      1  C11 ZIN A   1       2.790  -6.413  -1.787  0.00  0.00     0.198 A 
ATOM      2  N12 ZIN A   1       2.224  -7.246  -0.963  0.00  0.00    -0.220 NA
ATOM      3  C13 ZIN A   1       2.336  -8.511  -1.444  0.00  0.00     0.089 A 
ATOM      4  C14 ZIN A   1       1.917  -9.758  -0.974  0.00  0.00     0.071 A 
ATOM      5  C15 ZIN A   1       2.189 -10.894  -1.711  0.00  0.00     0.077 A 
ATOM      6  C20 ZIN A   1       2.878 -10.802  -2.918  0.00  0.00     0.039 A 
ATOM      7  C21 ZIN A   1       3.296  -9.577  -3.391  0.00  0.00     0.035 A 
ATOM      8  C22 ZIN A   1       3.030  -8.427  -2.662  0.00  0.00     0.063 A 
ATOM      9  N23 ZIN A   1       3.299  -7.084  -2.855  0.00  0.00    -0.331 N 
ATOM     10  H38 ZIN A   1       3.765  -6.694  -3.611  0.00  0.00     0.168 HD
ENDROOT
BRANCH   1  11
ATOM     11  S9  ZIN A   1       2.878  -4.668  -1.557  0.00  0.00     0.092 S 
ATOM     12  O10 ZIN A   1       4.003  -4.298  -2.342  0.00  0.00    -0.249 OA
BRANCH  11  13
ATOM     13  C8  ZIN A   1       1.362  -4.074  -2.356  0.00  0.00     0.179 C 
BRANCH  13  14
ATOM     14  C7  ZIN A   1       1.289  -2.573  -2.242  0.00  0.00     0.082 A 
ATOM     15  N6  ZIN A   1       1.821  -1.820  -3.187  0.00  0.00    -0.262 NA
ATOM     16  C5  ZIN A   1       1.784  -0.503  -3.132  0.00  0.00     0.120 A 
ATOM     17  C4  ZIN A   1       1.179   0.146  -2.074  0.00  0.00     0.059 A 
ATOM     18  C3  ZIN A   1       0.606  -0.607  -1.055  0.00  0.00     0.104 A 
ATOM     19  C24 ZIN A   1       0.671  -1.999  -1.145  0.00  0.00     0.127 A 
BRANCH  18  20
ATOM     20  O2  ZIN A   1       0.002  -0.004   0.002  0.00  0.00    -0.353 OA
ATOM     21  C1  ZIN A   1      -0.017   1.425   0.010  0.00  0.00     0.210 C 
ENDBRANCH  18  20
BRANCH  19  22
ATOM     22  O25 ZIN A   1       0.124  -2.780  -0.174  0.00  0.00    -0.351 OA
ATOM     23  C26 ZIN A   1       0.973  -3.151   0.914  0.00  0.00     0.210 C 
ENDBRANCH  19  22
ENDBRANCH  13  14
ENDBRANCH  11  13
ENDBRANCH   1  11
BRANCH   5  24
ATOM     24  O16 ZIN A   1       1.782 -12.109  -1.256  0.00  0.00    -0.290 OA
BRANCH  24  25
ATOM     25  C17 ZIN A   1       2.095 -13.243  -2.067  0.00  0.00     0.505 C 
ATOM     26  F18 ZIN A   1       1.503 -13.095  -3.325  0.00  0.00    -0.184 F 
ATOM     27  F19 ZIN A   1       3.483 -13.343  -2.213  0.00  0.00    -0.184 F 
ENDBRANCH  24  25
ENDBRANCH   5  24
TORSDOF 7
