REMARK  10 active torsions:
REMARK  status: ('A' for Active; 'I' for Inactive)
REMARK    1  A    between atoms: C2_2  and  C3_3 
REMARK    2  A    between atoms: C3_3  and  C4_4 
REMARK    3  A    between atoms: C4_4  and  C5_5 
REMARK       I    between atoms: C5_5  and  N7_7 
REMARK    4  A    between atoms: N7_7  and  C8_8 
REMARK    5  A    between atoms: N7_7  and  C26_26 
REMARK    6  A    between atoms: C8_8  and  C9_9 
REMARK    7  A    between atoms: C12_12  and  C13_13 
REMARK    8  A    between atoms: C18_18  and  C19_19 
REMARK    9  A    between atoms: C26_26  and  C28_27 
REMARK   10  A    between atoms: C26_26  and  C31_30 
ROOT
ATOM      1  C9  ZIN A   1      -3.826   3.434  -0.277  0.00  0.00    -0.040 A 
ATOM      2  C10 ZIN A   1      -3.718   2.460  -1.253  0.00  0.00     0.010 A 
ATOM      3  C11 ZIN A   1      -2.536   1.765  -1.410  0.00  0.00     0.013 A 
ATOM      4  C12 ZIN A   1      -1.450   2.047  -0.583  0.00  0.00    -0.025 A 
ATOM      5  C24 ZIN A   1      -1.566   3.026   0.402  0.00  0.00     0.013 A 
ATOM      6  C25 ZIN A   1      -2.752   3.718   0.546  0.00  0.00     0.010 A 
ENDROOT
BRANCH   1   7
ATOM      7  C8  ZIN A   1      -5.119   4.190  -0.111  0.00  0.00     0.165 C 
BRANCH   7   8
ATOM      8  N7  ZIN A   1      -5.995   3.462   0.810  0.00  0.00    -0.333 N 
ATOM      9  C5  ZIN A   1      -6.035   3.802   2.113  0.00  0.00     0.220 C 
ATOM     10  O6  ZIN A   1      -6.691   3.143   2.893  0.00  0.00    -0.273 OA
BRANCH   9  11
ATOM     11  C4  ZIN A   1      -5.263   5.000   2.603  0.00  0.00     0.103 C 
BRANCH  11  12
ATOM     12  C3  ZIN A   1      -5.382   5.096   4.125  0.00  0.00     0.009 C 
BRANCH  12  13
ATOM     13  C2  ZIN A   1      -4.598   6.312   4.622  0.00  0.00    -0.004 C 
ATOM     14  C1  ZIN A   1      -4.717   6.408   6.145  0.00  0.00     0.005 C 
ENDBRANCH  12  13
ENDBRANCH  11  12
ENDBRANCH   9  11
BRANCH   8  15
ATOM     15  C26 ZIN A   1      -6.829   2.364   0.314  0.00  0.00     0.191 C 
BRANCH  15  16
ATOM     16  C28 ZIN A   1      -8.283   2.739   0.443  0.00  0.00     0.197 C 
ATOM     17  O29 ZIN A   1      -9.145   2.005  -0.009  0.00  0.00    -0.646 OA
ATOM     18  O30 ZIN A   1      -8.597   3.778   0.998  0.00  0.00    -0.646 OA
ENDBRANCH  15  16
BRANCH  15  19
ATOM     19  C31 ZIN A   1      -6.554   1.103   1.135  0.00  0.00     0.011 C 
ATOM     20  C32 ZIN A   1      -7.317  -0.077   0.530  0.00  0.00     0.012 C 
ATOM     21  C33 ZIN A   1      -5.054   0.802   1.120  0.00  0.00     0.012 C 
ENDBRANCH  15  19
ENDBRANCH   8  15
ENDBRANCH   7   8
ENDBRANCH   1   7
BRANCH   4  22
ATOM     22  C13 ZIN A   1      -0.178   1.303  -0.745  0.00  0.00    -0.012 A 
ATOM     23  C18 ZIN A   1       1.037   1.998  -0.851  0.00  0.00     0.026 A 
ATOM     24  C17 ZIN A   1       2.224   1.289  -1.008  0.00  0.00     0.016 A 
ATOM     25  C16 ZIN A   1       2.202  -0.091  -1.062  0.00  0.00     0.001 A 
ATOM     26  C15 ZIN A   1       1.004  -0.776  -0.958  0.00  0.00     0.001 A 
ATOM     27  C14 ZIN A   1      -0.182  -0.088  -0.801  0.00  0.00     0.013 A 
BRANCH  23  28
ATOM     28  C19 ZIN A   1       1.056   3.480  -0.793  0.00  0.00     0.207 A 
ATOM     29  N23 ZIN A   1       2.126   4.264  -0.879  0.00  0.00    -0.106 NA
ATOM     30  N22 ZIN A   1       1.722   5.485  -0.785  0.00  0.00    -0.021 NA
ATOM     31  N21 ZIN A   1       0.442   5.496  -0.645  0.00  0.00    -0.021 NA
ATOM     32  N20 ZIN A   1       0.006   4.282  -0.652  0.00  0.00    -0.106 NA
ENDBRANCH  23  28
ENDBRANCH   4  22
TORSDOF 10
