REMARK  16 active torsions:
REMARK  status: ('A' for Active; 'I' for Inactive)
REMARK    1  A    between atoms: N2_2  and  C3_3 
REMARK    2  A    between atoms: C3_3  and  C4_4 
REMARK    3  A    between atoms: C4_4  and  O6_6 
REMARK    4  A    between atoms: O6_6  and  C7_7 
REMARK    5  A    between atoms: C7_7  and  C8_8 
REMARK    6  A    between atoms: C13_13  and  N14_14 
REMARK       I    between atoms: N14_14  and  C16_16 
REMARK    7  A    between atoms: C16_16  and  O18_18 
REMARK    8  A    between atoms: O18_18  and  C19_19 
REMARK    9  A    between atoms: C19_19  and  N22_21 
REMARK   10  A    between atoms: N24_23  and  C25_24 
REMARK   11  A    between atoms: C25_24  and  C26_25 
REMARK   12  A    between atoms: C26_25  and  O27_26 
REMARK   13  A    between atoms: C26_25  and  C28_27 
REMARK   14  A    between atoms: C26_25  and  C36_35 
REMARK   15  A    between atoms: C36_35  and  C39_37 
REMARK   16  A    between atoms: C41_39  and  C42_40 
ROOT
ATOM      1  C42 ZIN A   1       6.507 -13.016  -6.843  0.00  0.00    -0.007 A 
ATOM      2  C43 ZIN A   1       6.968 -14.295  -6.528  0.00  0.00     0.015 A 
ATOM      3  C44 ZIN A   1       8.297 -14.600  -6.671  0.00  0.00     0.023 A 
ATOM      4  C45 ZIN A   1       9.191 -13.628  -7.131  0.00  0.00     0.044 A 
ATOM      5  C46 ZIN A   1      10.579 -13.945  -7.281  0.00  0.00     0.099 C 
ATOM      6  N47 ZIN A   1      11.681 -14.197  -7.400  0.00  0.00    -0.191 NA
ATOM      7  C48 ZIN A   1       8.728 -12.347  -7.446  0.00  0.00     0.023 A 
ATOM      8  C49 ZIN A   1       7.397 -12.047  -7.308  0.00  0.00     0.015 A 
ENDROOT
BRANCH   1   9
ATOM      9  C41 ZIN A   1       5.070 -12.688  -6.688  0.00  0.00     0.074 A 
ATOM     10  N40 ZIN A   1       4.191 -13.529  -6.162  0.00  0.00    -0.244 NA
ATOM     11  C39 ZIN A   1       2.970 -13.127  -6.082  0.00  0.00     0.082 A 
ATOM     12  S51 ZIN A   1       2.816 -11.546  -6.714  0.00  0.00    -0.084 SA
ATOM     13  C50 ZIN A   1       4.541 -11.507  -7.071  0.00  0.00     0.084 A 
BRANCH  11  14
ATOM     14  C36 ZIN A   1       1.834 -13.940  -5.516  0.00  0.00     0.082 C 
ATOM     15  C38 ZIN A   1       0.768 -14.147  -6.594  0.00  0.00     0.020 C 
BRANCH  14  16
ATOM     16  C26 ZIN A   1       1.219 -13.198  -4.327  0.00  0.00     0.115 C 
BRANCH  16  17
ATOM     17  C25 ZIN A   1       0.095 -14.043  -3.725  0.00  0.00     0.196 C 
BRANCH  17  18
ATOM     18  N24 ZIN A   1      -0.572 -13.284  -2.664  0.00  0.00    -0.261 N 
ATOM     19  C23 ZIN A   1      -1.885 -13.012  -2.572  0.00  0.00     0.208 A 
ATOM     20  N22 ZIN A   1      -2.079 -12.313  -1.483  0.00  0.00    -0.307 N 
ATOM     21  C53 ZIN A   1      -0.918 -12.117  -0.859  0.00  0.00     0.235 A 
ATOM     22  N52 ZIN A   1       0.034 -12.697  -1.541  0.00  0.00    -0.166 NA
BRANCH  20  23
ATOM     23  C19 ZIN A   1      -3.378 -11.816  -1.021  0.00  0.00     0.237 C 
ATOM     24  C21 ZIN A   1      -3.914 -12.735   0.078  0.00  0.00     0.064 C 
BRANCH  23  25
ATOM     25  O18 ZIN A   1      -3.222 -10.472  -0.495  0.00  0.00    -0.278 OA
BRANCH  25  26
ATOM     26  C16 ZIN A   1      -4.280  -9.646  -0.605  0.00  0.00     0.370 C 
ATOM     27  N14 ZIN A   1      -4.202  -8.385  -0.136  0.00  0.00    -0.282 N 
ATOM     28  C15 ZIN A   1      -2.966  -7.912   0.493  0.00  0.00     0.163 C 
ATOM     29  O17 ZIN A   1      -5.305 -10.038  -1.126  0.00  0.00    -0.238 OA
BRANCH  27  30
ATOM     30  C13 ZIN A   1      -5.297  -7.530  -0.250  0.00  0.00     0.141 A 
ATOM     31  C8  ZIN A   1      -5.479  -6.794  -1.416  0.00  0.00     0.012 A 
ATOM     32  C9  ZIN A   1      -6.569  -5.949  -1.515  0.00  0.00     0.014 A 
ATOM     33  C10 ZIN A   1      -7.442  -5.865  -0.439  0.00  0.00     0.020 A 
ATOM     34  C11 ZIN A   1      -7.198  -6.620   0.690  0.00  0.00     0.119 A 
ATOM     35  N12 ZIN A   1      -6.149  -7.418   0.757  0.00  0.00    -0.242 NA
BRANCH  31  36
ATOM     36  C7  ZIN A   1      -4.503  -6.920  -2.558  0.00  0.00     0.221 C 
BRANCH  36  37
ATOM     37  O6  ZIN A   1      -4.982  -6.148  -3.690  0.00  0.00    -0.315 OA
BRANCH  37  38
ATOM     38  C4  ZIN A   1      -4.223  -6.155  -4.797  0.00  0.00     0.287 C 
ATOM     39  O5  ZIN A   1      -3.192  -6.785  -4.819  0.00  0.00    -0.263 OA
BRANCH  38  40
ATOM     40  C3  ZIN A   1      -4.655  -5.376  -6.013  0.00  0.00     0.379 C 
BRANCH  40  41
ATOM     41  N2  ZIN A   1      -3.662  -5.544  -7.081  0.00  0.00     0.088 N 
ATOM     42  C1  ZIN A   1      -4.051  -4.797  -8.285  0.00  0.00     0.307 C 
ATOM     43  H57 ZIN A   1      -3.519  -6.520  -7.292  0.00  0.00     0.315 HD
ENDBRANCH  40  41
ENDBRANCH  38  40
ENDBRANCH  37  38
ENDBRANCH  36  37
ENDBRANCH  31  36
ENDBRANCH  27  30
ENDBRANCH  25  26
ENDBRANCH  23  25
ENDBRANCH  20  23
ENDBRANCH  17  18
ENDBRANCH  16  17
BRANCH  16  44
ATOM     44  O27 ZIN A   1       2.225 -12.968  -3.338  0.00  0.00    -0.382 OA
ATOM     45  H74 ZIN A   1       2.629 -13.776  -2.992  0.00  0.00     0.211 HD
ENDBRANCH  16  44
BRANCH  16  46
ATOM     46  C28 ZIN A   1       0.661 -11.878  -4.793  0.00  0.00     0.020 A 
ATOM     47  C34 ZIN A   1       1.304 -10.698  -4.458  0.00  0.00     0.126 A 
ATOM     48  C33 ZIN A   1       0.794  -9.486  -4.890  0.00  0.00     0.046 A 
ATOM     49  F35 ZIN A   1       2.434 -10.730  -3.719  0.00  0.00    -0.205 F 
ATOM     50  C32 ZIN A   1      -0.362  -9.453  -5.647  0.00  0.00     0.045 A 
ATOM     51  C30 ZIN A   1      -1.008 -10.632  -5.977  0.00  0.00     0.117 A 
ATOM     52  C29 ZIN A   1      -0.495 -11.845  -5.548  0.00  0.00     0.055 A 
ATOM     53  F31 ZIN A   1      -2.138 -10.600  -6.716  0.00  0.00    -0.206 F 
ENDBRANCH  16  46
ENDBRANCH  14  16
ENDBRANCH  11  14
ENDBRANCH   1   9
TORSDOF 16
