REMARK  5 active torsions:
REMARK  status: ('A' for Active; 'I' for Inactive)
REMARK    1  A    between atoms: C3_3  and  C4_4 
REMARK    2  A    between atoms: C4_4  and  C5_5 
REMARK    3  A    between atoms: C5_5  and  N6_6 
REMARK    4  A    between atoms: C10_10  and  C11_11 
REMARK    5  A    between atoms: C29_29  and  O31_30 
ROOT
ATOM      1  N6  ZIN A   1      -4.301   0.826  -1.430  0.00  0.00    -0.071 N 
ATOM      2  H7  ZIN A   1      -4.940   0.342  -0.818  0.00  0.00     0.279 HD
ATOM      3  C8  ZIN A   1      -4.848   0.840  -2.792  0.00  0.00     0.235 C 
ATOM      4  C9  ZIN A   1      -6.234   1.489  -2.783  0.00  0.00     0.038 C 
ATOM      5  C10 ZIN A   1      -6.117   2.925  -2.264  0.00  0.00     0.044 C 
ATOM      6  C21 ZIN A   1      -5.477   2.903  -0.873  0.00  0.00     0.038 C 
ATOM      7  C22 ZIN A   1      -4.118   2.203  -0.955  0.00  0.00     0.235 C 
ENDROOT
BRANCH   1   8
ATOM      8  C5  ZIN A   1      -3.006   0.134  -1.431  0.00  0.00     0.239 C 
BRANCH   8   9
ATOM      9  C4  ZIN A   1      -2.495   0.005   0.005  0.00  0.00     0.074 C 
BRANCH   9  10
ATOM     10  C3  ZIN A   1      -1.166  -0.705   0.004  0.00  0.00     0.036 A 
ATOM     11  C2  ZIN A   1       0.002  -0.004   0.002  0.00  0.00     0.044 A 
ATOM     12  C1  ZIN A   1      -0.018   1.503   0.010  0.00  0.00     0.071 C 
ATOM     13  N33 ZIN A   1       1.161  -0.658  -0.013  0.00  0.00    -0.237 NA
ATOM     14  C32 ZIN A   1       1.232  -1.972  -0.006  0.00  0.00     0.138 A 
ATOM     15  N25 ZIN A   1       0.117  -2.718   0.017  0.00  0.00    -0.300 N 
ATOM     16  C29 ZIN A   1       2.616  -2.575  -0.032  0.00  0.00     0.188 C 
ATOM     17  C23 ZIN A   1      -1.098  -2.110   0.004  0.00  0.00     0.257 A 
ATOM     18  C26 ZIN A   1       0.123  -4.181   0.068  0.00  0.00     0.134 C 
ATOM     19  O24 ZIN A   1      -2.119  -2.776  -0.008  0.00  0.00    -0.267 OA
ATOM     20  C27 ZIN A   1       1.468  -4.742  -0.381  0.00  0.00     0.023 C 
ATOM     21  C28 ZIN A   1       2.573  -4.035   0.414  0.00  0.00     0.041 C 
BRANCH  16  22
ATOM     22  O31 ZIN A   1       3.466  -1.838   0.849  0.00  0.00    -0.388 OA
ATOM     23  H59 ZIN A   1       3.542  -0.899   0.629  0.00  0.00     0.210 HD
ENDBRANCH  16  22
ENDBRANCH   9  10
ENDBRANCH   8   9
ENDBRANCH   1   8
BRANCH   5  24
ATOM     24  C11 ZIN A   1      -7.488   3.543  -2.178  0.00  0.00     0.079 A 
ATOM     25  C20 ZIN A   1      -7.945   4.740  -2.888  0.00  0.00     0.027 A 
ATOM     26  C14 ZIN A   1      -9.283   4.941  -2.508  0.00  0.00     0.116 A 
ATOM     27  C19 ZIN A   1      -7.342   5.613  -3.797  0.00  0.00     0.019 A 
ATOM     28  O13 ZIN A   1      -9.600   3.958  -1.640  0.00  0.00    -0.212 OA
ATOM     29  C15 ZIN A   1      -9.989   6.015  -3.033  0.00  0.00     0.082 A 
ATOM     30  N12 ZIN A   1      -8.479   3.117  -1.457  0.00  0.00    -0.131 NA
ATOM     31  C16 ZIN A   1      -9.373   6.870  -3.925  0.00  0.00     0.119 A 
ATOM     32  F17 ZIN A   1     -10.061   7.915  -4.435  0.00  0.00    -0.206 F 
ATOM     33  C18 ZIN A   1      -8.052   6.665  -4.303  0.00  0.00     0.043 A 
ENDBRANCH   5  24
TORSDOF 5
