REMARK  4 active torsions:
REMARK  status: ('A' for Active; 'I' for Inactive)
REMARK    1  A    between atoms: O2_2  and  C3_3 
REMARK    2  A    between atoms: C8_8  and  O9_9 
REMARK    3  A    between atoms: C16_15  and  C18_16 
REMARK    4  A    between atoms: C18_16  and  C19_17 
ROOT
ATOM      1  C3  ZIN A   1       0.606  -0.608  -1.056  0.00  0.00     0.102 A 
ATOM      2  C4  ZIN A   1       1.172   0.156  -2.061  0.00  0.00     0.047 A 
ATOM      3  C5  ZIN A   1       1.788  -0.454  -3.143  0.00  0.00    -0.045 A 
ATOM      4  C6  ZIN A   1       1.837  -1.832  -3.221  0.00  0.00    -0.018 A 
ATOM      5  C7  ZIN A   1       1.273  -2.601  -2.215  0.00  0.00     0.049 A 
ATOM      6  C8  ZIN A   1       0.662  -1.996  -1.131  0.00  0.00     0.102 A 
ATOM      7  C11 ZIN A   1       2.486  -2.521  -4.388  0.00  0.00     0.228 C 
ATOM      8  C13 ZIN A   1       3.183  -3.804  -3.944  0.00  0.00     0.116 C 
ATOM      9  C14 ZIN A   1       4.420  -3.439  -3.149  0.00  0.00     0.135 C 
ATOM     10  O15 ZIN A   1       4.663  -3.964  -2.089  0.00  0.00    -0.297 OA
ATOM     11  C16 ZIN A   1       5.338  -2.388  -3.739  0.00  0.00     0.081 C 
ATOM     12  C22 ZIN A   1       4.480  -1.186  -4.145  0.00  0.00     0.247 C 
ATOM     13  N23 ZIN A   1       3.430  -1.623  -5.056  0.00  0.00    -0.061 N 
ATOM     14  H24 ZIN A   1       3.837  -2.073  -5.862  0.00  0.00     0.280 HD
ATOM     15  C25 ZIN A   1       2.666  -0.429  -5.474  0.00  0.00     0.240 C 
ATOM     16  C26 ZIN A   1       2.397   0.415  -4.214  0.00  0.00     0.067 C 
ENDROOT
BRANCH  11  17
ATOM     17  C18 ZIN A   1       6.371  -1.959  -2.695  0.00  0.00     0.017 C 
BRANCH  17  18
ATOM     18  C19 ZIN A   1       7.280  -3.143  -2.360  0.00  0.00    -0.022 C 
ATOM     19  C20 ZIN A   1       8.092  -3.529  -3.597  0.00  0.00     0.009 C 
ATOM     20  C21 ZIN A   1       8.231  -2.751  -1.227  0.00  0.00     0.009 C 
ENDBRANCH  17  18
ENDBRANCH  11  17
BRANCH   6  21
ATOM     21  O9  ZIN A   1       0.110  -2.756  -0.147  0.00  0.00    -0.353 OA
ATOM     22  C10 ZIN A   1       0.196  -4.174  -0.296  0.00  0.00     0.210 C 
ENDBRANCH   6  21
BRANCH   1  23
ATOM     23  O2  ZIN A   1       0.002  -0.004   0.002  0.00  0.00    -0.353 OA
ATOM     24  C1  ZIN A   1      -0.017   1.425   0.010  0.00  0.00     0.210 C 
ENDBRANCH   1  23
TORSDOF 4
