REMARK  1 active torsions:
REMARK  status: ('A' for Active; 'I' for Inactive)
REMARK    1  A    between atoms: O2_2  and  C3_3 
ROOT
ATOM      1  C3  ZIN A   1       0.606  -0.608  -1.056  0.00  0.00     0.102 A 
ATOM      2  C4  ZIN A   1       1.185   0.134  -2.084  0.00  0.00     0.040 A 
ATOM      3  C5  ZIN A   1       1.796  -0.441  -3.187  0.00  0.00     0.011 A 
ATOM      4  C6  ZIN A   1       1.869  -1.817  -3.303  0.00  0.00    -0.046 A 
ATOM      5  C7  ZIN A   1       2.402  -2.550  -4.492  0.00  0.00     0.072 C 
ATOM      6  C8  ZIN A   1       2.358  -4.061  -4.346  0.00  0.00     0.197 C 
ATOM      7  C10 ZIN A   1       1.192  -4.583  -3.502  0.00  0.00     0.033 C 
ATOM      8  C12 ZIN A   1      -0.136  -4.117  -4.096  0.00  0.00     0.015 C 
ATOM      9  C13 ZIN A   1      -1.278  -4.684  -3.251  0.00  0.00     0.081 C 
ATOM     10  C14 ZIN A   1      -1.120  -4.259  -1.822  0.00  0.00     0.157 C 
ATOM     11  O15 ZIN A   1      -2.107  -3.934  -1.206  0.00  0.00    -0.295 OA
ATOM     12  C16 ZIN A   1       0.206  -4.217  -1.121  0.00  0.00     0.212 C 
ATOM     13  O18 ZIN A   1       0.252  -2.976  -0.353  0.00  0.00    -0.334 OA
ATOM     14  C19 ZIN A   1       0.679  -2.002  -1.160  0.00  0.00     0.111 A 
ATOM     15  C20 ZIN A   1       1.340  -2.535  -2.255  0.00  0.00    -0.003 A 
ATOM     16  C21 ZIN A   1       1.365  -4.037  -2.094  0.00  0.00     0.031 C 
ATOM     17  C22 ZIN A   1       2.705  -4.471  -1.503  0.00  0.00     0.045 C 
ATOM     18  C23 ZIN A   1       3.826  -3.980  -2.427  0.00  0.00     0.236 C 
ATOM     19  N24 ZIN A   1       3.612  -4.555  -3.765  0.00  0.00    -0.070 N 
ATOM     20  H25 ZIN A   1       4.360  -4.261  -4.375  0.00  0.00     0.279 HD
ATOM     21  C26 ZIN A   1       3.614  -6.021  -3.668  0.00  0.00     0.270 C 
ENDROOT
BRANCH   1  22
ATOM     22  O2  ZIN A   1       0.002  -0.004   0.002  0.00  0.00    -0.353 OA
ATOM     23  C1  ZIN A   1      -0.017   1.425   0.010  0.00  0.00     0.210 C 
ENDBRANCH   1  22
TORSDOF 1
