REMARK  3 active torsions:
REMARK  status: ('A' for Active; 'I' for Inactive)
REMARK    1  A    between atoms: C10_10  and  C11_11 
REMARK    2  A    between atoms: C11_11  and  C12_12 
REMARK    3  A    between atoms: C13_13  and  O14_14 
ROOT
ATOM      1  C12 ZIN A   1       3.034   1.182   1.378  0.00  0.00     0.004 A 
ATOM      2  C13 ZIN A   1       3.742   2.222   1.961  0.00  0.00     0.095 A 
ATOM      3  C15 ZIN A   1       4.199   2.102   3.266  0.00  0.00     0.069 A 
ATOM      4 Cl16 ZIN A   1       5.086   3.402   3.999  0.00  0.00    -0.081 Cl
ATOM      5  C17 ZIN A   1       3.948   0.947   3.982  0.00  0.00     0.052 A 
ATOM      6  C18 ZIN A   1       3.241  -0.090   3.399  0.00  0.00     0.058 A 
ATOM      7 Cl19 ZIN A   1       2.926  -1.540   4.300  0.00  0.00    -0.082 Cl
ATOM      8  C20 ZIN A   1       2.780   0.030   2.099  0.00  0.00     0.065 A 
ATOM      9 Cl21 ZIN A   1       1.892  -1.272   1.370  0.00  0.00    -0.082 Cl
ENDROOT
BRANCH   1  10
ATOM     10  C11 ZIN A   1       2.535   1.310  -0.039  0.00  0.00     0.086 C 
BRANCH  10  11
ATOM     11  C10 ZIN A   1       1.236   2.073  -0.047  0.00  0.00     0.008 A 
ATOM     12  C2  ZIN A   1       0.043   1.415   0.216  0.00  0.00     0.137 A 
ATOM     13  O1  ZIN A   1       0.046   0.083   0.486  0.00  0.00    -0.190 OA
ATOM     14  C3  ZIN A   1      -1.153   2.120   0.208  0.00  0.00     0.072 A 
ATOM     15 Cl4  ZIN A   1      -2.646   1.300   0.543  0.00  0.00    -0.081 Cl
ATOM     16  C5  ZIN A   1      -1.154   3.475  -0.067  0.00  0.00     0.052 A 
ATOM     17  C6  ZIN A   1       0.036   4.128  -0.334  0.00  0.00     0.058 A 
ATOM     18 Cl7  ZIN A   1       0.031   5.830  -0.679  0.00  0.00    -0.082 Cl
ATOM     19  C8  ZIN A   1       1.230   3.427  -0.326  0.00  0.00     0.065 A 
ATOM     20 Cl9  ZIN A   1       2.721   4.250  -0.661  0.00  0.00    -0.082 Cl
ENDBRANCH  10  11
ENDBRANCH   1  10
BRANCH   2  21
ATOM     21  O14 ZIN A   1       3.988   3.358   1.255  0.00  0.00    -0.358 OA
ATOM     22  H25 ZIN A   1       3.354   4.069   1.422  0.00  0.00     0.217 HD
ENDBRANCH   2  21
TORSDOF 3
