REMARK  9 active torsions:
REMARK  status: ('A' for Active; 'I' for Inactive)
REMARK    1  A    between atoms: O2_2  and  C3_3 
REMARK    2  A    between atoms: C5_5  and  N6_6 
REMARK    3  A    between atoms: N6_6  and  C7_7 
REMARK    4  A    between atoms: C10_10  and  O11_11 
REMARK    5  A    between atoms: C13_13  and  O14_14 
REMARK    6  A    between atoms: O14_14  and  C15_15 
REMARK    7  A    between atoms: C15_15  and  C16_16 
REMARK    8  A    between atoms: C16_16  and  C17_17 
REMARK    9  A    between atoms: C17_17  and  N18_18 
ROOT
ATOM      1  C7  ZIN A   1       2.070   1.788   4.133  0.00  0.00     0.068 A 
ATOM      2  C8  ZIN A   1       2.811   2.613   5.009  0.00  0.00     0.024 A 
ATOM      3  C9  ZIN A   1       3.808   2.076   5.837  0.00  0.00     0.055 A 
ATOM      4  C10 ZIN A   1       4.510   2.895   6.673  0.00  0.00     0.102 A 
ATOM      5  C13 ZIN A   1       4.245   4.271   6.713  0.00  0.00     0.104 A 
ATOM      6  C26 ZIN A   1       3.272   4.823   5.910  0.00  0.00     0.072 A 
ATOM      7  C27 ZIN A   1       2.537   4.001   5.043  0.00  0.00     0.071 A 
ATOM      8  N28 ZIN A   1       1.586   4.521   4.253  0.00  0.00    -0.259 NA
ATOM      9  C29 ZIN A   1       0.883   3.781   3.433  0.00  0.00     0.142 A 
ATOM     10  C30 ZIN A   1       1.093   2.396   3.330  0.00  0.00     0.089 A 
ATOM     11  C31 ZIN A   1       0.309   1.612   2.424  0.00  0.00     0.103 C 
ATOM     12  N32 ZIN A   1      -0.313   0.990   1.705  0.00  0.00    -0.191 NA
ENDROOT
BRANCH   1  13
ATOM     13  N6  ZIN A   1       2.302   0.428   4.066  0.00  0.00    -0.353 N 
ATOM     14  H42 ZIN A   1       2.715  -0.031   4.813  0.00  0.00     0.166 HD
BRANCH  13  15
ATOM     15  C5  ZIN A   1       1.942  -0.287   2.919  0.00  0.00     0.057 A 
ATOM     16  C4  ZIN A   1       0.924  -1.229   2.979  0.00  0.00     0.069 A 
ATOM     17  C3  ZIN A   1       0.569  -1.936   1.841  0.00  0.00     0.092 A 
ATOM     18  C36 ZIN A   1       1.236  -1.705   0.645  0.00  0.00     0.069 A 
ATOM     19  C35 ZIN A   1       2.246  -0.763   0.585  0.00  0.00     0.052 A 
ATOM     20 Cl37 ZIN A   1       0.792  -2.592  -0.780  0.00  0.00    -0.081 Cl
ATOM     21  C33 ZIN A   1       2.603  -0.055   1.718  0.00  0.00     0.062 A 
ATOM     22 Cl34 ZIN A   1       3.876   1.122   1.641  0.00  0.00    -0.082 Cl
BRANCH  17  23
ATOM     23  O2  ZIN A   1      -0.427  -2.860   1.898  0.00  0.00    -0.354 OA
ATOM     24  C1  ZIN A   1      -1.146  -2.963   3.128  0.00  0.00     0.210 C 
ENDBRANCH  17  23
ENDBRANCH  13  15
ENDBRANCH   1  13
BRANCH   4  25
ATOM     25  O11 ZIN A   1       5.476   2.372   7.475  0.00  0.00    -0.353 OA
ATOM     26  C12 ZIN A   1       5.699   0.963   7.388  0.00  0.00     0.210 C 
ENDBRANCH   4  25
BRANCH   5  27
ATOM     27  O14 ZIN A   1       4.955   5.069   7.552  0.00  0.00    -0.348 OA
BRANCH  27  28
ATOM     28  C15 ZIN A   1       4.638   6.462   7.547  0.00  0.00     0.177 C 
BRANCH  28  29
ATOM     29  C16 ZIN A   1       5.535   7.193   8.548  0.00  0.00     0.057 C 
BRANCH  29  30
ATOM     30  C17 ZIN A   1       5.196   8.685   8.542  0.00  0.00     0.274 C 
BRANCH  30  31
ATOM     31  N18 ZIN A   1       6.057   9.387   9.504  0.00  0.00     0.091 N 
ATOM     32  C25 ZIN A   1       5.606  10.772   9.701  0.00  0.00     0.300 C 
ATOM     33  C24 ZIN A   1       6.561  11.484  10.661  0.00  0.00     0.264 C 
ATOM     34  N21 ZIN A   1       6.587  10.771  11.945  0.00  0.00    -0.072 N 
ATOM     35  C20 ZIN A   1       7.063   9.398  11.735  0.00  0.00     0.264 C 
ATOM     36  H22 ZIN A   1       5.657  10.749  12.336  0.00  0.00     0.279 HD
ATOM     37  C23 ZIN A   1       7.491  11.466  12.872  0.00  0.00     0.269 C 
ATOM     38  C19 ZIN A   1       6.112   8.668  10.784  0.00  0.00     0.300 C 
ENDBRANCH  30  31
ENDBRANCH  29  30
ENDBRANCH  28  29
ENDBRANCH  27  28
ENDBRANCH   5  27
TORSDOF 9
