REMARK  10 active torsions:
REMARK  status: ('A' for Active; 'I' for Inactive)
REMARK    1  A    between atoms: C2_2  and  N3_3 
REMARK    2  A    between atoms: N3_3  and  C5_5 
REMARK    3  A    between atoms: N3_3  and  C8_8 
REMARK    4  A    between atoms: C5_5  and  C6_6 
REMARK    5  A    between atoms: C6_6  and  O7_7 
REMARK    6  A    between atoms: C8_8  and  C9_9 
REMARK    7  A    between atoms: C9_9  and  C10_10 
REMARK    8  A    between atoms: C10_10  and  C11_11 
REMARK    9  A    between atoms: C11_11  and  N14_13 
REMARK   10  A    between atoms: N14_13  and  C15_14 
ROOT
ATOM      1  C11 ZIN A   1      -2.523   3.534  -2.485  0.00  0.00     0.077 C 
ATOM      2  C13 ZIN A   1      -3.059   4.024  -3.832  0.00  0.00     0.032 C 
ENDROOT
BRANCH   1   3
ATOM      3  C10 ZIN A   1      -2.592   2.006  -2.435  0.00  0.00     0.026 C 
BRANCH   3   4
ATOM      4  C9  ZIN A   1      -1.943   1.509  -1.141  0.00  0.00     0.030 C 
BRANCH   4   5
ATOM      5  C8  ZIN A   1      -2.011  -0.019  -1.091  0.00  0.00     0.235 C 
BRANCH   5   6
ATOM      6  N3  ZIN A   1      -1.274  -0.503   0.084  0.00  0.00    -0.069 N 
ATOM      7  H4  ZIN A   1      -0.336  -0.133   0.069  0.00  0.00     0.279 HD
BRANCH   6   8
ATOM      8  C2  ZIN A   1      -1.221  -1.971   0.057  0.00  0.00     0.230 C 
ATOM      9  C1  ZIN A   1      -0.390  -2.430  -1.142  0.00  0.00     0.034 C 
ENDBRANCH   6   8
BRANCH   6  10
ATOM     10  C5  ZIN A   1      -1.956  -0.060   1.307  0.00  0.00     0.260 C 
BRANCH  10  11
ATOM     11  C6  ZIN A   1      -1.123  -0.457   2.527  0.00  0.00     0.192 C 
BRANCH  11  12
ATOM     12  O7  ZIN A   1       0.117   0.252   2.509  0.00  0.00    -0.399 OA
ATOM     13  H35 ZIN A   1       0.698   0.049   3.255  0.00  0.00     0.209 HD
ENDBRANCH  11  12
ENDBRANCH  10  11
ENDBRANCH   6  10
ENDBRANCH   5   6
ENDBRANCH   4   5
ENDBRANCH   3   4
ENDBRANCH   1   3
BRANCH   1  14
ATOM     14  N14 ZIN A   1      -3.336   4.095  -1.403  0.00  0.00    -0.385 N 
ATOM     15  H45 ZIN A   1      -4.073   3.583  -1.035  0.00  0.00     0.160 HD
BRANCH  14  16
ATOM     16  C15 ZIN A   1      -3.052   5.358  -0.906  0.00  0.00     0.042 A 
ATOM     17  C25 ZIN A   1      -2.004   6.108  -1.417  0.00  0.00     0.049 A 
ATOM     18  C24 ZIN A   1      -1.747   7.370  -0.901  0.00  0.00     0.119 A 
ATOM     19  N23 ZIN A   1      -2.466   7.881   0.072  0.00  0.00    -0.260 NA
ATOM     20  C22 ZIN A   1      -3.489   7.211   0.616  0.00  0.00     0.070 A 
ATOM     21  C16 ZIN A   1      -3.818   5.919   0.142  0.00  0.00     0.019 A 
ATOM     22  C21 ZIN A   1      -4.248   7.772   1.657  0.00  0.00     0.056 A 
ATOM     23  C17 ZIN A   1      -4.891   5.221   0.716  0.00  0.00     0.018 A 
ATOM     24  C18 ZIN A   1      -5.605   5.794   1.724  0.00  0.00     0.025 A 
ATOM     25  C19 ZIN A   1      -5.284   7.067   2.193  0.00  0.00     0.036 A 
ATOM     26 Cl20 ZIN A   1      -6.217   7.766   3.479  0.00  0.00    -0.084 Cl
ENDBRANCH  14  16
ENDBRANCH   1  14
TORSDOF 10
