REMARK  11 active torsions:
REMARK  status: ('A' for Active; 'I' for Inactive)
REMARK    1  A    between atoms: N1_1  and  C2_2 
REMARK    2  A    between atoms: C10_10  and  C12_11 
REMARK    3  A    between atoms: C12_11  and  N13_12 
REMARK    4  A    between atoms: N13_12  and  C14_13 
REMARK    5  A    between atoms: C17_16  and  C18_17 
REMARK       I    between atoms: C18_17  and  N20_19 
REMARK    6  A    between atoms: N20_19  and  C21_20 
REMARK    7  A    between atoms: C21_20  and  C23_21 
REMARK    8  A    between atoms: C21_20  and  C28_26 
REMARK    9  A    between atoms: C23_21  and  C24_22 
REMARK   10  A    between atoms: C24_22  and  C25_23 
REMARK   11  A    between atoms: N33_31  and  C34_32 
ROOT
ATOM      1  N13 ZIN A   1       0.391  -5.374   2.502  0.00  0.00    -0.388 N 
ATOM      2  H44 ZIN A   1      -0.360  -5.708   1.987  0.00  0.00     0.159 HD
ENDROOT
BRANCH   1   3
ATOM      3  C12 ZIN A   1       1.547  -4.789   1.819  0.00  0.00     0.147 C 
BRANCH   3   4
ATOM      4  C10 ZIN A   1       1.317  -4.827   0.306  0.00  0.00     0.128 C 
ATOM      5  C9  ZIN A   1       2.467  -4.104  -0.412  0.00  0.00     0.148 C 
ATOM      6  N8  ZIN A   1       2.436  -2.688  -0.018  0.00  0.00    -0.372 N 
ATOM      7  C7  ZIN A   1       1.229  -2.021  -0.003  0.00  0.00     0.150 A 
ATOM      8  H39 ZIN A   1       3.254  -2.228   0.228  0.00  0.00     0.161 HD
ATOM      9  C6  ZIN A   1       0.054  -2.719  -0.003  0.00  0.00     0.153 A 
ATOM     10  N36 ZIN A   1       1.190  -0.651   0.009  0.00  0.00    -0.173 N 
ATOM     11  C4  ZIN A   1      -1.164  -2.009   0.019  0.00  0.00     0.314 A 
ATOM     12  N33 ZIN A   1       0.066  -4.128  -0.026  0.00  0.00    -0.309 N 
ATOM     13  N3  ZIN A   1      -1.144  -0.666   0.038  0.00  0.00    -0.021 NA
ATOM     14  O5  ZIN A   1      -2.229  -2.611   0.020  0.00  0.00    -0.263 OA
ATOM     15  C2  ZIN A   1      -0.007  -0.005   0.035  0.00  0.00     0.703 A 
ATOM     16  H55 ZIN A   1       2.016  -0.142   0.006  0.00  0.00     0.186 HD
BRANCH  15  17
ATOM     17  N1  ZIN A   1      -0.029   1.366   0.054  0.00  0.00    -0.233 N 
ATOM     18  H37 ZIN A   1       0.803   1.864   0.049  0.00  0.00     0.174 HD
ATOM     19  H38 ZIN A   1      -0.876   1.837   0.069  0.00  0.00     0.174 HD
ENDBRANCH  15  17
BRANCH  12  20
ATOM     20  C34 ZIN A   1      -1.046  -4.820  -0.346  0.00  0.00     0.356 C 
ATOM     21  O35 ZIN A   1      -1.001  -6.029  -0.441  0.00  0.00    -0.283 OA
ENDBRANCH  12  20
ENDBRANCH   3   4
ENDBRANCH   1   3
BRANCH   1  22
ATOM     22  C14 ZIN A   1       0.370  -5.450   3.891  0.00  0.00     0.028 A 
ATOM     23  C32 ZIN A   1      -0.730  -6.006   4.539  0.00  0.00     0.030 A 
ATOM     24  C31 ZIN A   1      -0.751  -6.088   5.913  0.00  0.00     0.019 A 
ATOM     25  C17 ZIN A   1       0.327  -5.602   6.657  0.00  0.00     0.032 A 
ATOM     26  C16 ZIN A   1       1.427  -5.039   6.003  0.00  0.00     0.019 A 
ATOM     27  C15 ZIN A   1       1.445  -4.965   4.629  0.00  0.00     0.030 A 
BRANCH  25  28
ATOM     28  C18 ZIN A   1       0.304  -5.682   8.130  0.00  0.00     0.252 C 
ATOM     29  O19 ZIN A   1       1.243  -5.258   8.777  0.00  0.00    -0.268 OA
ATOM     30  N20 ZIN A   1      -0.757  -6.225   8.759  0.00  0.00    -0.342 N 
ATOM     31  H47 ZIN A   1      -1.505  -6.563   8.243  0.00  0.00     0.163 HD
BRANCH  30  32
ATOM     32  C21 ZIN A   1      -0.779  -6.304  10.222  0.00  0.00     0.186 C 
BRANCH  32  33
ATOM     33  C23 ZIN A   1      -2.229  -6.351  10.708  0.00  0.00     0.046 C 
BRANCH  33  34
ATOM     34  C24 ZIN A   1      -2.925  -5.033  10.363  0.00  0.00     0.116 C 
BRANCH  34  35
ATOM     35  C25 ZIN A   1      -4.353  -5.079  10.842  0.00  0.00     0.172 C 
ATOM     36  O26 ZIN A   1      -4.776  -6.074  11.406  0.00  0.00    -0.648 OA
ATOM     37  O27 ZIN A   1      -5.087  -4.121  10.665  0.00  0.00    -0.648 OA
ENDBRANCH  34  35
ENDBRANCH  33  34
ENDBRANCH  32  33
BRANCH  32  38
ATOM     38  C28 ZIN A   1      -0.060  -7.551  10.668  0.00  0.00     0.196 C 
ATOM     39  O29 ZIN A   1       0.427  -8.303   9.841  0.00  0.00    -0.646 OA
ATOM     40  O30 ZIN A   1       0.036  -7.808  11.856  0.00  0.00    -0.646 OA
ENDBRANCH  32  38
ENDBRANCH  30  32
ENDBRANCH  25  28
ENDBRANCH   1  22
TORSDOF 11
