REMARK  11 active torsions:
REMARK  status: ('A' for Active; 'I' for Inactive)
REMARK    1  A    between atoms: C2_2  and  N3_3 
REMARK    2  A    between atoms: N3_3  and  C5_5 
REMARK    3  A    between atoms: N3_3  and  C7_7 
REMARK    4  A    between atoms: C7_7  and  C8_8 
REMARK    5  A    between atoms: C9_9  and  C10_10 
REMARK    6  A    between atoms: C10_10  and  O11_11 
REMARK    7  A    between atoms: O11_11  and  C12_12 
REMARK    8  A    between atoms: C12_12  and  C14_14 
REMARK    9  A    between atoms: C14_14  and  O15_15 
REMARK   10  A    between atoms: C14_14  and  C16_16 
REMARK   11  A    between atoms: C14_14  and  C22_22 
ROOT
ATOM      1  C14 ZIN A   1      -6.851  -7.339  -1.419  0.00  0.00     0.176 C 
ENDROOT
BRANCH   1   2
ATOM      2  C12 ZIN A   1      -6.562  -5.908  -1.048  0.00  0.00     0.299 C 
ATOM      3  O13 ZIN A   1      -7.472  -5.126  -0.903  0.00  0.00    -0.261 OA
BRANCH   2   4
ATOM      4  O11 ZIN A   1      -5.294  -5.501  -0.878  0.00  0.00    -0.307 OA
BRANCH   4   5
ATOM      5  C10 ZIN A   1      -5.091  -4.108  -0.521  0.00  0.00     0.272 C 
BRANCH   5   6
ATOM      6  C9  ZIN A   1      -3.650  -3.843  -0.377  0.00  0.00    -0.078 C 
ATOM      7  C8  ZIN A   1      -2.501  -3.632  -0.263  0.00  0.00    -0.077 C 
BRANCH   7   8
ATOM      8  C7  ZIN A   1      -1.060  -3.368  -0.119  0.00  0.00     0.328 C 
BRANCH   8   9
ATOM      9  N3  ZIN A   1      -0.855  -1.959   0.242  0.00  0.00    -0.062 N 
ATOM     10  H4  ZIN A   1      -1.388  -1.743   1.071  0.00  0.00     0.280 HD
BRANCH   9  11
ATOM     11  C2  ZIN A   1       0.572  -1.723   0.502  0.00  0.00     0.231 C 
ATOM     12  C1  ZIN A   1       0.769  -0.289   0.999  0.00  0.00     0.034 C 
ENDBRANCH   9  11
BRANCH   9  13
ATOM     13  C5  ZIN A   1      -1.299  -1.100  -0.864  0.00  0.00     0.231 C 
ATOM     14  C6  ZIN A   1      -0.469  -1.406  -2.112  0.00  0.00     0.034 C 
ENDBRANCH   9  13
ENDBRANCH   8   9
ENDBRANCH   7   8
ENDBRANCH   5   6
ENDBRANCH   4   5
ENDBRANCH   2   4
ENDBRANCH   1   2
BRANCH   1  15
ATOM     15  O15 ZIN A   1      -5.901  -8.197  -0.783  0.00  0.00    -0.374 OA
ATOM     16  H42 ZIN A   1      -5.909  -8.145   0.182  0.00  0.00     0.211 HD
ENDBRANCH   1  15
BRANCH   1  17
ATOM     17  C16 ZIN A   1      -8.240  -7.706  -0.966  0.00  0.00    -0.014 A 
ATOM     18  C21 ZIN A   1      -8.416  -8.628   0.049  0.00  0.00     0.011 A 
ATOM     19  C20 ZIN A   1      -9.691  -8.960   0.468  0.00  0.00     0.001 A 
ATOM     20  C19 ZIN A   1     -10.790  -8.378  -0.135  0.00  0.00     0.000 A 
ATOM     21  C18 ZIN A   1     -10.615  -7.460  -1.153  0.00  0.00     0.001 A 
ATOM     22  C17 ZIN A   1      -9.340  -7.124  -1.569  0.00  0.00     0.011 A 
ENDBRANCH   1  17
BRANCH   1  23
ATOM     23  C22 ZIN A   1      -6.749  -7.503  -2.937  0.00  0.00     0.035 C 
ATOM     24  C27 ZIN A   1      -7.094  -8.944  -3.319  0.00  0.00     0.008 C 
ATOM     25  C26 ZIN A   1      -6.992  -9.108  -4.837  0.00  0.00     0.001 C 
ATOM     26  C25 ZIN A   1      -5.567  -8.787  -5.290  0.00  0.00     0.000 C 
ATOM     27  C24 ZIN A   1      -5.223  -7.345  -4.909  0.00  0.00     0.001 C 
ATOM     28  C23 ZIN A   1      -5.324  -7.182  -3.391  0.00  0.00     0.008 C 
ENDBRANCH   1  23
TORSDOF 11
