REMARK  8 active torsions:
REMARK  status: ('A' for Active; 'I' for Inactive)
REMARK    1  A    between atoms: N2_2  and  C4_4 
REMARK    2  A    between atoms: C4_4  and  C5_5 
REMARK    3  A    between atoms: C6_6  and  C7_7 
REMARK       I    between atoms: C7_7  and  N9_9 
REMARK    4  A    between atoms: N9_9  and  C10_10 
REMARK    5  A    between atoms: C11_11  and  O12_12 
REMARK    6  A    between atoms: O12_12  and  C13_13 
REMARK    7  A    between atoms: C24_23  and  N25_24 
REMARK    8  A    between atoms: N25_24  and  C26_25 
ROOT
ATOM      1  C10 ZIN A   1      -2.732  -6.475   0.822  0.00  0.00     0.069 A 
ATOM      2  C11 ZIN A   1      -3.550  -7.013   1.829  0.00  0.00     0.098 A 
ATOM      3  C19 ZIN A   1      -4.049  -8.291   1.719  0.00  0.00     0.071 A 
ATOM      4  C20 ZIN A   1      -3.739  -9.063   0.593  0.00  0.00     0.075 A 
ATOM      5  N21 ZIN A   1      -4.204 -10.314   0.444  0.00  0.00    -0.241 NA
ATOM      6  C22 ZIN A   1      -3.898 -11.015  -0.622  0.00  0.00     0.236 A 
ATOM      7  N23 ZIN A   1      -3.131 -10.548  -1.595  0.00  0.00    -0.224 NA
ATOM      8  C24 ZIN A   1      -2.619  -9.325  -1.548  0.00  0.00     0.142 A 
ATOM      9  C34 ZIN A   1      -2.913  -8.519  -0.422  0.00  0.00     0.041 A 
ATOM     10  C35 ZIN A   1      -2.419  -7.216  -0.296  0.00  0.00     0.050 A 
ENDROOT
BRANCH   1  11
ATOM     11  N9  ZIN A   1      -2.236  -5.173   0.954  0.00  0.00    -0.321 N 
ATOM     12  C7  ZIN A   1      -2.045  -4.410  -0.141  0.00  0.00     0.245 C 
ATOM     13  O8  ZIN A   1      -2.224  -4.881  -1.248  0.00  0.00    -0.268 OA
ATOM     14  H46 ZIN A   1      -2.030  -4.819   1.833  0.00  0.00     0.169 HD
BRANCH  12  15
ATOM     15  C6  ZIN A   1      -1.621  -3.010   0.003  0.00  0.00     0.072 C 
ATOM     16  C5  ZIN A   1      -1.432  -2.258  -1.078  0.00  0.00     0.008 C 
BRANCH  16  17
ATOM     17  C4  ZIN A   1      -0.997  -0.822  -0.931  0.00  0.00     0.299 C 
BRANCH  17  18
ATOM     18  N2  ZIN A   1       0.229  -0.600  -1.710  0.00  0.00     0.083 N 
ATOM     19  C1  ZIN A   1       0.551   0.832  -1.785  0.00  0.00     0.309 C 
ATOM     20  C3  ZIN A   1       1.353  -1.364  -1.153  0.00  0.00     0.309 C 
ENDBRANCH  17  18
ENDBRANCH  16  17
ENDBRANCH  12  15
ENDBRANCH   1  11
BRANCH   2  21
ATOM     21  O12 ZIN A   1      -3.851  -6.265   2.921  0.00  0.00    -0.341 OA
BRANCH  21  22
ATOM     22  C13 ZIN A   1      -4.593  -6.905   3.962  0.00  0.00     0.154 C 
ATOM     23  C18 ZIN A   1      -6.110  -6.803   3.697  0.00  0.00     0.200 C 
ATOM     24  O17 ZIN A   1      -6.748  -6.532   4.955  0.00  0.00    -0.389 OA
ATOM     25  C16 ZIN A   1      -5.769  -6.499   6.005  0.00  0.00     0.170 C 
ATOM     26  C15 ZIN A   1      -4.435  -6.141   5.304  0.00  0.00     0.061 C 
ENDBRANCH  21  22
ENDBRANCH   2  21
BRANCH   8  27
ATOM     27  N25 ZIN A   1      -1.821  -8.851  -2.569  0.00  0.00    -0.340 N 
ATOM     28  H55 ZIN A   1      -1.388  -7.988  -2.486  0.00  0.00     0.167 HD
BRANCH  27  29
ATOM     29  C26 ZIN A   1      -1.637  -9.617  -3.725  0.00  0.00     0.035 A 
ATOM     30  C33 ZIN A   1      -0.449  -9.525  -4.439  0.00  0.00     0.056 A 
ATOM     31  C31 ZIN A   1      -0.268 -10.285  -5.578  0.00  0.00     0.074 A 
ATOM     32  C29 ZIN A   1      -1.274 -11.132  -6.014  0.00  0.00     0.138 A 
ATOM     33 Cl32 ZIN A   1       1.219 -10.175  -6.468  0.00  0.00    -0.081 Cl
ATOM     34  C28 ZIN A   1      -2.461 -11.221  -5.307  0.00  0.00     0.046 A 
ATOM     35  F30 ZIN A   1      -1.097 -11.872  -7.131  0.00  0.00    -0.204 F 
ATOM     36  C27 ZIN A   1      -2.644 -10.466  -4.165  0.00  0.00     0.032 A 
ENDBRANCH  27  29
ENDBRANCH   8  27
TORSDOF 8
