REMARK  1 active torsions:
REMARK  status: ('A' for Active; 'I' for Inactive)
REMARK    1  A    between atoms: O2_2  and  C3_3 
ROOT
ATOM      1  C3  ZIN A   1       0.626  -0.618   1.042  0.00  0.00     0.068 A 
ATOM      2  C4  ZIN A   1       1.203   0.135   2.053  0.00  0.00     0.037 A 
ATOM      3  C5  ZIN A   1       1.826  -0.496   3.108  0.00  0.00     0.010 A 
ATOM      4  C6  ZIN A   1       1.881  -1.883   3.171  0.00  0.00    -0.049 A 
ATOM      5  C7  ZIN A   1       2.537  -2.504   4.375  0.00  0.00     0.072 C 
ATOM      6  C8  ZIN A   1       2.751  -3.997   4.212  0.00  0.00     0.197 C 
ATOM      7  C10 ZIN A   1       1.506  -4.642   3.602  0.00  0.00     0.030 C 
ATOM      8  C12 ZIN A   1       0.270  -4.246   4.412  0.00  0.00     0.008 C 
ATOM      9  C13 ZIN A   1      -0.979  -4.846   3.761  0.00  0.00     0.001 C 
ATOM     10  C14 ZIN A   1      -1.121  -4.309   2.336  0.00  0.00     0.001 C 
ATOM     11  C15 ZIN A   1       0.114  -4.699   1.519  0.00  0.00     0.015 C 
ATOM     12  C16 ZIN A   1       1.376  -4.137   2.163  0.00  0.00    -0.005 C 
ATOM     13  C17 ZIN A   1       2.616  -4.559   1.362  0.00  0.00     0.042 C 
ATOM     14  C18 ZIN A   1       3.836  -3.896   2.013  0.00  0.00     0.236 C 
ATOM     15  N19 ZIN A   1       3.935  -4.314   3.426  0.00  0.00    -0.070 N 
ATOM     16  H20 ZIN A   1       4.737  -3.866   3.845  0.00  0.00     0.279 HD
ATOM     17  C21 ZIN A   1       4.119  -5.770   3.482  0.00  0.00     0.270 C 
ATOM     18  C22 ZIN A   1       1.321  -2.631   2.158  0.00  0.00    -0.040 A 
ATOM     19  C23 ZIN A   1       0.684  -2.001   1.101  0.00  0.00     0.045 A 
ENDROOT
BRANCH   1  20
ATOM     20  O2  ZIN A   1       0.002  -0.004   0.002  0.00  0.00    -0.356 OA
ATOM     21  C1  ZIN A   1      -0.017   1.425   0.010  0.00  0.00     0.210 C 
ENDBRANCH   1  20
TORSDOF 1
