REMARK  9 active torsions:
REMARK  status: ('A' for Active; 'I' for Inactive)
REMARK    1  A    between atoms: N1_1  and  C5_5 
REMARK    2  A    between atoms: C5_5  and  C6_6 
REMARK    3  A    between atoms: C6_6  and  N7_7 
REMARK    4  A    between atoms: N7_7  and  C8_8 
REMARK    5  A    between atoms: C8_8  and  C9_9 
REMARK    6  A    between atoms: C9_9  and  N10_10 
REMARK    7  A    between atoms: N10_10  and  C11_11 
REMARK    8  A    between atoms: C11_11  and  C12_12 
REMARK    9  A    between atoms: C12_12  and  N13_13 
ROOT
ATOM      1  C8  <0> d   1       0.037   0.977   4.877  0.00  0.00     0.299 C 
ENDROOT
BRANCH   1   2
ATOM      2  N7  <0> d   1      -0.647   1.446   3.664  0.00  0.00     0.086 N 
ATOM      3  H21 <0> d   1      -0.731   2.451   3.662  0.00  0.00     0.315 HD
BRANCH   2   4
ATOM      4  C6  <0> d   1       0.041   0.972   2.456  0.00  0.00     0.296 C 
BRANCH   4   5
ATOM      5  C5  <0> d   1      -0.699   1.479   1.216  0.00  0.00     0.259 C 
BRANCH   5   6
ATOM      6  N1  <0> d   1      -0.012   1.005   0.008  0.00  0.00    -0.078 N 
ATOM      7  H2  <0> d   1       0.002  -0.004   0.002  0.00  0.00     0.274 HD
ATOM      8  H3  <0> d   1       0.935   1.354   0.000  0.00  0.00     0.274 HD
ATOM      9  H4  <0> d   1      -0.500   1.339  -0.810  0.00  0.00     0.274 HD
ENDBRANCH   5   6
ENDBRANCH   4   5
ENDBRANCH   2   4
ENDBRANCH   1   2
BRANCH   1  10
ATOM     10  C9  <0> d   1      -0.706   1.489   6.112  0.00  0.00     0.299 C 
BRANCH  10  11
ATOM     11  N10 <0> d   1      -0.022   1.021   7.325  0.00  0.00     0.086 N 
ATOM     12  H26 <0> d   1       0.062   0.015   7.327  0.00  0.00     0.315 HD
BRANCH  11  13
ATOM     13  C11 <0> d   1      -0.710   1.495   8.533  0.00  0.00     0.296 C 
BRANCH  13  14
ATOM     14  C12 <0> d   1       0.030   0.988   9.773  0.00  0.00     0.259 C 
BRANCH  14  15
ATOM     15  N13 <0> d   1      -0.657   1.462  10.982  0.00  0.00    -0.078 N 
ATOM     16  H14 <0> d   1      -0.671   2.470  10.987  0.00  0.00     0.274 HD
ATOM     17  H15 <0> d   1      -1.604   1.112  10.989  0.00  0.00     0.274 HD
ATOM     18  H16 <0> d   1      -0.169   1.127  11.799  0.00  0.00     0.274 HD
ENDBRANCH  14  15
ENDBRANCH  13  14
ENDBRANCH  11  13
ENDBRANCH  10  11
ENDBRANCH   1  10
TORSDOF 9
