REMARK  7 active torsions:
REMARK  status: ('A' for Active; 'I' for Inactive)
REMARK    1  A    between atoms: C2_2  and  C3_3 
REMARK    2  A    between atoms: C3_3  and  N4_4 
REMARK    3  A    between atoms: N4_4  and  C7_7 
REMARK    4  A    between atoms: C7_7  and  C10_9 
REMARK       I    between atoms: C10_9  and  N12_11 
REMARK    5  A    between atoms: N12_11  and  C13_12 
REMARK    6  A    between atoms: C14_13  and  C15_14 
REMARK    7  A    between atoms: C15_14  and  O17_16 
ROOT
ATOM      1  C10 ZIN A   1      -3.088  -3.891  -0.574  0.00  0.00     0.252 C 
ATOM      2  O11 ZIN A   1      -2.199  -4.335  -1.270  0.00  0.00    -0.271 OA
ATOM      3  N12 ZIN A   1      -3.974  -4.727   0.003  0.00  0.00    -0.324 N 
ATOM      4  H33 ZIN A   1      -4.634  -4.381   0.624  0.00  0.00     0.169 HD
ENDROOT
BRANCH   3   5
ATOM      5  C13 ZIN A   1      -3.943  -6.090  -0.294  0.00  0.00     0.064 A 
ATOM      6  C21 ZIN A   1      -2.811  -6.872  -0.168  0.00  0.00    -0.027 A 
ATOM      7  C20 ZIN A   1      -2.972  -8.157  -0.494  0.00  0.00     0.059 A 
ATOM      8  C22 ZIN A   1      -1.495  -6.318   0.314  0.00  0.00     0.051 C 
ATOM      9  S19 ZIN A   1      -4.570  -8.471  -1.000  0.00  0.00    -0.093 SA
ATOM     10  C14 ZIN A   1      -5.033  -6.793  -0.750  0.00  0.00     0.107 A 
BRANCH  10  11
ATOM     11  C15 ZIN A   1      -6.321  -6.254  -0.980  0.00  0.00     0.302 C 
ATOM     12  O16 ZIN A   1      -6.505  -5.055  -0.880  0.00  0.00    -0.259 OA
BRANCH  11  13
ATOM     13  O17 ZIN A   1      -7.345  -7.068  -1.311  0.00  0.00    -0.322 OA
ATOM     14  C18 ZIN A   1      -8.617  -6.456  -1.529  0.00  0.00     0.213 C 
ENDBRANCH  11  13
ENDBRANCH  10  11
ENDBRANCH   3   5
BRANCH   1  15
ATOM     15  C7  ZIN A   1      -3.201  -2.405  -0.354  0.00  0.00     0.273 C 
ATOM     16  C9  ZIN A   1      -3.079  -2.100   1.141  0.00  0.00     0.050 C 
BRANCH  15  17
ATOM     17  N4  ZIN A   1      -2.126  -1.718  -1.083  0.00  0.00    -0.063 N 
ATOM     18  H5  ZIN A   1      -2.157  -1.985  -2.056  0.00  0.00     0.278 HD
ATOM     19  H6  ZIN A   1      -1.234  -1.979  -0.691  0.00  0.00     0.278 HD
BRANCH  17  20
ATOM     20  C3  ZIN A   1      -2.306  -0.265  -0.967  0.00  0.00     0.233 C 
BRANCH  20  21
ATOM     21  C2  ZIN A   1      -1.187   0.450  -1.726  0.00  0.00     0.023 C 
ATOM     22  C1  ZIN A   1      -1.374   1.963  -1.606  0.00  0.00     0.007 C 
ENDBRANCH  20  21
ENDBRANCH  17  20
ENDBRANCH  15  17
ENDBRANCH   1  15
TORSDOF 7
