REMARK  7 active torsions:
REMARK  status: ('A' for Active; 'I' for Inactive)
REMARK    1  A    between atoms: O2_2  and  C3_3 
REMARK    2  A    between atoms: C6_6  and  C7_7 
REMARK    3  A    between atoms: N16_15  and  C17_16 
REMARK    4  A    between atoms: C17_16  and  C18_17 
REMARK    5  A    between atoms: C18_17  and  N19_18 
REMARK    6  A    between atoms: C25_24  and  O27_25 
REMARK    7  A    between atoms: O27_25  and  C28_26 
ROOT
ATOM      1  C7  ZIN A   1       2.505  -2.503  -4.381  0.00  0.00     0.124 C 
ATOM      2  S9  ZIN A   1       1.355  -3.687  -5.158  0.00  0.00    -0.115 SA
ATOM      3  C10 ZIN A   1       2.445  -4.728  -6.074  0.00  0.00     0.028 A 
ATOM      4  C11 ZIN A   1       2.505  -4.643  -7.456  0.00  0.00     0.021 A 
ATOM      5  C12 ZIN A   1       3.363  -5.471  -8.157  0.00  0.00     0.002 A 
ATOM      6  C13 ZIN A   1       4.157  -6.382  -7.484  0.00  0.00     0.002 A 
ATOM      7  C14 ZIN A   1       4.101  -6.471  -6.104  0.00  0.00     0.031 A 
ATOM      8  C15 ZIN A   1       3.247  -5.643  -5.395  0.00  0.00     0.054 A 
ATOM      9  N16 ZIN A   1       3.188  -5.708  -3.994  0.00  0.00    -0.313 N 
ATOM     10  C23 ZIN A   1       3.305  -4.590  -3.268  0.00  0.00     0.255 C 
ATOM     11  O24 ZIN A   1       3.062  -4.622  -2.080  0.00  0.00    -0.270 OA
ATOM     12  C25 ZIN A   1       3.731  -3.296  -3.901  0.00  0.00     0.242 C 
ENDROOT
BRANCH   1  13
ATOM     13  C6  ZIN A   1       1.835  -1.835  -3.209  0.00  0.00    -0.041 A 
ATOM     14  C5  ZIN A   1       1.911  -0.462  -3.061  0.00  0.00     0.011 A 
ATOM     15  C4  ZIN A   1       1.298   0.153  -1.987  0.00  0.00     0.037 A 
ATOM     16  C3  ZIN A   1       0.606  -0.607  -1.056  0.00  0.00     0.068 A 
ATOM     17  C32 ZIN A   1       0.536  -1.985  -1.203  0.00  0.00     0.037 A 
ATOM     18  C31 ZIN A   1       1.147  -2.595  -2.281  0.00  0.00     0.011 A 
BRANCH  16  19
ATOM     19  O2  ZIN A   1       0.002  -0.004   0.002  0.00  0.00    -0.356 OA
ATOM     20  C1  ZIN A   1       0.115   1.418   0.089  0.00  0.00     0.210 C 
ENDBRANCH  16  19
ENDBRANCH   1  13
BRANCH  12  21
ATOM     21  O27 ZIN A   1       4.462  -2.505  -2.927  0.00  0.00    -0.305 OA
BRANCH  21  22
ATOM     22  C28 ZIN A   1       5.792  -2.682  -2.872  0.00  0.00     0.255 C 
ATOM     23  C29 ZIN A   1       6.617  -1.896  -1.886  0.00  0.00     0.126 C 
ATOM     24  O30 ZIN A   1       6.327  -3.473  -3.613  0.00  0.00    -0.266 OA
ENDBRANCH  21  22
ENDBRANCH  12  21
BRANCH   9  25
ATOM     25  C17 ZIN A   1       2.999  -6.999  -3.328  0.00  0.00     0.160 C 
BRANCH  25  26
ATOM     26  C18 ZIN A   1       4.363  -7.631  -3.044  0.00  0.00     0.254 C 
BRANCH  26  27
ATOM     27  N19 ZIN A   1       4.173  -8.926  -2.376  0.00  0.00    -0.077 N 
ATOM     28  H20 ZIN A   1       3.610  -8.798  -1.549  0.00  0.00     0.279 HD
ATOM     29  C21 ZIN A   1       3.497  -9.855  -3.291  0.00  0.00     0.269 C 
ATOM     30  C22 ZIN A   1       5.481  -9.477  -1.996  0.00  0.00     0.269 C 
ENDBRANCH  26  27
ENDBRANCH  25  26
ENDBRANCH   9  25
TORSDOF 7
