REMARK  4 active torsions:
REMARK  status: ('A' for Active; 'I' for Inactive)
REMARK    1  A    between atoms: S2_2  and  C3_3 
REMARK    2  A    between atoms: N14_14  and  C15_15 
REMARK    3  A    between atoms: C15_15  and  C16_16 
REMARK    4  A    between atoms: C16_16  and  C17_17 
ROOT
ATOM      1  C3  <0> d   1       2.591  -5.601  -6.189  0.00  0.00     0.002 A 
ATOM      2  C4  <0> d   1       2.089  -4.867  -7.255  0.00  0.00     0.020 A 
ATOM      3  C5  <0> d   1       1.536  -3.620  -7.032  0.00  0.00     0.022 A 
ATOM      4  C6  <0> d   1       1.480  -3.097  -5.747  0.00  0.00     0.032 A 
ATOM      5  S7  <0> d   1       0.780  -1.501  -5.497  0.00  0.00    -0.086 SA
ATOM      6  C8  <0> d   1       1.371  -1.040  -3.905  0.00  0.00     0.032 A 
ATOM      7  C9  <0> d   1       1.327   0.295  -3.523  0.00  0.00     0.021 A 
ATOM      8  C10 <0> d   1       1.788   0.677  -2.277  0.00  0.00     0.002 A 
ATOM      9  C11 <0> d   1       2.294  -0.270  -1.408  0.00  0.00     0.002 A 
ATOM     10  C12 <0> d   1       2.341  -1.600  -1.780  0.00  0.00     0.031 A 
ATOM     11  C13 <0> d   1       1.878  -1.996  -3.030  0.00  0.00     0.052 A 
ATOM     12  N14 <0> d   1       1.933  -3.346  -3.369  0.00  0.00    -0.345 N 
ATOM     13  C26 <0> d   1       1.978  -3.831  -4.674  0.00  0.00     0.053 A 
ATOM     14  C27 <0> d   1       2.530  -5.086  -4.901  0.00  0.00     0.049 A 
ENDROOT
BRANCH  12  15
ATOM     15  C15 <0> d   1       1.946  -4.323  -2.277  0.00  0.00     0.131 C 
BRANCH  15  16
ATOM     16  C16 <0> d   1       3.389  -4.579  -1.839  0.00  0.00     0.053 C 
BRANCH  16  17
ATOM     17  C17 <0> d   1       3.403  -5.600  -0.699  0.00  0.00     0.189 C 
ATOM     18  N23 <0> d   1       2.910  -6.891  -1.193  0.00  0.00    -0.071 N 
ATOM     19  C22 <0> d   1       2.847  -7.856  -0.089  0.00  0.00     0.235 C 
ATOM     20  H24 <0> d   1       1.989  -6.770  -1.586  0.00  0.00     0.279 HD
ATOM     21  C25 <0> d   1       3.821  -7.395  -2.230  0.00  0.00     0.270 C 
ATOM     22  C21 <0> d   1       4.255  -8.104   0.457  0.00  0.00     0.028 C 
ATOM     23  C20 <0> d   1       4.840  -6.783   0.964  0.00  0.00     0.004 C 
ATOM     24  C19 <0> d   1       4.832  -5.761  -0.177  0.00  0.00     0.033 C 
ENDBRANCH  16  17
ENDBRANCH  15  16
ENDBRANCH  12  15
BRANCH   1  25
ATOM     25  S2  <0> d   1       3.300  -7.190  -6.470  0.00  0.00    -0.134 SA
ATOM     26  C1  <0> d   1       3.143  -7.395  -8.265  0.00  0.00     0.095 C 
ENDBRANCH   1  25
TORSDOF 4
