REMARK  8 active torsions:
REMARK  status: ('A' for Active; 'I' for Inactive)
REMARK    1  A    between atoms: O1_1  and  C2_2 
REMARK    2  A    between atoms: C2_2  and  C3_3 
REMARK    3  A    between atoms: C3_3  and  N4_4 
REMARK    4  A    between atoms: N8_8  and  C9_9 
REMARK    5  A    between atoms: C9_9  and  C10_10 
REMARK    6  A    between atoms: C10_10  and  C11_11 
REMARK    7  A    between atoms: C11_11  and  N12_12 
REMARK    8  A    between atoms: C23_23  and  C24_24 
ROOT
ATOM      1  N12 ZIN A   1      -3.882  -1.795  -8.385  0.00  0.00    -0.345 N 
ATOM      2  C13 ZIN A   1      -4.436  -3.061  -8.559  0.00  0.00     0.052 A 
ATOM      3  C14 ZIN A   1      -5.048  -3.678  -7.474  0.00  0.00     0.031 A 
ATOM      4  C15 ZIN A   1      -5.613  -4.932  -7.611  0.00  0.00     0.002 A 
ATOM      5  C16 ZIN A   1      -5.572  -5.583  -8.829  0.00  0.00     0.002 A 
ATOM      6  C17 ZIN A   1      -4.964  -4.979  -9.914  0.00  0.00     0.021 A 
ATOM      7  C18 ZIN A   1      -4.394  -3.720  -9.785  0.00  0.00     0.032 A 
ATOM      8  S19 ZIN A   1      -3.620  -2.976 -11.180  0.00  0.00    -0.086 SA
ATOM      9  C20 ZIN A   1      -2.627  -1.708 -10.469  0.00  0.00     0.032 A 
ATOM     10  C21 ZIN A   1      -1.602  -1.146 -11.218  0.00  0.00     0.022 A 
ATOM     11  C22 ZIN A   1      -0.809  -0.151 -10.677  0.00  0.00     0.017 A 
ATOM     12  C23 ZIN A   1      -1.036   0.288  -9.387  0.00  0.00     0.050 A 
ATOM     13  C28 ZIN A   1      -2.056  -0.266  -8.635  0.00  0.00     0.047 A 
ATOM     14  C29 ZIN A   1      -2.863  -1.265  -9.173  0.00  0.00     0.053 A 
ENDROOT
BRANCH   1  15
ATOM     15  C11 ZIN A   1      -4.412  -0.961  -7.303  0.00  0.00     0.131 C 
BRANCH  15  16
ATOM     16  C10 ZIN A   1      -3.617  -1.223  -6.022  0.00  0.00     0.050 C 
BRANCH  16  17
ATOM     17  C9  ZIN A   1      -4.170  -0.352  -4.893  0.00  0.00     0.274 C 
BRANCH  17  18
ATOM     18  N8  ZIN A   1      -3.408  -0.603  -3.662  0.00  0.00     0.091 N 
ATOM     19  C7  ZIN A   1      -4.053   0.031  -2.504  0.00  0.00     0.300 C 
ATOM     20  C6  ZIN A   1      -3.262  -0.303  -1.237  0.00  0.00     0.265 C 
ATOM     21  N4  ZIN A   1      -1.883   0.182  -1.378  0.00  0.00    -0.066 N 
ATOM     22  H5  ZIN A   1      -1.892   1.180  -1.527  0.00  0.00     0.280 HD
ATOM     23  C31 ZIN A   1      -1.244  -0.478  -2.524  0.00  0.00     0.265 C 
ATOM     24  C30 ZIN A   1      -2.018  -0.145  -3.801  0.00  0.00     0.300 C 
BRANCH  21  25
ATOM     25  C3  ZIN A   1      -1.129  -0.123  -0.155  0.00  0.00     0.260 C 
BRANCH  25  26
ATOM     26  C2  ZIN A   1       0.269   0.493  -0.250  0.00  0.00     0.192 C 
BRANCH  26  27
ATOM     27  O1  ZIN A   1       0.161   1.917  -0.282  0.00  0.00    -0.399 OA
ATOM     28  H32 ZIN A   1       1.011   2.375  -0.343  0.00  0.00     0.209 HD
ENDBRANCH  26  27
ENDBRANCH  25  26
ENDBRANCH  21  25
ENDBRANCH  17  18
ENDBRANCH  16  17
ENDBRANCH  15  16
ENDBRANCH   1  15
BRANCH  12  29
ATOM     29  C24 ZIN A   1      -0.172   1.373  -8.798  0.00  0.00     0.417 C 
ATOM     30  F25 ZIN A   1       0.782   1.772  -9.741  0.00  0.00    -0.166 F 
ATOM     31  F26 ZIN A   1      -0.970   2.468  -8.450  0.00  0.00    -0.166 F 
ATOM     32  F27 ZIN A   1       0.475   0.885  -7.657  0.00  0.00    -0.166 F 
ENDBRANCH  12  29
TORSDOF 8
