REMARK  7 active torsions:
REMARK  status: ('A' for Active; 'I' for Inactive)
REMARK    1  A    between atoms: C3_3  and  C4_4 
REMARK    2  A    between atoms: C5_5  and  C6_6 
REMARK    3  A    between atoms: C12_12  and  N14_13 
REMARK       I    between atoms: N14_13  and  C15_14 
REMARK    4  A    between atoms: C15_14  and  C17_16 
REMARK    5  A    between atoms: C17_16  and  N19_17 
REMARK    6  A    between atoms: C17_16  and  C20_18 
REMARK    7  A    between atoms: C23_21  and  O24_22 
ROOT
ATOM      1  N14 <0> d   1      -6.184   1.980   2.116  0.00  0.00    -0.343 N 
ATOM      2  C15 <0> d   1      -7.278   2.289   2.841  0.00  0.00     0.256 C 
ATOM      3  O16 <0> d   1      -8.379   1.970   2.443  0.00  0.00    -0.271 OA
ATOM      4  H36 <0> d   1      -5.304   2.236   2.434  0.00  0.00     0.163 HD
ENDROOT
BRANCH   1   5
ATOM      5  C12 <0> d   1      -6.325   1.259   0.849  0.00  0.00     0.210 C 
ATOM      6  C10 <0> d   1      -5.941  -0.201   0.915  0.00  0.00     0.251 C 
ATOM      7  N9  <0> d   1      -4.728  -0.042   0.400  0.00  0.00    -0.293 N 
ATOM      8  O11 <0> d   1      -6.537  -1.182   1.307  0.00  0.00    -0.271 OA
ATOM      9  C5  <0> d   1      -3.473  -0.653   0.301  0.00  0.00     0.122 C 
ATOM     10  C27 <0> d   1      -5.104   1.326  -0.051  0.00  0.00     0.187 C 
ATOM     11  C4  <0> d   1      -2.373   0.101   0.092  0.00  0.00    -0.015 C 
ATOM     12  C30 <0> d   1      -2.308   1.577  -0.130  0.00  0.00     0.117 C 
ATOM     13  S29 <0> d   1      -3.782   2.452   0.506  0.00  0.00    -0.136 SA
BRANCH   9  14
ATOM     14  C6  <0> d   1      -3.353  -2.106   0.426  0.00  0.00     0.227 C 
ATOM     15  O7  <0> d   1      -2.272  -2.650   0.237  0.00  0.00    -0.643 OA
ATOM     16  O8  <0> d   1      -4.333  -2.779   0.720  0.00  0.00    -0.643 OA
ENDBRANCH   9  14
BRANCH  11  17
ATOM     17  C3  <0> d   1      -1.095  -0.610   0.086  0.00  0.00     0.006 C 
ATOM     18  C2  <0> d   1      -0.383  -0.693  -1.040  0.00  0.00    -0.030 C 
ATOM     19  C1  <0> d   1      -0.830   0.052  -2.272  0.00  0.00     0.036 C 
ENDBRANCH  11  17
ENDBRANCH   1   5
BRANCH   2  20
ATOM     20  C17 <0> d   1      -7.133   3.031   4.144  0.00  0.00     0.342 C 
BRANCH  20  21
ATOM     21  N19 <0> d   1      -8.342   2.835   4.956  0.00  0.00     0.096 N 
ATOM     22  H37 <0> d   1      -9.160   3.180   4.477  0.00  0.00     0.314 HD
ATOM     23  H38 <0> d   1      -8.453   1.865   5.210  0.00  0.00     0.314 HD
ENDBRANCH  20  21
BRANCH  20  24
ATOM     24  C20 <0> d   1      -6.948   4.501   3.868  0.00  0.00    -0.016 A 
ATOM     25  C26 <0> d   1      -5.682   5.056   3.904  0.00  0.00     0.012 A 
ATOM     26  C25 <0> d   1      -5.508   6.402   3.646  0.00  0.00     0.037 A 
ATOM     27  C23 <0> d   1      -6.607   7.199   3.360  0.00  0.00     0.065 A 
ATOM     28  C22 <0> d   1      -7.877   6.641   3.329  0.00  0.00     0.037 A 
ATOM     29  C21 <0> d   1      -8.044   5.294   3.583  0.00  0.00     0.012 A 
BRANCH  27  30
ATOM     30  O24 <0> d   1      -6.439   8.525   3.111  0.00  0.00    -0.361 OA
ATOM     31  H41 <0> d   1      -6.488   9.082   3.900  0.00  0.00     0.217 HD
ENDBRANCH  27  30
ENDBRANCH  20  24
ENDBRANCH   2  20
TORSDOF 7
