REMARK  5 active torsions:
REMARK  status: ('A' for Active; 'I' for Inactive)
REMARK    1  A    between atoms: C2_2  and  O4_3 
REMARK    2  A    between atoms: C2_2  and  C5_4 
REMARK    3  A    between atoms: C5_4  and  O7_5 
REMARK    4  A    between atoms: C5_4  and  C8_6 
REMARK    5  A    between atoms: C18_15  and  N19_16 
ROOT
ATOM      1  C8  <0> d   1       0.739  -2.027  -1.265  0.00  0.00     0.131 C 
ATOM      2  C10 <0> d   1       1.472  -2.530  -2.518  0.00  0.00     0.149 C 
ATOM      3  N11 <0> d   1       2.868  -2.076  -2.450  0.00  0.00    -0.370 N 
ATOM      4  C12 <0> d   1       3.565  -2.219  -1.260  0.00  0.00     0.175 A 
ATOM      5  C13 <0> d   1       2.875  -2.438  -0.077  0.00  0.00     0.144 A 
ATOM      6  N14 <0> d   1       1.464  -2.521  -0.083  0.00  0.00    -0.373 N 
ATOM      7  C15 <0> d   1       3.594  -2.576   1.115  0.00  0.00     0.290 A 
ATOM      8  O16 <0> d   1       3.017  -2.770   2.174  0.00  0.00    -0.265 OA
ATOM      9  N17 <0> d   1       4.942  -2.490   1.069  0.00  0.00    -0.153 N 
ATOM     10  C18 <0> d   1       5.572  -2.275  -0.118  0.00  0.00     0.703 A 
ATOM     11  N20 <0> d   1       4.901  -2.144  -1.243  0.00  0.00    -0.045 NA
ATOM     12  H28 <0> d   1       3.296  -1.683  -3.227  0.00  0.00     0.161 HD
ATOM     13  H29 <0> d   1       0.985  -2.895   0.673  0.00  0.00     0.160 HD
ATOM     14  H30 <0> d   1       5.461  -2.581   1.883  0.00  0.00     0.187 HD
ENDROOT
BRANCH   1  15
ATOM     15  C5  <0> d   1       0.718  -0.497  -1.257  0.00  0.00     0.170 C 
BRANCH  15  16
ATOM     16  C2  <0> d   1       0.002  -0.004   0.002  0.00  0.00     0.145 C 
ATOM     17  C1  <0> d   1      -0.019   1.526   0.010  0.00  0.00     0.042 C 
BRANCH  16  18
ATOM     18  O4  <0> d   1       0.693  -0.477   1.160  0.00  0.00    -0.393 OA
ATOM     19  H24 <0> d   1       1.611  -0.180   1.219  0.00  0.00     0.210 HD
ENDBRANCH  16  18
ENDBRANCH  15  16
BRANCH  15  20
ATOM     20  O7  <0> d   1       0.027  -0.024  -2.414  0.00  0.00    -0.391 OA
ATOM     21  H25 <0> d   1      -0.891  -0.322  -2.473  0.00  0.00     0.210 HD
ENDBRANCH  15  20
ENDBRANCH   1  15
BRANCH  10  22
ATOM     22  N19 <0> d   1       6.942  -2.193  -0.143  0.00  0.00    -0.233 N 
ATOM     23  H31 <0> d   1       7.448  -2.287   0.679  0.00  0.00     0.174 HD
ATOM     24  H32 <0> d   1       7.403  -2.040  -0.982  0.00  0.00     0.174 HD
ENDBRANCH  10  22
TORSDOF 5
