REMARK  2 active torsions:
REMARK  status: ('A' for Active; 'I' for Inactive)
REMARK    1  A    between atoms: C3_3  and  N4_4 
REMARK    2  A    between atoms: N4_4  and  C5_5 
ROOT
ATOM      1 Cl1  ZIN A   1      -2.833   3.951   1.811  0.00  0.00    -0.082 Cl
ATOM      2  C2  ZIN A   1      -1.321   3.514   1.079  0.00  0.00     0.063 A 
ATOM      3  C3  ZIN A   1      -1.263   2.416   0.274  0.00  0.00     0.102 A 
ATOM      4  C11 ZIN A   1      -0.030   2.049  -0.333  0.00  0.00     0.125 A 
ATOM      5  N12 ZIN A   1       0.276   1.045  -1.138  0.00  0.00    -0.189 NA
ATOM      6  S13 ZIN A   1       1.786   1.119  -1.505  0.00  0.00     0.117 SA
ATOM      7  N14 ZIN A   1       2.201   2.389  -0.709  0.00  0.00    -0.191 NA
ATOM      8  C15 ZIN A   1       1.148   2.871  -0.070  0.00  0.00     0.098 A 
ATOM      9  C16 ZIN A   1       1.011   3.999   0.779  0.00  0.00     0.036 A 
ATOM     10  C17 ZIN A   1      -0.195   4.299   1.321  0.00  0.00     0.029 A 
ENDROOT
BRANCH   3  11
ATOM     11  N4  ZIN A   1      -2.412   1.653   0.045  0.00  0.00    -0.188 N 
ATOM     12  H18 ZIN A   1      -3.228   2.083  -0.254  0.00  0.00     0.184 HD
BRANCH  11  13
ATOM     13  C5  ZIN A   1      -2.385   0.298   0.244  0.00  0.00     0.674 A 
ATOM     14  N10 ZIN A   1      -3.469  -0.457   0.171  0.00  0.00    -0.225 N 
ATOM     15  C9  ZIN A   1      -3.103  -1.858   0.429  0.00  0.00     0.158 A 
ATOM     16  H23 ZIN A   1      -4.363  -0.137  -0.027  0.00  0.00     0.177 HD
ATOM     17  C8  ZIN A   1      -1.583  -1.791   0.681  0.00  0.00     0.158 A 
ATOM     18  N6  ZIN A   1      -1.273  -0.360   0.529  0.00  0.00    -0.225 N 
ATOM     19  H7  ZIN A   1      -0.394   0.037   0.624  0.00  0.00     0.177 HD
ENDBRANCH  11  13
ENDBRANCH   3  11
TORSDOF 2
