REMARK  7 active torsions:
REMARK  status: ('A' for Active; 'I' for Inactive)
REMARK    1  A    between atoms: C5_5  and  C6_6 
REMARK       I    between atoms: C6_6  and  N8_8 
REMARK    2  A    between atoms: N8_8  and  C9_9 
REMARK    3  A    between atoms: C9_9  and  C12_12 
REMARK    4  A    between atoms: C14_14  and  C15_15 
REMARK    5  A    between atoms: N17_17  and  C18_18 
REMARK    6  A    between atoms: C18_18  and  C19_19 
REMARK    7  A    between atoms: C26_26  and  O27_27 
ROOT
ATOM      1  C12 ZIN A   1       0.264  -7.017   0.666  0.00  0.00     0.137 A 
ATOM      2  N13 ZIN A   1      -0.687  -7.903   0.756  0.00  0.00    -0.225 NA
ATOM      3  C14 ZIN A   1      -0.894  -8.814  -0.213  0.00  0.00     0.153 A 
ATOM      4  C26 ZIN A   1      -0.082  -8.814  -1.335  0.00  0.00     0.168 A 
ATOM      5  C28 ZIN A   1       0.950  -7.843  -1.419  0.00  0.00     0.284 A 
ATOM      6  O29 ZIN A   1       1.690  -7.803  -2.387  0.00  0.00    -0.265 OA
ATOM      7  N30 ZIN A   1       1.089  -6.960  -0.407  0.00  0.00    -0.302 N 
ATOM      8  C31 ZIN A   1       2.144  -5.945  -0.464  0.00  0.00     0.161 C 
ENDROOT
BRANCH   1   9
ATOM      9  C9  ZIN A   1       0.446  -6.024   1.784  0.00  0.00     0.086 C 
ATOM     10  C10 ZIN A   1      -0.490  -6.379   2.941  0.00  0.00     0.046 C 
ATOM     11  C11 ZIN A   1       0.119  -4.618   1.276  0.00  0.00     0.046 C 
BRANCH   9  12
ATOM     12  N8  ZIN A   1       1.835  -6.063   2.250  0.00  0.00    -0.338 N 
ATOM     13  C6  ZIN A   1       2.256  -5.191   3.187  0.00  0.00     0.297 C 
ATOM     14  O7  ZIN A   1       1.484  -4.371   3.646  0.00  0.00    -0.264 OA
ATOM     15  H36 ZIN A   1       2.451  -6.717   1.884  0.00  0.00     0.164 HD
BRANCH  13  16
ATOM     16  C5  ZIN A   1       3.653  -5.231   3.656  0.00  0.00     0.261 A 
ATOM     17  N4  ZIN A   1       4.588  -6.058   3.250  0.00  0.00    -0.116 NA
ATOM     18  N3  ZIN A   1       5.682  -5.801   3.876  0.00  0.00    -0.127 NA
ATOM     19  C2  ZIN A   1       5.487  -4.805   4.702  0.00  0.00     0.166 A 
ATOM     20  C1  ZIN A   1       6.516  -4.197   5.621  0.00  0.00     0.102 C 
ATOM     21  O32 ZIN A   1       4.208  -4.426   4.587  0.00  0.00    -0.270 OA
ENDBRANCH  13  16
ENDBRANCH   9  12
ENDBRANCH   1   9
BRANCH   3  22
ATOM     22  C15 ZIN A   1      -1.984  -9.807  -0.081  0.00  0.00     0.228 C 
ATOM     23  O16 ZIN A   1      -2.188 -10.720  -1.058  0.00  0.00    -0.168 OA
ATOM     24  N17 ZIN A   1      -2.743  -9.802   0.973  0.00  0.00    -0.258 NA
BRANCH  24  25
ATOM     25  C18 ZIN A   1      -3.821 -10.786   1.103  0.00  0.00     0.190 C 
BRANCH  25  26
ATOM     26  C19 ZIN A   1      -3.531 -11.698   2.267  0.00  0.00    -0.038 A 
ATOM     27  C25 ZIN A   1      -3.988 -11.372   3.531  0.00  0.00     0.012 A 
ATOM     28  C24 ZIN A   1      -3.727 -12.210   4.598  0.00  0.00     0.043 A 
ATOM     29  C22 ZIN A   1      -2.998 -13.371   4.403  0.00  0.00     0.116 A 
ATOM     30  C21 ZIN A   1      -2.536 -13.694   3.139  0.00  0.00     0.043 A 
ATOM     31  F23 ZIN A   1      -2.737 -14.189   5.447  0.00  0.00    -0.206 F 
ATOM     32  C20 ZIN A   1      -2.803 -12.857   2.072  0.00  0.00     0.012 A 
ENDBRANCH  25  26
ENDBRANCH  24  25
ENDBRANCH   3  22
BRANCH   4  33
ATOM     33  O27 ZIN A   1      -0.268  -9.720  -2.329  0.00  0.00    -0.354 OA
ATOM     34  H49 ZIN A   1       0.354  -9.631  -3.064  0.00  0.00     0.218 HD
ENDBRANCH   4  33
TORSDOF 7
