REMARK  6 active torsions:
REMARK  status: ('A' for Active; 'I' for Inactive)
REMARK    1  A    between atoms: C7_7  and  C9_8 
REMARK    2  A    between atoms: C9_8  and  C10_9 
REMARK    3  A    between atoms: C16_15  and  C17_16 
REMARK    4  A    between atoms: C17_16  and  C18_17 
REMARK    5  A    between atoms: C18_17  and  S19_18 
REMARK    6  A    between atoms: S19_18  and  C22_21 
ROOT
ATOM      1  C10 <0> d   1       1.859   1.722   1.115  0.00  0.00    -0.028 A 
ATOM      2  C11 <0> d   1       3.195   1.704   0.981  0.00  0.00     0.096 A 
ATOM      3  N12 <0> d   1       3.593   2.697   0.128  0.00  0.00    -0.365 N 
ATOM      4  C13 <0> d   1       2.495   3.396  -0.320  0.00  0.00     0.043 A 
ATOM      5  C14 <0> d   1       2.334   4.476  -1.182  0.00  0.00     0.031 A 
ATOM      6  C15 <0> d   1       1.071   4.964  -1.439  0.00  0.00     0.009 A 
ATOM      7  C16 <0> d   1      -0.044   4.389  -0.846  0.00  0.00    -0.056 A 
ATOM      8  C28 <0> d   1       0.091   3.327   0.004  0.00  0.00     0.021 A 
ATOM      9  C29 <0> d   1       1.360   2.813   0.273  0.00  0.00    -0.001 A 
ATOM     10  H42 <0> d   1       4.511   2.881  -0.124  0.00  0.00     0.165 HD
ENDROOT
BRANCH   7  11
ATOM     11  C17 <0> d   1      -1.416   4.939  -1.142  0.00  0.00     0.054 C 
BRANCH  11  12
ATOM     12  C18 <0> d   1      -2.004   4.218  -2.356  0.00  0.00     0.150 C 
BRANCH  12  13
ATOM     13  S19 <0> d   1      -3.654   4.880  -2.713  0.00  0.00     0.175 S 
ATOM     14  O20 <0> d   1      -4.568   4.522  -1.685  0.00  0.00    -0.223 OA
ATOM     15  O21 <0> d   1      -3.564   6.219  -3.179  0.00  0.00    -0.223 OA
BRANCH  13  16
ATOM     16  C22 <0> d   1      -4.201   3.966  -4.117  0.00  0.00     0.059 A 
ATOM     17  C27 <0> d   1      -4.901   2.787  -3.944  0.00  0.00     0.023 A 
ATOM     18  C26 <0> d   1      -5.333   2.072  -5.046  0.00  0.00     0.002 A 
ATOM     19  C25 <0> d   1      -5.058   2.533  -6.320  0.00  0.00     0.000 A 
ATOM     20  C24 <0> d   1      -4.353   3.710  -6.492  0.00  0.00     0.002 A 
ATOM     21  C23 <0> d   1      -3.925   4.426  -5.391  0.00  0.00     0.023 A 
ENDBRANCH  13  16
ENDBRANCH  12  13
ENDBRANCH  11  12
ENDBRANCH   7  11
BRANCH   1  22
ATOM     22  C9  <0> d   1       1.030   0.794   1.964  0.00  0.00     0.074 C 
BRANCH  22  23
ATOM     23  C7  <0> d   1       0.421  -0.297   1.081  0.00  0.00     0.192 C 
ATOM     24  N2  <0> d   1      -0.422  -1.193   1.893  0.00  0.00    -0.070 N 
ATOM     25  C1  <0> d   1      -0.431  -0.733   3.288  0.00  0.00     0.270 C 
ATOM     26  H3  <0> d   1      -1.364  -1.195   1.530  0.00  0.00     0.279 HD
ATOM     27  C4  <0> d   1       0.142  -2.558   1.823  0.00  0.00     0.235 C 
ATOM     28  C5  <0> d   1       0.943  -2.587   0.497  0.00  0.00     0.030 C 
ATOM     29  C6  <0> d   1       1.539  -1.155   0.460  0.00  0.00     0.035 C 
ENDBRANCH  22  23
ENDBRANCH   1  22
TORSDOF 6
