REMARK  6 active torsions:
REMARK  status: ('A' for Active; 'I' for Inactive)
REMARK    1  A    between atoms: N2_2  and  C5_5 
REMARK    2  A    between atoms: C5_5  and  C6_6 
REMARK    3  A    between atoms: C6_6  and  O7_7 
REMARK    4  A    between atoms: O7_7  and  C8_8 
REMARK    5  A    between atoms: C8_8  and  C10_10 
REMARK    6  A    between atoms: C8_8  and  C16_16 
ROOT
ATOM      1  C8  ZIN A   1       4.216  -0.473  -0.001  0.00  0.00     0.128 C 
ATOM      2  C9  ZIN A   1       5.259  -0.128  -1.065  0.00  0.00     0.058 C 
ENDROOT
BRANCH   1   3
ATOM      3  O7  ZIN A   1       3.132  -1.179  -0.608  0.00  0.00    -0.368 OA
BRANCH   3   4
ATOM      4  C6  ZIN A   1       2.469  -0.448  -1.642  0.00  0.00     0.197 C 
BRANCH   4   5
ATOM      5  C5  ZIN A   1       1.299  -1.273  -2.180  0.00  0.00     0.260 C 
BRANCH   5   6
ATOM      6  N2  ZIN A   1       0.294  -1.446  -1.122  0.00  0.00    -0.077 N 
ATOM      7  C1  ZIN A   1      -0.279  -0.139  -0.773  0.00  0.00     0.269 C 
ATOM      8  H3  ZIN A   1       0.731  -1.850  -0.307  0.00  0.00     0.279 HD
ATOM      9  C4  ZIN A   1      -0.772  -2.337  -1.600  0.00  0.00     0.269 C 
ENDBRANCH   5   6
ENDBRANCH   4   5
ENDBRANCH   3   4
ENDBRANCH   1   3
BRANCH   1  10
ATOM     10  C10 ZIN A   1       4.847  -1.338   1.060  0.00  0.00    -0.018 A 
ATOM     11  C15 ZIN A   1       4.363  -2.612   1.290  0.00  0.00     0.010 A 
ATOM     12  C14 ZIN A   1       4.945  -3.408   2.260  0.00  0.00     0.001 A 
ATOM     13  C13 ZIN A   1       6.005  -2.925   3.005  0.00  0.00     0.000 A 
ATOM     14  C12 ZIN A   1       6.485  -1.649   2.778  0.00  0.00     0.001 A 
ATOM     15  C11 ZIN A   1       5.906  -0.856   1.806  0.00  0.00     0.010 A 
ENDBRANCH   1  10
BRANCH   1  16
ATOM     16  C16 ZIN A   1       3.700   0.796   0.628  0.00  0.00     0.073 A 
ATOM     17  N21 ZIN A   1       4.242   1.953   0.298  0.00  0.00    -0.262 NA
ATOM     18  C20 ZIN A   1       3.820   3.088   0.819  0.00  0.00     0.117 A 
ATOM     19  C19 ZIN A   1       2.793   3.104   1.744  0.00  0.00     0.019 A 
ATOM     20  C18 ZIN A   1       2.203   1.907   2.119  0.00  0.00     0.003 A 
ATOM     21  C17 ZIN A   1       2.670   0.734   1.546  0.00  0.00     0.031 A 
ENDBRANCH   1  16
TORSDOF 6
