REMARK  5 active torsions:
REMARK  status: ('A' for Active; 'I' for Inactive)
REMARK    1  A    between atoms: N5_5  and  C7_7 
REMARK    2  A    between atoms: C7_7  and  C8_8 
REMARK    3  A    between atoms: C8_8  and  C9_9 
REMARK    4  A    between atoms: C9_9  and  N10_10 
REMARK    5  A    between atoms: C21_21  and  C22_22 
ROOT
ATOM      1  N10 ZIN A   1       0.660  -6.641   3.486  0.00  0.00    -0.345 N 
ATOM      2  C11 ZIN A   1      -0.200  -6.830   4.565  0.00  0.00     0.052 A 
ATOM      3  C12 ZIN A   1      -1.375  -6.089   4.623  0.00  0.00     0.031 A 
ATOM      4  C13 ZIN A   1      -2.254  -6.254   5.677  0.00  0.00     0.002 A 
ATOM      5  C14 ZIN A   1      -1.970  -7.158   6.683  0.00  0.00     0.002 A 
ATOM      6  C15 ZIN A   1      -0.803  -7.899   6.636  0.00  0.00     0.021 A 
ATOM      7  C16 ZIN A   1       0.085  -7.738   5.581  0.00  0.00     0.032 A 
ATOM      8  S17 ZIN A   1       1.567  -8.689   5.548  0.00  0.00    -0.086 SA
ATOM      9  C18 ZIN A   1       2.580  -7.827   4.396  0.00  0.00     0.032 A 
ATOM     10  C19 ZIN A   1       3.947  -8.070   4.377  0.00  0.00     0.022 A 
ATOM     11  C20 ZIN A   1       4.761  -7.402   3.481  0.00  0.00     0.017 A 
ATOM     12  C21 ZIN A   1       4.214  -6.489   2.601  0.00  0.00     0.050 A 
ATOM     13  C26 ZIN A   1       2.854  -6.242   2.612  0.00  0.00     0.047 A 
ATOM     14  C27 ZIN A   1       2.026  -6.914   3.507  0.00  0.00     0.053 A 
ENDROOT
BRANCH   1  15
ATOM     15  C9  ZIN A   1       0.087  -6.124   2.240  0.00  0.00     0.131 C 
BRANCH  15  16
ATOM     16  C8  ZIN A   1       0.146  -4.595   2.248  0.00  0.00     0.048 C 
BRANCH  16  17
ATOM     17  C7  ZIN A   1      -0.452  -4.055   0.948  0.00  0.00     0.236 C 
BRANCH  17  18
ATOM     18  N5  ZIN A   1      -0.396  -2.587   0.955  0.00  0.00    -0.068 N 
ATOM     19  C4  ZIN A   1      -1.077  -2.065  -0.237  0.00  0.00     0.265 C 
ATOM     20  C3  ZIN A   1      -1.035  -0.536  -0.221  0.00  0.00     0.299 C 
ATOM     21  N2  ZIN A   1       0.364  -0.087  -0.199  0.00  0.00     0.087 N 
ATOM     22  C1  ZIN A   1       0.448   1.379  -0.240  0.00  0.00     0.310 C 
ATOM     23  C29 ZIN A   1       1.066  -0.622   0.976  0.00  0.00     0.299 C 
ATOM     24  C28 ZIN A   1       1.006  -2.151   0.950  0.00  0.00     0.265 C 
ATOM     25  H6  ZIN A   1      -0.854  -2.237   1.784  0.00  0.00     0.280 HD
ENDBRANCH  17  18
ENDBRANCH  16  17
ENDBRANCH  15  16
ENDBRANCH   1  15
BRANCH  12  26
ATOM     26  C22 ZIN A   1       5.102  -5.761   1.625  0.00  0.00     0.417 C 
ATOM     27  F23 ZIN A   1       6.426  -6.174   1.801  0.00  0.00    -0.166 F 
ATOM     28  F24 ZIN A   1       4.693  -6.048   0.318  0.00  0.00    -0.166 F 
ATOM     29  F25 ZIN A   1       5.010  -4.383   1.849  0.00  0.00    -0.166 F 
ENDBRANCH  12  26
TORSDOF 5
