REMARK  3 active torsions:
REMARK  status: ('A' for Active; 'I' for Inactive)
REMARK    1  A    between atoms: N10_10  and  C11_11 
REMARK    2  A    between atoms: C15_14  and  C17_15 
REMARK    3  A    between atoms: C17_15  and  O18_16 
ROOT
ATOM      1  O1  ZIN A   1       0.002  -0.004   0.002  0.00  0.00    -0.265 OA
ATOM      2  C2  ZIN A   1      -0.015   1.215   0.009  0.00  0.00     0.279 A 
ATOM      3  N3  ZIN A   1      -1.183   1.893   0.029  0.00  0.00    -0.316 N 
ATOM      4  C4  ZIN A   1      -1.190   3.250   0.036  0.00  0.00     0.212 A 
ATOM      5  N5  ZIN A   1      -0.090   3.950   0.023  0.00  0.00    -0.223 NA
ATOM      6  C6  ZIN A   1       1.112   3.355   0.003  0.00  0.00     0.168 A 
ATOM      7  C7  ZIN A   1       1.192   1.959   0.001  0.00  0.00     0.172 A 
ATOM      8  N8  ZIN A   1       2.504   1.631  -0.021  0.00  0.00    -0.234 NA
ATOM      9  C9  ZIN A   1       3.220   2.719  -0.033  0.00  0.00     0.214 A 
ATOM     10  N10 ZIN A   1       2.402   3.809  -0.014  0.00  0.00    -0.296 N 
ATOM     11  H20 ZIN A   1      -2.023   1.407   0.039  0.00  0.00     0.170 HD
ENDROOT
BRANCH  10  12
ATOM     12  C11 ZIN A   1       2.827   5.211  -0.020  0.00  0.00     0.231 C 
ATOM     13  O19 ZIN A   1       4.141   5.318  -0.581  0.00  0.00    -0.359 OA
ATOM     14  C15 ZIN A   1       5.034   5.913   0.376  0.00  0.00     0.147 C 
ATOM     15  C14 ZIN A   1       4.403   5.616   1.760  0.00  0.00     0.038 C 
ATOM     16  C13 ZIN A   1       2.891   5.745   1.428  0.00  0.00     0.057 C 
BRANCH  14  17
ATOM     17  C17 ZIN A   1       6.422   5.276   0.278  0.00  0.00     0.196 C 
BRANCH  17  18
ATOM     18  O18 ZIN A   1       7.034   5.657  -0.956  0.00  0.00    -0.398 OA
ATOM     19  H29 ZIN A   1       7.919   5.288  -1.086  0.00  0.00     0.209 HD
ENDBRANCH  17  18
ENDBRANCH  14  17
ENDBRANCH  10  12
TORSDOF 3
