REMARK  11 active torsions:
REMARK  status: ('A' for Active; 'I' for Inactive)
REMARK    1  A    between atoms: C2_2  and  O3_3 
REMARK    2  A    between atoms: O3_3  and  C4_4 
REMARK    3  A    between atoms: C5_5  and  N6_6 
REMARK       I    between atoms: N6_6  and  C7_7 
REMARK    4  A    between atoms: C7_7  and  C9_9 
REMARK    5  A    between atoms: C10_10  and  C11_11 
REMARK    6  A    between atoms: C11_11  and  N12_12 
REMARK    7  A    between atoms: C25_25  and  N26_26 
REMARK    8  A    between atoms: N26_26  and  C27_27 
REMARK    9  A    between atoms: C30_30  and  O31_31 
REMARK   10  A    between atoms: O31_31  and  C32_32 
REMARK   11  A    between atoms: C32_32  and  C33_33 
ROOT
ATOM      1  C4  ZIN A   1       0.347  -4.060  -1.220  0.00  0.00     0.097 A 
ATOM      2  C5  ZIN A   1       1.598  -4.201  -0.599  0.00  0.00     0.069 A 
ATOM      3  C16 ZIN A   1       1.729  -4.958   0.543  0.00  0.00     0.048 A 
ATOM      4  C17 ZIN A   1       0.603  -5.592   1.089  0.00  0.00     0.023 A 
ATOM      5  C18 ZIN A   1      -0.660  -5.451   0.465  0.00  0.00     0.071 A 
ATOM      6  C19 ZIN A   1      -0.769  -4.670  -0.696  0.00  0.00     0.071 A 
ATOM      7  N20 ZIN A   1      -1.740  -6.054   0.983  0.00  0.00    -0.259 NA
ATOM      8  C21 ZIN A   1      -1.674  -6.785   2.067  0.00  0.00     0.142 A 
ATOM      9  C22 ZIN A   1      -0.463  -6.979   2.751  0.00  0.00     0.089 A 
ATOM     10  C23 ZIN A   1      -0.421  -7.783   3.934  0.00  0.00     0.103 C 
ATOM     11  N24 ZIN A   1      -0.389  -8.422   4.873  0.00  0.00    -0.191 NA
ATOM     12  C25 ZIN A   1       0.706  -6.376   2.262  0.00  0.00     0.067 A 
ENDROOT
BRANCH  12  13
ATOM     13  N26 ZIN A   1       1.916  -6.542   2.905  0.00  0.00    -0.354 N 
ATOM     14  H61 ZIN A   1       2.346  -5.784   3.331  0.00  0.00     0.166 HD
BRANCH  13  15
ATOM     15  C27 ZIN A   1       2.522  -7.802   2.941  0.00  0.00     0.034 A 
ATOM     16  C41 ZIN A   1       3.273  -8.181   4.046  0.00  0.00     0.056 A 
ATOM     17  C39 ZIN A   1       3.866  -9.428   4.084  0.00  0.00     0.069 A 
ATOM     18  C30 ZIN A   1       3.721 -10.298   3.012  0.00  0.00     0.091 A 
ATOM     19 Cl40 ZIN A   1       4.799  -9.904   5.468  0.00  0.00    -0.081 Cl
ATOM     20  C29 ZIN A   1       2.976  -9.918   1.906  0.00  0.00     0.041 A 
ATOM     21  C28 ZIN A   1       2.378  -8.674   1.869  0.00  0.00     0.032 A 
BRANCH  18  22
ATOM     22  O31 ZIN A   1       4.310 -11.523   3.046  0.00  0.00    -0.344 OA
BRANCH  22  23
ATOM     23  C32 ZIN A   1       4.120 -12.367   1.909  0.00  0.00     0.235 C 
BRANCH  23  24
ATOM     24  C33 ZIN A   1       4.840 -13.673   2.126  0.00  0.00     0.058 A 
ATOM     25  N38 ZIN A   1       4.795 -14.604   1.193  0.00  0.00    -0.263 NA
ATOM     26  C37 ZIN A   1       5.414 -15.760   1.337  0.00  0.00     0.117 A 
ATOM     27  C36 ZIN A   1       6.129 -16.041   2.487  0.00  0.00     0.019 A 
ATOM     28  C35 ZIN A   1       6.194 -15.088   3.491  0.00  0.00     0.003 A 
ATOM     29  C34 ZIN A   1       5.535 -13.882   3.301  0.00  0.00     0.029 A 
ENDBRANCH  23  24
ENDBRANCH  22  23
ENDBRANCH  18  22
ENDBRANCH  13  15
ENDBRANCH  12  13
BRANCH   2  30
ATOM     30  N6  ZIN A   1       2.721  -3.567  -1.145  0.00  0.00    -0.321 N 
ATOM     31  C7  ZIN A   1       3.954  -4.055  -0.905  0.00  0.00     0.245 C 
ATOM     32  O8  ZIN A   1       4.086  -5.105  -0.305  0.00  0.00    -0.268 OA
ATOM     33  H47 ZIN A   1       2.611  -2.776  -1.696  0.00  0.00     0.169 HD
BRANCH  31  34
ATOM     34  C9  ZIN A   1       5.139  -3.319  -1.369  0.00  0.00     0.072 C 
ATOM     35  C10 ZIN A   1       6.356  -3.801  -1.133  0.00  0.00     0.006 C 
BRANCH  35  36
ATOM     36  C11 ZIN A   1       7.571  -3.047  -1.608  0.00  0.00     0.261 C 
BRANCH  36  37
ATOM     37  N12 ZIN A   1       8.468  -2.798  -0.471  0.00  0.00    -0.076 N 
ATOM     38  H13 ZIN A   1       8.689  -3.672  -0.019  0.00  0.00     0.279 HD
ATOM     39  C14 ZIN A   1       9.706  -2.170  -0.953  0.00  0.00     0.269 C 
ATOM     40  C15 ZIN A   1       7.807  -1.904   0.488  0.00  0.00     0.269 C 
ENDBRANCH  36  37
ENDBRANCH  35  36
ENDBRANCH  31  34
ENDBRANCH   2  30
BRANCH   1  41
ATOM     41  O3  ZIN A   1       0.237  -3.309  -2.346  0.00  0.00    -0.349 OA
BRANCH  41  42
ATOM     42  C2  ZIN A   1      -1.064  -3.199  -2.927  0.00  0.00     0.171 C 
ATOM     43  C1  ZIN A   1      -0.991  -2.321  -4.178  0.00  0.00     0.034 C 
ENDBRANCH  41  42
ENDBRANCH   1  41
TORSDOF 11
