REMARK  11 active torsions:
REMARK  status: ('A' for Active; 'I' for Inactive)
REMARK    1  A    between atoms: O2_2  and  C3_3 
REMARK    2  A    between atoms: C3_3  and  C5_5 
REMARK    3  A    between atoms: C11_11  and  C12_12 
REMARK    4  A    between atoms: C12_12  and  O14_14 
REMARK    5  A    between atoms: O14_14  and  C15_15 
REMARK    6  A    between atoms: C15_15  and  C16_16 
REMARK    7  A    between atoms: C16_16  and  N17_17 
REMARK    8  A    between atoms: N17_17  and  C20_20 
REMARK    9  A    between atoms: C20_20  and  C21_21 
REMARK   10  A    between atoms: C27_27  and  C29_28 
REMARK   11  A    between atoms: C33_32  and  N34_33 
ROOT
ATOM      1  C5  ZIN A   1       1.964  -2.430  -0.905  0.00  0.00     0.052 C 
ATOM      2  C6  ZIN A   1       2.540  -3.056  -1.946  0.00  0.00     0.018 C 
ATOM      3  C7  ZIN A   1       3.412  -2.275  -2.894  0.00  0.00     0.069 C 
ATOM      4  N8  ZIN A   1       2.344  -4.394  -2.154  0.00  0.00    -0.362 N 
ATOM      5  C9  ZIN A   1       1.873  -5.188  -1.144  0.00  0.00     0.018 C 
ATOM      6  C10 ZIN A   1       2.035  -6.684  -1.237  0.00  0.00     0.069 C 
ATOM      7  C11 ZIN A   1       1.269  -4.651  -0.070  0.00  0.00     0.052 C 
ATOM      8  C27 ZIN A   1       1.085  -3.168   0.064  0.00  0.00     0.101 C 
ATOM      9  H44 ZIN A   1       2.539  -4.781  -3.022  0.00  0.00     0.165 HD
ENDROOT
BRANCH   7  10
ATOM     10  C12 ZIN A   1       0.802  -5.502   0.958  0.00  0.00     0.292 C 
ATOM     11  O13 ZIN A   1       0.994  -6.701   0.889  0.00  0.00    -0.259 OA
BRANCH  10  12
ATOM     12  O14 ZIN A   1       0.145  -4.983   2.016  0.00  0.00    -0.316 OA
BRANCH  12  13
ATOM     13  C15 ZIN A   1      -0.172  -5.877   3.085  0.00  0.00     0.206 C 
BRANCH  13  14
ATOM     14  C16 ZIN A   1      -1.032  -5.149   4.121  0.00  0.00     0.261 C 
BRANCH  14  15
ATOM     15  N17 ZIN A   1      -2.399  -5.001   3.605  0.00  0.00    -0.069 N 
ATOM     16  H18 ZIN A   1      -2.375  -4.513   2.722  0.00  0.00     0.279 HD
ATOM     17  C19 ZIN A   1      -2.997  -6.329   3.413  0.00  0.00     0.270 C 
BRANCH  15  18
ATOM     18  C20 ZIN A   1      -3.205  -4.236   4.566  0.00  0.00     0.273 C 
BRANCH  18  19
ATOM     19  C21 ZIN A   1      -4.609  -4.088   4.038  0.00  0.00    -0.033 A 
ATOM     20  C26 ZIN A   1      -5.594  -4.972   4.437  0.00  0.00     0.009 A 
ATOM     21  C25 ZIN A   1      -6.882  -4.834   3.957  0.00  0.00     0.001 A 
ATOM     22  C24 ZIN A   1      -7.184  -3.816   3.071  0.00  0.00     0.000 A 
ATOM     23  C23 ZIN A   1      -6.199  -2.935   2.669  0.00  0.00     0.001 A 
ATOM     24  C22 ZIN A   1      -4.911  -3.071   3.152  0.00  0.00     0.009 A 
ENDBRANCH  18  19
ENDBRANCH  15  18
ENDBRANCH  14  15
ENDBRANCH  13  14
ENDBRANCH  12  13
ENDBRANCH  10  12
ENDBRANCH   7  10
BRANCH   8  25
ATOM     25  C29 ZIN A   1      -0.353  -2.818  -0.223  0.00  0.00    -0.042 A 
ATOM     26  C37 ZIN A   1      -1.056  -2.009   0.650  0.00  0.00     0.044 A 
ATOM     27  C33 ZIN A   1      -2.373  -1.685   0.384  0.00  0.00     0.103 A 
ATOM     28  C32 ZIN A   1      -2.990  -2.178  -0.751  0.00  0.00     0.036 A 
ATOM     29  C31 ZIN A   1      -2.289  -2.992  -1.621  0.00  0.00     0.003 A 
ATOM     30  C30 ZIN A   1      -0.971  -3.312  -1.357  0.00  0.00     0.008 A 
BRANCH  27  31
ATOM     31  N34 ZIN A   1      -3.123  -0.814   1.315  0.00  0.00    -0.116 N 
ATOM     32  O35 ZIN A   1      -4.302  -0.581   1.116  0.00  0.00    -0.532 OA
ATOM     33  O36 ZIN A   1      -2.562  -0.329   2.282  0.00  0.00    -0.532 OA
ENDBRANCH  27  31
ENDBRANCH   8  25
BRANCH   1  34
ATOM     34  C3  ZIN A   1       2.196  -1.048  -0.715  0.00  0.00     0.291 C 
ATOM     35  O4  ZIN A   1       2.954  -0.673   0.160  0.00  0.00    -0.260 OA
BRANCH  34  36
ATOM     36  O2  ZIN A   1       1.576  -0.145  -1.503  0.00  0.00    -0.323 OA
ATOM     37  C1  ZIN A   1       1.857   1.234  -1.255  0.00  0.00     0.213 C 
ENDBRANCH  34  36
ENDBRANCH   1  34
TORSDOF 11
