REMARK  6 active torsions:
REMARK  status: ('A' for Active; 'I' for Inactive)
REMARK    1  A    between atoms: C2_2  and  N3_3 
REMARK    2  A    between atoms: C5_5  and  C7_6 
REMARK    3  A    between atoms: C7_6  and  C8_7 
REMARK    4  A    between atoms: C8_7  and  N9_8 
REMARK    5  A    between atoms: C15_14  and  C16_15 
REMARK    6  A    between atoms: C15_14  and  C22_21 
ROOT
ATOM      1  N3  ZIN A   1       0.659  -0.519   1.284  0.00  0.00    -0.351 N 
ATOM      2  C4  ZIN A   1       2.086  -0.862   1.287  0.00  0.00     0.132 C 
ATOM      3  C5  ZIN A   1       2.321  -1.633   2.605  0.00  0.00     0.032 C 
ATOM      4  C15 ZIN A   1       1.182  -1.088   3.497  0.00  0.00     0.100 C 
ATOM      5  C28 ZIN A   1       0.128  -0.626   2.515  0.00  0.00     0.238 C 
ATOM      6  O29 ZIN A   1      -1.028  -0.393   2.795  0.00  0.00    -0.272 OA
ENDROOT
BRANCH   4   7
ATOM      7  C16 ZIN A   1       0.639  -2.179   4.384  0.00  0.00    -0.035 A 
ATOM      8  C21 ZIN A   1      -0.649  -2.644   4.198  0.00  0.00     0.009 A 
ATOM      9  C20 ZIN A   1      -1.146  -3.648   5.008  0.00  0.00     0.001 A 
ATOM     10  C19 ZIN A   1      -0.357  -4.179   6.012  0.00  0.00     0.000 A 
ATOM     11  C18 ZIN A   1       0.929  -3.710   6.202  0.00  0.00     0.001 A 
ATOM     12  C17 ZIN A   1       1.427  -2.710   5.388  0.00  0.00     0.009 A 
ENDBRANCH   4   7
BRANCH   4  13
ATOM     13  C22 ZIN A   1       1.670   0.071   4.327  0.00  0.00    -0.035 A 
ATOM     14  C27 ZIN A   1       0.978   1.267   4.320  0.00  0.00     0.009 A 
ATOM     15  C26 ZIN A   1       1.423   2.329   5.084  0.00  0.00     0.001 A 
ATOM     16  C25 ZIN A   1       2.567   2.197   5.850  0.00  0.00     0.000 A 
ATOM     17  C24 ZIN A   1       3.263   1.003   5.853  0.00  0.00     0.001 A 
ATOM     18  C23 ZIN A   1       2.814  -0.060   5.092  0.00  0.00     0.009 A 
ENDBRANCH   4  13
BRANCH   3  19
ATOM     19  C7  ZIN A   1       2.176  -3.141   2.391  0.00  0.00     0.038 C 
BRANCH  19  20
ATOM     20  C8  ZIN A   1       3.292  -3.635   1.468  0.00  0.00     0.273 C 
BRANCH  20  21
ATOM     21  N9  ZIN A   1       3.153  -5.083   1.262  0.00  0.00     0.092 N 
ATOM     22  C14 ZIN A   1       4.333  -5.634   0.580  0.00  0.00     0.298 C 
ATOM     23  C13 ZIN A   1       4.121  -7.130   0.333  0.00  0.00     0.198 C 
ATOM     24  O12 ZIN A   1       3.862  -7.782   1.579  0.00  0.00    -0.388 OA
ATOM     25  C11 ZIN A   1       2.720  -7.270   2.270  0.00  0.00     0.198 C 
ATOM     26  C10 ZIN A   1       2.918  -5.776   2.537  0.00  0.00     0.298 C 
ENDBRANCH  20  21
ENDBRANCH  19  20
ENDBRANCH   3  19
BRANCH   1  27
ATOM     27  C2  ZIN A   1      -0.089  -0.106   0.095  0.00  0.00     0.121 C 
ATOM     28  C1  ZIN A   1      -0.013   1.415  -0.054  0.00  0.00     0.026 C 
ENDBRANCH   1  27
TORSDOF 6
