REMARK  2 active torsions:
REMARK  status: ('A' for Active; 'I' for Inactive)
REMARK    1  A    between atoms: C6_6  and  C7_7 
REMARK    2  A    between atoms: C7_7  and  C10_9 
ROOT
ATOM      1  C1  <0> d   1      -0.479   1.443  -0.303  0.00  0.00     0.049 C 
ATOM      2  C2  <0> d   1      -0.218  -0.033  -0.148  0.00  0.00    -0.056 A 
ATOM      3  C3  <0> d   1      -0.226  -0.857  -1.258  0.00  0.00     0.007 A 
ATOM      4  C4  <0> d   1       0.013  -2.211  -1.115  0.00  0.00     0.001 A 
ATOM      5  C5  <0> d   1       0.261  -2.741   0.138  0.00  0.00     0.008 A 
ATOM      6  C6  <0> d   1       0.270  -1.917   1.248  0.00  0.00    -0.042 A 
ATOM      7  C15 <0> d   1       0.035  -0.562   1.104  0.00  0.00    -0.049 A 
ATOM      8  C16 <0> d   1       0.044   0.337   2.314  0.00  0.00     0.049 C 
ENDROOT
BRANCH   6   9
ATOM      9  C7  <0> d   1       0.539  -2.494   2.613  0.00  0.00     0.068 C 
ATOM     10  C9  <0> d   1       1.865  -3.258   2.591  0.00  0.00     0.021 C 
BRANCH   9  11
ATOM     11  C10 <0> d   1      -0.576  -3.435   2.990  0.00  0.00     0.059 A 
ATOM     12  N14 <0> d   1      -1.655  -3.124   3.723  0.00  0.00    -0.246 NA
ATOM     13  C13 <0> d   1      -2.410  -4.181   3.848  0.00  0.00     0.207 A 
ATOM     14  N12 <0> d   1      -1.825  -5.210   3.198  0.00  0.00    -0.359 N 
ATOM     15  C11 <0> d   1      -0.661  -4.736   2.654  0.00  0.00     0.116 A 
ATOM     16  H27 <0> d   1      -2.165  -6.116   3.130  0.00  0.00     0.166 HD
ENDBRANCH   9  11
ENDBRANCH   6   9
TORSDOF 2
