REMARK  15 active torsions:
REMARK  status: ('A' for Active; 'I' for Inactive)
REMARK    1  A    between atoms: C2_2  and  C3_3 
REMARK    2  A    between atoms: C3_3  and  C4_4 
REMARK    3  A    between atoms: C4_4  and  C5_5 
REMARK    4  A    between atoms: C5_5  and  O7_7 
REMARK    5  A    between atoms: O7_7  and  C8_8 
REMARK    6  A    between atoms: C8_8  and  C9_9 
REMARK    7  A    between atoms: C9_9  and  C11_11 
REMARK    8  A    between atoms: C11_11  and  O12_12 
REMARK    9  A    between atoms: C15_15  and  O16_16 
REMARK   10  A    between atoms: C22_22  and  O23_23 
REMARK   11  A    between atoms: C34_34  and  O36_35 
REMARK   12  A    between atoms: O36_35  and  C37_36 
REMARK   13  A    between atoms: C40_38  and  N42_39 
REMARK       I    between atoms: N42_39  and  C43_40 
REMARK   14  A    between atoms: C43_40  and  C45_42 
REMARK   15  A    between atoms: C49_46  and  O51_47 
ROOT
ATOM      1  C11 ZIN A   1       2.323  -6.343  -4.868  0.00  0.00     0.127 C 
ATOM      2  C13 ZIN A   1       1.377  -6.702  -6.011  0.00  0.00     0.088 C 
ATOM      3  C14 ZIN A   1       0.626  -7.971  -5.703  0.00  0.00    -0.009 A 
ATOM      4  C15 ZIN A   1      -0.531  -8.232  -6.450  0.00  0.00     0.088 A 
ATOM      5  C17 ZIN A   1      -1.271  -9.390  -6.223  0.00  0.00     0.066 A 
ATOM      6  C18 ZIN A   1      -0.846 -10.301  -5.234  0.00  0.00     0.069 A 
ATOM      7  C19 ZIN A   1      -1.622 -11.532  -4.993  0.00  0.00     0.200 C 
ATOM      8  O20 ZIN A   1      -1.424 -12.199  -3.996  0.00  0.00    -0.286 OA
ATOM      9  C21 ZIN A   1      -2.642 -11.944  -5.977  0.00  0.00     0.062 A 
ATOM     10  C22 ZIN A   1      -3.188 -13.229  -5.940  0.00  0.00     0.083 A 
ATOM     11  C25 ZIN A   1      -4.149 -13.596  -6.878  0.00  0.00     0.038 A 
ATOM     12  C26 ZIN A   1      -4.563 -12.699  -7.841  0.00  0.00     0.004 A 
ATOM     13  C27 ZIN A   1      -4.030 -11.420  -7.889  0.00  0.00     0.017 A 
ATOM     14  C28 ZIN A   1      -3.069 -11.034  -6.963  0.00  0.00     0.032 A 
ATOM     15  C29 ZIN A   1      -2.489  -9.674  -7.004  0.00  0.00     0.197 C 
ATOM     16  O30 ZIN A   1      -3.010  -8.802  -7.672  0.00  0.00    -0.286 OA
ATOM     17  C31 ZIN A   1       0.304 -10.026  -4.499  0.00  0.00     0.132 A 
ATOM     18  O32 ZIN A   1       0.718 -10.897  -3.546  0.00  0.00    -0.190 OA
ATOM     19  C33 ZIN A   1       1.036  -8.856  -4.737  0.00  0.00     0.018 A 
ATOM     20  C34 ZIN A   1       2.262  -8.623  -3.892  0.00  0.00     0.164 C 
ATOM     21  C56 ZIN A   1       3.170  -7.577  -4.535  0.00  0.00     0.083 C 
ENDROOT
BRANCH  20  22
ATOM     22  O36 ZIN A   1       2.981  -9.850  -3.756  0.00  0.00    -0.351 OA
BRANCH  22  23
ATOM     23  C37 ZIN A   1       3.602 -10.023  -2.481  0.00  0.00     0.263 C 
ATOM     24  O55 ZIN A   1       4.733  -9.155  -2.380  0.00  0.00    -0.354 OA
ATOM     25  C52 ZIN A   1       5.725  -9.371  -3.387  0.00  0.00     0.151 C 
ATOM     26  C49 ZIN A   1       6.267 -10.798  -3.270  0.00  0.00     0.171 C 
ATOM     27  C54 ZIN A   1       6.869  -8.373  -3.197  0.00  0.00     0.042 C 
ATOM     28  C40 ZIN A   1       5.106 -11.789  -3.401  0.00  0.00     0.147 C 
ATOM     29  C39 ZIN A   1       4.059 -11.476  -2.328  0.00  0.00     0.090 C 
BRANCH  26  30
ATOM     30  O51 ZIN A   1       6.899 -10.967  -2.000  0.00  0.00    -0.391 OA
ATOM     31  H80 ZIN A   1       7.645 -10.370  -1.849  0.00  0.00     0.210 HD
ENDBRANCH  26  30
BRANCH  28  32
ATOM     32  N42 ZIN A   1       5.603 -13.155  -3.216  0.00  0.00    -0.240 NA
ATOM     33  C43 ZIN A   1       4.750 -14.197  -3.282  0.00  0.00     0.346 C 
ATOM     34  O44 ZIN A   1       3.572 -14.003  -3.493  0.00  0.00    -0.261 OA
BRANCH  33  35
ATOM     35  C45 ZIN A   1       5.261 -15.601  -3.092  0.00  0.00     0.474 C 
ATOM     36  F46 ZIN A   1       4.198 -16.503  -3.203  0.00  0.00    -0.162 F 
ATOM     37  F47 ZIN A   1       6.218 -15.886  -4.073  0.00  0.00    -0.162 F 
ATOM     38  F48 ZIN A   1       5.843 -15.719  -1.825  0.00  0.00    -0.162 F 
ENDBRANCH  33  35
ENDBRANCH  28  32
ENDBRANCH  22  23
ENDBRANCH  20  22
BRANCH   1  39
ATOM     39  C9  ZIN A   1       1.523  -5.934  -3.657  0.00  0.00     0.185 C 
ATOM     40  O10 ZIN A   1       0.381  -6.308  -3.534  0.00  0.00    -0.292 OA
BRANCH  39  41
ATOM     41  C8  ZIN A   1       2.149  -5.061  -2.601  0.00  0.00     0.260 C 
BRANCH  41  42
ATOM     42  O7  ZIN A   1       1.183  -4.810  -1.546  0.00  0.00    -0.314 OA
BRANCH  42  43
ATOM     43  C5  ZIN A   1       1.585  -4.043  -0.521  0.00  0.00     0.259 C 
ATOM     44  O6  ZIN A   1       2.707  -3.595  -0.506  0.00  0.00    -0.265 OA
BRANCH  43  45
ATOM     45  C4  ZIN A   1       0.637  -3.739   0.611  0.00  0.00     0.111 C 
BRANCH  45  46
ATOM     46  C3  ZIN A   1       1.340  -2.852   1.641  0.00  0.00     0.009 C 
BRANCH  46  47
ATOM     47  C2  ZIN A   1       0.378  -2.544   2.789  0.00  0.00    -0.004 C 
ATOM     48  C1  ZIN A   1       1.080  -1.656   3.819  0.00  0.00     0.005 C 
ENDBRANCH  46  47
ENDBRANCH  45  46
ENDBRANCH  43  45
ENDBRANCH  42  43
ENDBRANCH  41  42
ENDBRANCH  39  41
ENDBRANCH   1  39
BRANCH   1  49
ATOM     49  O12 ZIN A   1       3.175  -5.267  -5.266  0.00  0.00    -0.382 OA
ATOM     50  H68 ZIN A   1       2.702  -4.456  -5.499  0.00  0.00     0.211 HD
ENDBRANCH   1  49
BRANCH   4  51
ATOM     51  O16 ZIN A   1      -0.933  -7.351  -7.399  0.00  0.00    -0.359 OA
ATOM     52  H71 ZIN A   1      -0.565  -7.523  -8.276  0.00  0.00     0.217 HD
ENDBRANCH   4  51
BRANCH  10  53
ATOM     53  O23 ZIN A   1      -2.785 -14.114  -4.995  0.00  0.00    -0.355 OA
ATOM     54  C24 ZIN A   1      -3.389 -15.409  -5.020  0.00  0.00     0.210 C 
ENDBRANCH  10  53
TORSDOF 15
