REMARK  7 active torsions:
REMARK  status: ('A' for Active; 'I' for Inactive)
REMARK    1  A    between atoms: C5_5  and  C6_6 
REMARK       I    between atoms: C6_6  and  N8_8 
REMARK    2  A    between atoms: N8_8  and  C9_9 
REMARK    3  A    between atoms: C12_12  and  C13_13 
REMARK    4  A    between atoms: C13_13  and  N14_14 
REMARK    5  A    between atoms: C22_22  and  C23_23 
REMARK    6  A    between atoms: C29_29  and  C30_30 
REMARK    7  A    between atoms: C31_31  and  C32_32 
ROOT
ATOM      1  C6  ZIN A   1       0.603  -4.292  -0.110  0.00  0.00     0.256 C 
ATOM      2  O7  ZIN A   1       1.058  -4.942   0.811  0.00  0.00    -0.267 OA
ATOM      3  N8  ZIN A   1       0.104  -4.918  -1.194  0.00  0.00    -0.323 N 
ATOM      4  H46 ZIN A   1      -0.321  -4.404  -1.898  0.00  0.00     0.169 HD
ENDROOT
BRANCH   3   5
ATOM      5  C9  ZIN A   1       0.201  -6.308  -1.305  0.00  0.00     0.035 A 
ATOM      6  C27 ZIN A   1       0.402  -6.895  -2.548  0.00  0.00     0.046 A 
ATOM      7  C22 ZIN A   1       0.503  -8.268  -2.653  0.00  0.00     0.058 A 
ATOM      8  C12 ZIN A   1       0.393  -9.060  -1.524  0.00  0.00    -0.015 A 
ATOM      9  C11 ZIN A   1       0.187  -8.479  -0.286  0.00  0.00     0.012 A 
ATOM     10  C10 ZIN A   1       0.091  -7.106  -0.174  0.00  0.00     0.030 A 
BRANCH   7  11
ATOM     11  C23 ZIN A   1       0.728  -8.906  -4.000  0.00  0.00     0.418 C 
ATOM     12  F24 ZIN A   1       0.914  -7.908  -4.963  0.00  0.00    -0.166 F 
ATOM     13  F25 ZIN A   1       1.863  -9.721  -3.947  0.00  0.00    -0.166 F 
ATOM     14  F26 ZIN A   1      -0.387  -9.680  -4.341  0.00  0.00    -0.166 F 
ENDBRANCH   7  11
BRANCH   8  15
ATOM     15  C13 ZIN A   1       0.496 -10.559  -1.644  0.00  0.00     0.311 C 
BRANCH  15  16
ATOM     16  N14 ZIN A   1      -0.744 -11.091  -2.224  0.00  0.00     0.096 N 
ATOM     17  C21 ZIN A   1      -0.716 -12.559  -2.271  0.00  0.00     0.300 C 
ATOM     18  C20 ZIN A   1      -1.996 -13.070  -2.936  0.00  0.00     0.264 C 
ATOM     19  N17 ZIN A   1      -3.162 -12.610  -2.170  0.00  0.00    -0.072 N 
ATOM     20  C16 ZIN A   1      -3.190 -11.141  -2.153  0.00  0.00     0.264 C 
ATOM     21  H18 ZIN A   1      -3.101 -12.956  -1.224  0.00  0.00     0.279 HD
ATOM     22  C19 ZIN A   1      -4.390 -13.115  -2.798  0.00  0.00     0.269 C 
ATOM     23  C15 ZIN A   1      -1.919 -10.614  -1.482  0.00  0.00     0.300 C 
ENDBRANCH  15  16
ENDBRANCH   8  15
ENDBRANCH   3   5
BRANCH   1  24
ATOM     24  C5  ZIN A   1       0.596  -2.815  -0.040  0.00  0.00     0.033 A 
ATOM     25  C4  ZIN A   1       0.073  -2.067  -1.098  0.00  0.00     0.017 A 
ATOM     26  C3  ZIN A   1       0.065  -0.687  -1.036  0.00  0.00     0.009 A 
ATOM     27  C2  ZIN A   1       0.573  -0.036   0.070  0.00  0.00    -0.043 A 
ATOM     28  C1  ZIN A   1       0.559   1.469   0.129  0.00  0.00     0.049 C 
ATOM     29  C29 ZIN A   1       1.105  -0.772   1.135  0.00  0.00     0.025 A 
ATOM     30  C28 ZIN A   1       1.111  -2.167   1.080  0.00  0.00     0.038 A 
BRANCH  29  31
ATOM     31  C30 ZIN A   1       1.633  -0.096   2.282  0.00  0.00    -0.059 C 
ATOM     32  C31 ZIN A   1       2.066   0.458   3.222  0.00  0.00    -0.040 C 
BRANCH  32  33
ATOM     33  C32 ZIN A   1       2.593   1.133   4.369  0.00  0.00     0.131 A 
ATOM     34  N40 ZIN A   1       2.656   2.492   4.566  0.00  0.00    -0.206 N 
ATOM     35  C35 ZIN A   1       3.229   2.694   5.795  0.00  0.00     0.151 A 
ATOM     36  N39 ZIN A   1       2.250   3.584   3.794  0.00  0.00    -0.177 NA
ATOM     37  N34 ZIN A   1       3.516   1.511   6.328  0.00  0.00    -0.238 NA
ATOM     38  C36 ZIN A   1       3.412   4.010   6.256  0.00  0.00     0.054 A 
ATOM     39  C33 ZIN A   1       3.146   0.546   5.495  0.00  0.00     0.160 A 
ATOM     40  C37 ZIN A   1       3.010   5.050   5.473  0.00  0.00     0.025 A 
ATOM     41  C38 ZIN A   1       2.422   4.806   4.226  0.00  0.00     0.139 A 
ENDBRANCH  32  33
ENDBRANCH  29  31
ENDBRANCH   1  24
TORSDOF 7
