REMARK  7 active torsions:
REMARK  status: ('A' for Active; 'I' for Inactive)
REMARK    1  A    between atoms: C2_2  and  C3_3 
REMARK    2  A    between atoms: C3_3  and  N4_4 
REMARK    3  A    between atoms: N4_4  and  C5_5 
REMARK    4  A    between atoms: C17_13  and  O19_14 
REMARK    5  A    between atoms: C20_15  and  N22_16 
REMARK    6  A    between atoms: C38_31  and  O40_32 
REMARK    7  A    between atoms: O40_32  and  C41_33 
ROOT
ATOM      1  C5  ZIN A   1      -2.485  -3.129   0.289  0.00  0.00     0.221 C 
ATOM      2  C7  ZIN A   1      -3.442  -3.387   1.484  0.00  0.00     0.042 C 
ATOM      3  C8  ZIN A   1      -4.829  -3.186   0.864  0.00  0.00     0.003 C 
ATOM      4  C10 ZIN A   1      -5.947  -2.856   1.834  0.00  0.00    -0.005 C 
ATOM      5  C12 ZIN A   1      -6.165  -4.012   2.811  0.00  0.00     0.006 C 
ATOM      6  C13 ZIN A   1      -7.324  -3.672   3.750  0.00  0.00     0.006 C 
ATOM      7  C14 ZIN A   1      -8.598  -3.450   2.932  0.00  0.00    -0.004 C 
ATOM      8  C16 ZIN A   1      -9.753  -3.103   3.873  0.00  0.00     0.039 C 
ATOM      9  C17 ZIN A   1     -11.028  -2.885   3.056  0.00  0.00     0.149 C 
ATOM     10  C20 ZIN A   1     -10.811  -1.736   2.069  0.00  0.00     0.217 C 
ATOM     11  C29 ZIN A   1      -9.655  -2.083   1.129  0.00  0.00     0.045 C 
ATOM     12  C30 ZIN A   1      -8.381  -2.300   1.947  0.00  0.00    -0.034 C 
ATOM     13  C31 ZIN A   1      -8.046  -1.022   2.718  0.00  0.00     0.016 C 
ATOM     14  C32 ZIN A   1      -7.219  -2.624   1.005  0.00  0.00    -0.002 C 
ATOM     15  C34 ZIN A   1      -7.038  -1.496  -0.006  0.00  0.00     0.007 C 
ATOM     16  C35 ZIN A   1      -5.816  -1.741  -0.907  0.00  0.00     0.012 C 
ATOM     17  C36 ZIN A   1      -4.595  -1.937  -0.028  0.00  0.00    -0.011 C 
ATOM     18  C37 ZIN A   1      -4.440  -0.743   0.916  0.00  0.00     0.018 C 
ATOM     19  C38 ZIN A   1      -3.263  -2.237  -0.710  0.00  0.00     0.171 C 
ENDROOT
BRANCH   1  20
ATOM     20  N4  ZIN A   1      -1.277  -2.433   0.751  0.00  0.00    -0.057 N 
ATOM     21  C47 ZIN A   1      -0.486  -3.331   1.613  0.00  0.00     0.238 C 
ATOM     22  C46 ZIN A   1       0.902  -3.488   0.957  0.00  0.00     0.030 C 
ATOM     23  C45 ZIN A   1       1.012  -2.223   0.065  0.00  0.00     0.030 C 
ATOM     24  C44 ZIN A   1      -0.451  -2.050  -0.413  0.00  0.00     0.238 C 
BRANCH  20  25
ATOM     25  C3  ZIN A   1      -1.656  -1.231   1.506  0.00  0.00     0.264 C 
BRANCH  25  26
ATOM     26  C2  ZIN A   1      -0.414  -0.472   1.897  0.00  0.00    -0.009 C 
ATOM     27  C1  ZIN A   1      -0.288   0.790   1.570  0.00  0.00     0.008 C 
ENDBRANCH  25  26
ENDBRANCH  20  25
ENDBRANCH   1  20
BRANCH  19  28
ATOM     28  O40 ZIN A   1      -2.515  -1.009  -0.915  0.00  0.00    -0.313 OA
BRANCH  28  29
ATOM     29  C41 ZIN A   1      -2.177  -0.705  -2.178  0.00  0.00     0.255 C 
ATOM     30  C42 ZIN A   1      -1.400   0.553  -2.467  0.00  0.00     0.126 C 
ATOM     31  O43 ZIN A   1      -2.496  -1.440  -3.082  0.00  0.00    -0.266 OA
ENDBRANCH  28  29
ENDBRANCH  19  28
BRANCH  10  32
ATOM     32  N22 ZIN A   1     -10.489  -0.509   2.809  0.00  0.00    -0.060 N 
ATOM     33  H23 ZIN A   1      -9.622  -0.637   3.311  0.00  0.00     0.280 HD
ATOM     34  C28 ZIN A   1     -10.349   0.609   1.867  0.00  0.00     0.261 C 
ATOM     35  C27 ZIN A   1     -10.013   1.887   2.641  0.00  0.00     0.195 C 
ATOM     36  O26 ZIN A   1     -11.038   2.137   3.606  0.00  0.00    -0.388 OA
ATOM     37  C25 ZIN A   1     -11.229   1.065   4.533  0.00  0.00     0.195 C 
ATOM     38  C24 ZIN A   1     -11.567  -0.214   3.762  0.00  0.00     0.261 C 
ENDBRANCH  10  32
BRANCH   9  39
ATOM     39  O19 ZIN A   1     -11.343  -4.079   2.336  0.00  0.00    -0.393 OA
ATOM     40  H61 ZIN A   1     -11.493  -4.850   2.899  0.00  0.00     0.210 HD
ENDBRANCH   9  39
TORSDOF 7
