REMARK  5 active torsions:
REMARK  status: ('A' for Active; 'I' for Inactive)
REMARK    1  A    between atoms: N2_2  and  C4_4 
REMARK    2  A    between atoms: N2_2  and  C15_15 
REMARK    3  A    between atoms: C4_4  and  C5_5 
REMARK    4  A    between atoms: C8_8  and  C9_9 
REMARK    5  A    between atoms: C15_15  and  C16_16 
ROOT
ATOM      1  C1  ZIN A   1      -0.191   1.544  -0.233  0.00  0.00     0.270 C 
ATOM      2  N2  ZIN A   1      -0.045   0.093  -0.056  0.00  0.00    -0.067 N 
ATOM      3  H3  ZIN A   1       0.528  -0.091   0.754  0.00  0.00     0.280 HD
ENDROOT
BRANCH   2   4
ATOM      4  C4  ZIN A   1       0.592  -0.484  -1.248  0.00  0.00     0.273 C 
BRANCH   4   5
ATOM      5  C5  ZIN A   1       1.997   0.046  -1.373  0.00  0.00    -0.033 A 
ATOM      6  C14 ZIN A   1       3.045  -0.626  -0.772  0.00  0.00     0.009 A 
ATOM      7  C13 ZIN A   1       4.334  -0.141  -0.889  0.00  0.00     0.008 A 
ATOM      8  C8  ZIN A   1       4.575   1.019  -1.601  0.00  0.00    -0.051 A 
ATOM      9  C7  ZIN A   1       3.526   1.693  -2.198  0.00  0.00     0.008 A 
ATOM     10  C6  ZIN A   1       2.237   1.207  -2.083  0.00  0.00     0.009 A 
BRANCH   8  11
ATOM     11  C9  ZIN A   1       5.980   1.548  -1.727  0.00  0.00    -0.024 C 
ATOM     12  C10 ZIN A   1       6.052   2.952  -1.122  0.00  0.00     0.019 C 
ATOM     13  C11 ZIN A   1       6.943   0.622  -0.981  0.00  0.00     0.019 C 
ATOM     14  C12 ZIN A   1       6.372   1.609  -3.204  0.00  0.00     0.019 C 
ENDBRANCH   8  11
ENDBRANCH   4   5
ENDBRANCH   2   4
BRANCH   2  15
ATOM     15  C15 ZIN A   1      -1.370  -0.513   0.133  0.00  0.00     0.274 C 
BRANCH  15  16
ATOM     16  C16 ZIN A   1      -1.965  -0.026   1.429  0.00  0.00    -0.021 A 
ATOM     17  C25 ZIN A   1      -2.961   0.902   1.419  0.00  0.00     0.010 A 
ATOM     18  C24 ZIN A   1      -3.526   1.360   2.607  0.00  0.00     0.002 A 
ATOM     19  C23 ZIN A   1      -3.093   0.901   3.812  0.00  0.00     0.012 A 
ATOM     20  C22 ZIN A   1      -2.062  -0.053   3.864  0.00  0.00    -0.025 A 
ATOM     21  C17 ZIN A   1      -1.490  -0.523   2.655  0.00  0.00    -0.018 A 
ATOM     22  C21 ZIN A   1      -1.588  -0.550   5.089  0.00  0.00     0.012 A 
ATOM     23  C18 ZIN A   1      -0.459  -1.477   2.706  0.00  0.00     0.013 A 
ATOM     24  C19 ZIN A   1      -0.025  -1.935   3.911  0.00  0.00     0.001 A 
ATOM     25  C20 ZIN A   1      -0.588  -1.473   5.100  0.00  0.00     0.001 A 
ENDBRANCH  15  16
ENDBRANCH   2  15
TORSDOF 5
