REMARK  7 active torsions:
REMARK  status: ('A' for Active; 'I' for Inactive)
REMARK    1  A    between atoms: C2_2  and  C5_5 
REMARK    2  A    between atoms: C7_7  and  C8_8 
REMARK    3  A    between atoms: C12_12  and  N13_13 
REMARK    4  A    between atoms: N13_13  and  S14_14 
REMARK    5  A    between atoms: S14_14  and  C17_17 
REMARK    6  A    between atoms: C27_27  and  C28_28 
REMARK    7  A    between atoms: C32_32  and  N33_33 
ROOT
ATOM      1  C8  ZIN A   1       3.778  -0.254  -3.028  0.00  0.00     0.035 A 
ATOM      2  C9  ZIN A   1       4.051  -0.013  -4.375  0.00  0.00     0.017 A 
ATOM      3  C10 ZIN A   1       5.337   0.285  -4.777  0.00  0.00     0.003 A 
ATOM      4  C11 ZIN A   1       6.360   0.346  -3.849  0.00  0.00     0.036 A 
ATOM      5  C12 ZIN A   1       6.100   0.109  -2.505  0.00  0.00     0.109 A 
ATOM      6  C25 ZIN A   1       4.808  -0.186  -2.090  0.00  0.00     0.158 A 
ATOM      7  F26 ZIN A   1       4.552  -0.418  -0.784  0.00  0.00    -0.203 F 
ENDROOT
BRANCH   1   8
ATOM      8  C7  ZIN A   1       2.398  -0.574  -2.595  0.00  0.00     0.090 A 
ATOM      9  N6  ZIN A   1       1.742   0.128  -1.688  0.00  0.00    -0.243 NA
ATOM     10  C5  ZIN A   1       0.546  -0.252  -1.396  0.00  0.00     0.084 A 
ATOM     11  S35 ZIN A   1       0.108  -1.635  -2.298  0.00  0.00    -0.069 SA
ATOM     12  C27 ZIN A   1       1.678  -1.631  -3.097  0.00  0.00     0.066 A 
BRANCH  10  13
ATOM     13  C2  ZIN A   1      -0.344   0.429  -0.389  0.00  0.00     0.000 C 
ATOM     14  C1  ZIN A   1      -0.586   1.877  -0.818  0.00  0.00     0.021 C 
ATOM     15  C3  ZIN A   1       0.331   0.410   0.984  0.00  0.00     0.021 C 
ATOM     16  C4  ZIN A   1      -1.682  -0.309  -0.309  0.00  0.00     0.021 C 
ENDBRANCH  10  13
BRANCH  12  17
ATOM     17  C28 ZIN A   1       2.138  -2.592  -4.116  0.00  0.00     0.097 A 
ATOM     18  N34 ZIN A   1       3.396  -2.560  -4.559  0.00  0.00    -0.062 NA
ATOM     19  C32 ZIN A   1       3.811  -3.426  -5.470  0.00  0.00     0.720 A 
ATOM     20  N31 ZIN A   1       3.000  -4.342  -5.981  0.00  0.00    -0.075 NA
ATOM     21  C30 ZIN A   1       1.736  -4.429  -5.592  0.00  0.00     0.139 A 
ATOM     22  C29 ZIN A   1       1.259  -3.550  -4.639  0.00  0.00     0.053 A 
BRANCH  19  23
ATOM     23  N33 ZIN A   1       5.123  -3.370  -5.905  0.00  0.00    -0.231 N 
ATOM     24  H53 ZIN A   1       5.420  -3.944  -6.628  0.00  0.00     0.174 HD
ATOM     25  H54 ZIN A   1       5.747  -2.756  -5.486  0.00  0.00     0.174 HD
ENDBRANCH  19  23
ENDBRANCH  12  17
ENDBRANCH   1   8
BRANCH   5  26
ATOM     26  N13 ZIN A   1       7.138   0.172  -1.569  0.00  0.00    -0.157 NA
BRANCH  26  27
ATOM     27  S14 ZIN A   1       8.678   0.530  -2.064  0.00  0.00     0.290 S 
ATOM     28  O15 ZIN A   1       9.105  -0.560  -2.869  0.00  0.00    -0.198 OA
ATOM     29  O16 ZIN A   1       8.648   1.874  -2.527  0.00  0.00    -0.198 OA
BRANCH  27  30
ATOM     30  C17 ZIN A   1       9.701   0.521  -0.630  0.00  0.00     0.158 A 
ATOM     31  C23 ZIN A   1      10.323  -0.650  -0.230  0.00  0.00     0.142 A 
ATOM     32  C22 ZIN A   1      11.132  -0.654   0.893  0.00  0.00     0.044 A 
ATOM     33  F24 ZIN A   1      10.149  -1.784  -0.943  0.00  0.00    -0.204 F 
ATOM     34  C21 ZIN A   1      11.310   0.506   1.623  0.00  0.00     0.006 A 
ATOM     35  C20 ZIN A   1      10.685   1.674   1.228  0.00  0.00     0.044 A 
ATOM     36  C18 ZIN A   1       9.880   1.683   0.101  0.00  0.00     0.142 A 
ATOM     37  F19 ZIN A   1       9.270   2.824  -0.284  0.00  0.00    -0.204 F 
ENDBRANCH  27  30
ENDBRANCH  26  27
ENDBRANCH   5  26
TORSDOF 7
