REMARK  8 active torsions:
REMARK  status: ('A' for Active; 'I' for Inactive)
REMARK    1  A    between atoms: C2_2  and  N3_3 
REMARK    2  A    between atoms: N3_3  and  C5_5 
REMARK    3  A    between atoms: N3_3  and  C7_7 
REMARK    4  A    between atoms: C7_7  and  C8_8 
REMARK    5  A    between atoms: C8_8  and  O9_9 
REMARK    6  A    between atoms: O9_9  and  C10_10 
REMARK    7  A    between atoms: C10_10  and  C12_12 
REMARK    8  A    between atoms: C12_12  and  C13_13 
ROOT
ATOM      1  C12 ZIN A   1       5.273  -2.085  -4.119  0.00  0.00     0.051 C 
ATOM      2  C19 ZIN A   1       5.445  -0.620  -3.710  0.00  0.00     0.020 C 
ATOM      3  C20 ZIN A   1       4.862  -0.409  -2.311  0.00  0.00     0.001 C 
ATOM      4  C21 ZIN A   1       5.595  -1.307  -1.312  0.00  0.00     0.000 C 
ATOM      5  C22 ZIN A   1       5.423  -2.771  -1.721  0.00  0.00     0.001 C 
ATOM      6  C23 ZIN A   1       6.006  -2.982  -3.120  0.00  0.00     0.020 C 
ENDROOT
BRANCH   1   7
ATOM      7  C10 ZIN A   1       3.807  -2.435  -4.127  0.00  0.00     0.268 C 
ATOM      8  O11 ZIN A   1       3.282  -2.812  -5.148  0.00  0.00    -0.264 OA
BRANCH   7   9
ATOM      9  O9  ZIN A   1       3.085  -2.329  -3.001  0.00  0.00    -0.319 OA
BRANCH   9  10
ATOM     10  C8  ZIN A   1       1.710  -2.790  -3.053  0.00  0.00     0.206 C 
BRANCH  10  11
ATOM     11  C7  ZIN A   1       1.018  -2.484  -1.724  0.00  0.00     0.261 C 
BRANCH  11  12
ATOM     12  N3  ZIN A   1       0.943  -1.029  -1.534  0.00  0.00    -0.070 N 
ATOM     13  H4  ZIN A   1       1.868  -0.632  -1.612  0.00  0.00     0.279 HD
BRANCH  12  14
ATOM     14  C2  ZIN A   1       0.072  -0.445  -2.563  0.00  0.00     0.230 C 
ATOM     15  C1  ZIN A   1       0.093   1.080  -2.444  0.00  0.00     0.034 C 
ENDBRANCH  12  14
BRANCH  12  16
ATOM     16  C5  ZIN A   1       0.395  -0.735  -0.204  0.00  0.00     0.230 C 
ATOM     17  C6  ZIN A   1       1.375  -1.214   0.869  0.00  0.00     0.034 C 
ENDBRANCH  12  16
ENDBRANCH  11  12
ENDBRANCH  10  11
ENDBRANCH   9  10
ENDBRANCH   7   9
ENDBRANCH   1   7
BRANCH   1  18
ATOM     18  C13 ZIN A   1       5.856  -2.296  -5.517  0.00  0.00     0.004 C 
ATOM     19  C18 ZIN A   1       5.123  -1.398  -6.516  0.00  0.00     0.006 C 
ATOM     20  C17 ZIN A   1       5.706  -1.609  -7.915  0.00  0.00     0.000 C 
ATOM     21  C16 ZIN A   1       5.534  -3.073  -8.324  0.00  0.00     0.000 C 
ATOM     22  C15 ZIN A   1       6.267  -3.971  -7.325  0.00  0.00     0.000 C 
ATOM     23  C14 ZIN A   1       5.684  -3.760  -5.926  0.00  0.00     0.006 C 
ENDBRANCH   1  18
TORSDOF 8
