REMARK  7 active torsions:
REMARK  status: ('A' for Active; 'I' for Inactive)
REMARK    1  A    between atoms: N1_1  and  C5_5 
REMARK    2  A    between atoms: C5_5  and  C7_6 
REMARK    3  A    between atoms: C5_5  and  C25_24 
REMARK    4  A    between atoms: C7_6  and  C8_7 
REMARK    5  A    between atoms: C12_11  and  O13_12 
REMARK    6  A    between atoms: O13_12  and  C14_13 
REMARK    7  A    between atoms: C17_16  and  O18_17 
ROOT
ATOM      1  C8  ZIN A   1       0.690   3.529   1.338  0.00  0.00    -0.053 A 
ATOM      2  C9  ZIN A   1       1.244   3.755   2.584  0.00  0.00     0.028 A 
ATOM      3  C10 ZIN A   1       2.536   4.232   2.691  0.00  0.00     0.042 A 
ATOM      4  I11 ZIN A   1       3.376   4.573   4.580  0.00  0.00    -0.042 I 
ATOM      5  C12 ZIN A   1       3.278   4.485   1.546  0.00  0.00     0.109 A 
ATOM      6  C22 ZIN A   1       2.719   4.258   0.296  0.00  0.00     0.042 A 
ATOM      7  I23 ZIN A   1       3.835   4.638  -1.437  0.00  0.00    -0.042 I 
ATOM      8  C24 ZIN A   1       1.428   3.776   0.195  0.00  0.00     0.028 A 
ENDROOT
BRANCH   5   9
ATOM      9  O13 ZIN A   1       4.550   4.955   1.648  0.00  0.00    -0.308 OA
BRANCH   9  10
ATOM     10  C14 ZIN A   1       5.561   4.048   1.715  0.00  0.00     0.077 A 
ATOM     11  C21 ZIN A   1       6.875   4.482   1.820  0.00  0.00     0.058 A 
ATOM     12  C19 ZIN A   1       7.902   3.561   1.893  0.00  0.00     0.042 A 
ATOM     13  C17 ZIN A   1       7.620   2.203   1.851  0.00  0.00     0.082 A 
ATOM     14  I20 ZIN A   1       9.885   4.215   2.058  0.00  0.00    -0.042 I 
ATOM     15  C16 ZIN A   1       6.307   1.770   1.741  0.00  0.00     0.040 A 
ATOM     16  C15 ZIN A   1       5.280   2.691   1.673  0.00  0.00     0.040 A 
BRANCH  13  17
ATOM     17  O18 ZIN A   1       8.632   1.296   1.919  0.00  0.00    -0.359 OA
ATOM     18  H33 ZIN A   1       8.994   1.046   1.057  0.00  0.00     0.217 HD
ENDBRANCH  13  17
ENDBRANCH   9  10
ENDBRANCH   5   9
BRANCH   1  19
ATOM     19  C7  ZIN A   1      -0.720   3.008   1.225  0.00  0.00     0.082 C 
BRANCH  19  20
ATOM     20  C5  ZIN A   1      -0.699   1.479   1.216  0.00  0.00     0.287 C 
BRANCH  20  21
ATOM     21  N1  ZIN A   1      -0.012   1.005   0.008  0.00  0.00    -0.065 N 
ATOM     22  H2  ZIN A   1       0.002  -0.004   0.002  0.00  0.00     0.275 HD
ATOM     23  H3  ZIN A   1       0.935   1.354   0.000  0.00  0.00     0.275 HD
ATOM     24  H4  ZIN A   1      -0.500   1.339  -0.810  0.00  0.00     0.275 HD
ENDBRANCH  20  21
BRANCH  20  25
ATOM     25  C25 ZIN A   1      -2.113   0.957   1.227  0.00  0.00     0.204 C 
ATOM     26  O26 ZIN A   1      -2.511   0.256   0.312  0.00  0.00    -0.646 OA
ATOM     27  O27 ZIN A   1      -2.859   1.236   2.150  0.00  0.00    -0.646 OA
ENDBRANCH  20  25
ENDBRANCH  19  20
ENDBRANCH   1  19
TORSDOF 7
