REMARK  4 active torsions:
REMARK  status: ('A' for Active; 'I' for Inactive)
REMARK    1  A    between atoms: C2_2  and  C3_3 
REMARK    2  A    between atoms: C3_3  and  N4_4 
REMARK       I    between atoms: N4_4  and  C5_5 
REMARK       I    between atoms: C5_5  and  N7_7 
REMARK    3  A    between atoms: N7_7  and  S8_8 
REMARK    4  A    between atoms: S8_8  and  C11_11 
ROOT
ATOM      1  S8  ZIN A   1      -3.976  -4.883   0.014  0.00  0.00     0.287 S 
ATOM      2  O9  ZIN A   1      -4.587  -4.628   1.271  0.00  0.00    -0.198 OA
ATOM      3  O10 ZIN A   1      -4.611  -4.614  -1.228  0.00  0.00    -0.198 OA
ENDROOT
BRANCH   1   4
ATOM      4  N7  ZIN A   1      -2.553  -4.036   0.005  0.00  0.00    -0.102 NA
ATOM      5  C5  ZIN A   1      -2.571  -2.688   0.012  0.00  0.00     0.352 C 
ATOM      6  N4  ZIN A   1      -1.413  -1.998   0.005  0.00  0.00    -0.341 N 
ATOM      7  O6  ZIN A   1      -3.632  -2.095   0.025  0.00  0.00    -0.244 OA
ATOM      8  H25 ZIN A   1      -0.567  -2.472  -0.006  0.00  0.00     0.164 HD
BRANCH   6   9
ATOM      9  C3  ZIN A   1      -1.433  -0.534   0.013  0.00  0.00     0.124 C 
BRANCH   9  10
ATOM     10  C2  ZIN A   1       0.002  -0.004   0.002  0.00  0.00     0.015 C 
ATOM     11  C1  ZIN A   1      -0.019   1.526   0.010  0.00  0.00     0.006 C 
ENDBRANCH   9  10
ENDBRANCH   6   9
ENDBRANCH   1   4
BRANCH   1  12
ATOM     12  C11 ZIN A   1      -3.563  -6.596   0.001  0.00  0.00     0.082 A 
ATOM     13  C17 ZIN A   1      -3.389  -7.274   1.193  0.00  0.00     0.027 A 
ATOM     14  C16 ZIN A   1      -3.071  -8.619   1.183  0.00  0.00     0.025 A 
ATOM     15  C14 ZIN A   1      -2.914  -9.284  -0.020  0.00  0.00     0.034 A 
ATOM     16  C13 ZIN A   1      -3.083  -8.604  -1.213  0.00  0.00     0.025 A 
ATOM     17 Cl15 ZIN A   1      -2.507 -10.972  -0.033  0.00  0.00    -0.084 Cl
ATOM     18  C12 ZIN A   1      -3.407  -7.260  -1.202  0.00  0.00     0.027 A 
ENDBRANCH   1  12
TORSDOF 4
