REMARK  19 active torsions:
REMARK  status: ('A' for Active; 'I' for Inactive)
REMARK    1  A    between atoms: S2_2  and  C3_3 
REMARK    2  A    between atoms: C3_3  and  C4_4 
REMARK    3  A    between atoms: C4_4  and  N5_5 
REMARK    4  A    between atoms: N5_5  and  C6_6 
REMARK    5  A    between atoms: N10_10  and  C11_11 
REMARK    6  A    between atoms: C14_13  and  C16_14 
REMARK    7  A    between atoms: C16_14  and  O17_15 
REMARK    8  A    between atoms: O17_15  and  P18_16 
REMARK    9  A    between atoms: P18_16  and  O21_19 
REMARK   10  A    between atoms: O21_19  and  P22_20 
REMARK   11  A    between atoms: P22_20  and  C25_23 
REMARK   12  A    between atoms: C25_23  and  P28_26 
REMARK   13  A    between atoms: P28_26  and  O31_29 
REMARK   14  A    between atoms: C32_30  and  O34_31 
REMARK   15  A    between atoms: C35_32  and  O37_33 
REMARK   16  A    between atoms: C40_36  and  S41_37 
REMARK   17  A    between atoms: S41_37  and  C42_38 
REMARK   18  A    between atoms: C42_38  and  C43_39 
REMARK   19  A    between atoms: C43_39  and  C44_40 
ROOT
ATOM      1  C11 ZIN A   1      -7.609  -6.618   0.025  0.00  0.00     0.262 C 
ATOM      2  O13 ZIN A   1      -8.939  -6.332  -0.460  0.00  0.00    -0.353 OA
ATOM      3  C14 ZIN A   1      -9.798  -7.375   0.029  0.00  0.00     0.180 C 
ATOM      4  C32 ZIN A   1      -9.165  -7.920   1.325  0.00  0.00     0.182 C 
ATOM      5  C35 ZIN A   1      -7.849  -7.116   1.473  0.00  0.00     0.198 C 
ENDROOT
BRANCH   1   6
ATOM      6  N10 ZIN A   1      -6.788  -5.404   0.026  0.00  0.00    -0.294 N 
ATOM      7  C9  ZIN A   1      -7.247  -4.119   0.034  0.00  0.00     0.214 A 
ATOM      8  N8  ZIN A   1      -6.244  -3.290   0.032  0.00  0.00    -0.236 NA
ATOM      9  C7  ZIN A   1      -5.082  -3.988   0.023  0.00  0.00     0.149 A 
ATOM     10  C6  ZIN A   1      -3.721  -3.636   0.018  0.00  0.00     0.159 A 
ATOM     11  C38 ZIN A   1      -5.417  -5.352   0.019  0.00  0.00     0.168 A 
ATOM     12  N48 ZIN A   1      -2.814  -4.606   0.004  0.00  0.00    -0.203 NA
ATOM     13  C40 ZIN A   1      -3.175  -5.884   0.006  0.00  0.00     0.192 A 
ATOM     14  N39 ZIN A   1      -4.445  -6.258   0.011  0.00  0.00    -0.202 NA
BRANCH  10  15
ATOM     15  N5  ZIN A   1      -3.334  -2.308   0.021  0.00  0.00    -0.372 N 
ATOM     16  H56 ZIN A   1      -4.005  -1.607   0.032  0.00  0.00     0.161 HD
BRANCH  15  17
ATOM     17  C4  ZIN A   1      -1.911  -1.959   0.010  0.00  0.00     0.131 C 
BRANCH  17  18
ATOM     18  C3  ZIN A   1      -1.760  -0.436   0.017  0.00  0.00     0.093 C 
BRANCH  18  19
ATOM     19  S2  ZIN A   1       0.002  -0.004   0.002  0.00  0.00    -0.172 SA
ATOM     20  C1  ZIN A   1      -0.022   1.810   0.012  0.00  0.00     0.089 C 
ENDBRANCH  18  19
ENDBRANCH  17  18
ENDBRANCH  15  17
ENDBRANCH  10  15
BRANCH  13  21
ATOM     21  S41 ZIN A   1      -1.923  -7.123  -0.006  0.00  0.00    -0.090 SA
BRANCH  21  22
ATOM     22  C42 ZIN A   1      -0.446  -6.077  -0.010  0.00  0.00     0.091 C 
BRANCH  22  23
ATOM     23  C43 ZIN A   1       0.804  -6.959  -0.020  0.00  0.00     0.128 C 
BRANCH  23  24
ATOM     24  C44 ZIN A   1       2.053  -6.074  -0.023  0.00  0.00     0.388 C 
ATOM     25  F45 ZIN A   1       2.058  -5.272   1.123  0.00  0.00    -0.171 F 
ATOM     26  F46 ZIN A   1       3.195  -6.881  -0.033  0.00  0.00    -0.171 F 
ATOM     27  F47 ZIN A   1       2.046  -5.262  -1.162  0.00  0.00    -0.171 F 
ENDBRANCH  23  24
ENDBRANCH  22  23
ENDBRANCH  21  22
ENDBRANCH  13  21
ENDBRANCH   1   6
BRANCH   5  28
ATOM     28  O37 ZIN A   1      -6.782  -7.961   1.911  0.00  0.00    -0.388 OA
ATOM     29  H62 ZIN A   1      -6.931  -8.367   2.776  0.00  0.00     0.210 HD
ENDBRANCH   5  28
BRANCH   4  30
ATOM     30  O34 ZIN A   1      -8.887  -9.316   1.197  0.00  0.00    -0.390 OA
ATOM     31  H61 ZIN A   1      -8.488  -9.710   1.984  0.00  0.00     0.210 HD
ENDBRANCH   4  30
BRANCH   3  32
ATOM     32  C16 ZIN A   1     -11.189  -6.810   0.323  0.00  0.00     0.216 C 
BRANCH  32  33
ATOM     33  O17 ZIN A   1     -11.805  -6.401  -0.900  0.00  0.00    -0.287 OA
BRANCH  33  34
ATOM     34  P18 ZIN A   1     -13.279  -5.758  -0.967  0.00  0.00     0.416 P 
ATOM     35  O19 ZIN A   1     -14.288  -6.709  -0.285  0.00  0.00    -0.624 OA
ATOM     36  O20 ZIN A   1     -13.280  -4.396  -0.236  0.00  0.00    -0.624 OA
BRANCH  34  37
ATOM     37  O21 ZIN A   1     -13.701  -5.541  -2.505  0.00  0.00    -0.201 OA
BRANCH  37  38
ATOM     38  P22 ZIN A   1     -15.097  -5.244  -3.251  0.00  0.00     0.312 P 
ATOM     39  O23 ZIN A   1     -15.688  -3.916  -2.728  0.00  0.00    -0.644 OA
ATOM     40  O24 ZIN A   1     -16.087  -6.396  -2.968  0.00  0.00    -0.644 OA
BRANCH  38  41
ATOM     41  C25 ZIN A   1     -14.811  -5.117  -5.047  0.00  0.00     0.321 C 
ATOM     42 Cl26 ZIN A   1     -13.655  -3.773  -5.378  0.00  0.00    -0.074 Cl
ATOM     43 Cl27 ZIN A   1     -14.121  -6.667  -5.657  0.00  0.00    -0.074 Cl
BRANCH  41  44
ATOM     44  P28 ZIN A   1     -16.391  -4.781  -5.892  0.00  0.00     0.301 P 
ATOM     45  O29 ZIN A   1     -16.982  -3.453  -5.369  0.00  0.00    -0.644 OA
ATOM     46  O30 ZIN A   1     -17.381  -5.932  -5.608  0.00  0.00    -0.644 OA
BRANCH  44  47
ATOM     47  O31 ZIN A   1     -16.138  -4.669  -7.478  0.00  0.00    -0.320 OA
ATOM     48  H60 ZIN A   1     -16.938  -4.490  -7.992  0.00  0.00     0.221 HD
ENDBRANCH  44  47
ENDBRANCH  41  44
ENDBRANCH  38  41
ENDBRANCH  37  38
ENDBRANCH  34  37
ENDBRANCH  33  34
ENDBRANCH  32  33
ENDBRANCH   3  32
TORSDOF 19
