REMARK  7 active torsions:
REMARK  status: ('A' for Active; 'I' for Inactive)
REMARK    1  A    between atoms: C8_8  and  O9_9 
REMARK    2  A    between atoms: O9_9  and  C10_10 
REMARK    3  A    between atoms: C10_10  and  C11_11 
REMARK    4  A    between atoms: C11_11  and  C12_12 
REMARK    5  A    between atoms: C12_12  and  C13_13 
REMARK    6  A    between atoms: C13_13  and  N14_14 
REMARK    7  A    between atoms: N18_18  and  C19_19 
ROOT
ATOM      1  C12 ZIN A   1       4.552   9.619  -1.075  0.00  0.00     0.030 C 
ENDROOT
BRANCH   1   2
ATOM      2  C11 ZIN A   1       4.633   8.093  -1.135  0.00  0.00     0.028 C 
BRANCH   2   3
ATOM      3  C10 ZIN A   1       3.304   7.494  -0.669  0.00  0.00     0.175 C 
BRANCH   3   4
ATOM      4  O9  ZIN A   1       3.379   6.068  -0.725  0.00  0.00    -0.351 OA
BRANCH   4   5
ATOM      5  C8  ZIN A   1       2.274   5.376  -0.342  0.00  0.00     0.070 A 
ATOM      6  C7  ZIN A   1       1.140   6.057   0.079  0.00  0.00     0.037 A 
ATOM      7  C6  ZIN A   1       0.015   5.356   0.470  0.00  0.00     0.012 A 
ATOM      8  C5  ZIN A   1       0.016   3.975   0.442  0.00  0.00    -0.031 A 
ATOM      9  C4  ZIN A   1      -1.211   3.209   0.867  0.00  0.00     0.050 C 
ATOM     10  C30 ZIN A   1       1.148   3.288   0.022  0.00  0.00     0.043 A 
ATOM     11  C3  ZIN A   1      -1.333   1.935   0.031  0.00  0.00     0.108 C 
ATOM     12  C2  ZIN A   1      -0.014   1.209   0.009  0.00  0.00     0.222 C 
ATOM     13  O1  ZIN A   1       0.002  -0.004   0.002  0.00  0.00    -0.273 OA
ATOM     14  N31 ZIN A   1       1.146   1.890   0.001  0.00  0.00    -0.327 N 
ATOM     15  H58 ZIN A   1       1.987   1.407  -0.022  0.00  0.00     0.169 HD
ATOM     16  C29 ZIN A   1       2.278   3.990  -0.371  0.00  0.00     0.066 A 
ENDBRANCH   4   5
ENDBRANCH   3   4
ENDBRANCH   2   3
ENDBRANCH   1   2
BRANCH   1  17
ATOM     17  C13 ZIN A   1       5.881  10.219  -1.541  0.00  0.00     0.235 C 
BRANCH  17  18
ATOM     18  N14 ZIN A   1       5.804  11.684  -1.484  0.00  0.00    -0.069 N 
ATOM     19  H15 ZIN A   1       5.010  12.001  -2.020  0.00  0.00     0.280 HD
ATOM     20  C28 ZIN A   1       5.652  12.112  -0.087  0.00  0.00     0.249 C 
ATOM     21  C27 ZIN A   1       5.552  13.638  -0.028  0.00  0.00     0.123 C 
ATOM     22  N18 ZIN A   1       6.767  14.228  -0.610  0.00  0.00    -0.279 NA
ATOM     23  C17 ZIN A   1       6.946  13.789  -2.001  0.00  0.00     0.123 C 
ATOM     24  C16 ZIN A   1       7.034  12.261  -2.043  0.00  0.00     0.249 C 
BRANCH  22  25
ATOM     25  C19 ZIN A   1       6.736  15.622  -0.525  0.00  0.00     0.034 A 
ATOM     26  C25 ZIN A   1       7.681  16.294   0.241  0.00  0.00     0.077 A 
ATOM     27  C23 ZIN A   1       7.652  17.675   0.318  0.00  0.00     0.057 A 
ATOM     28 Cl26 ZIN A   1       8.906  15.403   1.090  0.00  0.00    -0.081 Cl
ATOM     29  C22 ZIN A   1       6.675  18.385  -0.358  0.00  0.00     0.026 A 
ATOM     30 Cl24 ZIN A   1       8.835  18.517   1.268  0.00  0.00    -0.082 Cl
ATOM     31  C21 ZIN A   1       5.730  17.718  -1.116  0.00  0.00     0.004 A 
ATOM     32  C20 ZIN A   1       5.758  16.339  -1.202  0.00  0.00     0.025 A 
ENDBRANCH  22  25
ENDBRANCH  17  18
ENDBRANCH   1  17
TORSDOF 7
