REMARK  16 active torsions:
REMARK  status: ('A' for Active; 'I' for Inactive)
REMARK    1  A    between atoms: C2_2  and  C3_3 
REMARK    2  A    between atoms: C3_3  and  C4_4 
REMARK    3  A    between atoms: C4_4  and  C5_5 
REMARK    4  A    between atoms: C5_5  and  O7_7 
REMARK    5  A    between atoms: O7_7  and  C8_8 
REMARK    6  A    between atoms: C8_8  and  C9_9 
REMARK    7  A    between atoms: C9_9  and  C11_11 
REMARK    8  A    between atoms: C11_11  and  O12_12 
REMARK    9  A    between atoms: C15_15  and  O16_16 
REMARK   10  A    between atoms: C22_22  and  O23_23 
REMARK   11  A    between atoms: C31_31  and  O32_32 
REMARK   12  A    between atoms: C34_34  and  O36_35 
REMARK   13  A    between atoms: O36_35  and  C37_36 
REMARK   14  A    between atoms: C40_38  and  N42_39 
REMARK       I    between atoms: N42_39  and  C43_40 
REMARK   15  A    between atoms: C43_40  and  C45_42 
REMARK   16  A    between atoms: C49_46  and  O51_47 
ROOT
ATOM      1  C11 ZIN A   1      -6.000  -6.430   0.186  0.00  0.00     0.127 C 
ATOM      2  C13 ZIN A   1      -6.414  -6.840   1.597  0.00  0.00     0.088 C 
ATOM      3  C14 ZIN A   1      -5.543  -7.961   2.103  0.00  0.00    -0.009 A 
ATOM      4  C15 ZIN A   1      -5.533  -8.193   3.486  0.00  0.00     0.088 A 
ATOM      5  C17 ZIN A   1      -4.756  -9.217   4.023  0.00  0.00     0.066 A 
ATOM      6  C18 ZIN A   1      -3.978 -10.021   3.163  0.00  0.00     0.066 A 
ATOM      7  C19 ZIN A   1      -3.158 -11.110   3.726  0.00  0.00     0.200 C 
ATOM      8  O20 ZIN A   1      -2.301 -11.646   3.050  0.00  0.00    -0.286 OA
ATOM      9  C21 ZIN A   1      -3.390 -11.540   5.118  0.00  0.00     0.062 A 
ATOM     10  C22 ZIN A   1      -2.849 -12.738   5.592  0.00  0.00     0.083 A 
ATOM     11  C25 ZIN A   1      -3.081 -13.124   6.909  0.00  0.00     0.038 A 
ATOM     12  C26 ZIN A   1      -3.840 -12.333   7.746  0.00  0.00     0.004 A 
ATOM     13  C27 ZIN A   1      -4.383 -11.142   7.289  0.00  0.00     0.017 A 
ATOM     14  C28 ZIN A   1      -4.165 -10.738   5.978  0.00  0.00     0.032 A 
ATOM     15  C29 ZIN A   1      -4.740  -9.471   5.475  0.00  0.00     0.197 C 
ATOM     16  O30 ZIN A   1      -5.192  -8.650   6.249  0.00  0.00    -0.286 OA
ATOM     17  C31 ZIN A   1      -3.997  -9.774   1.794  0.00  0.00     0.090 A 
ATOM     18  C33 ZIN A   1      -4.782  -8.739   1.268  0.00  0.00     0.014 A 
ATOM     19  C34 ZIN A   1      -4.739  -8.527  -0.223  0.00  0.00     0.164 C 
ATOM     20  C56 ZIN A   1      -5.931  -7.691  -0.683  0.00  0.00     0.083 C 
ENDROOT
BRANCH  19  21
ATOM     21  O36 ZIN A   1      -4.771  -9.795  -0.880  0.00  0.00    -0.351 OA
BRANCH  21  22
ATOM     22  C37 ZIN A   1      -3.997  -9.848  -2.080  0.00  0.00     0.263 C 
ATOM     23  O55 ZIN A   1      -4.664  -9.118  -3.111  0.00  0.00    -0.354 OA
ATOM     24  C52 ZIN A   1      -5.976  -9.598  -3.411  0.00  0.00     0.151 C 
ATOM     25  C49 ZIN A   1      -5.889 -11.046  -3.900  0.00  0.00     0.171 C 
ATOM     26  C54 ZIN A   1      -6.602  -8.727  -4.502  0.00  0.00     0.042 C 
ATOM     27  C40 ZIN A   1      -5.208 -11.899  -2.825  0.00  0.00     0.147 C 
ATOM     28  C39 ZIN A   1      -3.830 -11.307  -2.516  0.00  0.00     0.090 C 
BRANCH  25  29
ATOM     29  O51 ZIN A   1      -5.126 -11.098  -5.107  0.00  0.00    -0.391 OA
ATOM     30  H81 ZIN A   1      -5.500 -10.579  -5.832  0.00  0.00     0.210 HD
ENDBRANCH  25  29
BRANCH  27  31
ATOM     31  N42 ZIN A   1      -5.053 -13.272  -3.313  0.00  0.00    -0.240 NA
ATOM     32  C43 ZIN A   1      -4.467 -14.202  -2.533  0.00  0.00     0.346 C 
ATOM     33  O44 ZIN A   1      -4.069 -13.903  -1.428  0.00  0.00    -0.261 OA
BRANCH  32  34
ATOM     34  C45 ZIN A   1      -4.307 -15.614  -3.035  0.00  0.00     0.474 C 
ATOM     35  F46 ZIN A   1      -3.677 -16.389  -2.055  0.00  0.00    -0.162 F 
ATOM     36  F47 ZIN A   1      -5.567 -16.154  -3.318  0.00  0.00    -0.162 F 
ATOM     37  F48 ZIN A   1      -3.530 -15.611  -4.198  0.00  0.00    -0.162 F 
ENDBRANCH  32  34
ENDBRANCH  27  31
ENDBRANCH  21  22
ENDBRANCH  19  21
BRANCH  17  38
ATOM     38  O32 ZIN A   1      -3.250 -10.542   0.961  0.00  0.00    -0.359 OA
ATOM     39  H78 ZIN A   1      -3.729 -11.290   0.581  0.00  0.00     0.217 HD
ENDBRANCH  17  38
BRANCH   1  40
ATOM     40  C9  ZIN A   1      -4.647  -5.767   0.226  0.00  0.00     0.185 C 
ATOM     41  O10 ZIN A   1      -3.893  -5.989   1.143  0.00  0.00    -0.292 OA
BRANCH  40  42
ATOM     42  C8  ZIN A   1      -4.236  -4.827  -0.877  0.00  0.00     0.260 C 
BRANCH  42  43
ATOM     43  O7  ZIN A   1      -2.901  -4.322  -0.611  0.00  0.00    -0.314 OA
BRANCH  43  44
ATOM     44  C5  ZIN A   1      -2.383  -3.466  -1.505  0.00  0.00     0.259 C 
ATOM     45  O6  ZIN A   1      -3.024  -3.148  -2.479  0.00  0.00    -0.265 OA
BRANCH  44  46
ATOM     46  C4  ZIN A   1      -1.002  -2.901  -1.295  0.00  0.00     0.111 C 
BRANCH  46  47
ATOM     47  C3  ZIN A   1      -0.655  -1.959  -2.451  0.00  0.00     0.009 C 
BRANCH  47  48
ATOM     48  C2  ZIN A   1       0.747  -1.385  -2.237  0.00  0.00    -0.004 C 
ATOM     49  C1  ZIN A   1       1.094  -0.444  -3.393  0.00  0.00     0.005 C 
ENDBRANCH  47  48
ENDBRANCH  46  47
ENDBRANCH  44  46
ENDBRANCH  43  44
ENDBRANCH  42  43
ENDBRANCH  40  42
ENDBRANCH   1  40
BRANCH   1  50
ATOM     50  O12 ZIN A   1      -6.964  -5.524  -0.356  0.00  0.00    -0.382 OA
ATOM     51  H68 ZIN A   1      -7.064  -4.707   0.151  0.00  0.00     0.211 HD
ENDBRANCH   1  50
BRANCH   4  52
ATOM     52  O16 ZIN A   1      -6.284  -7.417   4.305  0.00  0.00    -0.359 OA
ATOM     53  H71 ZIN A   1      -7.179  -7.752   4.454  0.00  0.00     0.217 HD
ENDBRANCH   4  52
BRANCH  10  54
ATOM     54  O23 ZIN A   1      -2.101 -13.519   4.774  0.00  0.00    -0.355 OA
ATOM     55  C24 ZIN A   1      -1.581 -14.729   5.329  0.00  0.00     0.210 C 
ENDBRANCH  10  54
TORSDOF 16
