REMARK  8 active torsions:
REMARK  status: ('A' for Active; 'I' for Inactive)
REMARK       I    between atoms: C2_2  and  N3_3 
REMARK    1  A    between atoms: C2_2  and  C20_18 
REMARK    2  A    between atoms: N3_3  and  C4_4 
REMARK    3  A    between atoms: C4_4  and  C6_5 
REMARK    4  A    between atoms: C4_4  and  C8_7 
REMARK    5  A    between atoms: C6_5  and  O7_6 
REMARK    6  A    between atoms: C8_7  and  O10_8 
REMARK    7  A    between atoms: C8_7  and  C11_9 
REMARK    8  A    between atoms: C14_12  and  N15_13 
ROOT
ATOM      1  C8  ZIN A   1      -2.376   0.792  -0.592  0.00  0.00     0.176 C 
ENDROOT
BRANCH   1   2
ATOM      2  C4  ZIN A   1      -1.290   1.681   0.017  0.00  0.00     0.141 C 
BRANCH   2   3
ATOM      3  N3  ZIN A   1      -0.011   0.966   0.007  0.00  0.00    -0.349 N 
ATOM      4  C2  ZIN A   1       1.147   1.655  -0.000  0.00  0.00     0.251 C 
ATOM      5  O1  ZIN A   1       1.130   2.868   0.007  0.00  0.00    -0.271 OA
ATOM      6  H23 ZIN A   1       0.002  -0.004   0.002  0.00  0.00     0.163 HD
BRANCH   4   7
ATOM      7  C20 ZIN A   1       2.462   0.920  -0.017  0.00  0.00     0.269 C 
ATOM      8 Cl21 ZIN A   1       2.497  -0.217  -1.415  0.00  0.00    -0.098 Cl
ATOM      9 Cl22 ZIN A   1       3.812   2.105  -0.171  0.00  0.00    -0.098 Cl
ENDBRANCH   4   7
ENDBRANCH   2   3
BRANCH   2  10
ATOM     10  C6  ZIN A   1      -1.667   2.032   1.458  0.00  0.00     0.192 C 
BRANCH  10  11
ATOM     11  O7  ZIN A   1      -1.900   0.830   2.196  0.00  0.00    -0.399 OA
ATOM     12  H26 ZIN A   1      -2.144   0.977   3.120  0.00  0.00     0.209 HD
ENDBRANCH  10  11
ENDBRANCH   2  10
ENDBRANCH   1   2
BRANCH   1  13
ATOM     13  O10 ZIN A   1      -2.577  -0.352   0.239  0.00  0.00    -0.389 OA
ATOM     14  H27 ZIN A   1      -1.788  -0.901   0.350  0.00  0.00     0.210 HD
ENDBRANCH   1  13
BRANCH   1  15
ATOM     15  C11 ZIN A   1      -1.948   0.346  -1.966  0.00  0.00    -0.028 A 
ATOM     16  C19 ZIN A   1      -2.361   1.050  -3.082  0.00  0.00     0.012 A 
ATOM     17  C18 ZIN A   1      -1.968   0.641  -4.342  0.00  0.00     0.037 A 
ATOM     18  C14 ZIN A   1      -1.161  -0.472  -4.487  0.00  0.00     0.102 A 
ATOM     19  C13 ZIN A   1      -0.747  -1.176  -3.372  0.00  0.00     0.037 A 
ATOM     20  C12 ZIN A   1      -1.137  -0.764  -2.111  0.00  0.00     0.012 A 
BRANCH  18  21
ATOM     21  N15 ZIN A   1      -0.741  -0.910  -5.837  0.00  0.00    -0.116 N 
ATOM     22  O16 ZIN A   1      -1.105  -0.290  -6.820  0.00  0.00    -0.532 OA
ATOM     23  O17 ZIN A   1      -0.029  -1.890  -5.965  0.00  0.00    -0.532 OA
ENDBRANCH  18  21
ENDBRANCH   1  15
TORSDOF 8
