REMARK  4 active torsions:
REMARK  status: ('A' for Active; 'I' for Inactive)
REMARK    1  A    between atoms: C2_2  and  C3_3 
REMARK    2  A    between atoms: C3_3  and  N4_4 
REMARK    3  A    between atoms: C10_10  and  C12_11 
REMARK       I    between atoms: C12_11  and  N14_13 
REMARK    4  A    between atoms: N14_13  and  C15_14 
ROOT
ATOM      1  C12 ZIN A   1       3.077  -2.603   2.385  0.00  0.00     0.253 C 
ATOM      2  O13 ZIN A   1       3.769  -2.412   1.407  0.00  0.00    -0.271 OA
ATOM      3  N14 ZIN A   1       3.561  -2.338   3.615  0.00  0.00    -0.324 N 
ATOM      4  H38 ZIN A   1       3.024  -2.532   4.399  0.00  0.00     0.169 HD
ENDROOT
BRANCH   1   5
ATOM      5  C10 ZIN A   1       1.677  -3.136   2.224  0.00  0.00     0.279 C 
ATOM      6  N4  ZIN A   1       1.416  -3.410   0.806  0.00  0.00    -0.058 N 
ATOM      7  H5  ZIN A   1       0.496  -3.814   0.707  0.00  0.00     0.280 HD
ATOM      8  C6  ZIN A   1       2.420  -4.348   0.289  0.00  0.00     0.236 C 
ATOM      9  C7  ZIN A   1       2.300  -5.685   1.023  0.00  0.00     0.028 C 
ATOM     10  C8  ZIN A   1       2.532  -5.461   2.521  0.00  0.00     0.004 C 
ATOM     11  C9  ZIN A   1       1.527  -4.426   3.034  0.00  0.00     0.043 C 
BRANCH   6  12
ATOM     12  C3  ZIN A   1       1.482  -2.155   0.046  0.00  0.00     0.235 C 
BRANCH  12  13
ATOM     13  C2  ZIN A   1       1.085  -2.418  -1.408  0.00  0.00     0.023 C 
ATOM     14  C1  ZIN A   1       1.154  -1.111  -2.200  0.00  0.00     0.007 C 
ENDBRANCH  12  13
ENDBRANCH   6  12
ENDBRANCH   1   5
BRANCH   3  15
ATOM     15  C15 ZIN A   1       4.837  -1.782   3.760  0.00  0.00     0.046 A 
ATOM     16  C21 ZIN A   1       5.209  -0.684   2.996  0.00  0.00    -0.035 A 
ATOM     17  C20 ZIN A   1       6.467  -0.134   3.147  0.00  0.00     0.009 A 
ATOM     18  C22 ZIN A   1       4.236  -0.083   2.014  0.00  0.00     0.050 C 
ATOM     19  C19 ZIN A   1       7.360  -0.684   4.047  0.00  0.00     0.001 A 
ATOM     20  C18 ZIN A   1       6.995  -1.782   4.805  0.00  0.00     0.009 A 
ATOM     21  C16 ZIN A   1       5.736  -2.333   4.664  0.00  0.00    -0.035 A 
ATOM     22  C17 ZIN A   1       5.339  -3.529   5.490  0.00  0.00     0.050 C 
ENDBRANCH   3  15
TORSDOF 4
