REMARK  5 active torsions:
REMARK  status: ('A' for Active; 'I' for Inactive)
REMARK    1  A    between atoms: N16_12  and  C17_13 
REMARK    2  A    between atoms: C17_13  and  C18_14 
REMARK    3  A    between atoms: C24_19  and  C26_20 
REMARK    4  A    between atoms: C26_20  and  N27_21 
REMARK    5  A    between atoms: N31_25  and  C32_26 
ROOT
ATOM      1  C18 RES d   1       2.916   1.112   1.757  0.00  0.00     0.010 C 
ATOM      2  C20 RES d   1       3.037   2.395   2.581  0.00  0.00     0.007 C 
ATOM      3  C21 RES d   1       3.674   2.074   3.934  0.00  0.00     0.000 C 
ATOM      4  C22 RES d   1       5.065   1.476   3.714  0.00  0.00     0.000 C 
ATOM      5  C23 RES d   1       4.944   0.192   2.890  0.00  0.00     0.007 C 
ATOM      6  C24 RES d   1       4.306   0.514   1.536  0.00  0.00     0.017 C 
ENDROOT
BRANCH   6   7
ATOM      7  C26 RES d   1       4.185  -0.769   0.712  0.00  0.00     0.240 C 
BRANCH   7   8
ATOM      8  N27 RES d   1       5.524  -1.323   0.468  0.00  0.00    -0.068 N 
ATOM      9  H28 RES d   1       5.948  -1.574   1.348  0.00  0.00     0.280 HD
ATOM     10  C42 RES d   1       5.410  -2.519  -0.377  0.00  0.00     0.254 C 
ATOM     11  C41 RES d   1       6.791  -3.163  -0.536  0.00  0.00     0.152 C 
ATOM     12  N31 RES d   1       7.723  -2.146  -1.048  0.00  0.00    -0.361 N 
ATOM     13  C30 RES d   1       7.781  -0.849  -0.356  0.00  0.00     0.152 C 
ATOM     14  C29 RES d   1       6.353  -0.315  -0.204  0.00  0.00     0.254 C 
BRANCH  12  15
ATOM     15  C32 RES d   1       8.528  -2.405  -2.158  0.00  0.00     0.145 A 
ATOM     16  C40 RES d   1       9.809  -3.079  -2.019  0.00  0.00     0.029 A 
ATOM     17  C35 RES d   1      10.446  -3.239  -3.264  0.00  0.00     0.037 A 
ATOM     18  C39 RES d   1      10.459  -3.585  -0.875  0.00  0.00     0.017 A 
ATOM     19  S34 RES d   1       9.361  -2.510  -4.451  0.00  0.00     0.014 SA
ATOM     20  C36 RES d   1      11.682  -3.864  -3.358  0.00  0.00     0.021 A 
ATOM     21  N33 RES d   1       8.164  -2.048  -3.345  0.00  0.00    -0.192 NA
ATOM     22  C37 RES d   1      12.292  -4.341  -2.220  0.00  0.00     0.001 A 
ATOM     23  C38 RES d   1      11.671  -4.195  -0.985  0.00  0.00     0.001 A 
ENDBRANCH  12  15
ENDBRANCH   7   8
ENDBRANCH   6   7
BRANCH   1  24
ATOM     24  C17 RES d   1       2.279   1.434   0.403  0.00  0.00     0.140 C 
BRANCH  24  25
ATOM     25  N16 RES d   1       0.903   1.894   0.608  0.00  0.00    -0.287 N 
ATOM     26  C2  RES d   1      -0.139   1.055   0.593  0.00  0.00     0.231 A 
ATOM     27  O1  RES d   1      -0.070  -0.144   0.427  0.00  0.00    -0.272 OA
ATOM     28  C3  RES d   1      -1.415   1.833   0.822  0.00  0.00     0.096 A 
ATOM     29  C12 RES d   1      -0.918   3.300   0.971  0.00  0.00     0.096 A 
ATOM     30  C5  RES d   1      -2.245   1.816  -0.496  0.00  0.00    -0.000 C 
ATOM     31  C9  RES d   1      -1.530   4.028  -0.286  0.00  0.00    -0.000 C 
ATOM     32  C14 RES d   1       0.582   3.221   0.794  0.00  0.00     0.231 A 
ATOM     33  C8  RES d   1      -3.065   4.082  -0.016  0.00  0.00     0.006 C 
ATOM     34  C11 RES d   1      -1.450   2.860  -1.357  0.00  0.00     0.011 C 
ATOM     35  C7  RES d   1      -3.538   2.618  -0.156  0.00  0.00     0.006 C 
ATOM     36  O15 RES d   1       1.342   4.164   0.836  0.00  0.00    -0.272 OA
ENDBRANCH  24  25
ENDBRANCH   1  24
TORSDOF 5
