REMARK  8 active torsions:
REMARK  status: ('A' for Active; 'I' for Inactive)
REMARK    1  A    between atoms: C2_2  and  C3_3 
REMARK    2  A    between atoms: C3_3  and  C4_4 
REMARK    3  A    between atoms: C4_4  and  O5_5 
REMARK    4  A    between atoms: O5_5  and  C6_6 
REMARK    5  A    between atoms: C9_9  and  C10_10 
REMARK    6  A    between atoms: C10_10  and  C12_12 
REMARK    7  A    between atoms: C12_12  and  C13_13 
REMARK    8  A    between atoms: C13_13  and  N14_14 
ROOT
ATOM      1  C6  ZIN A   1      -2.913  -3.905   0.009  0.00  0.00     0.068 A 
ATOM      2  C7  ZIN A   1      -1.797  -4.735  -0.000  0.00  0.00     0.037 A 
ATOM      3  C8  ZIN A   1      -1.952  -6.098  -0.006  0.00  0.00     0.018 A 
ATOM      4  C9  ZIN A   1      -3.238  -6.653  -0.002  0.00  0.00     0.010 A 
ATOM      5  C21 ZIN A   1      -4.358  -5.813   0.008  0.00  0.00     0.018 A 
ATOM      6  C22 ZIN A   1      -4.192  -4.452   0.018  0.00  0.00     0.037 A 
ENDROOT
BRANCH   4   7
ATOM      7  C10 ZIN A   1      -3.411  -8.111  -0.008  0.00  0.00     0.161 C 
ATOM      8  O11 ZIN A   1      -2.439  -8.837  -0.016  0.00  0.00    -0.292 OA
BRANCH   7   9
ATOM      9  C12 ZIN A   1      -4.795  -8.706  -0.004  0.00  0.00     0.111 C 
BRANCH   9  10
ATOM     10  C13 ZIN A   1      -4.694 -10.233  -0.011  0.00  0.00     0.242 C 
BRANCH  10  11
ATOM     11  N14 ZIN A   1      -6.044 -10.813  -0.007  0.00  0.00    -0.071 N 
ATOM     12  H15 ZIN A   1      -6.564 -10.447   0.777  0.00  0.00     0.279 HD
ATOM     13  C20 ZIN A   1      -6.731 -10.459  -1.255  0.00  0.00     0.235 C 
ATOM     14  C19 ZIN A   1      -8.165 -10.990  -1.220  0.00  0.00     0.028 C 
ATOM     15  C18 ZIN A   1      -8.135 -12.514  -1.069  0.00  0.00     0.003 C 
ATOM     16  C17 ZIN A   1      -7.351 -12.875   0.197  0.00  0.00     0.028 C 
ATOM     17  C16 ZIN A   1      -5.947 -12.273   0.110  0.00  0.00     0.235 C 
ENDBRANCH  10  11
ENDBRANCH   9  10
ENDBRANCH   7   9
ENDBRANCH   4   7
BRANCH   1  18
ATOM     18  O5  ZIN A   1      -2.753  -2.558   0.015  0.00  0.00    -0.351 OA
BRANCH  18  19
ATOM     19  C4  ZIN A   1      -1.413  -2.063   0.004  0.00  0.00     0.175 C 
BRANCH  19  20
ATOM     20  C3  ZIN A   1      -1.433  -0.534   0.013  0.00  0.00     0.026 C 
BRANCH  20  21
ATOM     21  C2  ZIN A   1       0.002  -0.004   0.002  0.00  0.00    -0.002 C 
ATOM     22  C1  ZIN A   1      -0.019   1.526   0.010  0.00  0.00     0.005 C 
ENDBRANCH  20  21
ENDBRANCH  19  20
ENDBRANCH  18  19
ENDBRANCH   1  18
TORSDOF 8
