REMARK  6 active torsions:
REMARK  status: ('A' for Active; 'I' for Inactive)
REMARK    1  A    between atoms: C2_2  and  C3_3 
REMARK    2  A    between atoms: C4_4  and  C5_5 
REMARK    3  A    between atoms: C11_11  and  N13_12 
REMARK       I    between atoms: N13_12  and  C14_13 
REMARK    4  A    between atoms: C14_13  and  C16_15 
REMARK    5  A    between atoms: C16_15  and  C19_18 
REMARK    6  A    between atoms: C22_21  and  N23_22 
ROOT
ATOM      1  N13 ZIN A   1      -4.503  -3.571   1.926  0.00  0.00    -0.339 N 
ATOM      2  C14 ZIN A   1      -5.237  -4.508   2.557  0.00  0.00     0.275 C 
ATOM      3  O15 ZIN A   1      -5.503  -5.552   1.994  0.00  0.00    -0.266 OA
ATOM      4  H33 ZIN A   1      -4.221  -2.774   2.403  0.00  0.00     0.163 HD
ENDROOT
BRANCH   1   5
ATOM      5  C11 ZIN A   1      -4.130  -3.754   0.521  0.00  0.00     0.211 C 
ATOM      6  C9  ZIN A   1      -2.689  -4.151   0.304  0.00  0.00     0.251 C 
ATOM      7  N8  ZIN A   1      -2.261  -2.933  -0.004  0.00  0.00    -0.293 N 
ATOM      8  O10 ZIN A   1      -2.118  -5.218   0.384  0.00  0.00    -0.271 OA
ATOM      9  C4  ZIN A   1      -1.107  -2.145  -0.078  0.00  0.00     0.122 C 
ATOM     10  C26 ZIN A   1      -3.670  -2.487  -0.178  0.00  0.00     0.187 C 
ATOM     11  C3  ZIN A   1      -1.200  -0.803   0.030  0.00  0.00    -0.016 C 
ATOM     12  C29 ZIN A   1      -2.443   0.016   0.158  0.00  0.00     0.117 C 
ATOM     13  S28 ZIN A   1      -3.864  -0.949   0.783  0.00  0.00    -0.136 SA
BRANCH   9  14
ATOM     14  C5  ZIN A   1       0.200  -2.776  -0.270  0.00  0.00     0.227 C 
ATOM     15  O6  ZIN A   1       0.825  -3.198   0.695  0.00  0.00    -0.643 OA
ATOM     16  O7  ZIN A   1       0.669  -2.881  -1.397  0.00  0.00    -0.643 OA
ENDBRANCH   9  14
BRANCH  11  17
ATOM     17  C2  ZIN A   1       0.062  -0.066   0.026  0.00  0.00     0.000 C 
ATOM     18  C1  ZIN A   1       0.055   1.270   0.026  0.00  0.00     0.012 C 
ENDBRANCH  11  17
ENDBRANCH   1   5
BRANCH   2  19
ATOM     19  C16 ZIN A   1      -5.721  -4.267   3.937  0.00  0.00     0.181 C 
ATOM     20  N17 ZIN A   1      -5.348  -3.197   4.580  0.00  0.00    -0.090 NA
ATOM     21  O18 ZIN A   1      -4.586  -2.203   3.918  0.00  0.00    -0.060 OA
BRANCH  19  22
ATOM     22  C19 ZIN A   1      -6.626  -5.240   4.584  0.00  0.00     0.077 A 
ATOM     23  N24 ZIN A   1      -7.038  -6.351   3.970  0.00  0.00    -0.334 N 
ATOM     24  C22 ZIN A   1      -7.827  -7.131   4.639  0.00  0.00     0.142 A 
ATOM     25  H25 ZIN A   1      -6.754  -6.568   3.068  0.00  0.00     0.168 HD
ATOM     26  S21 ZIN A   1      -8.134  -6.437   6.228  0.00  0.00    -0.064 SA
ATOM     27  C20 ZIN A   1      -7.099  -5.067   5.833  0.00  0.00     0.085 A 
BRANCH  24  28
ATOM     28  N23 ZIN A   1      -8.353  -8.325   4.174  0.00  0.00    -0.380 N 
ATOM     29  H35 ZIN A   1      -8.941  -8.849   4.740  0.00  0.00     0.158 HD
ATOM     30  H36 ZIN A   1      -8.133  -8.637   3.282  0.00  0.00     0.158 HD
ENDBRANCH  24  28
ENDBRANCH  19  22
ENDBRANCH   2  19
TORSDOF 6
