REMARK  6 active torsions:
REMARK  status: ('A' for Active; 'I' for Inactive)
REMARK    1  A    between atoms: C2_2  and  C3_3 
REMARK       I    between atoms: C3_3  and  N5_5 
REMARK    2  A    between atoms: N5_5  and  C6_6 
REMARK    3  A    between atoms: N5_5  and  C12_12 
REMARK    4  A    between atoms: N15_15  and  C17_17 
REMARK    5  A    between atoms: C17_17  and  C18_18 
REMARK    6  A    between atoms: C18_18  and  C19_19 
ROOT
ATOM      1  C12 ZIN A   1       0.389  -2.535   0.235  0.00  0.00     0.096 C 
ATOM      2  C13 ZIN A   1      -1.090  -2.163   0.091  0.00  0.00     0.053 C 
ATOM      3  C14 ZIN A   1      -1.664  -2.846  -1.152  0.00  0.00     0.237 C 
ATOM      4  N15 ZIN A   1      -0.928  -2.401  -2.342  0.00  0.00    -0.071 N 
ATOM      5  H16 ZIN A   1      -0.975  -1.395  -2.409  0.00  0.00     0.279 HD
ATOM      6  C25 ZIN A   1       0.476  -2.818  -2.244  0.00  0.00     0.237 C 
ATOM      7  C26 ZIN A   1       1.132  -2.134  -1.043  0.00  0.00     0.053 C 
ENDROOT
BRANCH   1   8
ATOM      8  N5  ZIN A   1       0.964  -1.825   1.380  0.00  0.00    -0.313 N 
ATOM      9  C3  ZIN A   1       1.385  -2.515   2.458  0.00  0.00     0.224 C 
ATOM     10  O4  ZIN A   1       1.754  -1.924   3.450  0.00  0.00    -0.273 OA
BRANCH   9  11
ATOM     11  C2  ZIN A   1       1.398  -4.022   2.431  0.00  0.00     0.099 C 
ATOM     12  C1  ZIN A   1       2.032  -4.550   3.720  0.00  0.00     0.014 C 
ENDBRANCH   9  11
BRANCH   8  13
ATOM     13  C6  ZIN A   1       1.076  -0.431   1.354  0.00  0.00     0.037 A 
ATOM     14  C11 ZIN A   1       1.765   0.231   2.361  0.00  0.00     0.030 A 
ATOM     15  C10 ZIN A   1       1.880   1.607   2.329  0.00  0.00     0.002 A 
ATOM     16  C9  ZIN A   1       1.297   2.327   1.302  0.00  0.00     0.000 A 
ATOM     17  C8  ZIN A   1       0.605   1.671   0.301  0.00  0.00     0.002 A 
ATOM     18  C7  ZIN A   1       0.493   0.295   0.324  0.00  0.00     0.030 A 
ENDBRANCH   8  13
ENDBRANCH   1   8
BRANCH   4  19
ATOM     19  C17 ZIN A   1      -1.531  -3.000  -3.541  0.00  0.00     0.239 C 
BRANCH  19  20
ATOM     20  C18 ZIN A   1      -0.692  -2.639  -4.768  0.00  0.00     0.066 C 
BRANCH  20  21
ATOM     21  C19 ZIN A   1      -1.310  -3.253  -5.998  0.00  0.00    -0.057 A 
ATOM     22  C24 ZIN A   1      -2.253  -2.548  -6.722  0.00  0.00     0.007 A 
ATOM     23  C23 ZIN A   1      -2.817  -3.110  -7.852  0.00  0.00     0.001 A 
ATOM     24  C22 ZIN A   1      -2.445  -4.379  -8.253  0.00  0.00     0.000 A 
ATOM     25  C21 ZIN A   1      -1.506  -5.086  -7.525  0.00  0.00     0.001 A 
ATOM     26  C20 ZIN A   1      -0.939  -4.522  -6.397  0.00  0.00     0.007 A 
ENDBRANCH  20  21
ENDBRANCH  19  20
ENDBRANCH   4  19
TORSDOF 6
