REMARK  14 active torsions:
REMARK  status: ('A' for Active; 'I' for Inactive)
REMARK    1  A    between atoms: C2_2  and  N5_5 
REMARK       I    between atoms: N5_5  and  C6_6 
REMARK    2  A    between atoms: C6_6  and  C8_8 
REMARK    3  A    between atoms: N20_17  and  C22_19 
REMARK    4  A    between atoms: C22_19  and  C23_20 
REMARK    5  A    between atoms: C23_20  and  O25_21 
REMARK    6  A    between atoms: C23_20  and  C26_22 
REMARK    7  A    between atoms: C26_22  and  C28_23 
REMARK    8  A    between atoms: C26_22  and  N35_30 
REMARK    9  A    between atoms: C28_23  and  C29_24 
REMARK       I    between atoms: N35_30  and  C36_31 
REMARK   10  A    between atoms: C36_31  and  C38_33 
REMARK   11  A    between atoms: C38_33  and  C40_34 
REMARK   12  A    between atoms: C38_33  and  N44_38 
REMARK   13  A    between atoms: C40_34  and  C41_35 
REMARK       I    between atoms: C41_35  and  N42_36 
REMARK       I    between atoms: N44_38  and  C45_39 
REMARK   14  A    between atoms: C45_39  and  C47_41 
ROOT
ATOM      1  C26 ZIN A   1       7.000  -0.140  -0.627  0.00  0.00     0.119 C 
ENDROOT
BRANCH   1   2
ATOM      2  C23 ZIN A   1       6.396   0.580  -1.835  0.00  0.00     0.167 C 
BRANCH   2   3
ATOM      3  C22 ZIN A   1       4.932   0.167  -1.994  0.00  0.00     0.269 C 
BRANCH   3   4
ATOM      4  N20 ZIN A   1       4.386   0.763  -3.221  0.00  0.00    -0.055 N 
ATOM      5  C8  ZIN A   1       2.949   0.479  -3.304  0.00  0.00     0.279 C 
ATOM      6  C10 ZIN A   1       2.717  -1.034  -3.266  0.00  0.00     0.048 C 
ATOM      7  C11 ZIN A   1       3.440  -1.679  -4.449  0.00  0.00    -0.006 C 
ATOM      8  C17 ZIN A   1       4.928  -1.322  -4.377  0.00  0.00     0.016 C 
ATOM      9  C13 ZIN A   1       3.283  -3.199  -4.396  0.00  0.00     0.005 C 
ATOM     10  C16 ZIN A   1       5.651  -1.933  -5.578  0.00  0.00     0.007 C 
ATOM     11  C19 ZIN A   1       5.080   0.199  -4.388  0.00  0.00     0.241 C 
ATOM     12  C15 ZIN A   1       5.494  -3.456  -5.541  0.00  0.00     0.000 C 
ATOM     13  C14 ZIN A   1       4.010  -3.822  -5.591  0.00  0.00     0.000 C 
ATOM     14  H21 ZIN A   1       4.527   1.762  -3.199  0.00  0.00     0.281 HD
BRANCH   5  15
ATOM     15  C6  ZIN A   1       2.243   1.123  -2.139  0.00  0.00     0.249 C 
ATOM     16  N5  ZIN A   1       0.907   0.999  -2.007  0.00  0.00    -0.351 N 
ATOM     17  H66 ZIN A   1       0.401   0.494  -2.663  0.00  0.00     0.163 HD
ATOM     18  O7  ZIN A   1       2.877   1.754  -1.320  0.00  0.00    -0.271 OA
BRANCH  16  19
ATOM     19  C2  ZIN A   1       0.221   1.625  -0.875  0.00  0.00     0.022 C 
ATOM     20  C1  ZIN A   1       0.449   3.138  -0.914  0.00  0.00     0.037 C 
ATOM     21  C3  ZIN A   1       0.776   1.060   0.434  0.00  0.00     0.037 C 
ATOM     22  C4  ZIN A   1      -1.278   1.333  -0.962  0.00  0.00     0.037 C 
ENDBRANCH  16  19
ENDBRANCH   5  15
ENDBRANCH   3   4
ENDBRANCH   2   3
BRANCH   2  23
ATOM     23  O25 ZIN A   1       6.474   1.992  -1.636  0.00  0.00    -0.392 OA
ATOM     24  H81 ZIN A   1       6.003   2.306  -0.852  0.00  0.00     0.210 HD
ENDBRANCH   2  23
ENDBRANCH   1   2
BRANCH   1  25
ATOM     25  C28 ZIN A   1       6.305   0.335   0.650  0.00  0.00     0.066 C 
BRANCH  25  26
ATOM     26  C29 ZIN A   1       6.813  -0.461   1.825  0.00  0.00    -0.056 A 
ATOM     27  C34 ZIN A   1       7.913  -0.018   2.535  0.00  0.00     0.007 A 
ATOM     28  C33 ZIN A   1       8.376  -0.746   3.615  0.00  0.00     0.001 A 
ATOM     29  C32 ZIN A   1       7.745  -1.921   3.979  0.00  0.00     0.000 A 
ATOM     30  C31 ZIN A   1       6.648  -2.366   3.265  0.00  0.00     0.001 A 
ATOM     31  C30 ZIN A   1       6.182  -1.636   2.188  0.00  0.00     0.007 A 
ENDBRANCH  25  26
ENDBRANCH   1  25
BRANCH   1  32
ATOM     32  N35 ZIN A   1       8.432   0.162  -0.545  0.00  0.00    -0.352 N 
ATOM     33  C36 ZIN A   1       9.266  -0.696   0.075  0.00  0.00     0.241 C 
ATOM     34  O37 ZIN A   1       8.833  -1.718   0.564  0.00  0.00    -0.271 OA
ATOM     35  H89 ZIN A   1       8.779   0.979  -0.936  0.00  0.00     0.163 HD
BRANCH  33  36
ATOM     36  C38 ZIN A   1      10.739  -0.386   0.160  0.00  0.00     0.185 C 
BRANCH  36  37
ATOM     37  C40 ZIN A   1      11.316  -0.263  -1.252  0.00  0.00     0.137 C 
BRANCH  37  38
ATOM     38  C41 ZIN A   1      11.189  -1.585  -1.964  0.00  0.00     0.217 C 
ATOM     39  N42 ZIN A   1      11.709  -1.739  -3.197  0.00  0.00    -0.370 N 
ATOM     40  H92 ZIN A   1      12.165  -0.998  -3.627  0.00  0.00     0.159 HD
ATOM     41  H93 ZIN A   1      11.627  -2.590  -3.656  0.00  0.00     0.159 HD
ATOM     42  O43 ZIN A   1      10.619  -2.511  -1.426  0.00  0.00    -0.274 OA
ENDBRANCH  37  38
ENDBRANCH  36  37
BRANCH  36  43
ATOM     43  N44 ZIN A   1      11.425  -1.464   0.876  0.00  0.00    -0.342 N 
ATOM     44  C45 ZIN A   1      12.557  -1.206   1.559  0.00  0.00     0.271 C 
ATOM     45  O46 ZIN A   1      13.058  -0.101   1.508  0.00  0.00    -0.266 OA
ATOM     46  H94 ZIN A   1      11.064  -2.365   0.858  0.00  0.00     0.163 HD
BRANCH  44  47
ATOM     47  C47 ZIN A   1      13.191  -2.271   2.373  0.00  0.00     0.125 A 
ATOM     48  N56 ZIN A   1      12.634  -3.466   2.418  0.00  0.00    -0.243 NA
ATOM     49  C55 ZIN A   1      13.171  -4.454   3.132  0.00  0.00     0.068 A 
ATOM     50  C50 ZIN A   1      14.361  -4.227   3.873  0.00  0.00    -0.007 A 
ATOM     51  C54 ZIN A   1      12.574  -5.729   3.171  0.00  0.00     0.032 A 
ATOM     52  C49 ZIN A   1      14.959  -2.954   3.837  0.00  0.00     0.016 A 
ATOM     53  C51 ZIN A   1      14.916  -5.273   4.628  0.00  0.00     0.014 A 
ATOM     54  C48 ZIN A   1      14.366  -1.983   3.083  0.00  0.00     0.038 A 
ATOM     55  C52 ZIN A   1      14.309  -6.491   4.640  0.00  0.00     0.001 A 
ATOM     56  C53 ZIN A   1      13.141  -6.717   3.913  0.00  0.00     0.002 A 
ENDBRANCH  44  47
ENDBRANCH  36  43
ENDBRANCH  33  36
ENDBRANCH   1  32
TORSDOF 14
