REMARK  7 active torsions:
REMARK  status: ('A' for Active; 'I' for Inactive)
REMARK    1  A    between atoms: C3_3  and  C4_4 
REMARK    2  A    between atoms: C5_5  and  C6_6 
REMARK    3  A    between atoms: C12_12  and  N14_13 
REMARK       I    between atoms: N14_13  and  C15_14 
REMARK    4  A    between atoms: C15_14  and  C17_16 
REMARK    5  A    between atoms: C17_16  and  N19_17 
REMARK    6  A    between atoms: C17_16  and  C20_18 
REMARK    7  A    between atoms: C23_21  and  O24_22 
ROOT
ATOM      1  N14 ZIN A   1      -1.795  -6.402  -1.903  0.00  0.00    -0.343 N 
ATOM      2  C15 ZIN A   1      -2.221  -7.514  -2.534  0.00  0.00     0.256 C 
ATOM      3  O16 ZIN A   1      -2.890  -8.331  -1.938  0.00  0.00    -0.271 OA
ATOM      4  H36 ZIN A   1      -1.260  -5.748  -2.379  0.00  0.00     0.163 HD
ENDROOT
BRANCH   1   5
ATOM      5  C12 ZIN A   1      -2.141  -6.181  -0.496  0.00  0.00     0.210 C 
ATOM      6  C10 ZIN A   1      -3.225  -5.152  -0.275  0.00  0.00     0.251 C 
ATOM      7  N9  ZIN A   1      -2.402  -4.157   0.034  0.00  0.00    -0.293 N 
ATOM      8  O11 ZIN A   1      -4.434  -5.213  -0.351  0.00  0.00    -0.271 OA
ATOM      9  C5  ZIN A   1      -2.323  -2.762   0.110  0.00  0.00     0.122 C 
ATOM     10  C27 ZIN A   1      -1.291  -5.134   0.202  0.00  0.00     0.187 C 
ATOM     11  C4  ZIN A   1      -1.125  -2.148  -0.000  0.00  0.00    -0.015 C 
ATOM     12  C30 ZIN A   1       0.217  -2.790  -0.133  0.00  0.00     0.117 C 
ATOM     13  S29 ZIN A   1       0.123  -4.504  -0.761  0.00  0.00    -0.136 SA
BRANCH   9  14
ATOM     14  C6  ZIN A   1      -3.537  -1.968   0.307  0.00  0.00     0.227 C 
ATOM     15  O7  ZIN A   1      -4.223  -1.649  -0.656  0.00  0.00    -0.643 OA
ATOM     16  O8  ZIN A   1      -3.867  -1.624   1.435  0.00  0.00    -0.643 OA
ENDBRANCH   9  14
BRANCH  11  17
ATOM     17  C3  ZIN A   1      -1.145  -0.687   0.007  0.00  0.00     0.006 C 
ATOM     18  C2  ZIN A   1       0.002  -0.004   0.011  0.00  0.00    -0.030 C 
ATOM     19  C1  ZIN A   1      -0.019   1.503   0.018  0.00  0.00     0.036 C 
ENDBRANCH  11  17
ENDBRANCH   1   5
BRANCH   2  20
ATOM     20  C17 ZIN A   1      -1.865  -7.742  -3.981  0.00  0.00     0.342 C 
BRANCH  20  21
ATOM     21  N19 ZIN A   1      -2.796  -8.716  -4.566  0.00  0.00     0.096 N 
ATOM     22  H37 ZIN A   1      -2.750  -9.598  -4.079  0.00  0.00     0.314 HD
ATOM     23  H38 ZIN A   1      -3.739  -8.356  -4.574  0.00  0.00     0.314 HD
ENDBRANCH  20  21
BRANCH  20  24
ATOM     24  C20 ZIN A   1      -0.458  -8.273  -4.075  0.00  0.00    -0.016 A 
ATOM     25  C26 ZIN A   1       0.581  -7.420  -4.397  0.00  0.00     0.012 A 
ATOM     26  C25 ZIN A   1       1.873  -7.904  -4.479  0.00  0.00     0.037 A 
ATOM     27  C23 ZIN A   1       2.125  -9.248  -4.247  0.00  0.00     0.065 A 
ATOM     28  C22 ZIN A   1       1.080 -10.102  -3.928  0.00  0.00     0.037 A 
ATOM     29  C21 ZIN A   1      -0.209  -9.613  -3.843  0.00  0.00     0.012 A 
BRANCH  27  30
ATOM     30  O24 ZIN A   1       3.394  -9.727  -4.332  0.00  0.00    -0.361 OA
ATOM     31  H41 ZIN A   1       3.639 -10.036  -5.215  0.00  0.00     0.217 HD
ENDBRANCH  27  30
ENDBRANCH  20  24
ENDBRANCH   2  20
TORSDOF 7
