REMARK  2 active torsions:
REMARK  status: ('A' for Active; 'I' for Inactive)
REMARK    1  A    between atoms: O2_2  and  C3_3 
REMARK    2  A    between atoms: C14_12  and  O16_13 
ROOT
ATOM      1  C3  ZIN A   1      -1.765  -0.755   1.185  0.00  0.00     0.102 A 
ATOM      2  C4  ZIN A   1      -3.030  -0.173   1.234  0.00  0.00     0.040 A 
ATOM      3  C5  ZIN A   1      -4.204  -0.874   1.000  0.00  0.00     0.011 A 
ATOM      4  C6  ZIN A   1      -4.158  -2.219   0.683  0.00  0.00    -0.046 A 
ATOM      5  C7  ZIN A   1      -5.346  -3.103   0.481  0.00  0.00     0.073 C 
ATOM      6  C8  ZIN A   1      -4.982  -4.515   0.055  0.00  0.00     0.200 C 
ATOM      7  C10 ZIN A   1      -3.692  -5.061   0.650  0.00  0.00     0.055 C 
ATOM      8  C12 ZIN A   1      -3.719  -5.245   2.123  0.00  0.00    -0.020 C 
ATOM      9  C13 ZIN A   1      -2.700  -4.962   2.870  0.00  0.00     0.003 C 
ATOM     10  C14 ZIN A   1      -1.414  -4.367   2.426  0.00  0.00     0.171 C 
ATOM     11  C17 ZIN A   1      -1.212  -4.329   0.906  0.00  0.00     0.175 C 
ATOM     12  O19 ZIN A   1      -0.663  -2.979   0.674  0.00  0.00    -0.338 OA
ATOM     13  C20 ZIN A   1      -1.704  -2.115   0.864  0.00  0.00     0.110 A 
ATOM     14  C21 ZIN A   1      -2.901  -2.767   0.599  0.00  0.00    -0.003 A 
ATOM     15  C22 ZIN A   1      -2.552  -4.178   0.200  0.00  0.00     0.030 C 
ATOM     16  C23 ZIN A   1      -2.430  -4.235  -1.325  0.00  0.00     0.045 C 
ATOM     17  C24 ZIN A   1      -3.765  -3.741  -1.903  0.00  0.00     0.236 C 
ATOM     18  N25 ZIN A   1      -4.859  -4.586  -1.411  0.00  0.00    -0.070 N 
ATOM     19  H26 ZIN A   1      -4.705  -5.535  -1.715  0.00  0.00     0.279 HD
ATOM     20  C27 ZIN A   1      -6.128  -4.102  -1.972  0.00  0.00     0.270 C 
ENDROOT
BRANCH   1  21
ATOM     21  O2  ZIN A   1      -0.640  -0.031   1.431  0.00  0.00    -0.353 OA
ATOM     22  C1  ZIN A   1      -0.815   1.351   1.750  0.00  0.00     0.210 C 
ENDBRANCH   1  21
BRANCH  10  23
ATOM     23  O16 ZIN A   1      -1.340  -3.029   2.921  0.00  0.00    -0.389 OA
ATOM     24  H37 ZIN A   1      -1.377  -2.964   3.885  0.00  0.00     0.210 HD
ENDBRANCH  10  23
TORSDOF 2
