REMARK  5 active torsions:
REMARK  status: ('A' for Active; 'I' for Inactive)
REMARK    1  A    between atoms: C5_5  and  C7_6 
REMARK       I    between atoms: C7_6  and  N9_8 
REMARK    2  A    between atoms: N9_8  and  C10_9 
REMARK    3  A    between atoms: C13_12  and  O14_13 
REMARK    4  A    between atoms: C23_21  and  C25_22 
REMARK    5  A    between atoms: C25_22  and  C26_23 
ROOT
ATOM      1  C10 ZIN A   1      -2.612  -4.124  -1.430  0.00  0.00     0.220 C 
ATOM      2  C11 ZIN A   1      -3.331  -3.678  -0.155  0.00  0.00     0.082 C 
ATOM      3  O12 ZIN A   1      -2.716  -5.552  -1.592  0.00  0.00    -0.296 OA
ATOM      4  C13 ZIN A   1      -2.796  -5.740  -3.013  0.00  0.00     0.276 C 
ATOM      5  C15 ZIN A   1      -3.647  -6.949  -3.346  0.00  0.00     0.173 C 
ATOM      6  C17 ZIN A   1      -2.770  -8.214  -3.487  0.00  0.00     0.034 C 
ATOM      7  C18 ZIN A   1      -3.645  -9.136  -4.370  0.00  0.00     0.022 C 
ATOM      8  C19 ZIN A   1      -4.623  -8.188  -5.092  0.00  0.00     0.127 C 
ATOM      9  N20 ZIN A   1      -4.302  -6.811  -4.655  0.00  0.00    -0.338 N 
ATOM     10  C21 ZIN A   1      -4.540  -5.689  -5.346  0.00  0.00     0.243 C 
ATOM     11  O22 ZIN A   1      -5.221  -5.741  -6.349  0.00  0.00    -0.271 OA
ATOM     12  C23 ZIN A   1      -3.979  -4.365  -4.901  0.00  0.00     0.189 C 
ATOM     13  N32 ZIN A   1      -3.369  -4.518  -3.578  0.00  0.00    -0.277 N 
ATOM     14  C33 ZIN A   1      -3.292  -3.538  -2.649  0.00  0.00     0.280 C 
ATOM     15  O34 ZIN A   1      -3.716  -2.407  -2.760  0.00  0.00    -0.268 OA
ENDROOT
BRANCH   1  16
ATOM     16  N9  ZIN A   1      -1.205  -3.718  -1.388  0.00  0.00    -0.321 N 
ATOM     17  C7  ZIN A   1      -0.882  -2.411  -1.329  0.00  0.00     0.229 C 
ATOM     18  O8  ZIN A   1      -1.756  -1.570  -1.311  0.00  0.00    -0.273 OA
ATOM     19  H54 ZIN A   1      -0.505  -4.390  -1.403  0.00  0.00     0.166 HD
BRANCH  17  20
ATOM     20  C5  ZIN A   1       0.565  -1.993  -1.286  0.00  0.00     0.127 C 
ATOM     21  C4  ZIN A   1       0.662  -0.464  -1.222  0.00  0.00     0.253 C 
ATOM     22  N2  ZIN A   1       0.002  -0.004   0.002  0.00  0.00    -0.065 N 
ATOM     23  C1  ZIN A   1      -0.018   1.465   0.010  0.00  0.00     0.270 C 
ATOM     24  H3  ZIN A   1      -0.948  -0.344   0.009  0.00  0.00     0.280 HD
ATOM     25  C47 ZIN A   1       0.679  -0.472   1.197  0.00  0.00     0.225 C 
ATOM     26  C36 ZIN A   1       1.274  -1.847   1.066  0.00  0.00    -0.019 C 
ATOM     27  C46 ZIN A   1       1.672   0.574   1.713  0.00  0.00     0.079 C 
ATOM     28  C35 ZIN A   1       1.222  -2.552  -0.050  0.00  0.00    -0.001 C 
ATOM     29  C37 ZIN A   1       1.965  -2.400   2.247  0.00  0.00    -0.015 A 
ATOM     30  C45 ZIN A   1       2.188  -3.704   2.623  0.00  0.00     0.013 A 
ATOM     31  C38 ZIN A   1       2.471  -1.416   3.124  0.00  0.00     0.009 A 
ATOM     32  C44 ZIN A   1       2.873  -3.975   3.806  0.00  0.00     0.003 A 
ATOM     33  C43 ZIN A   1       3.366  -3.000   4.666  0.00  0.00     0.030 A 
ATOM     34  C42 ZIN A   1       3.158  -1.666   4.315  0.00  0.00     0.043 A 
ATOM     35  N41 ZIN A   1       3.449  -0.438   4.827  0.00  0.00    -0.365 N 
ATOM     36  C40 ZIN A   1       2.967   0.560   3.993  0.00  0.00     0.096 A 
ATOM     37  H74 ZIN A   1       3.925  -0.283   5.657  0.00  0.00     0.165 HD
ATOM     38  C39 ZIN A   1       2.363   0.027   2.937  0.00  0.00    -0.027 A 
ENDBRANCH  17  20
ENDBRANCH   1  16
BRANCH   4  39
ATOM     39  O14 ZIN A   1      -1.483  -5.941  -3.542  0.00  0.00    -0.347 OA
ATOM     40  H58 ZIN A   1      -0.876  -5.207  -3.377  0.00  0.00     0.215 HD
ENDBRANCH   4  39
BRANCH  12  41
ATOM     41  C25 ZIN A   1      -2.890  -3.918  -5.878  0.00  0.00     0.073 C 
BRANCH  41  42
ATOM     42  C26 ZIN A   1      -2.414  -2.538  -5.503  0.00  0.00    -0.056 A 
ATOM     43  C31 ZIN A   1      -1.362  -2.386  -4.620  0.00  0.00     0.007 A 
ATOM     44  C30 ZIN A   1      -0.923  -1.120  -4.279  0.00  0.00     0.001 A 
ATOM     45  C29 ZIN A   1      -1.543  -0.006  -4.815  0.00  0.00     0.000 A 
ATOM     46  C28 ZIN A   1      -2.599  -0.158  -5.694  0.00  0.00     0.001 A 
ATOM     47  C27 ZIN A   1      -3.035  -1.424  -6.038  0.00  0.00     0.007 A 
ENDBRANCH  41  42
ENDBRANCH  12  41
TORSDOF 5
