REMARK  7 active torsions:
REMARK  status: ('A' for Active; 'I' for Inactive)
REMARK    1  A    between atoms: C2_2  and  N3_3 
REMARK    2  A    between atoms: N7_7  and  C8_8 
REMARK    3  A    between atoms: C8_8  and  C9_9 
REMARK    4  A    between atoms: C12_12  and  N13_13 
REMARK    5  A    between atoms: N13_13  and  C14_14 
REMARK    6  A    between atoms: C19_19  and  C20_20 
REMARK    7  A    between atoms: N28_28  and  C29_29 
ROOT
ATOM      1  C14 ZIN A   1       9.559  -0.309  -3.522  0.00  0.00     0.728 A 
ATOM      2  N15 ZIN A   1       8.879   0.675  -4.092  0.00  0.00    -0.072 NA
ATOM      3  C16 ZIN A   1       9.499   1.736  -4.586  0.00  0.00     0.181 A 
ATOM      4  C17 ZIN A   1      10.879   1.813  -4.503  0.00  0.00     0.164 A 
ATOM      5  F18 ZIN A   1      11.543   2.881  -4.996  0.00  0.00    -0.202 F 
ATOM      6  C19 ZIN A   1      11.569   0.758  -3.894  0.00  0.00     0.126 A 
ATOM      7  N34 ZIN A   1      10.877  -0.274  -3.416  0.00  0.00    -0.059 NA
ENDROOT
BRANCH   1   8
ATOM      8  N13 ZIN A   1       8.869  -1.402  -3.017  0.00  0.00    -0.171 N 
ATOM      9  H52 ZIN A   1       9.343  -2.088  -2.523  0.00  0.00     0.186 HD
BRANCH   8  10
ATOM     10  C12 ZIN A   1       7.497  -1.513  -3.221  0.00  0.00     0.142 A 
ATOM     11  C11 ZIN A   1       6.831  -2.664  -2.814  0.00  0.00     0.051 A 
ATOM     12  C10 ZIN A   1       5.466  -2.762  -3.022  0.00  0.00     0.014 A 
ATOM     13  C9  ZIN A   1       4.812  -1.701  -3.633  0.00  0.00    -0.012 A 
ATOM     14  C36 ZIN A   1       5.537  -0.590  -4.017  0.00  0.00     0.128 A 
ATOM     15  N35 ZIN A   1       6.837  -0.523  -3.801  0.00  0.00    -0.242 NA
BRANCH  13  16
ATOM     16  C8  ZIN A   1       3.327  -1.764  -3.880  0.00  0.00     0.312 C 
BRANCH  16  17
ATOM     17  N7  ZIN A   1       3.074  -2.362  -5.198  0.00  0.00     0.096 N 
ATOM     18  C6  ZIN A   1       1.661  -2.225  -5.576  0.00  0.00     0.300 C 
ATOM     19  C5  ZIN A   1       1.452  -2.806  -6.976  0.00  0.00     0.265 C 
ATOM     20  N3  ZIN A   1       1.843  -4.222  -6.982  0.00  0.00    -0.068 N 
ATOM     21  H4  ZIN A   1       1.286  -4.728  -6.311  0.00  0.00     0.280 HD
ATOM     22  C38 ZIN A   1       3.264  -4.340  -6.627  0.00  0.00     0.265 C 
ATOM     23  C37 ZIN A   1       3.487  -3.772  -5.223  0.00  0.00     0.300 C 
BRANCH  20  24
ATOM     24  C2  ZIN A   1       1.626  -4.784  -8.322  0.00  0.00     0.230 C 
ATOM     25  C1  ZIN A   1       1.914  -6.286  -8.298  0.00  0.00     0.034 C 
ENDBRANCH  20  24
ENDBRANCH  16  17
ENDBRANCH  13  16
ENDBRANCH   8  10
ENDBRANCH   1   8
BRANCH   6  26
ATOM     26  C20 ZIN A   1      13.046   0.791  -3.780  0.00  0.00     0.002 A 
ATOM     27  C33 ZIN A   1      13.668   0.246  -2.661  0.00  0.00     0.046 A 
ATOM     28  C32 ZIN A   1      15.049   0.277  -2.562  0.00  0.00     0.069 A 
ATOM     29  C24 ZIN A   1      15.815   0.865  -3.584  0.00  0.00     0.124 A 
ATOM     30  N28 ZIN A   1      15.954  -0.165  -1.615  0.00  0.00    -0.329 N 
ATOM     31  C22 ZIN A   1      15.173   1.414  -4.701  0.00  0.00     0.148 A 
ATOM     32  N25 ZIN A   1      17.116   0.755  -3.216  0.00  0.00    -0.230 NA
ATOM     33  C21 ZIN A   1      13.812   1.376  -4.795  0.00  0.00     0.058 A 
ATOM     34  F23 ZIN A   1      15.902   1.982  -5.687  0.00  0.00    -0.203 F 
ATOM     35  C26 ZIN A   1      17.197   0.153  -2.066  0.00  0.00     0.104 A 
ATOM     36  C27 ZIN A   1      18.482  -0.149  -1.338  0.00  0.00     0.091 C 
BRANCH  30  37
ATOM     37  C29 ZIN A   1      15.633  -0.848  -0.359  0.00  0.00     0.083 C 
ATOM     38  C30 ZIN A   1      14.807   0.083   0.531  0.00  0.00     0.032 C 
ATOM     39  C31 ZIN A   1      14.828  -2.114  -0.659  0.00  0.00     0.032 C 
ENDBRANCH  30  37
ENDBRANCH   6  26
TORSDOF 7
