REMARK  9 active torsions:
REMARK  status: ('A' for Active; 'I' for Inactive)
REMARK    1  A    between atoms: O1_1  and  C2_2 
REMARK    2  A    between atoms: C2_2  and  C3_3 
REMARK    3  A    between atoms: C3_3  and  O4_4 
REMARK    4  A    between atoms: O4_4  and  C5_5 
REMARK    5  A    between atoms: C5_5  and  C6_6 
REMARK    6  A    between atoms: C6_6  and  N7_7 
REMARK    7  A    between atoms: N11_11  and  C12_12 
REMARK    8  A    between atoms: C12_12  and  C14_13 
REMARK    9  A    between atoms: C12_12  and  C20_19 
ROOT
ATOM      1  N7  <0> d   1      -3.338  -0.811  -3.730  0.00  0.00    -0.066 N 
ATOM      2  H8  <0> d   1      -2.348  -0.633  -3.652  0.00  0.00     0.280 HD
ATOM      3  C9  <0> d   1      -3.831  -0.283  -5.009  0.00  0.00     0.265 C 
ATOM      4  C10 <0> d   1      -3.084  -0.959  -6.161  0.00  0.00     0.301 C 
ATOM      5  N11 <0> d   1      -3.299  -2.411  -6.096  0.00  0.00     0.105 N 
ATOM      6  C27 <0> d   1      -2.833  -2.950  -4.810  0.00  0.00     0.301 C 
ATOM      7  C28 <0> d   1      -3.582  -2.258  -3.669  0.00  0.00     0.265 C 
ENDROOT
BRANCH   5   8
ATOM      8  C12 <0> d   1      -2.644  -3.092  -7.220  0.00  0.00     0.289 C 
BRANCH   8   9
ATOM      9  C14 <0> d   1      -2.885  -4.576  -7.119  0.00  0.00    -0.021 A 
ATOM     10  C19 <0> d   1      -1.869  -5.463  -7.420  0.00  0.00     0.010 A 
ATOM     11  C18 <0> d   1      -2.090  -6.825  -7.324  0.00  0.00     0.001 A 
ATOM     12  C17 <0> d   1      -3.329  -7.298  -6.934  0.00  0.00     0.000 A 
ATOM     13  C16 <0> d   1      -4.346  -6.410  -6.639  0.00  0.00     0.001 A 
ATOM     14  C15 <0> d   1      -4.125  -5.049  -6.731  0.00  0.00     0.010 A 
ENDBRANCH   8   9
BRANCH   8  15
ATOM     15  C20 <0> d   1      -3.211  -2.577  -8.518  0.00  0.00    -0.021 A 
ATOM     16  C26 <0> d   1      -2.376  -2.354  -9.597  0.00  0.00     0.011 A 
ATOM     17  C25 <0> d   1      -2.897  -1.888 -10.789  0.00  0.00     0.024 A 
ATOM     18  C23 <0> d   1      -4.252  -1.634 -10.900  0.00  0.00     0.034 A 
ATOM     19  C22 <0> d   1      -5.087  -1.852  -9.818  0.00  0.00     0.024 A 
ATOM     20 Cl24 <0> d   1      -4.906  -1.041 -12.395  0.00  0.00    -0.084 Cl
ATOM     21  C21 <0> d   1      -4.566  -2.324  -8.628  0.00  0.00     0.011 A 
ENDBRANCH   8  15
ENDBRANCH   5   8
BRANCH   1  22
ATOM     22  C6  <0> d   1      -4.042  -0.149  -2.623  0.00  0.00     0.261 C 
BRANCH  22  23
ATOM     23  C5  <0> d   1      -3.443  -0.606  -1.292  0.00  0.00     0.195 C 
BRANCH  23  24
ATOM     24  O4  <0> d   1      -2.089  -0.158  -1.200  0.00  0.00    -0.387 OA
BRANCH  24  25
ATOM     25  C3  <0> d   1      -1.433  -0.534   0.013  0.00  0.00     0.193 C 
BRANCH  25  26
ATOM     26  C2  <0> d   1       0.002  -0.004   0.002  0.00  0.00     0.190 C 
BRANCH  26  27
ATOM     27  O1  <0> d   1      -0.017   1.425   0.010  0.00  0.00    -0.399 OA
ATOM     28  H29 <0> d   1       0.861   1.830   0.004  0.00  0.00     0.209 HD
ENDBRANCH  26  27
ENDBRANCH  25  26
ENDBRANCH  24  25
ENDBRANCH  23  24
ENDBRANCH  22  23
ENDBRANCH   1  22
TORSDOF 9
