REMARK  12 active torsions:
REMARK  status: ('A' for Active; 'I' for Inactive)
REMARK    1  A    between atoms: C2_2  and  C4_4 
REMARK    2  A    between atoms: C4_4  and  N6_5 
REMARK    3  A    between atoms: C4_4  and  C10_9 
REMARK    4  A    between atoms: C10_9  and  O12_11 
REMARK    5  A    between atoms: O12_11  and  C13_12 
REMARK    6  A    between atoms: C13_12  and  C14_13 
REMARK    7  A    between atoms: C14_13  and  C16_14 
REMARK    8  A    between atoms: C14_13  and  O18_16 
REMARK    9  A    between atoms: C16_14  and  O17_15 
REMARK   10  A    between atoms: O18_16  and  C19_17 
REMARK   11  A    between atoms: C19_17  and  N20_18 
REMARK   12  A    between atoms: C26_24  and  N27_25 
ROOT
ATOM      1  C14 <0> d   1      -0.966  -4.727  -2.477  0.00  0.00     0.171 C 
ENDROOT
BRANCH   1   2
ATOM      2  C13 <0> d   1      -1.206  -4.153  -1.079  0.00  0.00     0.213 C 
BRANCH   2   3
ATOM      3  O12 <0> d   1      -1.213  -2.703  -1.146  0.00  0.00    -0.317 OA
BRANCH   3   4
ATOM      4  C10 <0> d   1      -1.413  -2.041   0.005  0.00  0.00     0.290 C 
ATOM      5  O11 <0> d   1      -1.577  -2.653   1.033  0.00  0.00    -0.263 OA
BRANCH   4   6
ATOM      6  C4  <0> d   1      -1.433  -0.534   0.013  0.00  0.00     0.285 C 
BRANCH   6   7
ATOM      7  C2  <0> d   1       0.002  -0.004   0.002  0.00  0.00     0.018 C 
ATOM      8  C1  <0> d   1      -0.019   1.526   0.010  0.00  0.00     0.012 C 
ATOM      9  C3  <0> d   1       0.742  -0.511   1.242  0.00  0.00     0.012 C 
ENDBRANCH   6   7
BRANCH   6  10
ATOM     10  N6  <0> d   1      -2.121  -0.060   1.222  0.00  0.00    -0.066 N 
ATOM     11  H7  <0> d   1      -1.633  -0.394   2.039  0.00  0.00     0.275 HD
ATOM     12  H8  <0> d   1      -2.135   0.949   1.227  0.00  0.00     0.275 HD
ATOM     13  H9  <0> d   1      -3.067  -0.409   1.229  0.00  0.00     0.275 HD
ENDBRANCH   6  10
ENDBRANCH   4   6
ENDBRANCH   3   4
ENDBRANCH   2   3
ENDBRANCH   1   2
BRANCH   1  14
ATOM     14  C16 <0> d   1      -2.009  -4.166  -3.444  0.00  0.00     0.198 C 
BRANCH  14  15
ATOM     15  O17 <0> d   1      -1.980  -2.738  -3.402  0.00  0.00    -0.398 OA
ATOM     16  H42 <0> d   1      -2.617  -2.314  -3.992  0.00  0.00     0.209 HD
ENDBRANCH  14  15
ENDBRANCH   1  14
BRANCH   1  17
ATOM     17  O18 <0> d   1       0.342  -4.363  -2.923  0.00  0.00    -0.362 OA
BRANCH  17  18
ATOM     18  C19 <0> d   1       0.939  -5.311  -3.810  0.00  0.00     0.301 C 
BRANCH  18  19
ATOM     19  N20 <0> d   1       2.269  -4.842  -4.203  0.00  0.00    -0.301 N 
ATOM     20  C24 <0> d   1       3.139  -5.484  -5.043  0.00  0.00     0.186 A 
ATOM     21  C23 <0> d   1       4.272  -4.667  -5.127  0.00  0.00     0.173 A 
ATOM     22  N25 <0> d   1       3.096  -6.631  -5.731  0.00  0.00    -0.044 NA
ATOM     23  N22 <0> d   1       4.049  -3.587  -4.340  0.00  0.00    -0.234 NA
ATOM     24  C29 <0> d   1       5.350  -5.086  -5.942  0.00  0.00     0.292 A 
ATOM     25  C21 <0> d   1       2.871  -3.686  -3.796  0.00  0.00     0.214 A 
ATOM     26  N28 <0> d   1       5.232  -6.255  -6.610  0.00  0.00    -0.152 N 
ATOM     27  O30 <0> d   1       6.356  -4.406  -6.045  0.00  0.00    -0.265 OA
ATOM     28  C26 <0> d   1       4.102  -7.007  -6.488  0.00  0.00     0.703 A 
ATOM     29  H48 <0> d   1       5.957  -6.561  -7.177  0.00  0.00     0.187 HD
BRANCH  28  30
ATOM     30  N27 <0> d   1       4.012  -8.191  -7.176  0.00  0.00    -0.233 N 
ATOM     31  H46 <0> d   1       3.214  -8.737  -7.099  0.00  0.00     0.174 HD
ATOM     32  H47 <0> d   1       4.747  -8.482  -7.739  0.00  0.00     0.174 HD
ENDBRANCH  28  30
ENDBRANCH  18  19
ENDBRANCH  17  18
ENDBRANCH   1  17
TORSDOF 12
