REMARK  9 active torsions:
REMARK  status: ('A' for Active; 'I' for Inactive)
REMARK    1  A    between atoms: N1_1  and  C2_2 
REMARK    2  A    between atoms: N6_6  and  C7_7 
REMARK    3  A    between atoms: C7_7  and  C8_8 
REMARK    4  A    between atoms: C8_8  and  C10_9 
REMARK    5  A    between atoms: C8_8  and  O12_11 
REMARK    6  A    between atoms: C10_9  and  O11_10 
REMARK    7  A    between atoms: O12_11  and  C13_12 
REMARK    8  A    between atoms: C13_12  and  P14_13 
REMARK    9  A    between atoms: P14_13  and  O17_16 
ROOT
ATOM      1  C7  ZIN A   1      -0.305  -3.789   0.083  0.00  0.00     0.167 C 
ENDROOT
BRANCH   1   2
ATOM      2  N6  ZIN A   1      -0.189  -2.344  -0.124  0.00  0.00    -0.306 N 
ATOM      3  C4  ZIN A   1      -1.300  -1.594  -0.249  0.00  0.00     0.350 A 
ATOM      4  N3  ZIN A   1      -1.223  -0.278  -0.439  0.00  0.00    -0.177 NA
ATOM      5  O5  ZIN A   1      -2.394  -2.129  -0.189  0.00  0.00    -0.244 OA
ATOM      6  C2  ZIN A   1      -0.046   0.329  -0.509  0.00  0.00     0.128 A 
ATOM      7  C19 ZIN A   1       1.137  -0.428  -0.386  0.00  0.00     0.067 A 
ATOM      8  C18 ZIN A   1       1.043  -1.765  -0.189  0.00  0.00     0.099 A 
BRANCH   6   9
ATOM      9  N1  ZIN A   1       0.021   1.689  -0.705  0.00  0.00    -0.384 N 
ATOM     10  H20 ZIN A   1       0.883   2.129  -0.760  0.00  0.00     0.157 HD
ATOM     11  H21 ZIN A   1      -0.795   2.207  -0.793  0.00  0.00     0.157 HD
ENDBRANCH   6   9
ENDBRANCH   1   2
BRANCH   1  12
ATOM     12  C8  ZIN A   1      -0.323  -4.499  -1.272  0.00  0.00     0.164 C 
BRANCH  12  13
ATOM     13  C10 ZIN A   1      -0.445  -6.008  -1.056  0.00  0.00     0.197 C 
BRANCH  13  14
ATOM     14  O11 ZIN A   1      -1.599  -6.285  -0.260  0.00  0.00    -0.398 OA
ATOM     15  H26 ZIN A   1      -1.739  -7.225  -0.083  0.00  0.00     0.209 HD
ENDBRANCH  13  14
ENDBRANCH  12  13
BRANCH  12  16
ATOM     16  O12 ZIN A   1      -1.438  -4.036  -2.037  0.00  0.00    -0.370 OA
BRANCH  16  17
ATOM     17  C13 ZIN A   1      -1.248  -4.120  -3.451  0.00  0.00     0.303 C 
BRANCH  17  18
ATOM     18  P14 ZIN A   1      -0.138  -2.780  -3.995  0.00  0.00     0.271 P 
ATOM     19  O15 ZIN A   1      -0.695  -1.422  -3.514  0.00  0.00    -0.645 OA
ATOM     20  O16 ZIN A   1       1.269  -3.002  -3.396  0.00  0.00    -0.645 OA
BRANCH  18  21
ATOM     21  O17 ZIN A   1      -0.042  -2.782  -5.602  0.00  0.00    -0.321 OA
ATOM     22  H29 ZIN A   1       0.533  -2.094  -5.963  0.00  0.00     0.221 HD
ENDBRANCH  18  21
ENDBRANCH  17  18
ENDBRANCH  16  17
ENDBRANCH  12  16
ENDBRANCH   1  12
TORSDOF 9
