REMARK  5 active torsions:
REMARK  status: ('A' for Active; 'I' for Inactive)
REMARK    1  A    between atoms: C2_2  and  O4_3 
REMARK    2  A    between atoms: C2_2  and  C5_4 
REMARK    3  A    between atoms: C5_4  and  O7_5 
REMARK    4  A    between atoms: C5_4  and  C8_6 
REMARK    5  A    between atoms: C18_15  and  N19_16 
ROOT
ATOM      1  C8  <0> d   1       0.655  -2.037   1.299  0.00  0.00     0.131 C 
ATOM      2  C10 <0> d   1       1.412  -2.555   2.531  0.00  0.00     0.149 C 
ATOM      3  N11 <0> d   1       2.834  -2.219   2.371  0.00  0.00    -0.372 N 
ATOM      4  C12 <0> d   1       3.447  -2.448   1.155  0.00  0.00     0.149 A 
ATOM      5  C13 <0> d   1       2.698  -2.643   0.030  0.00  0.00     0.144 A 
ATOM      6  N14 <0> d   1       1.287  -2.617   0.102  0.00  0.00    -0.373 N 
ATOM      7  C15 <0> d   1       3.351  -2.870  -1.198  0.00  0.00     0.313 A 
ATOM      8  O16 <0> d   1       2.701  -3.045  -2.219  0.00  0.00    -0.263 OA
ATOM      9  N17 <0> d   1       4.693  -2.893  -1.236  0.00  0.00    -0.021 NA
ATOM     10  C18 <0> d   1       5.406  -2.707  -0.146  0.00  0.00     0.703 A 
ATOM     11  N20 <0> d   1       4.814  -2.483   1.059  0.00  0.00    -0.173 N 
ATOM     12  H28 <0> d   1       3.336  -1.840   3.110  0.00  0.00     0.161 HD
ATOM     13  H29 <0> d   1       0.747  -2.973  -0.621  0.00  0.00     0.160 HD
ATOM     14  H32 <0> d   1       5.360  -2.349   1.850  0.00  0.00     0.186 HD
ENDROOT
BRANCH   1  15
ATOM     15  C5  <0> d   1       0.742  -0.511   1.242  0.00  0.00     0.170 C 
BRANCH  15  16
ATOM     16  C2  <0> d   1       0.002  -0.004   0.002  0.00  0.00     0.145 C 
ATOM     17  C1  <0> d   1      -0.019   1.526   0.010  0.00  0.00     0.042 C 
BRANCH  16  18
ATOM     18  O4  <0> d   1      -1.339  -0.499   0.012  0.00  0.00    -0.393 OA
ATOM     19  H24 <0> d   1      -1.868  -0.216  -0.746  0.00  0.00     0.210 HD
ENDBRANCH  16  18
ENDBRANCH  15  16
BRANCH  15  20
ATOM     20  O7  <0> d   1       0.143   0.044   2.414  0.00  0.00    -0.391 OA
ATOM     21  H25 <0> d   1      -0.790  -0.184   2.525  0.00  0.00     0.210 HD
ENDBRANCH  15  20
ENDBRANCH   1  15
BRANCH  10  22
ATOM     22  N19 <0> d   1       6.775  -2.739  -0.226  0.00  0.00    -0.233 N 
ATOM     23  H30 <0> d   1       7.207  -2.897  -1.079  0.00  0.00     0.174 HD
ATOM     24  H31 <0> d   1       7.310  -2.603   0.572  0.00  0.00     0.174 HD
ENDBRANCH  10  22
TORSDOF 5
