REMARK  1 active torsions:
REMARK  status: ('A' for Active; 'I' for Inactive)
REMARK    1  A    between atoms: N15_14  and  C16_15 
ROOT
ATOM      1  O1  ZIN A   1       0.115   0.040   0.641  0.00  0.00    -0.267 OA
ATOM      2  C2  ZIN A   1       0.035   1.216   0.347  0.00  0.00     0.254 C 
ATOM      3  C3  ZIN A   1      -1.273   1.904   0.373  0.00  0.00     0.039 A 
ATOM      4  C4  ZIN A   1      -2.364   1.316   1.011  0.00  0.00     0.017 A 
ATOM      5  C5  ZIN A   1      -3.572   1.982   1.036  0.00  0.00     0.002 A 
ATOM      6  C6  ZIN A   1      -3.694   3.216   0.432  0.00  0.00     0.007 A 
ATOM      7  C7  ZIN A   1      -2.612   3.810  -0.213  0.00  0.00    -0.050 A 
ATOM      8  C8  ZIN A   1      -1.404   3.154  -0.241  0.00  0.00    -0.030 A 
ATOM      9  C9  ZIN A   1      -0.204   3.740  -0.939  0.00  0.00     0.038 C 
ATOM     10  C11 ZIN A   1      -0.333   5.265  -0.959  0.00  0.00     0.011 C 
ATOM     11  C12 ZIN A   1      -1.640   5.638  -1.653  0.00  0.00     0.005 C 
ATOM     12  C13 ZIN A   1      -2.835   5.147  -0.857  0.00  0.00     0.039 C 
ATOM     13  C14 ZIN A   1       1.078   3.354  -0.205  0.00  0.00     0.136 C 
ATOM     14  N15 ZIN A   1       1.139   1.905   0.001  0.00  0.00    -0.341 N 
ENDROOT
BRANCH  14  15
ATOM     15  C16 ZIN A   1       2.411   1.200  -0.175  0.00  0.00     0.120 C 
ATOM     16  C22 ZIN A   1       3.536   2.217  -0.402  0.00  0.00     0.014 C 
ATOM     17  C21 ZIN A   1       4.860   1.456  -0.549  0.00  0.00     0.037 C 
ATOM     18  C23 ZIN A   1       3.627   3.123   0.832  0.00  0.00     0.037 C 
ATOM     19  C20 ZIN A   1       5.106   0.635   0.720  0.00  0.00     0.273 C 
ATOM     20  N19 ZIN A   1       3.995   0.845   1.658  0.00  0.00     0.090 N 
ATOM     21  C18 ZIN A   1       2.724   0.384   1.083  0.00  0.00     0.298 C 
ATOM     22  C24 ZIN A   1       3.910   2.254   2.066  0.00  0.00     0.273 C 
ENDBRANCH  14  15
TORSDOF 1
