REMARK  11 active torsions:
REMARK  status: ('A' for Active; 'I' for Inactive)
REMARK    1  A    between atoms: O2_2  and  C3_3 
REMARK    2  A    between atoms: C3_3  and  C5_5 
REMARK    3  A    between atoms: C11_11  and  C12_12 
REMARK    4  A    between atoms: C12_12  and  O14_14 
REMARK    5  A    between atoms: O14_14  and  C15_15 
REMARK    6  A    between atoms: C15_15  and  C16_16 
REMARK    7  A    between atoms: C16_16  and  N17_17 
REMARK    8  A    between atoms: N17_17  and  C20_20 
REMARK    9  A    between atoms: C20_20  and  C21_21 
REMARK   10  A    between atoms: C27_27  and  C29_28 
REMARK   11  A    between atoms: C33_32  and  N34_33 
ROOT
ATOM      1  C5  ZIN A   1      -1.828  -1.186  -0.602  0.00  0.00     0.052 C 
ATOM      2  C6  ZIN A   1      -1.445  -1.483  -1.856  0.00  0.00     0.018 C 
ATOM      3  C7  ZIN A   1      -1.550  -0.435  -2.934  0.00  0.00     0.069 C 
ATOM      4  N8  ZIN A   1      -0.961  -2.724  -2.166  0.00  0.00    -0.362 N 
ATOM      5  C9  ZIN A   1      -0.520  -3.560  -1.176  0.00  0.00     0.018 C 
ATOM      6  C10 ZIN A   1       0.363  -4.729  -1.528  0.00  0.00     0.069 C 
ATOM      7  C11 ZIN A   1      -0.865  -3.350   0.106  0.00  0.00     0.052 C 
ATOM      8  C27 ZIN A   1      -1.743  -2.200   0.503  0.00  0.00     0.101 C 
ATOM      9  H44 ZIN A   1      -0.930  -3.014  -3.091  0.00  0.00     0.165 HD
ENDROOT
BRANCH   7  10
ATOM     10  C12 ZIN A   1      -0.384  -4.229   1.104  0.00  0.00     0.292 C 
ATOM     11  O13 ZIN A   1       0.401  -5.112   0.811  0.00  0.00    -0.259 OA
BRANCH  10  12
ATOM     12  O14 ZIN A   1      -0.796  -4.090   2.382  0.00  0.00    -0.316 OA
BRANCH  12  13
ATOM     13  C15 ZIN A   1      -0.361  -5.080   3.316  0.00  0.00     0.206 C 
BRANCH  13  14
ATOM     14  C16 ZIN A   1      -1.007  -4.815   4.677  0.00  0.00     0.261 C 
BRANCH  14  15
ATOM     15  N17 ZIN A   1      -0.493  -3.553   5.225  0.00  0.00    -0.069 N 
ATOM     16  H18 ZIN A   1      -0.636  -2.812   4.555  0.00  0.00     0.279 HD
ATOM     17  C19 ZIN A   1       0.942  -3.688   5.505  0.00  0.00     0.270 C 
BRANCH  15  18
ATOM     18  C20 ZIN A   1      -1.207  -3.232   6.469  0.00  0.00     0.273 C 
BRANCH  18  19
ATOM     19  C21 ZIN A   1      -0.779  -1.872   6.957  0.00  0.00    -0.033 A 
ATOM     20  C26 ZIN A   1      -1.409  -0.738   6.481  0.00  0.00     0.009 A 
ATOM     21  C25 ZIN A   1      -1.020   0.510   6.932  0.00  0.00     0.001 A 
ATOM     22  C24 ZIN A   1       0.006   0.623   7.853  0.00  0.00     0.000 A 
ATOM     23  C23 ZIN A   1       0.639  -0.512   8.325  0.00  0.00     0.001 A 
ATOM     24  C22 ZIN A   1       0.247  -1.759   7.877  0.00  0.00     0.009 A 
ENDBRANCH  18  19
ENDBRANCH  15  18
ENDBRANCH  14  15
ENDBRANCH  13  14
ENDBRANCH  12  13
ENDBRANCH  10  12
ENDBRANCH   7  10
BRANCH   8  25
ATOM     25  C29 ZIN A   1      -3.129  -2.713   0.797  0.00  0.00    -0.042 A 
ATOM     26  C37 ZIN A   1      -3.719  -2.451   2.020  0.00  0.00     0.044 A 
ATOM     27  C33 ZIN A   1      -4.992  -2.918   2.288  0.00  0.00     0.103 A 
ATOM     28  C32 ZIN A   1      -5.672  -3.655   1.336  0.00  0.00     0.036 A 
ATOM     29  C31 ZIN A   1      -5.081  -3.921   0.116  0.00  0.00     0.003 A 
ATOM     30  C30 ZIN A   1      -3.809  -3.451  -0.154  0.00  0.00     0.008 A 
BRANCH  27  31
ATOM     31  N34 ZIN A   1      -5.625  -2.632   3.595  0.00  0.00    -0.116 N 
ATOM     32  O35 ZIN A   1      -6.780  -2.962   3.797  0.00  0.00    -0.532 OA
ATOM     33  O36 ZIN A   1      -4.992  -2.067   4.468  0.00  0.00    -0.532 OA
ENDBRANCH  27  31
ENDBRANCH   8  25
BRANCH   1  34
ATOM     34  C3  ZIN A   1      -2.315   0.110  -0.316  0.00  0.00     0.291 C 
ATOM     35  O4  ZIN A   1      -1.598   0.921   0.240  0.00  0.00    -0.260 OA
BRANCH  34  36
ATOM     36  O2  ZIN A   1      -3.576   0.448  -0.659  0.00  0.00    -0.323 OA
ATOM     37  C1  ZIN A   1      -4.002   1.774  -0.339  0.00  0.00     0.213 C 
ENDBRANCH  34  36
ENDBRANCH   1  34
TORSDOF 11
