REMARK  5 active torsions:
REMARK  status: ('A' for Active; 'I' for Inactive)
REMARK    1  A    between atoms: N2_2  and  C4_4 
REMARK    2  A    between atoms: N2_2  and  C13_13 
REMARK    3  A    between atoms: C4_4  and  C5_5 
REMARK    4  A    between atoms: C6_6  and  C7_7 
REMARK    5  A    between atoms: C13_13  and  C14_14 
ROOT
ATOM      1  C1  ZIN A   1      -0.018   1.465   0.010  0.00  0.00     0.270 C 
ATOM      2  N2  ZIN A   1       0.002  -0.004   0.002  0.00  0.00    -0.068 N 
ATOM      3  H3  ZIN A   1      -0.945  -0.353   0.009  0.00  0.00     0.280 HD
ENDROOT
BRANCH   2   4
ATOM      4  C4  ZIN A   1       0.690  -0.478  -1.207  0.00  0.00     0.262 C 
BRANCH   4   5
ATOM      5  C5  ZIN A   1      -0.106  -0.083  -2.424  0.00  0.00     0.001 C 
ATOM      6  C6  ZIN A   1       0.469   0.615  -3.394  0.00  0.00     0.009 C 
BRANCH   6   7
ATOM      7  C7  ZIN A   1      -0.311   1.002  -4.588  0.00  0.00    -0.036 A 
ATOM      8  C12 ZIN A   1       0.291   1.736  -5.611  0.00  0.00     0.011 A 
ATOM      9  C11 ZIN A   1      -0.441   2.088  -6.726  0.00  0.00     0.001 A 
ATOM     10  C10 ZIN A   1      -1.772   1.726  -6.826  0.00  0.00     0.000 A 
ATOM     11  C9  ZIN A   1      -2.377   1.003  -5.813  0.00  0.00     0.001 A 
ATOM     12  C8  ZIN A   1      -1.654   0.639  -4.696  0.00  0.00     0.011 A 
ENDBRANCH   6   7
ENDBRANCH   4   5
ENDBRANCH   2   4
BRANCH   2  13
ATOM     13  C13 ZIN A   1       0.713  -0.491   1.192  0.00  0.00     0.274 C 
BRANCH  13  14
ATOM     14  C14 ZIN A   1      -0.059  -0.109   2.429  0.00  0.00    -0.021 A 
ATOM     15  C23 ZIN A   1       0.318   0.972   3.165  0.00  0.00     0.010 A 
ATOM     16  C22 ZIN A   1      -0.386   1.343   4.308  0.00  0.00     0.002 A 
ATOM     17  C21 ZIN A   1      -1.467   0.629   4.728  0.00  0.00     0.012 A 
ATOM     18  C20 ZIN A   1      -1.883  -0.497   3.998  0.00  0.00    -0.025 A 
ATOM     19  C15 ZIN A   1      -1.169  -0.871   2.832  0.00  0.00    -0.018 A 
ATOM     20  C19 ZIN A   1      -2.993  -1.258   4.400  0.00  0.00     0.012 A 
ATOM     21  C16 ZIN A   1      -1.585  -1.997   2.101  0.00  0.00     0.013 A 
ATOM     22  C17 ZIN A   1      -2.665  -2.712   2.522  0.00  0.00     0.001 A 
ATOM     23  C18 ZIN A   1      -3.367  -2.343   3.668  0.00  0.00     0.001 A 
ENDBRANCH  13  14
ENDBRANCH   2  13
TORSDOF 5
