REMARK  8 active torsions:
REMARK  status: ('A' for Active; 'I' for Inactive)
REMARK    1  A    between atoms: C2_2  and  C4_4 
REMARK    2  A    between atoms: C4_4  and  C5_5 
REMARK    3  A    between atoms: C5_5  and  N6_6 
REMARK       I    between atoms: N6_6  and  C7_7 
REMARK    4  A    between atoms: C7_7  and  C9_9 
REMARK    5  A    between atoms: C12_12  and  N13_13 
REMARK    6  A    between atoms: N13_13  and  N14_14 
REMARK    7  A    between atoms: N14_14  and  C15_15 
REMARK    8  A    between atoms: C20_20  and  C21_21 
ROOT
ATOM      1  C9  ZIN A   1      -6.205   1.683   0.057  0.00  0.00     0.032 A 
ATOM      2  C10 ZIN A   1      -6.225   3.080   0.070  0.00  0.00     0.019 A 
ATOM      3  C11 ZIN A   1      -7.427   3.751   0.079  0.00  0.00     0.032 A 
ATOM      4  C12 ZIN A   1      -8.623   3.038   0.073  0.00  0.00     0.050 A 
ATOM      5  C25 ZIN A   1      -8.607   1.646   0.060  0.00  0.00     0.032 A 
ATOM      6  C26 ZIN A   1      -7.407   0.971   0.046  0.00  0.00     0.019 A 
ENDROOT
BRANCH   4   7
ATOM      7  N13 ZIN A   1      -9.836   3.718   0.081  0.00  0.00    -0.278 N 
ATOM      8  H34 ZIN A   1      -9.849   4.688   0.090  0.00  0.00     0.189 HD
BRANCH   7   9
ATOM      9  N14 ZIN A   1     -10.945   3.059   0.076  0.00  0.00    -0.175 NA
BRANCH   9  10
ATOM     10  C15 ZIN A   1     -12.105   3.705   0.185  0.00  0.00     0.078 A 
ATOM     11  C24 ZIN A   1     -13.302   2.974   0.298  0.00  0.00     0.056 A 
ATOM     12  C20 ZIN A   1     -14.509   3.648   0.418  0.00  0.00     0.092 A 
ATOM     13  C18 ZIN A   1     -14.508   5.115   0.412  0.00  0.00     0.189 A 
ATOM     14  C17 ZIN A   1     -13.282   5.806   0.289  0.00  0.00     0.058 A 
ATOM     15  O19 ZIN A   1     -15.556   5.734   0.511  0.00  0.00    -0.287 OA
ATOM     16  C16 ZIN A   1     -12.121   5.121   0.180  0.00  0.00     0.037 A 
BRANCH  12  17
ATOM     17  C21 ZIN A   1     -15.768   2.904   0.543  0.00  0.00     0.213 C 
ATOM     18  O22 ZIN A   1     -15.759   1.680   0.547  0.00  0.00    -0.644 OA
ATOM     19  O23 ZIN A   1     -16.828   3.508   0.643  0.00  0.00    -0.644 OA
ENDBRANCH  12  17
ENDBRANCH   9  10
ENDBRANCH   7   9
ENDBRANCH   4   7
BRANCH   1  20
ATOM     20  C7  ZIN A   1      -4.917   0.961   0.049  0.00  0.00     0.251 C 
ATOM     21  N6  ZIN A   1      -3.759   1.650   0.059  0.00  0.00    -0.356 N 
ATOM     22  H31 ZIN A   1      -3.771   2.620   0.073  0.00  0.00     0.162 HD
ATOM     23  O8  ZIN A   1      -4.902  -0.254   0.032  0.00  0.00    -0.268 OA
BRANCH  21  24
ATOM     24  C5  ZIN A   1      -2.481   0.934   0.051  0.00  0.00     0.133 C 
BRANCH  24  25
ATOM     25  C4  ZIN A   1      -1.330   1.942   0.066  0.00  0.00     0.133 C 
BRANCH  25  26
ATOM     26  C2  ZIN A   1      -0.016   1.206   0.058  0.00  0.00     0.174 C 
ATOM     27  O1  ZIN A   1      -0.000  -0.013   0.041  0.00  0.00    -0.648 OA
ATOM     28  O3  ZIN A   1       1.032   1.829   0.062  0.00  0.00    -0.648 OA
ENDBRANCH  25  26
ENDBRANCH  24  25
ENDBRANCH  21  24
ENDBRANCH   1  20
TORSDOF 8
