REMARK  20 active torsions:
REMARK  status: ('A' for Active; 'I' for Inactive)
REMARK    1  A    between atoms: C2_2  and  C4_4 
REMARK    2  A    between atoms: C4_4  and  N5_5 
REMARK    3  A    between atoms: N5_5  and  C6_6 
REMARK    4  A    between atoms: N5_5  and  C18_18 
REMARK    5  A    between atoms: C6_6  and  C7_7 
REMARK    6  A    between atoms: C7_7  and  N8_8 
REMARK    7  A    between atoms: N8_8  and  C10_10 
REMARK    8  A    between atoms: N8_8  and  C14_14 
REMARK    9  A    between atoms: C10_10  and  C11_11 
REMARK   10  A    between atoms: C14_14  and  C15_15 
REMARK   11  A    between atoms: C18_18  and  C19_19 
REMARK   12  A    between atoms: C19_19  and  N20_20 
REMARK   13  A    between atoms: N20_20  and  C22_22 
REMARK   14  A    between atoms: N20_20  and  C26_26 
REMARK   15  A    between atoms: C22_22  and  C23_23 
REMARK   16  A    between atoms: C26_26  and  C28_27 
REMARK   17  A    between atoms: C26_26  and  C37_36 
REMARK   18  A    between atoms: C28_27  and  O29_28 
REMARK   19  A    between atoms: O29_28  and  C30_29 
REMARK   20  A    between atoms: C30_29  and  C31_30 
ROOT
ATOM      1  C19 ZIN A   1       0.087  -1.759  -0.147  0.00  0.00     0.267 C 
ENDROOT
BRANCH   1   2
ATOM      2  C18 ZIN A   1      -1.036  -0.808  -0.568  0.00  0.00     0.300 C 
BRANCH   2   3
ATOM      3  N5  ZIN A   1      -1.155   0.275   0.417  0.00  0.00     0.101 N 
BRANCH   3   4
ATOM      4  C4  ZIN A   1      -0.040   1.224   0.293  0.00  0.00     0.385 C 
BRANCH   4   5
ATOM      5  C2  ZIN A   1      -0.106   1.904  -1.050  0.00  0.00     0.202 C 
ATOM      6  O1  ZIN A   1      -0.943   1.559  -1.868  0.00  0.00    -0.647 OA
ATOM      7  O3  ZIN A   1       0.673   2.803  -1.318  0.00  0.00    -0.647 OA
ENDBRANCH   4   5
ENDBRANCH   3   4
BRANCH   3   8
ATOM      8  C6  ZIN A   1      -2.447   0.962   0.291  0.00  0.00     0.300 C 
BRANCH   8   9
ATOM      9  C7  ZIN A   1      -2.640   1.907   1.478  0.00  0.00     0.266 C 
BRANCH   9  10
ATOM     10  N8  ZIN A   1      -3.933   2.594   1.352  0.00  0.00    -0.050 N 
ATOM     11  H9  ZIN A   1      -3.988   3.045   0.451  0.00  0.00     0.281 HD
BRANCH  10  12
ATOM     12  C10 ZIN A   1      -5.021   1.615   1.476  0.00  0.00     0.348 C 
BRANCH  12  13
ATOM     13  C11 ZIN A   1      -4.911   0.908   2.803  0.00  0.00     0.199 C 
ATOM     14  O12 ZIN A   1      -4.045   1.232   3.596  0.00  0.00    -0.647 OA
ATOM     15  O13 ZIN A   1      -5.689   0.011   3.082  0.00  0.00    -0.647 OA
ENDBRANCH  12  13
ENDBRANCH  10  12
BRANCH  10  16
ATOM     16  C14 ZIN A   1      -4.057   3.602   2.413  0.00  0.00     0.348 C 
BRANCH  16  17
ATOM     17  C15 ZIN A   1      -5.308   4.413   2.191  0.00  0.00     0.199 C 
ATOM     18  O16 ZIN A   1      -6.033   4.168   1.242  0.00  0.00    -0.647 OA
ATOM     19  O17 ZIN A   1      -5.595   5.314   2.961  0.00  0.00    -0.647 OA
ENDBRANCH  16  17
ENDBRANCH  10  16
ENDBRANCH   9  10
ENDBRANCH   8   9
ENDBRANCH   3   8
ENDBRANCH   2   3
ENDBRANCH   1   2
BRANCH   1  20
ATOM     20  N20 ZIN A   1       0.291  -2.769  -1.194  0.00  0.00    -0.044 N 
ATOM     21  H21 ZIN A   1       0.448  -2.310  -2.079  0.00  0.00     0.281 HD
BRANCH  20  22
ATOM     22  C22 ZIN A   1      -0.901  -3.622  -1.291  0.00  0.00     0.348 C 
BRANCH  22  23
ATOM     23  C23 ZIN A   1      -1.096  -4.362   0.007  0.00  0.00     0.199 C 
ATOM     24  O24 ZIN A   1      -0.350  -4.149   0.948  0.00  0.00    -0.647 OA
ATOM     25  O25 ZIN A   1      -2.000  -5.173   0.117  0.00  0.00    -0.647 OA
ENDBRANCH  22  23
ENDBRANCH  20  22
BRANCH  20  26
ATOM     26  C26 ZIN A   1       1.458  -3.595  -0.857  0.00  0.00     0.312 C 
BRANCH  26  27
ATOM     27  C28 ZIN A   1       1.585  -4.736  -1.868  0.00  0.00     0.212 C 
BRANCH  27  28
ATOM     28  O29 ZIN A   1       1.845  -4.197  -3.165  0.00  0.00    -0.384 OA
BRANCH  28  29
ATOM     29  C30 ZIN A   1       1.981  -5.185  -4.189  0.00  0.00     0.206 C 
BRANCH  29  30
ATOM     30  C31 ZIN A   1       2.252  -4.508  -5.508  0.00  0.00    -0.035 A 
ATOM     31  C36 ZIN A   1       3.554  -4.255  -5.900  0.00  0.00     0.009 A 
ATOM     32  C35 ZIN A   1       3.802  -3.637  -7.112  0.00  0.00     0.001 A 
ATOM     33  C34 ZIN A   1       2.750  -3.265  -7.927  0.00  0.00     0.000 A 
ATOM     34  C33 ZIN A   1       1.448  -3.513  -7.532  0.00  0.00     0.001 A 
ATOM     35  C32 ZIN A   1       1.200  -4.134  -6.322  0.00  0.00     0.009 A 
ENDBRANCH  29  30
ENDBRANCH  28  29
ENDBRANCH  27  28
ENDBRANCH  26  27
BRANCH  26  36
ATOM     36  C37 ZIN A   1       2.703  -2.746  -0.899  0.00  0.00     0.207 C 
ATOM     37  O38 ZIN A   1       3.646  -3.012  -0.174  0.00  0.00    -0.646 OA
ATOM     38  O39 ZIN A   1       2.766  -1.794  -1.658  0.00  0.00    -0.646 OA
ENDBRANCH  26  36
ENDBRANCH  20  26
ENDBRANCH   1  20
TORSDOF 20
