REMARK  0 active torsions:
REMARK  status: ('A' for Active; 'I' for Inactive)
ROOT
ATOM      1  C1  ZIN A   1      -0.018   1.465   0.010  0.00  0.00     0.309 C 
ATOM      2  N2  ZIN A   1       0.002  -0.004   0.002  0.00  0.00     0.085 N 
ATOM      3  C3  ZIN A   1      -1.380  -0.556  -0.005  0.00  0.00     0.282 C 
ATOM      4  C4  ZIN A   1      -1.270  -1.836   0.839  0.00  0.00     0.060 C 
ATOM      5  C6  ZIN A   1      -2.544  -2.357   1.379  0.00  0.00    -0.018 A 
ATOM      6  C7  ZIN A   1      -3.749  -1.712   1.194  0.00  0.00     0.010 A 
ATOM      7  C8  ZIN A   1      -4.904  -2.231   1.753  0.00  0.00     0.001 A 
ATOM      8  C9  ZIN A   1      -4.854  -3.393   2.500  0.00  0.00     0.003 A 
ATOM      9  C10 ZIN A   1      -3.650  -4.050   2.678  0.00  0.00     0.038 A 
ATOM     10  C11 ZIN A   1      -2.498  -3.541   2.104  0.00  0.00     0.082 A 
ATOM     11  O12 ZIN A   1      -1.322  -4.196   2.174  0.00  0.00    -0.310 OA
ATOM     12  C13 ZIN A   1      -0.240  -3.774   2.854  0.00  0.00     0.083 A 
ATOM     13  C14 ZIN A   1       0.385  -4.716   3.674  0.00  0.00     0.039 A 
ATOM     14  C15 ZIN A   1       1.486  -4.381   4.431  0.00  0.00     0.026 A 
ATOM     15  C16 ZIN A   1       1.979  -3.090   4.378  0.00  0.00     0.034 A 
ATOM     16 Cl17 ZIN A   1       3.357  -2.645   5.335  0.00  0.00    -0.084 Cl
ATOM     17  C18 ZIN A   1       1.372  -2.158   3.566  0.00  0.00     0.034 A 
ATOM     18  C19 ZIN A   1       0.264  -2.484   2.785  0.00  0.00    -0.016 A 
ATOM     19  C20 ZIN A   1      -0.293  -1.423   1.919  0.00  0.00     0.060 C 
ATOM     20  C22 ZIN A   1       0.714  -0.533   1.193  0.00  0.00     0.282 C 
ENDROOT
TORSDOF 0
