REMARK  9 active torsions:
REMARK  status: ('A' for Active; 'I' for Inactive)
REMARK    1  A    between atoms: O1_1  and  C2_2 
REMARK    2  A    between atoms: C2_2  and  C3_3 
REMARK    3  A    between atoms: C3_3  and  O4_4 
REMARK    4  A    between atoms: O4_4  and  C5_5 
REMARK    5  A    between atoms: C5_5  and  C6_6 
REMARK    6  A    between atoms: C6_6  and  N7_7 
REMARK    7  A    between atoms: N11_11  and  C12_12 
REMARK    8  A    between atoms: C12_12  and  C14_13 
REMARK    9  A    between atoms: C12_12  and  C20_19 
ROOT
ATOM      1  N7  ZIN A   1      -2.949  -0.291  -4.069  0.00  0.00    -0.066 N 
ATOM      2  H8  ZIN A   1      -1.952  -0.142  -4.108  0.00  0.00     0.280 HD
ATOM      3  C9  ZIN A   1      -3.547   0.059  -5.364  0.00  0.00     0.265 C 
ATOM      4  C10 ZIN A   1      -2.930  -0.809  -6.462  0.00  0.00     0.301 C 
ATOM      5  N11 ZIN A   1      -3.173  -2.226  -6.158  0.00  0.00     0.105 N 
ATOM      6  C27 ZIN A   1      -2.601  -2.585  -4.852  0.00  0.00     0.301 C 
ATOM      7  C28 ZIN A   1      -3.221  -1.702  -3.767  0.00  0.00     0.265 C 
ENDROOT
BRANCH   5   8
ATOM      8  C12 ZIN A   1      -2.644  -3.092  -7.220  0.00  0.00     0.289 C 
BRANCH   8   9
ATOM      9  C14 ZIN A   1      -3.291  -2.730  -8.532  0.00  0.00    -0.021 A 
ATOM     10  C19 ZIN A   1      -2.519  -2.602  -9.672  0.00  0.00     0.010 A 
ATOM     11  C18 ZIN A   1      -3.114  -2.275 -10.876  0.00  0.00     0.001 A 
ATOM     12  C17 ZIN A   1      -4.479  -2.065 -10.938  0.00  0.00     0.000 A 
ATOM     13  C16 ZIN A   1      -5.250  -2.187  -9.798  0.00  0.00     0.001 A 
ATOM     14  C15 ZIN A   1      -4.656  -2.519  -8.594  0.00  0.00     0.010 A 
ENDBRANCH   8   9
BRANCH   8  15
ATOM     15  C20 ZIN A   1      -2.944  -4.531  -6.892  0.00  0.00    -0.021 A 
ATOM     16  C26 ZIN A   1      -1.972  -5.498  -7.071  0.00  0.00     0.011 A 
ATOM     17  C25 ZIN A   1      -2.246  -6.818  -6.765  0.00  0.00     0.024 A 
ATOM     18  C23 ZIN A   1      -3.496  -7.173  -6.290  0.00  0.00     0.034 A 
ATOM     19  C22 ZIN A   1      -4.470  -6.206  -6.116  0.00  0.00     0.024 A 
ATOM     20 Cl24 ZIN A   1      -3.842  -8.832  -5.912  0.00  0.00    -0.084 Cl
ATOM     21  C21 ZIN A   1      -4.193  -4.886  -6.417  0.00  0.00     0.011 A 
ENDBRANCH   8  15
ENDBRANCH   5   8
BRANCH   1  22
ATOM     22  C6  ZIN A   1      -3.529   0.555  -3.017  0.00  0.00     0.261 C 
BRANCH  22  23
ATOM     23  C5  ZIN A   1      -2.817   0.279  -1.691  0.00  0.00     0.195 C 
BRANCH  23  24
ATOM     24  O4  ZIN A   1      -1.450   0.683  -1.790  0.00  0.00    -0.387 OA
BRANCH  24  25
ATOM     25  C3  ZIN A   1      -0.692   0.467  -0.598  0.00  0.00     0.193 C 
BRANCH  25  26
ATOM     26  C2  ZIN A   1       0.748   0.934  -0.818  0.00  0.00     0.190 C 
BRANCH  26  27
ATOM     27  O1  ZIN A   1       0.764   2.348  -1.026  0.00  0.00    -0.399 OA
ATOM     28  H29 ZIN A   1       1.647   2.713  -1.172  0.00  0.00     0.209 HD
ENDBRANCH  26  27
ENDBRANCH  25  26
ENDBRANCH  24  25
ENDBRANCH  23  24
ENDBRANCH  22  23
ENDBRANCH   1  22
TORSDOF 9
