REMARK  4 active torsions:
REMARK  status: ('A' for Active; 'I' for Inactive)
REMARK    1  A    between atoms: C11_9  and  O13_10 
REMARK    2  A    between atoms: O13_10  and  C14_11 
REMARK    3  A    between atoms: C14_11  and  C15_12 
REMARK    4  A    between atoms: C14_11  and  C21_18 
ROOT
ATOM      1  C14 ZIN A   1       4.346  -1.648  -0.752  0.00  0.00     0.188 C 
ENDROOT
BRANCH   1   2
ATOM      2  O13 ZIN A   1       3.083  -1.500  -0.100  0.00  0.00    -0.371 OA
BRANCH   2   3
ATOM      3  C11 ZIN A   1       2.602  -0.154  -0.062  0.00  0.00     0.126 C 
ATOM      4  C10 ZIN A   1       3.068   0.517   1.232  0.00  0.00     0.065 C 
ATOM      5  C8  ZIN A   1       2.389  -0.175   2.425  0.00  0.00     0.190 C 
ATOM      6  N2  ZIN A   1       0.925   0.063   2.309  0.00  0.00    -0.066 N 
ATOM      7  C7  ZIN A   1       2.539  -1.703   2.233  0.00  0.00     0.035 C 
ATOM      8  C1  ZIN A   1       0.654   1.472   1.994  0.00  0.00     0.270 C 
ATOM      9  H3  ZIN A   1       0.453  -0.208   3.159  0.00  0.00     0.280 HD
ATOM     10  C4  ZIN A   1       0.516  -0.814   1.180  0.00  0.00     0.190 C 
ATOM     11  C27 ZIN A   1       1.034  -0.163  -0.113  0.00  0.00     0.065 C 
ATOM     12  C6  ZIN A   1       1.302  -2.125   1.413  0.00  0.00     0.035 C 
ENDBRANCH   2   3
ENDBRANCH   1   2
BRANCH   1  13
ATOM     13  C15 ZIN A   1       5.037  -2.883  -0.235  0.00  0.00    -0.025 A 
ATOM     14  C20 ZIN A   1       6.399  -2.866  -0.001  0.00  0.00     0.010 A 
ATOM     15  C19 ZIN A   1       7.032  -3.998   0.477  0.00  0.00     0.001 A 
ATOM     16  C18 ZIN A   1       6.305  -5.149   0.714  0.00  0.00     0.000 A 
ATOM     17  C17 ZIN A   1       4.943  -5.168   0.475  0.00  0.00     0.001 A 
ATOM     18  C16 ZIN A   1       4.309  -4.035   0.000  0.00  0.00     0.010 A 
ENDBRANCH   1  13
BRANCH   1  19
ATOM     19  C21 ZIN A   1       4.130  -1.778  -2.238  0.00  0.00    -0.025 A 
ATOM     20  C26 ZIN A   1       5.033  -1.211  -3.119  0.00  0.00     0.010 A 
ATOM     21  C25 ZIN A   1       4.838  -1.334  -4.482  0.00  0.00     0.001 A 
ATOM     22  C24 ZIN A   1       3.736  -2.016  -4.964  0.00  0.00     0.000 A 
ATOM     23  C23 ZIN A   1       2.831  -2.578  -4.083  0.00  0.00     0.001 A 
ATOM     24  C22 ZIN A   1       3.028  -2.459  -2.720  0.00  0.00     0.010 A 
ENDBRANCH   1  19
TORSDOF 4
