REMARK  1 active torsions:
REMARK  status: ('A' for Active; 'I' for Inactive)
REMARK    1  A    between atoms: N1_1  and  C5_5 
ROOT
ATOM      1  C5  <0> d   1      -0.699   1.479   1.216  0.00  0.00     0.304 C 
ATOM      2  C7  <0> d   1      -0.683   3.023   1.286  0.00  0.00     0.246 C 
ATOM      3  O8  <0> d   1       0.493   3.288   2.074  0.00  0.00    -0.251 OA
ATOM      4  N9  <0> d   1       0.716   2.169   2.910  0.00  0.00    -0.092 NA
ATOM      5  C10 <0> d   1       0.064   1.072   2.463  0.00  0.00     0.299 C 
ATOM      6  O11 <0> d   1       0.089  -0.031   2.966  0.00  0.00    -0.267 OA
ENDROOT
BRANCH   1   7
ATOM      7  N1  <0> d   1      -0.012   1.005   0.008  0.00  0.00    -0.064 N 
ATOM      8  H2  <0> d   1       0.002  -0.004   0.002  0.00  0.00     0.275 HD
ATOM      9  H3  <0> d   1       0.935   1.354   0.000  0.00  0.00     0.275 HD
ATOM     10  H4  <0> d   1      -0.500   1.339  -0.810  0.00  0.00     0.275 HD
ENDBRANCH   1   7
TORSDOF 1
