REMARK  2 active torsions:
REMARK  status: ('A' for Active; 'I' for Inactive)
REMARK    1  A    between atoms: C16_15  and  O17_16 
REMARK    2  A    between atoms: C24_22  and  O25_23 
ROOT
ATOM      1  C1  ZIN A   1      -0.018   1.465   0.010  0.00  0.00     0.270 C 
ATOM      2  N2  ZIN A   1       0.002  -0.004   0.002  0.00  0.00    -0.067 N 
ATOM      3  H3  ZIN A   1       0.401  -0.325  -0.867  0.00  0.00     0.280 HD
ATOM      4  C4  ZIN A   1      -1.371  -0.505   0.116  0.00  0.00     0.236 C 
ATOM      5  C5  ZIN A   1      -2.008   0.000   1.417  0.00  0.00     0.048 C 
ATOM      6  C6  ZIN A   1      -1.145  -0.470   2.586  0.00  0.00     0.058 C 
ATOM      7  C7  ZIN A   1      -1.024  -1.973   2.553  0.00  0.00    -0.001 C 
ATOM      8  C8  ZIN A   1      -1.960  -2.491   3.436  0.00  0.00     0.110 C 
ATOM      9  O9  ZIN A   1      -2.606  -1.490   4.073  0.00  0.00    -0.334 OA
ATOM     10  C10 ZIN A   1      -1.834  -0.261   3.927  0.00  0.00     0.214 C 
ATOM     11  C12 ZIN A   1      -0.870  -0.202   5.075  0.00  0.00     0.157 C 
ATOM     12  O13 ZIN A   1      -1.268  -0.497   6.177  0.00  0.00    -0.295 OA
ATOM     13  C14 ZIN A   1       0.564   0.206   4.920  0.00  0.00     0.084 C 
ATOM     14  C15 ZIN A   1       1.143  -0.396   3.638  0.00  0.00     0.048 C 
ATOM     15  C16 ZIN A   1       0.270   0.064   2.433  0.00  0.00     0.102 C 
ATOM     16  C18 ZIN A   1       0.828  -0.481   1.117  0.00  0.00     0.227 C 
ATOM     17  C20 ZIN A   1       0.941  -1.995   1.066  0.00  0.00     0.075 C 
ATOM     18  C21 ZIN A   1      -0.087  -2.707   1.861  0.00  0.00    -0.046 C 
ATOM     19  C22 ZIN A   1      -0.204  -4.082   1.956  0.00  0.00     0.011 C 
ATOM     20  C23 ZIN A   1      -1.159  -4.646   2.786  0.00  0.00     0.040 C 
ATOM     21  C24 ZIN A   1      -2.056  -3.883   3.547  0.00  0.00     0.099 C 
ENDROOT
BRANCH  15  22
ATOM     22  O17 ZIN A   1       0.239   1.492   2.383  0.00  0.00    -0.386 OA
ATOM     23  H37 ZIN A   1       1.109   1.901   2.276  0.00  0.00     0.210 HD
ENDBRANCH  15  22
BRANCH  21  24
ATOM     24  O25 ZIN A   1      -2.959  -4.468   4.379  0.00  0.00    -0.358 OA
ATOM     25  H42 ZIN A   1      -2.634  -4.606   5.279  0.00  0.00     0.217 HD
ENDBRANCH  21  24
TORSDOF 2
