REMARK  1 active torsions:
REMARK  status: ('A' for Active; 'I' for Inactive)
REMARK    1  A    between atoms: C7_7  and  C9_8 
ROOT
ATOM      1  C1  ZIN A   1      -0.728   1.298   0.711  0.00  0.00     0.270 C 
ATOM      2  N2  ZIN A   1      -0.416  -0.108   0.424  0.00  0.00    -0.067 N 
ATOM      3  H3  ZIN A   1      -0.297  -0.234  -0.570  0.00  0.00     0.280 HD
ATOM      4  C4  ZIN A   1      -1.516  -0.970   0.906  0.00  0.00     0.235 C 
ATOM      5  C5  ZIN A   1      -0.817  -2.251   1.426  0.00  0.00     0.030 C 
ATOM      6  C6  ZIN A   1       0.473  -1.667   2.062  0.00  0.00     0.040 C 
ATOM      7  C7  ZIN A   1       0.822  -0.495   1.125  0.00  0.00     0.222 C 
ENDROOT
BRANCH   7   8
ATOM      8  C9  ZIN A   1       1.345   0.666   1.930  0.00  0.00    -0.010 A 
ATOM      9  C14 ZIN A   1       2.527   1.288   1.575  0.00  0.00     0.125 A 
ATOM     10  N13 ZIN A   1       2.988   2.308   2.272  0.00  0.00    -0.273 NA
ATOM     11  C12 ZIN A   1       2.353   2.768   3.332  0.00  0.00     0.116 A 
ATOM     12  C11 ZIN A   1       1.167   2.193   3.749  0.00  0.00     0.020 A 
ATOM     13  C10 ZIN A   1       0.648   1.122   3.039  0.00  0.00     0.012 A 
ENDBRANCH   7   8
TORSDOF 1
