REMARK  5 active torsions:
REMARK  status: ('A' for Active; 'I' for Inactive)
REMARK    1  A    between atoms: C6_6  and  C7_7 
REMARK    2  A    between atoms: C7_7  and  N8_8 
REMARK    3  A    between atoms: N12_12  and  C13_13 
REMARK    4  A    between atoms: C13_13  and  C15_14 
REMARK    5  A    between atoms: C13_13  and  C21_20 
ROOT
ATOM      1  N8  <0> d   1       1.444  -3.074   2.905  0.00  0.00    -0.064 N 
ATOM      2  H9  <0> d   1       1.945  -3.537   2.161  0.00  0.00     0.280 HD
ATOM      3  C10 <0> d   1       1.462  -3.917   4.107  0.00  0.00     0.265 C 
ATOM      4  C11 <0> d   1       2.911  -4.172   4.529  0.00  0.00     0.301 C 
ATOM      5  N12 <0> d   1       3.572  -2.887   4.801  0.00  0.00     0.105 N 
ATOM      6  C28 <0> d   1       3.539  -2.022   3.613  0.00  0.00     0.301 C 
ATOM      7  C29 <0> d   1       2.086  -1.785   3.198  0.00  0.00     0.265 C 
ENDROOT
BRANCH   5   8
ATOM      8  C13 <0> d   1       4.951  -3.092   5.265  0.00  0.00     0.289 C 
BRANCH   8   9
ATOM      9  C15 <0> d   1       5.595  -1.756   5.532  0.00  0.00    -0.021 A 
ATOM     10  C20 <0> d   1       6.913  -1.541   5.177  0.00  0.00     0.010 A 
ATOM     11  C19 <0> d   1       7.503  -0.315   5.418  0.00  0.00     0.001 A 
ATOM     12  C18 <0> d   1       6.777   0.694   6.023  0.00  0.00     0.000 A 
ATOM     13  C17 <0> d   1       5.460   0.477   6.383  0.00  0.00     0.001 A 
ATOM     14  C16 <0> d   1       4.869  -0.748   6.138  0.00  0.00     0.010 A 
ENDBRANCH   8   9
BRANCH   8  15
ATOM     15  C21 <0> d   1       4.938  -3.907   6.533  0.00  0.00    -0.021 A 
ATOM     16  C27 <0> d   1       5.891  -4.888   6.733  0.00  0.00     0.011 A 
ATOM     17  C26 <0> d   1       5.884  -5.631   7.899  0.00  0.00     0.024 A 
ATOM     18  C24 <0> d   1       4.915  -5.401   8.859  0.00  0.00     0.034 A 
ATOM     19  C23 <0> d   1       3.958  -4.423   8.655  0.00  0.00     0.024 A 
ATOM     20 Cl25 <0> d   1       4.900  -6.340  10.319  0.00  0.00    -0.084 Cl
ATOM     21  C22 <0> d   1       3.970  -3.677   7.492  0.00  0.00     0.011 A 
ENDBRANCH   8  15
ENDBRANCH   5   8
BRANCH   1  22
ATOM     22  C7  <0> d   1       0.054  -2.844   2.489  0.00  0.00     0.273 C 
BRANCH  22  23
ATOM     23  C6  <0> d   1       0.037  -2.084   1.188  0.00  0.00    -0.032 A 
ATOM     24  C5  <0> d   1       0.040  -2.768  -0.013  0.00  0.00     0.009 A 
ATOM     25  C4  <0> d   1       0.025  -2.071  -1.206  0.00  0.00     0.001 A 
ATOM     26  C3  <0> d   1       0.006  -0.689  -1.199  0.00  0.00     0.007 A 
ATOM     27  C2  <0> d   1       0.002  -0.004   0.002  0.00  0.00    -0.061 A 
ATOM     28  C1  <0> d   1      -0.018   1.503   0.010  0.00  0.00     0.048 C 
ATOM     29  C30 <0> d   1       0.023  -0.702   1.196  0.00  0.00     0.015 A 
ENDBRANCH  22  23
ENDBRANCH   1  22
TORSDOF 5
