REMARK  2 active torsions:
REMARK  status: ('A' for Active; 'I' for Inactive)
REMARK    1  A    between atoms: N1_1  and  N2_2 
REMARK    2  A    between atoms: N2_2  and  C3_3 
ROOT
ATOM      1  C3  <0> d   1       0.691  -0.693   0.987  0.00  0.00     0.143 A 
ATOM      2  C4  <0> d   1       0.724  -2.106   0.988  0.00  0.00     0.022 A 
ATOM      3  C5  <0> d   1       0.078  -2.879   0.018  0.00  0.00     0.016 A 
ATOM      4  C6  <0> d   1       0.155  -4.239   0.085  0.00  0.00     0.001 A 
ATOM      5  C7  <0> d   1       0.865  -4.869   1.104  0.00  0.00     0.001 A 
ATOM      6  C8  <0> d   1       1.506  -4.146   2.066  0.00  0.00     0.014 A 
ATOM      7  C9  <0> d   1       1.448  -2.747   2.027  0.00  0.00    -0.003 A 
ATOM      8  C10 <0> d   1       2.083  -1.931   2.982  0.00  0.00     0.151 A 
ATOM      9  N11 <0> d   1       1.983  -0.627   2.876  0.00  0.00    -0.185 NA
ATOM     10  N12 <0> d   1       1.334  -0.041   1.940  0.00  0.00    -0.261 N 
ATOM     11  H13 <0> d   1       1.309   0.929   1.933  0.00  0.00     0.191 HD
ENDROOT
BRANCH   1  12
ATOM     12  N2  <0> d   1       0.002  -0.004   0.002  0.00  0.00    -0.308 N 
ATOM     13  H16 <0> d   1      -0.467  -0.492  -0.693  0.00  0.00     0.182 HD
BRANCH  12  14
ATOM     14  N1  <0> d   1      -0.016   1.362   0.009  0.00  0.00    -0.248 NA
ATOM     15  H14 <0> d   1       0.920   1.736   0.003  0.00  0.00     0.143 HD
ATOM     16  H15 <0> d   1      -0.555   1.720  -0.765  0.00  0.00     0.143 HD
ENDBRANCH  12  14
ENDBRANCH   1  12
TORSDOF 2
