REMARK  1 active torsions:
REMARK  status: ('A' for Active; 'I' for Inactive)
REMARK    1  A    between atoms: C7_7  and  C9_8 
ROOT
ATOM      1  C1  ZIN A   1      -0.018   1.465   0.010  0.00  0.00     0.270 C 
ATOM      2  N2  ZIN A   1       0.002  -0.004   0.002  0.00  0.00    -0.067 N 
ATOM      3  H3  ZIN A   1      -0.943  -0.357  -0.004  0.00  0.00     0.280 HD
ATOM      4  C4  ZIN A   1       0.721  -0.485  -1.197  0.00  0.00     0.235 C 
ATOM      5  C5  ZIN A   1       2.170  -0.742  -0.713  0.00  0.00     0.030 C 
ATOM      6  C6  ZIN A   1       1.929  -1.301   0.714  0.00  0.00     0.040 C 
ATOM      7  C7  ZIN A   1       0.708  -0.497   1.199  0.00  0.00     0.222 C 
ENDROOT
BRANCH   7   8
ATOM      8  C9  ZIN A   1      -0.205  -1.387   2.002  0.00  0.00    -0.010 A 
ATOM      9  C14 ZIN A   1      -1.058  -2.270   1.367  0.00  0.00     0.125 A 
ATOM     10  N13 ZIN A   1      -1.856  -3.055   2.063  0.00  0.00    -0.273 NA
ATOM     11  C12 ZIN A   1      -1.883  -3.025   3.381  0.00  0.00     0.116 A 
ATOM     12  C11 ZIN A   1      -1.062  -2.163   4.085  0.00  0.00     0.020 A 
ATOM     13  C10 ZIN A   1      -0.205  -1.326   3.387  0.00  0.00     0.012 A 
ENDBRANCH   7   8
TORSDOF 1
