REMARK  4 active torsions:
REMARK  status: ('A' for Active; 'I' for Inactive)
REMARK    1  A    between atoms: C5_5  and  N6_6 
REMARK    2  A    between atoms: N6_6  and  S7_7 
REMARK    3  A    between atoms: S7_7  and  C10_10 
REMARK    4  A    between atoms: C13_13  and  N14_14 
ROOT
ATOM      1  S7  <0> d   1       0.068  -4.740   0.452  0.00  0.00     0.285 S 
ATOM      2  O8  <0> d   1      -1.184  -4.832  -0.215  0.00  0.00    -0.198 OA
ATOM      3  O9  <0> d   1       1.315  -4.799  -0.226  0.00  0.00    -0.198 OA
ENDROOT
BRANCH   1   4
ATOM      4  N6  <0> d   1       0.052  -3.307   1.280  0.00  0.00    -0.132 NA
BRANCH   4   5
ATOM      5  C5  <0> d   1       0.033  -2.109   0.590  0.00  0.00     0.214 A 
ATOM      6  O4  <0> d   1       0.025  -1.948  -0.743  0.00  0.00    -0.192 OA
ATOM      7  N3  <0> d   1       0.008  -0.778  -1.047  0.00  0.00    -0.131 NA
ATOM      8  C2  <0> d   1       0.002  -0.004   0.002  0.00  0.00     0.068 A 
ATOM      9  C1  <0> d   1      -0.018   1.503   0.010  0.00  0.00     0.073 C 
ATOM     10  C17 <0> d   1       0.024  -0.852   1.126  0.00  0.00     0.020 A 
ATOM     11  C18 <0> d   1       0.028  -0.464   2.583  0.00  0.00     0.055 C 
ENDBRANCH   4   5
ENDBRANCH   1   4
BRANCH   1  12
ATOM     12  C10 <0> d   1       0.090  -6.034   1.649  0.00  0.00     0.081 A 
ATOM     13  C16 <0> d   1      -1.099  -6.556   2.122  0.00  0.00     0.027 A 
ATOM     14  C15 <0> d   1      -1.085  -7.574   3.056  0.00  0.00     0.030 A 
ATOM     15  C13 <0> d   1       0.126  -8.065   3.527  0.00  0.00     0.025 A 
ATOM     16  C12 <0> d   1       1.319  -7.534   3.054  0.00  0.00     0.030 A 
ATOM     17  C11 <0> d   1       1.297  -6.520   2.116  0.00  0.00     0.027 A 
BRANCH  15  18
ATOM     18  N14 <0> d   1       0.143  -9.090   4.476  0.00  0.00    -0.399 N 
ATOM     19  H24 <0> d   1       0.990  -9.431   4.805  0.00  0.00     0.156 HD
ATOM     20  H25 <0> d   1      -0.690  -9.460   4.806  0.00  0.00     0.156 HD
ENDBRANCH  15  18
ENDBRANCH   1  12
TORSDOF 4
