REMARK  2 active torsions:
REMARK  status: ('A' for Active; 'I' for Inactive)
REMARK    1  A    between atoms: C4_4  and  C5_5 
REMARK       I    between atoms: C5_5  and  N7_7 
REMARK    2  A    between atoms: N7_7  and  C8_8 
ROOT
ATOM      1  C5  ZIN A   1       0.038  -3.120  -1.755  0.00  0.00     0.273 C 
ATOM      2  O6  ZIN A   1       0.057  -4.271  -1.361  0.00  0.00    -0.266 OA
ATOM      3  N7  ZIN A   1       0.029  -2.861  -3.078  0.00  0.00    -0.351 N 
ATOM      4  H31 ZIN A   1       0.014  -1.943  -3.392  0.00  0.00     0.163 HD
ENDROOT
BRANCH   3   5
ATOM      5  C8  ZIN A   1       0.040  -3.967  -4.043  0.00  0.00     0.088 C 
ATOM      6  C18 ZIN A   1       0.636  -3.474  -5.363  0.00  0.00     0.058 C 
ATOM      7  C16 ZIN A   1       0.535  -4.567  -6.427  0.00  0.00     0.190 C 
ATOM      8  C15 ZIN A   1      -0.283  -4.054  -7.609  0.00  0.00     0.033 C 
ATOM      9  N19 ZIN A   1      -0.063  -5.768  -5.843  0.00  0.00    -0.066 N 
ATOM     10  C14 ZIN A   1      -1.716  -3.767  -7.158  0.00  0.00     0.004 C 
ATOM     11  C13 ZIN A   1      -2.316  -5.020  -6.519  0.00  0.00     0.033 C 
ATOM     12  C11 ZIN A   1      -1.423  -5.502  -5.379  0.00  0.00     0.190 C 
ATOM     13  C10 ZIN A   1      -1.395  -4.447  -4.271  0.00  0.00     0.058 C 
ATOM     14  H20 ZIN A   1       0.501  -6.051  -5.045  0.00  0.00     0.280 HD
ATOM     15  C21 ZIN A   1      -0.055  -6.872  -6.808  0.00  0.00     0.270 C 
ENDBRANCH   3   5
BRANCH   1  16
ATOM     16  C4  ZIN A   1       0.027  -2.009  -0.786  0.00  0.00     0.157 A 
ATOM     17  N3  ZIN A   1       0.007  -0.723  -1.062  0.00  0.00    -0.166 NA
ATOM     18  N2  ZIN A   1       0.002  -0.004   0.002  0.00  0.00    -0.273 N 
ATOM     19  C1  ZIN A   1      -0.018   1.461   0.010  0.00  0.00     0.180 C 
ATOM     20  C27 ZIN A   1       0.023  -0.784   1.129  0.00  0.00     0.065 A 
ATOM     21  C22 ZIN A   1       0.035  -2.119   0.679  0.00  0.00     0.028 A 
ATOM     22  C26 ZIN A   1       0.020  -0.528   2.496  0.00  0.00     0.032 A 
ATOM     23  C23 ZIN A   1       0.054  -3.165   1.595  0.00  0.00     0.016 A 
ATOM     24  C24 ZIN A   1       0.056  -2.891   2.935  0.00  0.00     0.001 A 
ATOM     25  C25 ZIN A   1       0.039  -1.578   3.386  0.00  0.00     0.002 A 
ENDBRANCH   1  16
TORSDOF 2
