REMARK  3 active torsions:
REMARK  status: ('A' for Active; 'I' for Inactive)
REMARK    1  A    between atoms: N6_6  and  C7_7 
REMARK    2  A    between atoms: C7_7  and  C9_8 
REMARK    3  A    between atoms: C7_7  and  C15_14 
ROOT
ATOM      1  C7  <0> d   1       1.453  -3.974  -0.033  0.00  0.00     0.289 C 
ENDROOT
BRANCH   1   2
ATOM      2  N6  <0> d   1       1.595  -2.515   0.058  0.00  0.00     0.105 N 
ATOM      3  C5  <0> d   1       3.010  -2.128   0.147  0.00  0.00     0.301 C 
ATOM      4  C4  <0> d   1       3.117  -0.602   0.179  0.00  0.00     0.264 C 
ATOM      5  N2  <0> d   1       2.376  -0.083   1.337  0.00  0.00    -0.072 N 
ATOM      6  C1  <0> d   1       2.494   1.381   1.378  0.00  0.00     0.269 C 
ATOM      7  H3  <0> d   1       2.759  -0.475   2.184  0.00  0.00     0.279 HD
ATOM      8  C23 <0> d   1       0.961  -0.457   1.221  0.00  0.00     0.264 C 
ATOM      9  C22 <0> d   1       0.835  -1.982   1.197  0.00  0.00     0.301 C 
ENDBRANCH   1   2
BRANCH   1  10
ATOM     10  C9  <0> d   1       2.201  -4.477  -1.241  0.00  0.00    -0.021 A 
ATOM     11  C14 <0> d   1       3.006  -5.596  -1.139  0.00  0.00     0.010 A 
ATOM     12  C13 <0> d   1       3.688  -6.060  -2.248  0.00  0.00     0.001 A 
ATOM     13  C12 <0> d   1       3.572  -5.400  -3.457  0.00  0.00     0.000 A 
ATOM     14  C11 <0> d   1       2.771  -4.278  -3.558  0.00  0.00     0.001 A 
ATOM     15  C10 <0> d   1       2.086  -3.816  -2.450  0.00  0.00     0.010 A 
ENDBRANCH   1  10
BRANCH   1  16
ATOM     16  C15 <0> d   1      -0.005  -4.330  -0.161  0.00  0.00    -0.021 A 
ATOM     17  C21 <0> d   1      -0.527  -5.381   0.570  0.00  0.00     0.011 A 
ATOM     18  C20 <0> d   1      -1.866  -5.704   0.458  0.00  0.00     0.024 A 
ATOM     19  C18 <0> d   1      -2.682  -4.983  -0.395  0.00  0.00     0.034 A 
ATOM     20  C17 <0> d   1      -2.159  -3.935  -1.131  0.00  0.00     0.024 A 
ATOM     21 Cl19 <0> d   1      -4.362  -5.393  -0.543  0.00  0.00    -0.084 Cl
ATOM     22  C16 <0> d   1      -0.821  -3.609  -1.014  0.00  0.00     0.011 A 
ENDBRANCH   1  16
TORSDOF 3
