REMARK  3 active torsions:
REMARK  status: ('A' for Active; 'I' for Inactive)
REMARK    1  A    between atoms: C7_7  and  N9_8 
REMARK    2  A    between atoms: C11_10  and  C12_11 
REMARK    3  A    between atoms: C12_11  and  C13_12 
ROOT
ATOM      1  N9  <0> d   1       1.428  -4.034   0.008  0.00  0.00    -0.229 N 
ATOM      2  N10 <0> d   1       1.412  -4.729   1.218  0.00  0.00    -0.173 NA
ATOM      3  C11 <0> d   1       1.970  -5.893   1.367  0.00  0.00     0.070 A 
ATOM      4  C20 <0> d   1       2.652  -6.527   0.238  0.00  0.00     0.006 A 
ATOM      5  C21 <0> d   1       3.264  -7.776   0.355  0.00  0.00     0.014 A 
ATOM      6  C22 <0> d   1       3.893  -8.330  -0.738  0.00  0.00     0.001 A 
ATOM      7  C23 <0> d   1       3.925  -7.660  -1.954  0.00  0.00     0.001 A 
ATOM      8  C24 <0> d   1       3.327  -6.427  -2.093  0.00  0.00     0.018 A 
ATOM      9  C25 <0> d   1       2.685  -5.847  -1.001  0.00  0.00     0.046 A 
ATOM     10  C26 <0> d   1       2.026  -4.537  -1.091  0.00  0.00     0.275 A 
ATOM     11  O27 <0> d   1       2.025  -3.915  -2.139  0.00  0.00    -0.266 OA
ENDROOT
BRANCH   1  12
ATOM     12  C7  <0> d   1       0.774  -2.726  -0.071  0.00  0.00     0.115 C 
ATOM     13  C6  <0> d   1      -0.685  -2.894   0.266  0.00  0.00     0.029 C 
ATOM     14  C5  <0> d   1      -1.514  -1.861  -0.535  0.00  0.00     0.030 C 
ATOM     15  C4  <0> d   1      -1.377  -0.523   0.033  0.00  0.00     0.234 C 
ATOM     16  N2  <0> d   1       0.002  -0.004   0.002  0.00  0.00    -0.075 N 
ATOM     17  C1  <0> d   1      -0.018   1.465   0.010  0.00  0.00     0.269 C 
ATOM     18  H3  <0> d   1       0.473  -0.335  -0.826  0.00  0.00     0.279 HD
ATOM     19  C29 <0> d   1       0.682  -0.491   1.180  0.00  0.00     0.236 C 
ATOM     20  C28 <0> d   1       1.508  -1.750   0.869  0.00  0.00     0.055 C 
ENDBRANCH   1  12
BRANCH   3  21
ATOM     21  C12 <0> d   1       1.915  -6.590   2.702  0.00  0.00     0.100 C 
BRANCH  21  22
ATOM     22  C13 <0> d   1       1.162  -5.732   3.686  0.00  0.00    -0.052 A 
ATOM     23  C19 <0> d   1      -0.207  -5.871   3.817  0.00  0.00     0.009 A 
ATOM     24  C18 <0> d   1      -0.897  -5.088   4.723  0.00  0.00     0.024 A 
ATOM     25  C16 <0> d   1      -0.219  -4.158   5.491  0.00  0.00     0.034 A 
ATOM     26  C15 <0> d   1       1.150  -4.016   5.355  0.00  0.00     0.024 A 
ATOM     27 Cl17 <0> d   1      -1.086  -3.169   6.624  0.00  0.00    -0.084 Cl
ATOM     28  C14 <0> d   1       1.840  -4.803   4.452  0.00  0.00     0.009 A 
ENDBRANCH  21  22
ENDBRANCH   3  21
TORSDOF 3
