REMARK  12 active torsions:
REMARK  status: ('A' for Active; 'I' for Inactive)
REMARK    1  A    between atoms: C2_2  and  C3_3 
REMARK    2  A    between atoms: C15_15  and  O16_16 
REMARK    3  A    between atoms: C18_18  and  C19_19 
REMARK    4  A    between atoms: C19_19  and  C20_20 
REMARK    5  A    between atoms: C20_20  and  O22_22 
REMARK    6  A    between atoms: C31_30  and  O32_31 
REMARK    7  A    between atoms: C31_30  and  C33_32 
REMARK    8  A    between atoms: C52_50  and  O53_51 
REMARK    9  A    between atoms: C52_50  and  C54_52 
REMARK   10  A    between atoms: C54_52  and  O56_54 
REMARK   11  A    between atoms: C58_56  and  O60_57 
REMARK   12  A    between atoms: O60_57  and  C61_58 
ROOT
ATOM      1  C3  ZIN A   1       0.575  -0.677   0.389  0.00  0.00     0.037 C 
ATOM      2  C4  ZIN A   1      -0.369  -0.210   1.466  0.00  0.00    -0.015 C 
ATOM      3  C5  ZIN A   1      -0.633  -0.917   2.526  0.00  0.00    -0.003 C 
ATOM      4  C6  ZIN A   1      -0.020  -2.267   2.791  0.00  0.00     0.262 C 
ATOM      5  N7  ZIN A   1       1.215  -2.390   2.018  0.00  0.00    -0.061 N 
ATOM      6  H8  ZIN A   1       1.913  -1.740   2.348  0.00  0.00     0.280 HD
ATOM      7  C9  ZIN A   1       1.740  -3.774   2.021  0.00  0.00     0.237 C 
ATOM      8  C10 ZIN A   1       2.603  -3.856   0.737  0.00  0.00     0.046 C 
ATOM      9  C11 ZIN A   1       2.049  -2.735  -0.180  0.00  0.00     0.040 C 
ATOM     10  C12 ZIN A   1       1.649  -3.308  -1.506  0.00  0.00    -0.024 A 
ATOM     11  C13 ZIN A   1       2.672  -3.013  -2.419  0.00  0.00     0.020 A 
ATOM     12  C14 ZIN A   1       2.571  -3.421  -3.749  0.00  0.00     0.061 A 
ATOM     13  C15 ZIN A   1       1.428  -4.124  -4.115  0.00  0.00     0.077 A 
ATOM     14  C18 ZIN A   1       0.427  -4.412  -3.202  0.00  0.00     0.000 A 
ATOM     15  C47 ZIN A   1       0.518  -4.008  -1.876  0.00  0.00     0.021 A 
ATOM     16  N48 ZIN A   1       3.705  -2.317  -1.804  0.00  0.00    -0.278 NA
ATOM     17  C49 ZIN A   1       4.203  -1.239  -2.669  0.00  0.00     0.117 C 
ATOM     18  C50 ZIN A   1       3.184  -1.774  -0.522  0.00  0.00     0.125 C 
ATOM     19  C52 ZIN A   1       2.760  -0.335  -0.725  0.00  0.00     0.190 C 
ATOM     20  C58 ZIN A   1       1.868   0.136   0.441  0.00  0.00     0.192 C 
ATOM     21  C64 ZIN A   1       0.867  -2.142   0.599  0.00  0.00     0.218 C 
ENDROOT
BRANCH  14  22
ATOM     22  C19 ZIN A   1      -0.788  -5.180  -3.656  0.00  0.00     0.121 C 
ATOM     23  C39 ZIN A   1      -1.648  -5.617  -2.488  0.00  0.00     0.040 A 
ATOM     24  C38 ZIN A   1      -1.345  -6.017  -1.237  0.00  0.00    -0.020 A 
ATOM     25  N40 ZIN A   1      -3.031  -5.657  -2.636  0.00  0.00    -0.357 N 
ATOM     26  C37 ZIN A   1      -0.013  -6.233  -0.542  0.00  0.00     0.069 C 
ATOM     27  C46 ZIN A   1      -2.609  -6.228  -0.530  0.00  0.00    -0.001 A 
ATOM     28  C36 ZIN A   1       0.189  -7.780  -0.321  0.00  0.00     0.239 C 
ATOM     29  N28 ZIN A   1      -0.395  -8.360  -1.534  0.00  0.00    -0.068 N 
ATOM     30  C27 ZIN A   1       0.409  -7.725  -2.632  0.00  0.00     0.239 C 
ATOM     31  H29 ZIN A   1      -1.372  -8.098  -1.602  0.00  0.00     0.280 HD
ATOM     32  C30 ZIN A   1      -0.289  -9.773  -1.848  0.00  0.00     0.272 C 
ATOM     33  C25 ZIN A   1      -0.772  -7.616  -3.651  0.00  0.00     0.016 C 
ATOM     34  C24 ZIN A   1      -0.378  -6.426  -4.518  0.00  0.00     0.037 C 
ATOM     35  C35 ZIN A   1      -0.767  -9.007  -4.274  0.00  0.00     0.045 C 
ATOM     36  C31 ZIN A   1      -1.019 -10.051  -3.174  0.00  0.00     0.082 C 
ATOM     37  C41 ZIN A   1      -3.637  -5.979  -1.464  0.00  0.00     0.043 A 
ATOM     38  C45 ZIN A   1      -2.889  -6.598   0.788  0.00  0.00     0.014 A 
ATOM     39  C42 ZIN A   1      -4.976  -6.083  -1.091  0.00  0.00     0.030 A 
ATOM     40  C43 ZIN A   1      -5.231  -6.446   0.221  0.00  0.00     0.002 A 
ATOM     41  C44 ZIN A   1      -4.216  -6.698   1.130  0.00  0.00     0.001 A 
ATOM     42 4H10 ZIN A   1      -3.513  -5.505  -3.463  0.00  0.00     0.166 HD
BRANCH  36  43
ATOM     43  O32 ZIN A   1      -2.425 -10.111  -2.913  0.00  0.00    -0.388 OA
ATOM     44  H92 ZIN A   1      -2.680 -10.801  -2.286  0.00  0.00     0.210 HD
ENDBRANCH  36  43
BRANCH  36  45
ATOM     45  C33 ZIN A   1      -0.569 -11.422  -3.692  0.00  0.00     0.035 C 
ATOM     46  C34 ZIN A   1      -0.923 -12.498  -2.663  0.00  0.00     0.008 C 
ENDBRANCH  36  45
BRANCH  22  47
ATOM     47  C20 ZIN A   1      -1.597  -4.242  -4.543  0.00  0.00     0.278 C 
ATOM     48  O21 ZIN A   1      -1.818  -4.538  -5.693  0.00  0.00    -0.264 OA
BRANCH  47  49
ATOM     49  O22 ZIN A   1      -2.065  -3.087  -4.045  0.00  0.00    -0.325 OA
ATOM     50  C23 ZIN A   1      -2.829  -2.242  -4.947  0.00  0.00     0.213 C 
ENDBRANCH  47  49
ENDBRANCH  22  47
ENDBRANCH  14  22
BRANCH  13  51
ATOM     51  O16 ZIN A   1       1.289  -4.539  -5.401  0.00  0.00    -0.355 OA
ATOM     52  C17 ZIN A   1       2.349  -4.218  -6.304  0.00  0.00     0.210 C 
ENDBRANCH  13  51
BRANCH  19  53
ATOM     53  O53 ZIN A   1       3.924   0.493  -0.768  0.00  0.00    -0.376 OA
ATOM     54 3H11 ZIN A   1       3.733   1.432  -0.896  0.00  0.00     0.211 HD
ENDBRANCH  19  53
BRANCH  19  55
ATOM     55  C54 ZIN A   1       2.024  -0.219  -2.034  0.00  0.00     0.297 C 
ATOM     56  O55 ZIN A   1       1.606  -1.211  -2.583  0.00  0.00    -0.262 OA
BRANCH  55  57
ATOM     57  O56 ZIN A   1       1.832   0.987  -2.592  0.00  0.00    -0.324 OA
ATOM     58  C57 ZIN A   1       1.115   1.024  -3.854  0.00  0.00     0.213 C 
ENDBRANCH  55  57
ENDBRANCH  19  55
BRANCH   1  59
ATOM     59  C2  ZIN A   1      -0.086  -0.486  -0.977  0.00  0.00     0.014 C 
ATOM     60  C1  ZIN A   1      -1.607  -0.518  -0.817  0.00  0.00     0.006 C 
ENDBRANCH   1  59
BRANCH  20  61
ATOM     61  O60 ZIN A   1       2.571  -0.046   1.698  0.00  0.00    -0.311 OA
BRANCH  61  62
ATOM     62  C61 ZIN A   1       3.322   0.979   2.130  0.00  0.00     0.255 C 
ATOM     63  C62 ZIN A   1       4.080   0.863   3.428  0.00  0.00     0.126 C 
ATOM     64  O63 ZIN A   1       3.391   1.994   1.479  0.00  0.00    -0.266 OA
ENDBRANCH  61  62
ENDBRANCH  20  61
TORSDOF 12
