REMARK  11 active torsions:
REMARK  status: ('A' for Active; 'I' for Inactive)
REMARK    1  A    between atoms: O2_2  and  C3_3 
REMARK    2  A    between atoms: C12_12  and  O13_13 
REMARK    3  A    between atoms: C14_14  and  C15_15 
REMARK    4  A    between atoms: C15_15  and  C16_16 
REMARK    5  A    between atoms: C17_17  and  C19_19 
REMARK    6  A    between atoms: C19_19  and  C20_20 
REMARK    7  A    between atoms: C20_20  and  C21_21 
REMARK    8  A    between atoms: C21_21  and  O23_23 
REMARK    9  A    between atoms: O23_23  and  C24_24 
REMARK   10  A    between atoms: C24_24  and  C25_25 
REMARK   11  A    between atoms: C25_25  and  N26_26 
ROOT
ATOM      1  C15 ZIN A   1       0.019   1.076  -3.287  0.00  0.00     0.072 C 
ENDROOT
BRANCH   1   2
ATOM      2  C14 ZIN A   1      -0.442   0.384  -4.544  0.00  0.00     0.013 A 
ATOM      3  C3  ZIN A   1      -1.371  -0.643  -4.467  0.00  0.00     0.084 A 
ATOM      4  C4  ZIN A   1      -1.802  -1.287  -5.625  0.00  0.00    -0.018 A 
ATOM      5  C5  ZIN A   1      -2.816  -2.398  -5.537  0.00  0.00     0.052 C 
ATOM      6  C6  ZIN A   1      -1.303  -0.910  -6.846  0.00  0.00    -0.006 A 
ATOM      7  C11 ZIN A   1      -1.549  -1.386  -8.256  0.00  0.00     0.219 A 
ATOM      8  C7  ZIN A   1      -0.360   0.121  -6.939  0.00  0.00     0.082 A 
ATOM      9  O10 ZIN A   1      -0.703  -0.573  -9.115  0.00  0.00    -0.313 OA
ATOM     10  C8  ZIN A   1      -0.016   0.298  -8.356  0.00  0.00     0.297 A 
ATOM     11  O9  ZIN A   1       0.777   1.114  -8.781  0.00  0.00    -0.259 OA
ATOM     12  C12 ZIN A   1       0.072   0.768  -5.771  0.00  0.00     0.091 A 
BRANCH   3  13
ATOM     13  O2  ZIN A   1      -1.867  -1.018  -3.261  0.00  0.00    -0.355 OA
ATOM     14  C1  ZIN A   1      -3.094  -0.412  -2.848  0.00  0.00     0.210 C 
ENDBRANCH   3  13
BRANCH  12  15
ATOM     15  O13 ZIN A   1       0.985   1.769  -5.844  0.00  0.00    -0.359 OA
ATOM     16  H40 ZIN A   1       0.597   2.648  -5.950  0.00  0.00     0.217 HD
ENDBRANCH  12  15
ENDBRANCH   1   2
BRANCH   1  17
ATOM     17  C16 ZIN A   1      -0.780   2.338  -3.087  0.00  0.00    -0.020 C 
ATOM     18  C17 ZIN A   1      -0.165   3.482  -2.912  0.00  0.00    -0.087 C 
ATOM     19  C18 ZIN A   1       1.333   3.515  -2.755  0.00  0.00     0.043 C 
BRANCH  18  20
ATOM     20  C19 ZIN A   1      -0.956   4.764  -2.870  0.00  0.00     0.043 C 
BRANCH  20  21
ATOM     21  C20 ZIN A   1      -1.264   5.124  -1.415  0.00  0.00     0.115 C 
BRANCH  21  22
ATOM     22  C21 ZIN A   1      -2.055   6.406  -1.372  0.00  0.00     0.259 C 
ATOM     23  O22 ZIN A   1      -2.343   6.973  -2.400  0.00  0.00    -0.265 OA
BRANCH  22  24
ATOM     24  O23 ZIN A   1      -2.440   6.918  -0.193  0.00  0.00    -0.320 OA
BRANCH  24  25
ATOM     25  C24 ZIN A   1      -3.199   8.156  -0.227  0.00  0.00     0.209 C 
BRANCH  25  26
ATOM     26  C25 ZIN A   1      -3.546   8.581   1.201  0.00  0.00     0.299 C 
BRANCH  26  27
ATOM     27  N26 ZIN A   1      -2.316   8.950   1.914  0.00  0.00     0.094 N 
ATOM     28  C31 ZIN A   1      -1.529   7.756   2.258  0.00  0.00     0.298 C 
ATOM     29  C30 ZIN A   1      -0.289   8.180   3.050  0.00  0.00     0.198 C 
ATOM     30  O29 ZIN A   1       0.463   9.122   2.281  0.00  0.00    -0.388 OA
ATOM     31  C28 ZIN A   1      -0.273  10.297   1.929  0.00  0.00     0.198 C 
ATOM     32  C27 ZIN A   1      -1.512   9.895   1.126  0.00  0.00     0.298 C 
ENDBRANCH  26  27
ENDBRANCH  25  26
ENDBRANCH  24  25
ENDBRANCH  22  24
ENDBRANCH  21  22
ENDBRANCH  20  21
ENDBRANCH  18  20
ENDBRANCH   1  17
TORSDOF 11
