REMARK  6 active torsions:
REMARK  status: ('A' for Active; 'I' for Inactive)
REMARK    1  A    between atoms: O2_2  and  C3_3 
REMARK    2  A    between atoms: C6_6  and  C7_7 
REMARK    3  A    between atoms: C7_7  and  C9_8 
REMARK    4  A    between atoms: C7_7  and  C14_13 
REMARK    5  A    between atoms: C9_8  and  N10_9 
REMARK    6  A    between atoms: C14_13  and  O15_14 
ROOT
ATOM      1  C7  ZIN A   1       2.630  -2.552   4.393  0.00  0.00     0.079 C 
ENDROOT
BRANCH   1   2
ATOM      2  C6  ZIN A   1       2.028  -1.691   3.313  0.00  0.00    -0.049 A 
ATOM      3  C5  ZIN A   1       2.030  -0.314   3.447  0.00  0.00     0.010 A 
ATOM      4  C4  ZIN A   1       1.478   0.478   2.458  0.00  0.00     0.037 A 
ATOM      5  C3  ZIN A   1       0.922  -0.109   1.331  0.00  0.00     0.068 A 
ATOM      6  C22 ZIN A   1       0.917  -1.490   1.202  0.00  0.00     0.037 A 
ATOM      7  C21 ZIN A   1       1.474  -2.278   2.190  0.00  0.00     0.010 A 
BRANCH   5   8
ATOM      8  O2  ZIN A   1       0.379   0.668   0.357  0.00  0.00    -0.356 OA
ATOM      9  C1  ZIN A   1       0.420   2.082   0.557  0.00  0.00     0.210 C 
ENDBRANCH   5   8
ENDBRANCH   1   2
BRANCH   1  10
ATOM     10  C9  ZIN A   1       3.663  -3.497   3.775  0.00  0.00     0.246 C 
BRANCH  10  11
ATOM     11  N10 ZIN A   1       4.766  -2.711   3.204  0.00  0.00    -0.078 N 
ATOM     12  H11 ZIN A   1       4.393  -2.021   2.568  0.00  0.00     0.279 HD
ATOM     13  C12 ZIN A   1       5.497  -2.036   4.285  0.00  0.00     0.269 C 
ATOM     14  C13 ZIN A   1       5.679  -3.604   2.479  0.00  0.00     0.269 C 
ENDBRANCH  10  11
ENDBRANCH   1  10
BRANCH   1  15
ATOM     15  C14 ZIN A   1       1.528  -3.372   5.065  0.00  0.00     0.067 C 
ATOM     16  C20 ZIN A   1       0.495  -2.428   5.684  0.00  0.00     0.038 C 
ATOM     17  C19 ZIN A   1      -0.608  -3.248   6.356  0.00  0.00     0.003 C 
ATOM     18  C18 ZIN A   1       0.004  -4.123   7.452  0.00  0.00     0.000 C 
ATOM     19  C17 ZIN A   1       1.037  -5.067   6.834  0.00  0.00     0.003 C 
ATOM     20  C16 ZIN A   1       2.139  -4.247   6.162  0.00  0.00     0.038 C 
BRANCH  15  21
ATOM     21  O15 ZIN A   1       0.891  -4.203   4.092  0.00  0.00    -0.389 OA
ATOM     22  H36 ZIN A   1       0.180  -4.753   4.449  0.00  0.00     0.210 HD
ENDBRANCH  15  21
ENDBRANCH   1  15
TORSDOF 6
