REMARK  3 active torsions:
REMARK  status: ('A' for Active; 'I' for Inactive)
REMARK    1  A    between atoms: N5_5  and  C6_6 
REMARK    2  A    between atoms: C6_6  and  C8_7 
REMARK    3  A    between atoms: C6_6  and  C14_13 
ROOT
ATOM      1  C6  <0> d   1      -0.568  -4.068   1.006  0.00  0.00     0.289 C 
ENDROOT
BRANCH   1   2
ATOM      2  N5  <0> d   1      -0.588  -2.599   1.014  0.00  0.00     0.105 N 
ATOM      3  C4  <0> d   1      -1.292  -2.075  -0.165  0.00  0.00     0.304 C 
ATOM      4  C3  <0> d   1      -1.360  -0.549  -0.079  0.00  0.00     0.302 C 
ATOM      5  N2  <0> d   1       0.002  -0.004   0.002  0.00  0.00     0.087 N 
ATOM      6  C1  <0> d   1      -0.018   1.465   0.010  0.00  0.00     0.310 C 
ATOM      7  C22 <0> d   1       0.706  -0.528   1.181  0.00  0.00     0.302 C 
ATOM      8  C21 <0> d   1       0.774  -2.054   1.095  0.00  0.00     0.304 C 
ENDBRANCH   1   2
BRANCH   1   9
ATOM      9  C8  <0> d   1       0.161  -4.567   2.227  0.00  0.00    -0.021 A 
ATOM     10  C13 <0> d   1       1.014  -5.650   2.127  0.00  0.00     0.010 A 
ATOM     11  C12 <0> d   1       1.686  -6.105   3.247  0.00  0.00     0.001 A 
ATOM     12  C11 <0> d   1       1.498  -5.483   4.466  0.00  0.00     0.000 A 
ATOM     13  C10 <0> d   1       0.640  -4.403   4.567  0.00  0.00     0.001 A 
ATOM     14  C9  <0> d   1      -0.028  -3.946   3.447  0.00  0.00     0.010 A 
ENDBRANCH   1   9
BRANCH   1  15
ATOM     15  C14 <0> d   1      -1.982  -4.590   1.016  0.00  0.00    -0.021 A 
ATOM     16  C20 <0> d   1      -2.320  -5.685   0.244  0.00  0.00     0.011 A 
ATOM     17  C19 <0> d   1      -3.615  -6.167   0.258  0.00  0.00     0.024 A 
ATOM     18  C17 <0> d   1      -4.576  -5.546   1.036  0.00  0.00     0.034 A 
ATOM     19  C16 <0> d   1      -4.238  -4.447   1.804  0.00  0.00     0.024 A 
ATOM     20 Cl18 <0> d   1      -6.205  -6.147   1.048  0.00  0.00    -0.084 Cl
ATOM     21  C15 <0> d   1      -2.941  -3.969   1.794  0.00  0.00     0.011 A 
ENDBRANCH   1  15
TORSDOF 3
