REMARK  8 active torsions:
REMARK  status: ('A' for Active; 'I' for Inactive)
REMARK    1  A    between atoms: O2_2  and  C3_3 
REMARK    2  A    between atoms: C5_5  and  N6_6 
REMARK    3  A    between atoms: C9_9  and  N10_10 
REMARK    4  A    between atoms: C22_22  and  N23_23 
REMARK    5  A    between atoms: N23_23  and  C24_24 
REMARK    6  A    between atoms: C29_29  and  N30_30 
REMARK    7  A    between atoms: N30_30  and  C31_31 
REMARK    8  A    between atoms: C36_36  and  P37_37 
ROOT
ATOM      1  C3  ZIN A   1       0.636  -0.624   1.053  0.00  0.00     0.097 A 
ATOM      2  C4  ZIN A   1       1.236   0.123   2.053  0.00  0.00     0.062 A 
ATOM      3  C5  ZIN A   1       1.901  -0.515   3.091  0.00  0.00     0.013 A 
ATOM      4  C20 ZIN A   1       1.965  -1.902   3.127  0.00  0.00     0.026 A 
ATOM      5  C21 ZIN A   1       1.367  -2.649   2.129  0.00  0.00     0.034 A 
ATOM      6  C22 ZIN A   1       0.697  -2.016   1.094  0.00  0.00     0.082 A 
ENDROOT
BRANCH   6   7
ATOM      7  N23 ZIN A   1       0.090  -2.775   0.082  0.00  0.00    -0.185 N 
ATOM      8  H68 ZIN A   1      -0.054  -2.387  -0.795  0.00  0.00     0.184 HD
BRANCH   7   9
ATOM      9  C24 ZIN A   1      -0.302  -4.079   0.335  0.00  0.00     0.728 A 
ATOM     10  N41 ZIN A   1      -0.762  -4.820  -0.662  0.00  0.00    -0.043 NA
ATOM     11  C29 ZIN A   1      -1.143  -6.076  -0.452  0.00  0.00     0.170 A 
ATOM     12  C27 ZIN A   1      -1.060  -6.603   0.840  0.00  0.00     0.098 A 
ATOM     13  C26 ZIN A   1      -0.579  -5.794   1.851  0.00  0.00     0.164 A 
ATOM     14 Cl28 ZIN A   1      -1.551  -8.236   1.166  0.00  0.00    -0.079 Cl
ATOM     15  N25 ZIN A   1      -0.212  -4.552   1.569  0.00  0.00    -0.073 NA
BRANCH  11  16
ATOM     16  N30 ZIN A   1      -1.619  -6.851  -1.499  0.00  0.00    -0.338 N 
ATOM     17  H70 ZIN A   1      -1.977  -7.735  -1.324  0.00  0.00     0.167 HD
BRANCH  16  18
ATOM     18  C31 ZIN A   1      -1.584  -6.357  -2.806  0.00  0.00     0.047 A 
ATOM     19  C36 ZIN A   1      -2.470  -6.845  -3.759  0.00  0.00     0.030 A 
ATOM     20  C35 ZIN A   1      -2.437  -6.352  -5.048  0.00  0.00     0.017 A 
ATOM     21  C34 ZIN A   1      -1.514  -5.381  -5.394  0.00  0.00     0.001 A 
ATOM     22  C33 ZIN A   1      -0.628  -4.897  -4.450  0.00  0.00     0.002 A 
ATOM     23  C32 ZIN A   1      -0.660  -5.382  -3.158  0.00  0.00     0.030 A 
BRANCH  19  24
ATOM     24  P37 ZIN A   1      -3.680  -8.119  -3.305  0.00  0.00     0.103 P 
ATOM     25  C38 ZIN A   1      -4.886  -8.320  -4.658  0.00  0.00     0.091 C 
ATOM     26  C39 ZIN A   1      -2.820  -9.700  -3.017  0.00  0.00     0.091 C 
ATOM     27  O40 ZIN A   1      -4.387  -7.710  -2.071  0.00  0.00    -0.318 OA
ENDBRANCH  19  24
ENDBRANCH  16  18
ENDBRANCH  11  16
ENDBRANCH   7   9
ENDBRANCH   6   7
BRANCH   1  28
ATOM     28  O2  ZIN A   1      -0.016  -0.001   0.035  0.00  0.00    -0.354 OA
ATOM     29  C1  ZIN A   1      -0.038   1.428   0.058  0.00  0.00     0.210 C 
ENDBRANCH   1  28
BRANCH   3  30
ATOM     30  N6  ZIN A   1       2.507   0.239   4.102  0.00  0.00    -0.283 NA
ATOM     31  C19 ZIN A   1       3.151  -0.631   5.094  0.00  0.00     0.098 C 
ATOM     32  C18 ZIN A   1       3.675   0.217   6.255  0.00  0.00     0.048 C 
ATOM     33  C9  ZIN A   1       4.678   1.242   5.720  0.00  0.00     0.190 C 
ATOM     34  C8  ZIN A   1       3.997   2.104   4.654  0.00  0.00     0.048 C 
ATOM     35  C7  ZIN A   1       3.463   1.201   3.539  0.00  0.00     0.098 C 
BRANCH  33  36
ATOM     36  N10 ZIN A   1       5.141   2.097   6.821  0.00  0.00    -0.063 N 
ATOM     37  H11 ZIN A   1       4.351   2.575   7.230  0.00  0.00     0.280 HD
ATOM     38  C17 ZIN A   1       5.794   1.269   7.843  0.00  0.00     0.265 C 
ATOM     39  C16 ZIN A   1       6.259   2.157   8.999  0.00  0.00     0.299 C 
ATOM     40  N14 ZIN A   1       7.197   3.167   8.490  0.00  0.00     0.087 N 
ATOM     41  C13 ZIN A   1       6.565   3.989   7.448  0.00  0.00     0.299 C 
ATOM     42  C15 ZIN A   1       7.711   4.006   9.581  0.00  0.00     0.310 C 
ATOM     43  C12 ZIN A   1       6.097   3.085   6.305  0.00  0.00     0.265 C 
ENDBRANCH  33  36
ENDBRANCH   3  30
TORSDOF 8
