REMARK  11 active torsions:
REMARK  status: ('A' for Active; 'I' for Inactive)
REMARK    1  A    between atoms: O2_2  and  C3_3 
REMARK    2  A    between atoms: C3_3  and  C4_4 
REMARK    3  A    between atoms: C4_4  and  C5_5 
REMARK    4  A    between atoms: C5_5  and  C6_6 
REMARK    5  A    between atoms: C6_6  and  C7_7 
REMARK    6  A    between atoms: C7_7  and  C16_16 
REMARK    7  A    between atoms: N8_8  and  O9_9 
REMARK    8  A    between atoms: O9_9  and  C10_10 
REMARK    9  A    between atoms: C10_10  and  C11_11 
REMARK   10  A    between atoms: C11_11  and  N12_12 
REMARK   11  A    between atoms: C19_19  and  C20_20 
ROOT
ATOM      1  C7  ZIN A   1       1.955  -4.827  -3.367  0.00  0.00     0.072 C 
ATOM      2  N8  ZIN A   1       2.411  -4.061  -4.304  0.00  0.00    -0.138 NA
ENDROOT
BRANCH   1   3
ATOM      3  C6  ZIN A   1       1.113  -4.244  -2.261  0.00  0.00     0.062 C 
BRANCH   3   4
ATOM      4  C5  ZIN A   1       0.949  -2.739  -2.483  0.00  0.00     0.008 C 
BRANCH   4   5
ATOM      5  C4  ZIN A   1       0.094  -2.148  -1.361  0.00  0.00     0.027 C 
BRANCH   5   6
ATOM      6  C3  ZIN A   1      -0.069  -0.643  -1.583  0.00  0.00     0.167 C 
BRANCH   6   7
ATOM      7  O2  ZIN A   1      -0.868  -0.091  -0.535  0.00  0.00    -0.396 OA
ATOM      8  C1  ZIN A   1      -1.083   1.317  -0.648  0.00  0.00     0.201 C 
ENDBRANCH   6   7
ENDBRANCH   5   6
ENDBRANCH   4   5
ENDBRANCH   3   4
ENDBRANCH   1   3
BRANCH   1   9
ATOM      9  C16 ZIN A   1       2.260  -6.271  -3.380  0.00  0.00    -0.009 A 
ATOM     10  C25 ZIN A   1       1.289  -7.196  -2.992  0.00  0.00     0.014 A 
ATOM     11  C24 ZIN A   1       1.579  -8.545  -3.012  0.00  0.00     0.017 A 
ATOM     12  C19 ZIN A   1       2.832  -8.981  -3.405  0.00  0.00     0.048 A 
ATOM     13  C18 ZIN A   1       3.801  -8.069  -3.785  0.00  0.00     0.017 A 
ATOM     14  C17 ZIN A   1       3.522  -6.718  -3.775  0.00  0.00     0.014 A 
BRANCH  12  15
ATOM     15  C20 ZIN A   1       3.143 -10.455  -3.419  0.00  0.00     0.417 C 
ATOM     16  F21 ZIN A   1       3.657 -10.835  -2.174  0.00  0.00    -0.166 F 
ATOM     17  F22 ZIN A   1       1.973 -11.176  -3.680  0.00  0.00    -0.166 F 
ATOM     18  F23 ZIN A   1       4.088 -10.723  -4.415  0.00  0.00    -0.166 F 
ENDBRANCH  12  15
ENDBRANCH   1   9
BRANCH   2  19
ATOM     19  O9  ZIN A   1       3.090  -4.625  -5.411  0.00  0.00    -0.255 OA
BRANCH  19  20
ATOM     20  C10 ZIN A   1       3.539  -3.664  -6.369  0.00  0.00     0.231 C 
BRANCH  20  21
ATOM     21  C11 ZIN A   1       4.254  -4.382  -7.515  0.00  0.00     0.258 C 
BRANCH  21  22
ATOM     22  N12 ZIN A   1       3.296  -5.230  -8.236  0.00  0.00    -0.077 N 
ATOM     23  H13 ZIN A   1       2.554  -4.657  -8.609  0.00  0.00     0.274 HD
ATOM     24  H14 ZIN A   1       3.768  -5.704  -8.992  0.00  0.00     0.274 HD
ATOM     25  H15 ZIN A   1       2.908  -5.912  -7.602  0.00  0.00     0.274 HD
ENDBRANCH  21  22
ENDBRANCH  20  21
ENDBRANCH  19  20
ENDBRANCH   2  19
TORSDOF 11
