REMARK  8 active torsions:
REMARK  status: ('A' for Active; 'I' for Inactive)
REMARK    1  A    between atoms: N2_2  and  C5_5 
REMARK    2  A    between atoms: C5_5  and  C6_6 
REMARK    3  A    between atoms: C6_6  and  O7_7 
REMARK    4  A    between atoms: O7_7  and  C8_8 
REMARK    5  A    between atoms: C8_8  and  C10_10 
REMARK    6  A    between atoms: C10_10  and  C12_11 
REMARK    7  A    between atoms: C10_10  and  C18_17 
REMARK    8  A    between atoms: C18_17  and  O19_18 
ROOT
ATOM      1  C10 ZIN A   1      -1.317  -1.168  -4.842  0.00  0.00     0.152 C 
ENDROOT
BRANCH   1   2
ATOM      2  C8  ZIN A   1      -1.933  -0.520  -3.629  0.00  0.00     0.270 C 
ATOM      3  O9  ZIN A   1      -2.877   0.224  -3.756  0.00  0.00    -0.264 OA
BRANCH   2   4
ATOM      4  O7  ZIN A   1      -1.434  -0.769  -2.409  0.00  0.00    -0.319 OA
BRANCH   4   5
ATOM      5  C6  ZIN A   1      -2.078  -0.110  -1.286  0.00  0.00     0.206 C 
BRANCH   5   6
ATOM      6  C5  ZIN A   1      -1.376  -0.512   0.012  0.00  0.00     0.260 C 
BRANCH   6   7
ATOM      7  N2  ZIN A   1       0.002  -0.004   0.002  0.00  0.00    -0.077 N 
ATOM      8  C1  ZIN A   1      -0.018   1.465   0.010  0.00  0.00     0.269 C 
ATOM      9  H3  ZIN A   1       0.474  -0.330  -0.828  0.00  0.00     0.279 HD
ATOM     10  C4  ZIN A   1       0.713  -0.491   1.192  0.00  0.00     0.269 C 
ENDBRANCH   6   7
ENDBRANCH   5   6
ENDBRANCH   4   5
ENDBRANCH   2   4
ENDBRANCH   1   2
BRANCH   1  11
ATOM     11  C12 ZIN A   1      -2.057  -0.727  -6.079  0.00  0.00    -0.042 A 
ATOM     12  C17 ZIN A   1      -1.386  -0.055  -7.083  0.00  0.00     0.008 A 
ATOM     13  C16 ZIN A   1      -2.064   0.346  -8.219  0.00  0.00     0.001 A 
ATOM     14  C15 ZIN A   1      -3.415   0.083  -8.346  0.00  0.00     0.000 A 
ATOM     15  C14 ZIN A   1      -4.087  -0.584  -7.339  0.00  0.00     0.001 A 
ATOM     16  C13 ZIN A   1      -3.408  -0.988  -6.205  0.00  0.00     0.008 A 
ENDBRANCH   1  11
BRANCH   1  17
ATOM     17  C18 ZIN A   1      -1.407  -2.689  -4.709  0.00  0.00     0.074 C 
ATOM     18  C23 ZIN A   1      -0.656  -3.167  -3.449  0.00  0.00     0.039 C 
ATOM     19  C22 ZIN A   1       0.028  -4.494  -3.822  0.00  0.00     0.003 C 
ATOM     20  C21 ZIN A   1      -0.331  -4.776  -5.295  0.00  0.00     0.003 C 
ATOM     21  C20 ZIN A   1      -0.665  -3.381  -5.879  0.00  0.00     0.039 C 
BRANCH  17  22
ATOM     22  O19 ZIN A   1      -2.773  -3.106  -4.665  0.00  0.00    -0.389 OA
ATOM     23  H39 ZIN A   1      -2.891  -4.062  -4.581  0.00  0.00     0.210 HD
ENDBRANCH  17  22
ENDBRANCH   1  17
TORSDOF 8
