REMARK  5 active torsions:
REMARK  status: ('A' for Active; 'I' for Inactive)
REMARK    1  A    between atoms: C2_2  and  C3_3 
REMARK    2  A    between atoms: C3_3  and  C4_4 
REMARK    3  A    between atoms: C4_4  and  N5_5 
REMARK    4  A    between atoms: C11_11  and  C13_12 
REMARK       I    between atoms: C13_12  and  N15_14 
REMARK    5  A    between atoms: N15_14  and  C16_15 
ROOT
ATOM      1  C13 ZIN A   1       0.259  -4.747  -1.909  0.00  0.00     0.253 C 
ATOM      2  O14 ZIN A   1      -0.512  -4.002  -1.341  0.00  0.00    -0.271 OA
ATOM      3  N15 ZIN A   1      -0.148  -5.974  -2.291  0.00  0.00    -0.324 N 
ATOM      4  H41 ZIN A   1       0.482  -6.588  -2.699  0.00  0.00     0.169 HD
ENDROOT
BRANCH   1   5
ATOM      5  C11 ZIN A   1       1.671  -4.300  -2.188  0.00  0.00     0.279 C 
ATOM      6  N5  ZIN A   1       2.078  -3.318  -1.176  0.00  0.00    -0.058 N 
ATOM      7  H6  ZIN A   1       1.491  -2.501  -1.247  0.00  0.00     0.280 HD
ATOM      8  C7  ZIN A   1       3.478  -2.934  -1.392  0.00  0.00     0.236 C 
ATOM      9  C8  ZIN A   1       3.618  -2.246  -2.752  0.00  0.00     0.028 C 
ATOM     10  C9  ZIN A   1       3.176  -3.212  -3.854  0.00  0.00     0.004 C 
ATOM     11  C10 ZIN A   1       1.739  -3.664  -3.578  0.00  0.00     0.043 C 
BRANCH   6  12
ATOM     12  C4  ZIN A   1       1.935  -3.907   0.162  0.00  0.00     0.236 C 
BRANCH  12  13
ATOM     13  C3  ZIN A   1       2.206  -2.838   1.222  0.00  0.00     0.027 C 
BRANCH  13  14
ATOM     14  C2  ZIN A   1       2.057  -3.452   2.616  0.00  0.00    -0.003 C 
ATOM     15  C1  ZIN A   1       2.329  -2.383   3.676  0.00  0.00     0.005 C 
ENDBRANCH  13  14
ENDBRANCH  12  13
ENDBRANCH   6  12
ENDBRANCH   1   5
BRANCH   3  16
ATOM     16  C16 ZIN A   1      -1.479  -6.362  -2.099  0.00  0.00     0.046 A 
ATOM     17  C22 ZIN A   1      -2.510  -5.581  -2.603  0.00  0.00    -0.035 A 
ATOM     18  C21 ZIN A   1      -3.823  -5.970  -2.418  0.00  0.00     0.009 A 
ATOM     19  C23 ZIN A   1      -2.198  -4.319  -3.365  0.00  0.00     0.050 C 
ATOM     20  C20 ZIN A   1      -4.110  -7.128  -1.719  0.00  0.00     0.001 A 
ATOM     21  C19 ZIN A   1      -3.085  -7.904  -1.210  0.00  0.00     0.009 A 
ATOM     22  C17 ZIN A   1      -1.770  -7.525  -1.398  0.00  0.00    -0.035 A 
ATOM     23  C18 ZIN A   1      -0.654  -8.371  -0.843  0.00  0.00     0.050 C 
ENDBRANCH   3  16
TORSDOF 5
