REMARK  5 active torsions:
REMARK  status: ('A' for Active; 'I' for Inactive)
REMARK    1  A    between atoms: C2_2  and  N3_3 
REMARK    2  A    between atoms: N3_3  and  C5_5 
REMARK    3  A    between atoms: N3_3  and  C7_7 
REMARK    4  A    between atoms: C7_7  and  C10_9 
REMARK    5  A    between atoms: C10_9  and  C12_11 
ROOT
ATOM      1  C7  ZIN A   1       0.669  -2.164   1.167  0.00  0.00     0.258 C 
ATOM      2  C9  ZIN A   1       1.578  -2.635   0.031  0.00  0.00     0.049 C 
ENDROOT
BRANCH   1   3
ATOM      3  N3  ZIN A   1       0.728  -0.700   1.267  0.00  0.00    -0.061 N 
ATOM      4  H4  ZIN A   1       1.674  -0.414   1.468  0.00  0.00     0.280 HD
BRANCH   3   5
ATOM      5  C2  ZIN A   1       0.297  -0.105  -0.006  0.00  0.00     0.231 C 
ATOM      6  C1  ZIN A   1       0.476   1.413   0.055  0.00  0.00     0.034 C 
ENDBRANCH   3   5
BRANCH   3   7
ATOM      7  C5  ZIN A   1      -0.161  -0.246   2.345  0.00  0.00     0.231 C 
ATOM      8  C6  ZIN A   1      -1.595  -0.688   2.044  0.00  0.00     0.034 C 
ENDBRANCH   3   7
ENDBRANCH   1   3
BRANCH   1   9
ATOM      9  C10 ZIN A   1       1.129  -2.775   2.466  0.00  0.00     0.190 C 
ATOM     10  O11 ZIN A   1       1.845  -2.142   3.213  0.00  0.00    -0.290 OA
BRANCH   9  11
ATOM     11  C12 ZIN A   1       0.711  -4.138   2.827  0.00  0.00     0.012 A 
ATOM     12  C17 ZIN A   1       1.136  -4.709   4.031  0.00  0.00     0.015 A 
ATOM     13  C16 ZIN A   1       0.735  -5.985   4.365  0.00  0.00     0.001 A 
ATOM     14  C15 ZIN A   1      -0.078  -6.705   3.507  0.00  0.00     0.000 A 
ATOM     15  C14 ZIN A   1      -0.498  -6.150   2.311  0.00  0.00     0.001 A 
ATOM     16  C13 ZIN A   1      -0.110  -4.873   1.965  0.00  0.00     0.015 A 
ENDBRANCH   9  11
ENDBRANCH   1   9
TORSDOF 5
